[H]N=C(N([H])[H])N([H])C([H])([H])C([H])([H])C([H])([H])[C@@]([H])(C(=O)c1nc([H])c([H])s1)N([H])C(=O)[C@@]1([H])N(C(=O)[C@]([H])(N([H])C(=O)OC([H])([H])c2c([H])c([H])c([H])c([H])c2[H])C([H])([H])c2c([H])c([H])c([H])c([H])c2[H])C([H])([H])C([H])([H])C1([H])[H]


 50 53  0  0  0  0  0  0  0  0999 V2000
    4.5369  -51.3190  -21.8636 C   0  0  0  0  0  0  0  0  0  0  0  0
    5.7927  -50.6871  -21.2598 C   0  0  0  0  0  0  0  0  0  0  0  0
    6.6292  -50.5034  -22.5276 C   0  0  0  0  0  0  0  0  0  0  0  0
    5.6890  -50.7546  -23.7028 C   0  0  0  0  0  0  0  0  0  0  0  0
    4.3866  -50.5139  -23.0192 N   0  0  0  0  0  0  0  0  0  0  0  0
    3.4502  -49.6344  -23.5724 C   0  0  0  0  0  0  0  0  0  0  0  0
    2.4048  -49.3680  -22.9491 O   0  0  0  0  0  0  0  0  0  0  0  0
    2.1013  -51.6929  -21.2063 N   0  0  0  0  0  0  0  0  0  0  0  0
    3.4565  -51.5401  -20.9408 C   0  0  0  0  0  0  0  0  0  0  0  0
    3.7648  -51.6000  -19.6822 O   0  0  0  0  0  0  0  0  0  0  0  0
    1.7426  -51.6882  -22.1747 H   0  0  0  0  0  0  0  0  0  0  0  0
    1.0422  -51.8720  -20.1609 C   0  0  0  0  0  0  0  0  0  0  0  0
    0.2867  -53.0582  -20.4092 C   0  0  0  0  0  0  0  0  0  0  0  0
   -0.0004  -53.7080  -19.2919 O   0  0  0  0  0  0  0  0  0  0  0  0
   -0.2410  -53.7271  -21.5764 C   0  0  0  0  0  0  0  0  0  0  0  0
   -0.9137  -54.8035  -21.8382 N   0  0  0  0  0  0  0  0  0  0  0  0
   -1.2449  -55.1607  -23.0279 C   0  0  0  0  0  0  0  0  0  0  0  0
   -0.8570  -54.3470  -24.0605 C   0  0  0  0  0  0  0  0  0  0  0  0
   -0.0354  -53.1182  -23.2078 S   0  0  0  0  0  0  0  0  0  0  0  0
    0.4937  -50.5549  -19.8487 C   0  0  0  0  0  0  0  0  0  0  0  0
    0.9179  -49.7544  -18.6990 C   0  0  0  0  0  0  0  0  0  0  0  0
    1.0835  -50.5898  -17.4206 C   0  0  0  0  0  0  0  0  0  0  0  0
   -0.1562  -50.7205  -16.7217 N   0  0  0  0  0  0  0  0  0  0  0  0
   -0.7526  -49.8816  -16.5826 H   0  0  0  0  0  0  0  0  0  0  0  0
   -0.3613  -52.3199  -14.8610 N   0  0  0  0  0  0  0  0  0  0  0  0
   -0.6088  -51.9587  -16.2068 C   0  0  0  0  0  0  0  0  0  0  0  0
   -1.2507  -52.7617  -16.9725 N   0  0  0  0  0  0  0  0  0  0  0  0
   -1.1478  -52.3801  -14.1716 H   0  0  0  0  0  0  0  0  0  0  0  0
    0.5830  -52.5409  -14.4809 H   0  0  0  0  0  0  0  0  0  0  0  0
   -1.4837  -52.5971  -17.9646 H   0  0  0  0  0  0  0  0  0  0  0  0
    3.6043  -48.9642  -24.8880 C   0  0  0  0  0  0  0  0  0  0  0  0
    3.8128  -49.9443  -25.9508 N   0  0  0  0  0  0  0  0  0  0  0  0
    2.7051  -50.7186  -26.4260 C   0  0  0  0  0  0  0  0  0  0  0  0
    1.5647  -50.4979  -25.8917 O   0  0  0  0  0  0  0  0  0  0  0  0
    4.7330  -50.1029  -26.3763 H   0  0  0  0  0  0  0  0  0  0  0  0
    2.7676  -51.6737  -27.4025 O   0  0  0  0  0  0  0  0  0  0  0  0
    2.0677  -52.8865  -27.3592 C   0  0  0  0  0  0  0  0  0  0  0  0
    0.6592  -52.8019  -27.8062 C   0  0  0  0  0  0  0  0  0  0  0  0
    0.3007  -52.9687  -29.1395 C   0  0  0  0  0  0  0  0  0  0  0  0
   -1.0259  -52.8954  -29.5551 C   0  0  0  0  0  0  0  0  0  0  0  0
   -2.0392  -52.6515  -28.6438 C   0  0  0  0  0  0  0  0  0  0  0  0
   -1.6945  -52.4864  -27.3288 C   0  0  0  0  0  0  0  0  0  0  0  0
   -0.3718  -52.5616  -26.9278 C   0  0  0  0  0  0  0  0  0  0  0  0
    4.8873  -48.1626  -24.7984 C   0  0  0  0  0  0  0  0  0  0  0  0
    4.7428  -46.9485  -23.9631 C   0  0  0  0  0  0  0  0  0  0  0  0
    3.7556  -46.0243  -24.2527 C   0  0  0  0  0  0  0  0  0  0  0  0
    3.6160  -44.8919  -23.4801 C   0  0  0  0  0  0  0  0  0  0  0  0
    4.4532  -44.6481  -22.3996 C   0  0  0  0  0  0  0  0  0  0  0  0
    5.4335  -45.5474  -22.0970 C   0  0  0  0  0  0  0  0  0  0  0  0
    5.5609  -46.6825  -22.8849 C   0  0  0  0  0  0  0  0  0  0  0  0
 25 26  1  0  0  0
 26 27  2  0  0  0
 26 23  1  0  0  0
 23 22  1  0  0  0
 22 21  1  0  0  0
 21 20  1  0  0  0
 20 12  1  0  0  0
 12  8  1  0  0  0
  8  9  1  0  0  0
  9 10  2  0  0  0
  9  1  1  0  0  0
  1  2  1  0  0  0
  2  3  1  0  0  0
  3  4  1  0  0  0
  4  5  1  0  0  0
  5  6  1  0  0  0
  6  7  2  0  0  0
  6 31  1  0  0  0
 31 44  1  0  0  0
 44 45  1  0  0  0
 45 46  2  0  0  0
 46 47  1  0  0  0
 47 48  2  0  0  0
 48 49  1  0  0  0
 49 50  2  0  0  0
 31 32  1  0  0  0
 32 33  1  0  0  0
 33 34  2  0  0  0
 33 36  1  0  0  0
 36 37  1  0  0  0
 37 38  1  0  0  0
 38 39  2  0  0  0
 39 40  1  0  0  0
 40 41  2  0  0  0
 41 42  1  0  0  0
 42 43  2  0  0  0
 12 13  1  0  0  0
 13 14  2  0  0  0
 13 15  1  0  0  0
 15 16  2  0  0  0
 16 17  1  0  0  0
 17 18  2  0  0  0
 18 19  1  0  0  0
  5  1  1  0  0  0
 50 45  1  0  0  0
 43 38  1  0  0  0
 19 15  1  0  0  0
 25 28  1  0  0  0
 25 29  1  0  0  0
 27 30  1  0  0  0
 23 24  1  0  0  0
  8 11  1  0  0  0
 32 35  1  0  0  0
M  END
> <minimizedAffinity>
-7.80689

> <CNNscore>
0.7026059628

> <CNNaffinity>
7.7715806961

> <CNN_VS>
5.4603590965

> <CNNaffinity_variance>
0.0776245445

$$$$
[H]N=C(N([H])[H])N([H])C([H])([H])C([H])([H])C([H])([H])[C@@]([H])(C(=O)c1nc([H])c([H])s1)N([H])C(=O)[C@@]1([H])N(C(=O)[C@]([H])(N([H])C(=O)OC([H])([H])c2c([H])c([H])c([H])c([H])c2[H])C([H])([H])c2c([H])c([H])c([H])c([H])c2[H])C([H])([H])C([H])([H])C1([H])[H]


 50 53  0  0  0  0  0  0  0  0999 V2000
    4.5833  -51.3335  -21.8016 C   0  0  0  0  0  0  0  0  0  0  0  0
    5.8915  -50.7409  -21.2744 C   0  0  0  0  0  0  0  0  0  0  0  0
    6.6670  -50.6084  -22.5866 C   0  0  0  0  0  0  0  0  0  0  0  0
    5.6580  -50.8414  -23.7072 C   0  0  0  0  0  0  0  0  0  0  0  0
    4.4029  -50.5410  -22.9616 N   0  0  0  0  0  0  0  0  0  0  0  0
    3.4723  -49.6349  -23.4808 C   0  0  0  0  0  0  0  0  0  0  0  0
    2.4716  -49.3194  -22.8091 O   0  0  0  0  0  0  0  0  0  0  0  0
    2.1829  -51.6905  -21.0173 N   0  0  0  0  0  0  0  0  0  0  0  0
    3.5449  -51.4992  -20.8206 C   0  0  0  0  0  0  0  0  0  0  0  0
    3.9050  -51.4594  -19.5750 O   0  0  0  0  0  0  0  0  0  0  0  0
    1.7853  -51.7641  -21.9675 H   0  0  0  0  0  0  0  0  0  0  0  0
    1.1702  -51.8047  -19.9182 C   0  0  0  0  0  0  0  0  0  0  0  0
    0.2697  -52.8831  -20.1749 C   0  0  0  0  0  0  0  0  0  0  0  0
   -0.2324  -53.3881  -19.0588 O   0  0  0  0  0  0  0  0  0  0  0  0
   -0.2287  -53.5615  -21.3494 C   0  0  0  0  0  0  0  0  0  0  0  0
   -0.9439  -54.6090  -21.6163 N   0  0  0  0  0  0  0  0  0  0  0  0
   -1.2280  -54.9875  -22.8115 C   0  0  0  0  0  0  0  0  0  0  0  0
   -0.7398  -54.2304  -23.8446 C   0  0  0  0  0  0  0  0  0  0  0  0
    0.0995  -53.0191  -22.9842 S   0  0  0  0  0  0  0  0  0  0  0  0
    0.7963  -50.4528  -19.5114 C   0  0  0  0  0  0  0  0  0  0  0  0
    0.9421  -49.9506  -18.1442 C   0  0  0  0  0  0  0  0  0  0  0  0
    1.7357  -48.6373  -18.0740 C   0  0  0  0  0  0  0  0  0  0  0  0
    3.0839  -48.8215  -18.5105 N   0  0  0  0  0  0  0  0  0  0  0  0
    3.5930  -49.6851  -18.2387 H   0  0  0  0  0  0  0  0  0  0  0  0
    4.7081  -46.9845  -18.7338 N   0  0  0  0  0  0  0  0  0  0  0  0
    3.7602  -47.8659  -19.3060 C   0  0  0  0  0  0  0  0  0  0  0  0
    3.5078  -47.8003  -20.5610 N   0  0  0  0  0  0  0  0  0  0  0  0
    5.7263  -47.0740  -18.9633 H   0  0  0  0  0  0  0  0  0  0  0  0
    4.4658  -46.2178  -18.0715 H   0  0  0  0  0  0  0  0  0  0  0  0
    2.8380  -48.3929  -21.0765 H   0  0  0  0  0  0  0  0  0  0  0  0
    3.5825  -48.9912  -24.8139 C   0  0  0  0  0  0  0  0  0  0  0  0
    3.7630  -49.9919  -25.8624 N   0  0  0  0  0  0  0  0  0  0  0  0
    2.6336  -50.7405  -26.3277 C   0  0  0  0  0  0  0  0  0  0  0  0
    1.4998  -50.4792  -25.7978 O   0  0  0  0  0  0  0  0  0  0  0  0
    4.6785  -50.1832  -26.2847 H   0  0  0  0  0  0  0  0  0  0  0  0
    2.6689  -51.7108  -27.2904 O   0  0  0  0  0  0  0  0  0  0  0  0
    1.9448  -52.9082  -27.2240 C   0  0  0  0  0  0  0  0  0  0  0  0
    0.5473  -52.8110  -27.7021 C   0  0  0  0  0  0  0  0  0  0  0  0
    0.2191  -52.9566  -29.0456 C   0  0  0  0  0  0  0  0  0  0  0  0
   -1.0971  -52.8715  -29.4907 C   0  0  0  0  0  0  0  0  0  0  0  0
   -2.1303  -52.6367  -28.5996 C   0  0  0  0  0  0  0  0  0  0  0  0
   -1.8156  -52.4924  -27.2746 C   0  0  0  0  0  0  0  0  0  0  0  0
   -0.5028  -52.5792  -26.8443 C   0  0  0  0  0  0  0  0  0  0  0  0
    4.8636  -48.1823  -24.7803 C   0  0  0  0  0  0  0  0  0  0  0  0
    4.7155  -46.9125  -24.0330 C   0  0  0  0  0  0  0  0  0  0  0  0
    5.7622  -46.4376  -23.2638 C   0  0  0  0  0  0  0  0  0  0  0  0
    5.6309  -45.2572  -22.5652 C   0  0  0  0  0  0  0  0  0  0  0  0
    4.4568  -44.5177  -22.6125 C   0  0  0  0  0  0  0  0  0  0  0  0
    3.4122  -44.9687  -23.3655 C   0  0  0  0  0  0  0  0  0  0  0  0
    3.5605  -46.1592  -24.0628 C   0  0  0  0  0  0  0  0  0  0  0  0
 25 26  1  0  0  0
 26 27  2  0  0  0
 26 23  1  0  0  0
 23 22  1  0  0  0
 22 21  1  0  0  0
 21 20  1  0  0  0
 20 12  1  0  0  0
 12  8  1  0  0  0
  8  9  1  0  0  0
  9 10  2  0  0  0
  9  1  1  0  0  0
  1  2  1  0  0  0
  2  3  1  0  0  0
  3  4  1  0  0  0
  4  5  1  0  0  0
  5  6  1  0  0  0
  6  7  2  0  0  0
  6 31  1  0  0  0
 31 44  1  0  0  0
 44 45  1  0  0  0
 45 46  2  0  0  0
 46 47  1  0  0  0
 47 48  2  0  0  0
 48 49  1  0  0  0
 49 50  2  0  0  0
 31 32  1  0  0  0
 32 33  1  0  0  0
 33 34  2  0  0  0
 33 36  1  0  0  0
 36 37  1  0  0  0
 37 38  1  0  0  0
 38 39  2  0  0  0
 39 40  1  0  0  0
 40 41  2  0  0  0
 41 42  1  0  0  0
 42 43  2  0  0  0
 12 13  1  0  0  0
 13 14  2  0  0  0
 13 15  1  0  0  0
 15 16  2  0  0  0
 16 17  1  0  0  0
 17 18  2  0  0  0
 18 19  1  0  0  0
  5  1  1  0  0  0
 50 45  1  0  0  0
 43 38  1  0  0  0
 19 15  1  0  0  0
 25 28  1  0  0  0
 25 29  1  0  0  0
 27 30  1  0  0  0
 23 24  1  0  0  0
  8 11  1  0  0  0
 32 35  1  0  0  0
M  END
> <minimizedAffinity>
-7.11231

> <CNNscore>
0.4850575924

> <CNNaffinity>
7.4389801025

> <CNN_VS>
3.6083338261

> <CNNaffinity_variance>
0.1996309161

$$$$
[H]N=C(N([H])[H])N([H])C([H])([H])C([H])([H])C([H])([H])[C@@]([H])(C(=O)c1nc([H])c([H])s1)N([H])C(=O)[C@@]1([H])N(C(=O)[C@]([H])(N([H])C(=O)OC([H])([H])c2c([H])c([H])c([H])c([H])c2[H])C([H])([H])c2c([H])c([H])c([H])c([H])c2[H])C([H])([H])C([H])([H])C1([H])[H]


 50 53  0  0  0  0  0  0  0  0999 V2000
    0.2511  -52.4111  -21.0173 C   0  0  0  0  0  0  0  0  0  0  0  0
    0.3828  -53.9110  -20.7465 C   0  0  0  0  0  0  0  0  0  0  0  0
   -0.4999  -54.4588  -21.8696 C   0  0  0  0  0  0  0  0  0  0  0  0
   -0.7824  -53.2865  -22.8045 C   0  0  0  0  0  0  0  0  0  0  0  0
    0.3592  -52.4047  -22.4296 N   0  0  0  0  0  0  0  0  0  0  0  0
    1.1956  -51.8735  -23.4169 C   0  0  0  0  0  0  0  0  0  0  0  0
    2.2009  -51.2142  -23.0901 O   0  0  0  0  0  0  0  0  0  0  0  0
    0.8363  -50.2476  -19.8002 N   0  0  0  0  0  0  0  0  0  0  0  0
    1.0617  -51.5634  -20.1853 C   0  0  0  0  0  0  0  0  0  0  0  0
    2.1632  -52.0732  -19.7276 O   0  0  0  0  0  0  0  0  0  0  0  0
   -0.0213  -49.7472  -20.0842 H   0  0  0  0  0  0  0  0  0  0  0  0
    1.7744  -49.4310  -18.9637 C   0  0  0  0  0  0  0  0  0  0  0  0
    1.2767  -49.3019  -17.6314 C   0  0  0  0  0  0  0  0  0  0  0  0
    2.0147  -48.4793  -16.9024 O   0  0  0  0  0  0  0  0  0  0  0  0
    0.1692  -49.8470  -16.8800 C   0  0  0  0  0  0  0  0  0  0  0  0
   -0.4800  -50.9667  -16.8116 N   0  0  0  0  0  0  0  0  0  0  0  0
   -1.4721  -51.1635  -16.0183 C   0  0  0  0  0  0  0  0  0  0  0  0
   -1.8482  -50.1223  -15.2100 C   0  0  0  0  0  0  0  0  0  0  0  0
   -0.7169  -48.9323  -15.6747 S   0  0  0  0  0  0  0  0  0  0  0  0
    2.2889  -48.3471  -19.7964 C   0  0  0  0  0  0  0  0  0  0  0  0
    2.7017  -48.5241  -21.1896 C   0  0  0  0  0  0  0  0  0  0  0  0
    4.1834  -48.9053  -21.3274 C   0  0  0  0  0  0  0  0  0  0  0  0
    4.3878  -50.2960  -21.0692 N   0  0  0  0  0  0  0  0  0  0  0  0
    3.7548  -50.7893  -20.4098 H   0  0  0  0  0  0  0  0  0  0  0  0
    5.1373  -52.0779  -22.5941 N   0  0  0  0  0  0  0  0  0  0  0  0
    5.4274  -51.0356  -21.6818 C   0  0  0  0  0  0  0  0  0  0  0  0
    6.6470  -50.7554  -21.4038 N   0  0  0  0  0  0  0  0  0  0  0  0
    5.3663  -51.9757  -23.6112 H   0  0  0  0  0  0  0  0  0  0  0  0
    4.6933  -52.9811  -22.3253 H   0  0  0  0  0  0  0  0  0  0  0  0
    6.9673  -50.0186  -20.7557 H   0  0  0  0  0  0  0  0  0  0  0  0
    0.9795  -52.0379  -24.8764 C   0  0  0  0  0  0  0  0  0  0  0  0
    1.4784  -50.8781  -25.6109 N   0  0  0  0  0  0  0  0  0  0  0  0
    2.6739  -50.9960  -26.3915 C   0  0  0  0  0  0  0  0  0  0  0  0
    3.2474  -52.1384  -26.4147 O   0  0  0  0  0  0  0  0  0  0  0  0
    1.0009  -49.9700  -25.5897 H   0  0  0  0  0  0  0  0  0  0  0  0
    3.2514  -49.9878  -27.1124 O   0  0  0  0  0  0  0  0  0  0  0  0
    4.1499  -49.0558  -26.5768 C   0  0  0  0  0  0  0  0  0  0  0  0
    3.5288  -47.7916  -26.1219 C   0  0  0  0  0  0  0  0  0  0  0  0
    2.8928  -46.9265  -27.0056 C   0  0  0  0  0  0  0  0  0  0  0  0
    2.3037  -45.7416  -26.5731 C   0  0  0  0  0  0  0  0  0  0  0  0
    2.3337  -45.3850  -25.2357 C   0  0  0  0  0  0  0  0  0  0  0  0
    2.9579  -46.2317  -24.3589 C   0  0  0  0  0  0  0  0  0  0  0  0
    3.5401  -47.4071  -24.8012 C   0  0  0  0  0  0  0  0  0  0  0  0
   -0.5228  -52.0468  -25.0758 C   0  0  0  0  0  0  0  0  0  0  0  0
   -0.9101  -52.3647  -26.4692 C   0  0  0  0  0  0  0  0  0  0  0  0
   -2.1895  -52.0825  -26.9121 C   0  0  0  0  0  0  0  0  0  0  0  0
   -2.5568  -52.3765  -28.2072 C   0  0  0  0  0  0  0  0  0  0  0  0
   -1.6629  -52.9583  -29.0961 C   0  0  0  0  0  0  0  0  0  0  0  0
   -0.3959  -53.2447  -28.6791 C   0  0  0  0  0  0  0  0  0  0  0  0
   -0.0419  -52.9426  -27.3719 C   0  0  0  0  0  0  0  0  0  0  0  0
 25 26  1  0  0  0
 26 27  2  0  0  0
 26 23  1  0  0  0
 23 22  1  0  0  0
 22 21  1  0  0  0
 21 20  1  0  0  0
 20 12  1  0  0  0
 12  8  1  0  0  0
  8  9  1  0  0  0
  9 10  2  0  0  0
  9  1  1  0  0  0
  1  2  1  0  0  0
  2  3  1  0  0  0
  3  4  1  0  0  0
  4  5  1  0  0  0
  5  6  1  0  0  0
  6  7  2  0  0  0
  6 31  1  0  0  0
 31 44  1  0  0  0
 44 45  1  0  0  0
 45 46  2  0  0  0
 46 47  1  0  0  0
 47 48  2  0  0  0
 48 49  1  0  0  0
 49 50  2  0  0  0
 31 32  1  0  0  0
 32 33  1  0  0  0
 33 34  2  0  0  0
 33 36  1  0  0  0
 36 37  1  0  0  0
 37 38  1  0  0  0
 38 39  2  0  0  0
 39 40  1  0  0  0
 40 41  2  0  0  0
 41 42  1  0  0  0
 42 43  2  0  0  0
 12 13  1  0  0  0
 13 14  2  0  0  0
 13 15  1  0  0  0
 15 16  2  0  0  0
 16 17  1  0  0  0
 17 18  2  0  0  0
 18 19  1  0  0  0
  5  1  1  0  0  0
 50 45  1  0  0  0
 43 38  1  0  0  0
 19 15  1  0  0  0
 25 28  1  0  0  0
 25 29  1  0  0  0
 27 30  1  0  0  0
 23 24  1  0  0  0
  8 11  1  0  0  0
 32 35  1  0  0  0
M  END
> <minimizedAffinity>
-7.97584

> <CNNscore>
0.3066978753

> <CNNaffinity>
7.0414953232

> <CNN_VS>
2.1596117020

> <CNNaffinity_variance>
0.4651104808

$$$$
[H]N=C(N([H])[H])N([H])C([H])([H])C([H])([H])C([H])([H])[C@@]([H])(C(=O)c1nc([H])c([H])s1)N([H])C(=O)[C@@]1([H])N(C(=O)[C@]([H])(N([H])C(=O)OC([H])([H])c2c([H])c([H])c([H])c([H])c2[H])C([H])([H])c2c([H])c([H])c([H])c([H])c2[H])C([H])([H])C([H])([H])C1([H])[H]


 50 53  0  0  0  0  0  0  0  0999 V2000
    4.9213  -51.0454  -21.8145 C   0  0  0  0  0  0  0  0  0  0  0  0
    6.2970  -50.5718  -21.3412 C   0  0  0  0  0  0  0  0  0  0  0  0
    7.0939  -50.7461  -22.6355 C   0  0  0  0  0  0  0  0  0  0  0  0
    6.0709  -50.9978  -23.7392 C   0  0  0  0  0  0  0  0  0  0  0  0
    4.8661  -50.4160  -23.0822 N   0  0  0  0  0  0  0  0  0  0  0  0
    4.0798  -49.4747  -23.7545 C   0  0  0  0  0  0  0  0  0  0  0  0
    3.1296  -48.9250  -23.1653 O   0  0  0  0  0  0  0  0  0  0  0  0
    2.5066  -50.7030  -21.0687 N   0  0  0  0  0  0  0  0  0  0  0  0
    3.8621  -50.9157  -20.8505 C   0  0  0  0  0  0  0  0  0  0  0  0
    4.1962  -50.9962  -19.5996 O   0  0  0  0  0  0  0  0  0  0  0  0
    2.1216  -50.6474  -22.0253 H   0  0  0  0  0  0  0  0  0  0  0  0
    1.4847  -50.5328  -19.9854 C   0  0  0  0  0  0  0  0  0  0  0  0
    0.5511  -51.6134  -20.0012 C   0  0  0  0  0  0  0  0  0  0  0  0
   -0.0645  -51.7558  -18.8378 O   0  0  0  0  0  0  0  0  0  0  0  0
    0.1122  -52.5914  -20.9703 C   0  0  0  0  0  0  0  0  0  0  0  0
    0.4414  -52.9653  -22.1668 N   0  0  0  0  0  0  0  0  0  0  0  0
   -0.1645  -53.8992  -22.8095 C   0  0  0  0  0  0  0  0  0  0  0  0
   -1.2114  -54.5203  -22.1794 C   0  0  0  0  0  0  0  0  0  0  0  0
   -1.2278  -53.6872  -20.6902 S   0  0  0  0  0  0  0  0  0  0  0  0
    1.1526  -49.1130  -19.9020 C   0  0  0  0  0  0  0  0  0  0  0  0
    2.1432  -48.0425  -20.0264 C   0  0  0  0  0  0  0  0  0  0  0  0
    3.0421  -47.9165  -18.7872 C   0  0  0  0  0  0  0  0  0  0  0  0
    2.2707  -47.9150  -17.5843 N   0  0  0  0  0  0  0  0  0  0  0  0
    1.4462  -47.2877  -17.5095 H   0  0  0  0  0  0  0  0  0  0  0  0
    3.9329  -48.9754  -16.1096 N   0  0  0  0  0  0  0  0  0  0  0  0
    2.5872  -48.7420  -16.4801 C   0  0  0  0  0  0  0  0  0  0  0  0
    1.6398  -49.2857  -15.8093 N   0  0  0  0  0  0  0  0  0  0  0  0
    4.3155  -48.5855  -15.2157 H   0  0  0  0  0  0  0  0  0  0  0  0
    4.6069  -49.5290  -16.6794 H   0  0  0  0  0  0  0  0  0  0  0  0
    0.6294  -49.1817  -15.9934 H   0  0  0  0  0  0  0  0  0  0  0  0
    4.2922  -49.0576  -25.1633 C   0  0  0  0  0  0  0  0  0  0  0  0
    4.2504  -50.2100  -26.0598 N   0  0  0  0  0  0  0  0  0  0  0  0
    3.0052  -50.6024  -26.6497 C   0  0  0  0  0  0  0  0  0  0  0  0
    1.9754  -49.9006  -26.3640 O   0  0  0  0  0  0  0  0  0  0  0  0
    5.0881  -50.7574  -26.2869 H   0  0  0  0  0  0  0  0  0  0  0  0
    2.8280  -51.6650  -27.4918 O   0  0  0  0  0  0  0  0  0  0  0  0
    2.0725  -52.8009  -27.1730 C   0  0  0  0  0  0  0  0  0  0  0  0
    0.6525  -52.7326  -27.5851 C   0  0  0  0  0  0  0  0  0  0  0  0
   -0.3609  -52.4329  -26.6811 C   0  0  0  0  0  0  0  0  0  0  0  0
   -1.6946  -52.3627  -27.0738 C   0  0  0  0  0  0  0  0  0  0  0  0
   -2.0563  -52.5918  -28.3904 C   0  0  0  0  0  0  0  0  0  0  0  0
   -1.0642  -52.8872  -29.2871 C   0  0  0  0  0  0  0  0  0  0  0  0
    0.2584  -52.9541  -28.8844 C   0  0  0  0  0  0  0  0  0  0  0  0
    5.7093  -48.5248  -25.2301 C   0  0  0  0  0  0  0  0  0  0  0  0
    5.7600  -47.0820  -25.5595 C   0  0  0  0  0  0  0  0  0  0  0  0
    6.8744  -46.3354  -25.2230 C   0  0  0  0  0  0  0  0  0  0  0  0
    6.9278  -44.9922  -25.5257 C   0  0  0  0  0  0  0  0  0  0  0  0
    5.8759  -44.3557  -26.1706 C   0  0  0  0  0  0  0  0  0  0  0  0
    4.7673  -45.0742  -26.5112 C   0  0  0  0  0  0  0  0  0  0  0  0
    4.7291  -46.4258  -26.1991 C   0  0  0  0  0  0  0  0  0  0  0  0
 25 26  1  0  0  0
 26 27  2  0  0  0
 26 23  1  0  0  0
 23 22  1  0  0  0
 22 21  1  0  0  0
 21 20  1  0  0  0
 20 12  1  0  0  0
 12  8  1  0  0  0
  8  9  1  0  0  0
  9 10  2  0  0  0
  9  1  1  0  0  0
  1  2  1  0  0  0
  2  3  1  0  0  0
  3  4  1  0  0  0
  4  5  1  0  0  0
  5  6  1  0  0  0
  6  7  2  0  0  0
  6 31  1  0  0  0
 31 44  1  0  0  0
 44 45  1  0  0  0
 45 46  2  0  0  0
 46 47  1  0  0  0
 47 48  2  0  0  0
 48 49  1  0  0  0
 49 50  2  0  0  0
 31 32  1  0  0  0
 32 33  1  0  0  0
 33 34  2  0  0  0
 33 36  1  0  0  0
 36 37  1  0  0  0
 37 38  1  0  0  0
 38 39  2  0  0  0
 39 40  1  0  0  0
 40 41  2  0  0  0
 41 42  1  0  0  0
 42 43  2  0  0  0
 12 13  1  0  0  0
 13 14  2  0  0  0
 13 15  1  0  0  0
 15 16  2  0  0  0
 16 17  1  0  0  0
 17 18  2  0  0  0
 18 19  1  0  0  0
  5  1  1  0  0  0
 50 45  1  0  0  0
 43 38  1  0  0  0
 19 15  1  0  0  0
 25 28  1  0  0  0
 25 29  1  0  0  0
 27 30  1  0  0  0
 23 24  1  0  0  0
  8 11  1  0  0  0
 32 35  1  0  0  0
M  END
> <minimizedAffinity>
-6.85152

> <CNNscore>
0.2808485627

> <CNNaffinity>
7.1991615295

> <CNN_VS>
2.0218741894

> <CNNaffinity_variance>
0.1440596282

$$$$
[H]N=C(N([H])[H])N([H])C([H])([H])C([H])([H])C([H])([H])[C@@]([H])(C(=O)c1nc([H])c([H])s1)N([H])C(=O)[C@@]1([H])N(C(=O)[C@]([H])(N([H])C(=O)OC([H])([H])c2c([H])c([H])c([H])c([H])c2[H])C([H])([H])c2c([H])c([H])c([H])c([H])c2[H])C([H])([H])C([H])([H])C1([H])[H]


 50 53  0  0  0  0  0  0  0  0999 V2000
    0.7289  -52.3559  -21.9190 C   0  0  0  0  0  0  0  0  0  0  0  0
   -0.6344  -52.7699  -21.3617 C   0  0  0  0  0  0  0  0  0  0  0  0
   -0.2561  -53.0171  -19.9001 C   0  0  0  0  0  0  0  0  0  0  0  0
    1.1491  -52.4510  -19.7183 C   0  0  0  0  0  0  0  0  0  0  0  0
    1.1764  -51.5106  -20.8744 N   0  0  0  0  0  0  0  0  0  0  0  0
    1.5461  -50.1743  -20.6895 C   0  0  0  0  0  0  0  0  0  0  0  0
    1.4772  -49.3737  -21.6415 O   0  0  0  0  0  0  0  0  0  0  0  0
    1.7906  -51.4862  -24.0686 N   0  0  0  0  0  0  0  0  0  0  0  0
    0.7282  -51.9359  -23.2943 C   0  0  0  0  0  0  0  0  0  0  0  0
   -0.4109  -51.9641  -23.9142 O   0  0  0  0  0  0  0  0  0  0  0  0
    2.7497  -51.4455  -23.6879 H   0  0  0  0  0  0  0  0  0  0  0  0
    1.6745  -51.0229  -25.4893 C   0  0  0  0  0  0  0  0  0  0  0  0
    1.5145  -52.1362  -26.3694 C   0  0  0  0  0  0  0  0  0  0  0  0
    2.3583  -53.1171  -26.0890 O   0  0  0  0  0  0  0  0  0  0  0  0
    0.6621  -52.4582  -27.4910 C   0  0  0  0  0  0  0  0  0  0  0  0
    0.7972  -52.6808  -28.7607 N   0  0  0  0  0  0  0  0  0  0  0  0
   -0.1883  -52.9447  -29.5428 C   0  0  0  0  0  0  0  0  0  0  0  0
   -1.4400  -52.9887  -28.9858 C   0  0  0  0  0  0  0  0  0  0  0  0
   -1.0767  -52.6396  -27.3554 S   0  0  0  0  0  0  0  0  0  0  0  0
    2.6009  -49.9091  -25.6743 C   0  0  0  0  0  0  0  0  0  0  0  0
    3.2575  -49.2114  -24.5675 C   0  0  0  0  0  0  0  0  0  0  0  0
    4.7836  -49.3854  -24.5761 C   0  0  0  0  0  0  0  0  0  0  0  0
    5.1579  -50.6600  -25.1029 N   0  0  0  0  0  0  0  0  0  0  0  0
    5.1920  -50.7948  -26.1323 H   0  0  0  0  0  0  0  0  0  0  0  0
    6.8060  -51.9305  -23.7869 N   0  0  0  0  0  0  0  0  0  0  0  0
    5.4876  -51.7567  -24.2711 C   0  0  0  0  0  0  0  0  0  0  0  0
    4.5777  -52.6021  -23.9546 N   0  0  0  0  0  0  0  0  0  0  0  0
    7.0206  -51.8100  -22.7687 H   0  0  0  0  0  0  0  0  0  0  0  0
    7.6196  -52.1798  -24.3878 H   0  0  0  0  0  0  0  0  0  0  0  0
    3.5896  -52.5692  -24.2517 H   0  0  0  0  0  0  0  0  0  0  0  0
    2.0291  -49.6079  -19.4051 C   0  0  0  0  0  0  0  0  0  0  0  0
    0.9098  -49.1691  -18.5755 N   0  0  0  0  0  0  0  0  0  0  0  0
    0.8716  -49.5319  -17.1901 C   0  0  0  0  0  0  0  0  0  0  0  0
    1.8465  -50.2256  -16.7396 O   0  0  0  0  0  0  0  0  0  0  0  0
    0.1394  -48.6043  -18.9500 H   0  0  0  0  0  0  0  0  0  0  0  0
   -0.1213  -49.1979  -16.3113 O   0  0  0  0  0  0  0  0  0  0  0  0
   -0.5867  -50.0432  -15.2956 C   0  0  0  0  0  0  0  0  0  0  0  0
   -1.8884  -50.6884  -15.5784 C   0  0  0  0  0  0  0  0  0  0  0  0
   -1.9767  -51.8915  -16.2702 C   0  0  0  0  0  0  0  0  0  0  0  0
   -3.2024  -52.4990  -16.5283 C   0  0  0  0  0  0  0  0  0  0  0  0
   -4.3832  -51.9172  -16.0995 C   0  0  0  0  0  0  0  0  0  0  0  0
   -4.3050  -50.7325  -15.4172 C   0  0  0  0  0  0  0  0  0  0  0  0
   -3.0802  -50.1382  -15.1667 C   0  0  0  0  0  0  0  0  0  0  0  0
    2.8000  -48.3545  -19.7673 C   0  0  0  0  0  0  0  0  0  0  0  0
    4.2603  -48.5872  -19.8458 C   0  0  0  0  0  0  0  0  0  0  0  0
    5.1123  -47.9293  -18.9775 C   0  0  0  0  0  0  0  0  0  0  0  0
    6.4722  -48.1405  -19.0456 C   0  0  0  0  0  0  0  0  0  0  0  0
    7.0213  -49.0107  -19.9779 C   0  0  0  0  0  0  0  0  0  0  0  0
    6.1981  -49.6696  -20.8437 C   0  0  0  0  0  0  0  0  0  0  0  0
    4.8311  -49.4457  -20.7621 C   0  0  0  0  0  0  0  0  0  0  0  0
 25 26  1  0  0  0
 26 27  2  0  0  0
 26 23  1  0  0  0
 23 22  1  0  0  0
 22 21  1  0  0  0
 21 20  1  0  0  0
 20 12  1  0  0  0
 12  8  1  0  0  0
  8  9  1  0  0  0
  9 10  2  0  0  0
  9  1  1  0  0  0
  1  2  1  0  0  0
  2  3  1  0  0  0
  3  4  1  0  0  0
  4  5  1  0  0  0
  5  6  1  0  0  0
  6  7  2  0  0  0
  6 31  1  0  0  0
 31 44  1  0  0  0
 44 45  1  0  0  0
 45 46  2  0  0  0
 46 47  1  0  0  0
 47 48  2  0  0  0
 48 49  1  0  0  0
 49 50  2  0  0  0
 31 32  1  0  0  0
 32 33  1  0  0  0
 33 34  2  0  0  0
 33 36  1  0  0  0
 36 37  1  0  0  0
 37 38  1  0  0  0
 38 39  2  0  0  0
 39 40  1  0  0  0
 40 41  2  0  0  0
 41 42  1  0  0  0
 42 43  2  0  0  0
 12 13  1  0  0  0
 13 14  2  0  0  0
 13 15  1  0  0  0
 15 16  2  0  0  0
 16 17  1  0  0  0
 17 18  2  0  0  0
 18 19  1  0  0  0
  5  1  1  0  0  0
 50 45  1  0  0  0
 43 38  1  0  0  0
 19 15  1  0  0  0
 25 28  1  0  0  0
 25 29  1  0  0  0
 27 30  1  0  0  0
 23 24  1  0  0  0
  8 11  1  0  0  0
 32 35  1  0  0  0
M  END
> <minimizedAffinity>
-7.62879

> <CNNscore>
0.2652960122

> <CNNaffinity>
6.8584451675

> <CNN_VS>
1.8195182085

> <CNNaffinity_variance>
0.5426432490

$$$$
[H]N=C(N([H])[H])N([H])C([H])([H])C([H])([H])C([H])([H])[C@@]([H])(C(=O)c1nc([H])c([H])s1)N([H])C(=O)[C@@]1([H])N(C(=O)[C@]([H])(N([H])C(=O)OC([H])([H])c2c([H])c([H])c([H])c([H])c2[H])C([H])([H])c2c([H])c([H])c([H])c([H])c2[H])C([H])([H])C([H])([H])C1([H])[H]


 50 53  0  0  0  0  0  0  0  0999 V2000
    0.6576  -52.9932  -22.1045 C   0  0  0  0  0  0  0  0  0  0  0  0
   -0.8693  -53.0698  -22.0459 C   0  0  0  0  0  0  0  0  0  0  0  0
   -1.0474  -53.6993  -20.6629 C   0  0  0  0  0  0  0  0  0  0  0  0
    0.3173  -53.6369  -19.9835 C   0  0  0  0  0  0  0  0  0  0  0  0
    0.9330  -52.5447  -20.7895 N   0  0  0  0  0  0  0  0  0  0  0  0
    1.5272  -51.4482  -20.1563 C   0  0  0  0  0  0  0  0  0  0  0  0
    1.9565  -50.4964  -20.8360 O   0  0  0  0  0  0  0  0  0  0  0  0
    2.1931  -52.7691  -24.1285 N   0  0  0  0  0  0  0  0  0  0  0  0
    1.1954  -52.3351  -23.2644 C   0  0  0  0  0  0  0  0  0  0  0  0
    0.7025  -51.1716  -23.5582 O   0  0  0  0  0  0  0  0  0  0  0  0
    2.6405  -53.6920  -24.0074 H   0  0  0  0  0  0  0  0  0  0  0  0
    2.7188  -51.9801  -25.2893 C   0  0  0  0  0  0  0  0  0  0  0  0
    2.3824  -52.6165  -26.5228 C   0  0  0  0  0  0  0  0  0  0  0  0
    3.3845  -53.3385  -26.9994 O   0  0  0  0  0  0  0  0  0  0  0  0
    1.2211  -52.6672  -27.3814 C   0  0  0  0  0  0  0  0  0  0  0  0
    0.9701  -52.8566  -28.6388 N   0  0  0  0  0  0  0  0  0  0  0  0
   -0.2150  -52.8344  -29.1362 C   0  0  0  0  0  0  0  0  0  0  0  0
   -1.2548  -52.5962  -28.2754 C   0  0  0  0  0  0  0  0  0  0  0  0
   -0.4150  -52.4232  -26.8000 S   0  0  0  0  0  0  0  0  0  0  0  0
    4.0344  -51.4639  -24.9209 C   0  0  0  0  0  0  0  0  0  0  0  0
    5.0387  -52.2495  -24.2020 C   0  0  0  0  0  0  0  0  0  0  0  0
    6.2277  -51.4019  -23.7250 C   0  0  0  0  0  0  0  0  0  0  0  0
    6.2476  -51.2908  -22.3003 N   0  0  0  0  0  0  0  0  0  0  0  0
    6.5367  -52.1096  -21.7303 H   0  0  0  0  0  0  0  0  0  0  0  0
    6.8576  -49.3240  -20.9507 N   0  0  0  0  0  0  0  0  0  0  0  0
    5.8863  -50.0989  -21.6281 C   0  0  0  0  0  0  0  0  0  0  0  0
    4.6619  -49.7194  -21.6344 N   0  0  0  0  0  0  0  0  0  0  0  0
    7.1317  -48.3790  -21.3103 H   0  0  0  0  0  0  0  0  0  0  0  0
    7.3461  -49.6300  -20.0830 H   0  0  0  0  0  0  0  0  0  0  0  0
    3.8781  -50.2079  -22.0956 H   0  0  0  0  0  0  0  0  0  0  0  0
    1.6931  -51.3169  -18.6869 C   0  0  0  0  0  0  0  0  0  0  0  0
    0.5983  -50.5439  -18.1060 N   0  0  0  0  0  0  0  0  0  0  0  0
   -0.2424  -51.1440  -17.1133 C   0  0  0  0  0  0  0  0  0  0  0  0
    0.0229  -52.3471  -16.7714 O   0  0  0  0  0  0  0  0  0  0  0  0
    0.4043  -49.5754  -18.3843 H   0  0  0  0  0  0  0  0  0  0  0  0
   -1.3043  -50.5364  -16.5027 O   0  0  0  0  0  0  0  0  0  0  0  0
   -1.7078  -50.7991  -15.1870 C   0  0  0  0  0  0  0  0  0  0  0  0
   -2.8828  -51.6914  -15.0689 C   0  0  0  0  0  0  0  0  0  0  0  0
   -3.5073  -52.2349  -16.1863 C   0  0  0  0  0  0  0  0  0  0  0  0
   -4.6079  -53.0794  -16.0710 C   0  0  0  0  0  0  0  0  0  0  0  0
   -5.1196  -53.4071  -14.8270 C   0  0  0  0  0  0  0  0  0  0  0  0
   -4.5101  -52.8763  -13.7216 C   0  0  0  0  0  0  0  0  0  0  0  0
   -3.4163  -52.0377  -13.8491 C   0  0  0  0  0  0  0  0  0  0  0  0
    2.9462  -50.4897  -18.4822 C   0  0  0  0  0  0  0  0  0  0  0  0
    3.2141  -50.2064  -17.0537 C   0  0  0  0  0  0  0  0  0  0  0  0
    3.1918  -48.9030  -16.5919 C   0  0  0  0  0  0  0  0  0  0  0  0
    3.4412  -48.6323  -15.2641 C   0  0  0  0  0  0  0  0  0  0  0  0
    3.7189  -49.6490  -14.3603 C   0  0  0  0  0  0  0  0  0  0  0  0
    3.7457  -50.9417  -14.7956 C   0  0  0  0  0  0  0  0  0  0  0  0
    3.4927  -51.1975  -16.1357 C   0  0  0  0  0  0  0  0  0  0  0  0
 25 26  1  0  0  0
 26 27  2  0  0  0
 26 23  1  0  0  0
 23 22  1  0  0  0
 22 21  1  0  0  0
 21 20  1  0  0  0
 20 12  1  0  0  0
 12  8  1  0  0  0
  8  9  1  0  0  0
  9 10  2  0  0  0
  9  1  1  0  0  0
  1  2  1  0  0  0
  2  3  1  0  0  0
  3  4  1  0  0  0
  4  5  1  0  0  0
  5  6  1  0  0  0
  6  7  2  0  0  0
  6 31  1  0  0  0
 31 44  1  0  0  0
 44 45  1  0  0  0
 45 46  2  0  0  0
 46 47  1  0  0  0
 47 48  2  0  0  0
 48 49  1  0  0  0
 49 50  2  0  0  0
 31 32  1  0  0  0
 32 33  1  0  0  0
 33 34  2  0  0  0
 33 36  1  0  0  0
 36 37  1  0  0  0
 37 38  1  0  0  0
 38 39  2  0  0  0
 39 40  1  0  0  0
 40 41  2  0  0  0
 41 42  1  0  0  0
 42 43  2  0  0  0
 12 13  1  0  0  0
 13 14  2  0  0  0
 13 15  1  0  0  0
 15 16  2  0  0  0
 16 17  1  0  0  0
 17 18  2  0  0  0
 18 19  1  0  0  0
  5  1  1  0  0  0
 50 45  1  0  0  0
 43 38  1  0  0  0
 19 15  1  0  0  0
 25 28  1  0  0  0
 25 29  1  0  0  0
 27 30  1  0  0  0
 23 24  1  0  0  0
  8 11  1  0  0  0
 32 35  1  0  0  0
M  END
> <minimizedAffinity>
-7.72802

> <CNNscore>
0.2237071991

> <CNNaffinity>
6.9228715897

> <CNN_VS>
1.5486961603

> <CNNaffinity_variance>
0.2582024634

$$$$
[H]N=C(N([H])[H])N([H])C([H])([H])C([H])([H])C([H])([H])[C@@]([H])(C(=O)c1nc([H])c([H])s1)N([H])C(=O)[C@@]1([H])N(C(=O)[C@]([H])(N([H])C(=O)OC([H])([H])c2c([H])c([H])c([H])c([H])c2[H])C([H])([H])c2c([H])c([H])c([H])c([H])c2[H])C([H])([H])C([H])([H])C1([H])[H]


 50 53  0  0  0  0  0  0  0  0999 V2000
    0.0906  -52.6009  -21.0351 C   0  0  0  0  0  0  0  0  0  0  0  0
    0.2642  -54.1130  -20.8798 C   0  0  0  0  0  0  0  0  0  0  0  0
   -0.5426  -54.5949  -22.0871 C   0  0  0  0  0  0  0  0  0  0  0  0
   -0.8226  -53.3594  -22.9375 C   0  0  0  0  0  0  0  0  0  0  0  0
    0.2665  -52.4746  -22.4348 N   0  0  0  0  0  0  0  0  0  0  0  0
    1.1294  -51.8367  -23.3321 C   0  0  0  0  0  0  0  0  0  0  0  0
    2.0928  -51.1741  -22.9022 O   0  0  0  0  0  0  0  0  0  0  0  0
    0.5885  -50.4921  -19.6900 N   0  0  0  0  0  0  0  0  0  0  0  0
    0.8284  -51.7987  -20.0971 C   0  0  0  0  0  0  0  0  0  0  0  0
    1.8695  -52.3464  -19.5503 O   0  0  0  0  0  0  0  0  0  0  0  0
   -0.2274  -49.9647  -20.0400 H   0  0  0  0  0  0  0  0  0  0  0  0
    1.4522  -49.7238  -18.7359 C   0  0  0  0  0  0  0  0  0  0  0  0
    0.8270  -49.6311  -17.4553 C   0  0  0  0  0  0  0  0  0  0  0  0
    1.3067  -48.6262  -16.7392 O   0  0  0  0  0  0  0  0  0  0  0  0
   -0.1976  -50.3623  -16.7454 C   0  0  0  0  0  0  0  0  0  0  0  0
   -0.9337  -51.4106  -16.9428 N   0  0  0  0  0  0  0  0  0  0  0  0
   -1.8046  -51.8346  -16.0976 C   0  0  0  0  0  0  0  0  0  0  0  0
   -1.9476  -51.1271  -14.9323 C   0  0  0  0  0  0  0  0  0  0  0  0
   -0.7924  -49.8926  -15.1642 S   0  0  0  0  0  0  0  0  0  0  0  0
    2.0642  -48.6219  -19.4737 C   0  0  0  0  0  0  0  0  0  0  0  0
    1.7117  -48.2776  -20.8522 C   0  0  0  0  0  0  0  0  0  0  0  0
    2.9254  -47.8383  -21.6849 C   0  0  0  0  0  0  0  0  0  0  0  0
    2.5848  -46.7767  -22.5789 N   0  0  0  0  0  0  0  0  0  0  0  0
    1.6727  -46.8025  -23.0751 H   0  0  0  0  0  0  0  0  0  0  0  0
    4.0651  -45.5034  -24.0787 N   0  0  0  0  0  0  0  0  0  0  0  0
    3.4479  -45.6807  -22.8176 C   0  0  0  0  0  0  0  0  0  0  0  0
    3.6720  -44.8397  -21.8765 N   0  0  0  0  0  0  0  0  0  0  0  0
    3.7905  -44.7055  -24.6996 H   0  0  0  0  0  0  0  0  0  0  0  0
    4.8048  -46.1306  -24.4592 H   0  0  0  0  0  0  0  0  0  0  0  0
    3.2750  -44.8754  -20.9243 H   0  0  0  0  0  0  0  0  0  0  0  0
    0.9901  -51.8872  -24.8091 C   0  0  0  0  0  0  0  0  0  0  0  0
    1.6929  -50.7713  -25.4372 N   0  0  0  0  0  0  0  0  0  0  0  0
    2.9404  -51.0052  -26.1016 C   0  0  0  0  0  0  0  0  0  0  0  0
    3.3770  -52.2067  -26.1210 O   0  0  0  0  0  0  0  0  0  0  0  0
    1.3243  -49.8138  -25.4213 H   0  0  0  0  0  0  0  0  0  0  0  0
    3.7019  -50.0496  -26.7154 O   0  0  0  0  0  0  0  0  0  0  0  0
    3.8238  -48.7309  -26.2584 C   0  0  0  0  0  0  0  0  0  0  0  0
    3.4225  -47.6985  -27.2401 C   0  0  0  0  0  0  0  0  0  0  0  0
    3.9513  -47.6629  -28.5259 C   0  0  0  0  0  0  0  0  0  0  0  0
    3.5662  -46.6946  -29.4489 C   0  0  0  0  0  0  0  0  0  0  0  0
    2.6354  -45.7271  -29.1109 C   0  0  0  0  0  0  0  0  0  0  0  0
    2.1096  -45.7553  -27.8468 C   0  0  0  0  0  0  0  0  0  0  0  0
    2.5004  -46.7234  -26.9379 C   0  0  0  0  0  0  0  0  0  0  0  0
   -0.4822  -51.6709  -25.0955 C   0  0  0  0  0  0  0  0  0  0  0  0
   -0.8667  -52.1046  -26.4582 C   0  0  0  0  0  0  0  0  0  0  0  0
   -2.1884  -52.0327  -26.8588 C   0  0  0  0  0  0  0  0  0  0  0  0
   -2.5533  -52.4355  -28.1250 C   0  0  0  0  0  0  0  0  0  0  0  0
   -1.6149  -52.9200  -29.0263 C   0  0  0  0  0  0  0  0  0  0  0  0
   -0.3056  -52.9990  -28.6508 C   0  0  0  0  0  0  0  0  0  0  0  0
    0.0453  -52.5896  -27.3723 C   0  0  0  0  0  0  0  0  0  0  0  0
 25 26  1  0  0  0
 26 27  2  0  0  0
 26 23  1  0  0  0
 23 22  1  0  0  0
 22 21  1  0  0  0
 21 20  1  0  0  0
 20 12  1  0  0  0
 12  8  1  0  0  0
  8  9  1  0  0  0
  9 10  2  0  0  0
  9  1  1  0  0  0
  1  2  1  0  0  0
  2  3  1  0  0  0
  3  4  1  0  0  0
  4  5  1  0  0  0
  5  6  1  0  0  0
  6  7  2  0  0  0
  6 31  1  0  0  0
 31 44  1  0  0  0
 44 45  1  0  0  0
 45 46  2  0  0  0
 46 47  1  0  0  0
 47 48  2  0  0  0
 48 49  1  0  0  0
 49 50  2  0  0  0
 31 32  1  0  0  0
 32 33  1  0  0  0
 33 34  2  0  0  0
 33 36  1  0  0  0
 36 37  1  0  0  0
 37 38  1  0  0  0
 38 39  2  0  0  0
 39 40  1  0  0  0
 40 41  2  0  0  0
 41 42  1  0  0  0
 42 43  2  0  0  0
 12 13  1  0  0  0
 13 14  2  0  0  0
 13 15  1  0  0  0
 15 16  2  0  0  0
 16 17  1  0  0  0
 17 18  2  0  0  0
 18 19  1  0  0  0
  5  1  1  0  0  0
 50 45  1  0  0  0
 43 38  1  0  0  0
 19 15  1  0  0  0
 25 28  1  0  0  0
 25 29  1  0  0  0
 27 30  1  0  0  0
 23 24  1  0  0  0
  8 11  1  0  0  0
 32 35  1  0  0  0
M  END
> <minimizedAffinity>
-7.78425

> <CNNscore>
0.1847385317

> <CNNaffinity>
6.8452134132

> <CNN_VS>
1.2645746469

> <CNNaffinity_variance>
0.2644408345

$$$$
[H]N=C(N([H])[H])N([H])C([H])([H])C([H])([H])C([H])([H])[C@@]([H])(C(=O)c1nc([H])c([H])s1)N([H])C(=O)[C@@]1([H])N(C(=O)[C@]([H])(N([H])C(=O)OC([H])([H])c2c([H])c([H])c([H])c([H])c2[H])C([H])([H])c2c([H])c([H])c([H])c([H])c2[H])C([H])([H])C([H])([H])C1([H])[H]


 50 53  0  0  0  0  0  0  0  0999 V2000
   -0.2395  -53.3630  -21.8855 C   0  0  0  0  0  0  0  0  0  0  0  0
   -0.3106  -54.8789  -22.0795 C   0  0  0  0  0  0  0  0  0  0  0  0
   -1.0805  -54.9383  -23.4003 C   0  0  0  0  0  0  0  0  0  0  0  0
   -1.0998  -53.5154  -23.9507 C   0  0  0  0  0  0  0  0  0  0  0  0
    0.0665  -52.9587  -23.2080 N   0  0  0  0  0  0  0  0  0  0  0  0
    1.0861  -52.2894  -23.8928 C   0  0  0  0  0  0  0  0  0  0  0  0
    2.1009  -51.9091  -23.2781 O   0  0  0  0  0  0  0  0  0  0  0  0
    1.1160  -51.6841  -20.5260 N   0  0  0  0  0  0  0  0  0  0  0  0
    0.5328  -52.9243  -20.7546 C   0  0  0  0  0  0  0  0  0  0  0  0
    0.7324  -53.7912  -19.8104 O   0  0  0  0  0  0  0  0  0  0  0  0
    1.0021  -50.9081  -21.1977 H   0  0  0  0  0  0  0  0  0  0  0  0
    1.9484  -51.3409  -19.3276 C   0  0  0  0  0  0  0  0  0  0  0  0
    1.2848  -50.3708  -18.5162 C   0  0  0  0  0  0  0  0  0  0  0  0
    1.6607  -49.1359  -18.8100 O   0  0  0  0  0  0  0  0  0  0  0  0
    0.3066  -50.4016  -17.4530 C   0  0  0  0  0  0  0  0  0  0  0  0
   -0.1562  -49.5877  -16.5568 N   0  0  0  0  0  0  0  0  0  0  0  0
   -1.0583  -49.9142  -15.7011 C   0  0  0  0  0  0  0  0  0  0  0  0
   -1.5438  -51.1948  -15.7556 C   0  0  0  0  0  0  0  0  0  0  0  0
   -0.6400  -51.8240  -17.0592 S   0  0  0  0  0  0  0  0  0  0  0  0
    3.3453  -51.2945  -19.7510 C   0  0  0  0  0  0  0  0  0  0  0  0
    3.8183  -50.5104  -20.8930 C   0  0  0  0  0  0  0  0  0  0  0  0
    5.1978  -50.9625  -21.3951 C   0  0  0  0  0  0  0  0  0  0  0  0
    5.0801  -51.9894  -22.3820 N   0  0  0  0  0  0  0  0  0  0  0  0
    4.5522  -52.8547  -22.1553 H   0  0  0  0  0  0  0  0  0  0  0  0
    7.0207  -51.5210  -23.8232 N   0  0  0  0  0  0  0  0  0  0  0  0
    5.6590  -51.8739  -23.6684 C   0  0  0  0  0  0  0  0  0  0  0  0
    4.9371  -52.0918  -24.7050 N   0  0  0  0  0  0  0  0  0  0  0  0
    7.7146  -52.2178  -24.1842 H   0  0  0  0  0  0  0  0  0  0  0  0
    7.4088  -50.5812  -23.5968 H   0  0  0  0  0  0  0  0  0  0  0  0
    3.9386  -52.3538  -24.7043 H   0  0  0  0  0  0  0  0  0  0  0  0
    1.0612  -51.9854  -25.3456 C   0  0  0  0  0  0  0  0  0  0  0  0
    1.9482  -50.8681  -25.6593 N   0  0  0  0  0  0  0  0  0  0  0  0
    2.9802  -51.0377  -26.6384 C   0  0  0  0  0  0  0  0  0  0  0  0
    3.0651  -52.1794  -27.2075 O   0  0  0  0  0  0  0  0  0  0  0  0
    1.8609  -49.9544  -25.2004 H   0  0  0  0  0  0  0  0  0  0  0  0
    3.8812  -50.0799  -27.0131 O   0  0  0  0  0  0  0  0  0  0  0  0
    3.9539  -48.8040  -26.4389 C   0  0  0  0  0  0  0  0  0  0  0  0
    3.4835  -47.7065  -27.3136 C   0  0  0  0  0  0  0  0  0  0  0  0
    3.8721  -47.6112  -28.6455 C   0  0  0  0  0  0  0  0  0  0  0  0
    3.4221  -46.5814  -29.4671 C   0  0  0  0  0  0  0  0  0  0  0  0
    2.5650  -45.6105  -28.9776 C   0  0  0  0  0  0  0  0  0  0  0  0
    2.1774  -45.6974  -27.6671 C   0  0  0  0  0  0  0  0  0  0  0  0
    2.6316  -46.7262  -26.8601 C   0  0  0  0  0  0  0  0  0  0  0  0
   -0.3439  -51.5032  -25.6453 C   0  0  0  0  0  0  0  0  0  0  0  0
   -0.8706  -52.0419  -26.9201 C   0  0  0  0  0  0  0  0  0  0  0  0
    0.0028  -52.4944  -27.8923 C   0  0  0  0  0  0  0  0  0  0  0  0
   -0.4805  -52.9960  -29.0811 C   0  0  0  0  0  0  0  0  0  0  0  0
   -1.8439  -53.0615  -29.3353 C   0  0  0  0  0  0  0  0  0  0  0  0
   -2.7225  -52.6202  -28.3893 C   0  0  0  0  0  0  0  0  0  0  0  0
   -2.2196  -52.1178  -27.1976 C   0  0  0  0  0  0  0  0  0  0  0  0
 25 26  1  0  0  0
 26 27  2  0  0  0
 26 23  1  0  0  0
 23 22  1  0  0  0
 22 21  1  0  0  0
 21 20  1  0  0  0
 20 12  1  0  0  0
 12  8  1  0  0  0
  8  9  1  0  0  0
  9 10  2  0  0  0
  9  1  1  0  0  0
  1  2  1  0  0  0
  2  3  1  0  0  0
  3  4  1  0  0  0
  4  5  1  0  0  0
  5  6  1  0  0  0
  6  7  2  0  0  0
  6 31  1  0  0  0
 31 44  1  0  0  0
 44 45  1  0  0  0
 45 46  2  0  0  0
 46 47  1  0  0  0
 47 48  2  0  0  0
 48 49  1  0  0  0
 49 50  2  0  0  0
 31 32  1  0  0  0
 32 33  1  0  0  0
 33 34  2  0  0  0
 33 36  1  0  0  0
 36 37  1  0  0  0
 37 38  1  0  0  0
 38 39  2  0  0  0
 39 40  1  0  0  0
 40 41  2  0  0  0
 41 42  1  0  0  0
 42 43  2  0  0  0
 12 13  1  0  0  0
 13 14  2  0  0  0
 13 15  1  0  0  0
 15 16  2  0  0  0
 16 17  1  0  0  0
 17 18  2  0  0  0
 18 19  1  0  0  0
  5  1  1  0  0  0
 50 45  1  0  0  0
 43 38  1  0  0  0
 19 15  1  0  0  0
 25 28  1  0  0  0
 25 29  1  0  0  0
 27 30  1  0  0  0
 23 24  1  0  0  0
  8 11  1  0  0  0
 32 35  1  0  0  0
M  END
> <minimizedAffinity>
-8.15785

> <CNNscore>
0.1774543077

> <CNNaffinity>
7.0344328880

> <CNN_VS>
1.2482904196

> <CNNaffinity_variance>
0.3002979159

$$$$
[H]N=C(N([H])[H])N([H])C([H])([H])C([H])([H])C([H])([H])[C@@]([H])(C(=O)c1nc([H])c([H])s1)N([H])C(=O)[C@@]1([H])N(C(=O)[C@]([H])(N([H])C(=O)OC([H])([H])c2c([H])c([H])c([H])c([H])c2[H])C([H])([H])c2c([H])c([H])c([H])c([H])c2[H])C([H])([H])C([H])([H])C1([H])[H]


 50 53  0  0  0  0  0  0  0  0999 V2000
    5.7116  -50.5558  -23.4607 C   0  0  0  0  0  0  0  0  0  0  0  0
    5.9432  -51.7727  -24.3585 C   0  0  0  0  0  0  0  0  0  0  0  0
    5.2892  -52.8587  -23.5022 C   0  0  0  0  0  0  0  0  0  0  0  0
    4.5204  -52.1333  -22.4019 C   0  0  0  0  0  0  0  0  0  0  0  0
    4.3774  -50.8001  -23.0529 N   0  0  0  0  0  0  0  0  0  0  0  0
    3.1226  -50.1886  -23.1427 C   0  0  0  0  0  0  0  0  0  0  0  0
    2.9965  -49.1192  -23.7692 O   0  0  0  0  0  0  0  0  0  0  0  0
    5.8273  -48.7559  -25.2639 N   0  0  0  0  0  0  0  0  0  0  0  0
    6.1214  -49.2949  -24.0175 C   0  0  0  0  0  0  0  0  0  0  0  0
    6.8769  -48.5454  -23.2756 O   0  0  0  0  0  0  0  0  0  0  0  0
    5.2134  -49.2526  -25.9294 H   0  0  0  0  0  0  0  0  0  0  0  0
    6.3477  -47.4448  -25.7705 C   0  0  0  0  0  0  0  0  0  0  0  0
    5.2976  -46.4791  -25.8362 C   0  0  0  0  0  0  0  0  0  0  0  0
    5.4516  -45.5153  -24.9417 O   0  0  0  0  0  0  0  0  0  0  0  0
    4.1076  -46.2928  -26.6347 C   0  0  0  0  0  0  0  0  0  0  0  0
    3.7635  -46.4115  -27.8786 N   0  0  0  0  0  0  0  0  0  0  0  0
    2.5819  -46.1545  -28.3148 C   0  0  0  0  0  0  0  0  0  0  0  0
    1.6509  -45.7340  -27.4009 C   0  0  0  0  0  0  0  0  0  0  0  0
    2.5796  -45.7478  -25.9693 S   0  0  0  0  0  0  0  0  0  0  0  0
    7.3221  -47.7256  -26.8215 C   0  0  0  0  0  0  0  0  0  0  0  0
    7.4004  -46.9716  -28.0737 C   0  0  0  0  0  0  0  0  0  0  0  0
    7.4940  -47.8787  -29.3098 C   0  0  0  0  0  0  0  0  0  0  0  0
    6.5311  -48.9332  -29.2540 N   0  0  0  0  0  0  0  0  0  0  0  0
    6.5513  -49.5987  -28.4567 H   0  0  0  0  0  0  0  0  0  0  0  0
    5.5663  -50.2341  -31.1085 N   0  0  0  0  0  0  0  0  0  0  0  0
    5.5413  -49.1091  -30.2502 C   0  0  0  0  0  0  0  0  0  0  0  0
    4.6115  -48.2355  -30.3745 N   0  0  0  0  0  0  0  0  0  0  0  0
    4.8314  -50.9771  -31.0357 H   0  0  0  0  0  0  0  0  0  0  0  0
    6.2897  -50.3923  -31.8412 H   0  0  0  0  0  0  0  0  0  0  0  0
    4.5007  -47.3826  -29.8035 H   0  0  0  0  0  0  0  0  0  0  0  0
    1.8811  -50.7286  -22.5338 C   0  0  0  0  0  0  0  0  0  0  0  0
    0.8985  -51.0616  -23.5620 N   0  0  0  0  0  0  0  0  0  0  0  0
    0.3639  -52.3891  -23.6259 C   0  0  0  0  0  0  0  0  0  0  0  0
    0.7746  -53.2281  -22.7530 O   0  0  0  0  0  0  0  0  0  0  0  0
    0.5716  -50.3738  -24.2498 H   0  0  0  0  0  0  0  0  0  0  0  0
   -0.5482  -52.8321  -24.5433 O   0  0  0  0  0  0  0  0  0  0  0  0
   -1.1786  -52.0070  -25.4838 C   0  0  0  0  0  0  0  0  0  0  0  0
   -0.8834  -52.3427  -26.8948 C   0  0  0  0  0  0  0  0  0  0  0  0
    0.4170  -52.5417  -27.3456 C   0  0  0  0  0  0  0  0  0  0  0  0
    0.6903  -52.8643  -28.6719 C   0  0  0  0  0  0  0  0  0  0  0  0
   -0.3353  -52.9979  -29.5922 C   0  0  0  0  0  0  0  0  0  0  0  0
   -1.6189  -52.8038  -29.1562 C   0  0  0  0  0  0  0  0  0  0  0  0
   -1.8780  -52.4835  -27.8348 C   0  0  0  0  0  0  0  0  0  0  0  0
    1.2816  -49.5903  -21.7329 C   0  0  0  0  0  0  0  0  0  0  0  0
    1.0090  -49.9655  -20.3266 C   0  0  0  0  0  0  0  0  0  0  0  0
    1.4278  -49.1412  -19.2981 C   0  0  0  0  0  0  0  0  0  0  0  0
    1.1782  -49.4847  -17.9873 C   0  0  0  0  0  0  0  0  0  0  0  0
    0.5059  -50.6557  -17.6639 C   0  0  0  0  0  0  0  0  0  0  0  0
    0.0842  -51.4827  -18.6637 C   0  0  0  0  0  0  0  0  0  0  0  0
    0.3437  -51.1224  -19.9784 C   0  0  0  0  0  0  0  0  0  0  0  0
 25 26  1  0  0  0
 26 27  2  0  0  0
 26 23  1  0  0  0
 23 22  1  0  0  0
 22 21  1  0  0  0
 21 20  1  0  0  0
 20 12  1  0  0  0
 12  8  1  0  0  0
  8  9  1  0  0  0
  9 10  2  0  0  0
  9  1  1  0  0  0
  1  2  1  0  0  0
  2  3  1  0  0  0
  3  4  1  0  0  0
  4  5  1  0  0  0
  5  6  1  0  0  0
  6  7  2  0  0  0
  6 31  1  0  0  0
 31 44  1  0  0  0
 44 45  1  0  0  0
 45 46  2  0  0  0
 46 47  1  0  0  0
 47 48  2  0  0  0
 48 49  1  0  0  0
 49 50  2  0  0  0
 31 32  1  0  0  0
 32 33  1  0  0  0
 33 34  2  0  0  0
 33 36  1  0  0  0
 36 37  1  0  0  0
 37 38  1  0  0  0
 38 39  2  0  0  0
 39 40  1  0  0  0
 40 41  2  0  0  0
 41 42  1  0  0  0
 42 43  2  0  0  0
 12 13  1  0  0  0
 13 14  2  0  0  0
 13 15  1  0  0  0
 15 16  2  0  0  0
 16 17  1  0  0  0
 17 18  2  0  0  0
 18 19  1  0  0  0
  5  1  1  0  0  0
 50 45  1  0  0  0
 43 38  1  0  0  0
 19 15  1  0  0  0
 25 28  1  0  0  0
 25 29  1  0  0  0
 27 30  1  0  0  0
 23 24  1  0  0  0
  8 11  1  0  0  0
 32 35  1  0  0  0
M  END
> <minimizedAffinity>
-7.47935

> <CNNscore>
0.1681029201

> <CNNaffinity>
6.7535896301

> <CNN_VS>
1.1352981329

> <CNNaffinity_variance>
0.6027439833

$$$$
[H]c1c(Cl)c([H])c(C(=O)N2C([H])([H])C([H])([H])C([H])([H])[C@@]2([H])C([H])([H])N([H])C(=O)c2c([H])c(OC([H])([H])[H])c(OC([H])([H])[H])c(OC([H])([H])[H])c2[H])c([H])c1Cl


 32 34  0  0  0  0  0  0  0  0999 V2000
    1.9706  -49.5669  -20.9983 C   0  0  0  0  0  0  0  0  0  0  0  0
    1.1900  -49.7077  -20.0291 O   0  0  0  0  0  0  0  0  0  0  0  0
    2.2964  -50.6787  -21.8002 N   0  0  0  0  0  0  0  0  0  0  0  0
    2.9533  -50.5099  -22.6001 H   0  0  0  0  0  0  0  0  0  0  0  0
    2.9672  -46.4251  -22.7488 C   0  0  0  0  0  0  0  0  0  0  0  0
    2.4243  -47.6936  -22.5041 C   0  0  0  0  0  0  0  0  0  0  0  0
    2.5117  -48.2431  -21.2465 C   0  0  0  0  0  0  0  0  0  0  0  0
    3.1438  -47.5085  -20.2509 C   0  0  0  0  0  0  0  0  0  0  0  0
    3.6772  -46.2597  -20.4967 C   0  0  0  0  0  0  0  0  0  0  0  0
    3.5911  -45.7076  -21.7570 C   0  0  0  0  0  0  0  0  0  0  0  0
    3.5433  -46.4905  -25.0908 C   0  0  0  0  0  0  0  0  0  0  0  0
    2.8728  -45.8940  -23.9999 O   0  0  0  0  0  0  0  0  0  0  0  0
    4.2863  -45.6101  -19.4382 O   0  0  0  0  0  0  0  0  0  0  0  0
    3.6116  -44.9694  -18.4038 C   0  0  0  0  0  0  0  0  0  0  0  0
    4.1442  -44.4457  -21.9520 O   0  0  0  0  0  0  0  0  0  0  0  0
    5.4757  -44.2680  -22.3956 C   0  0  0  0  0  0  0  0  0  0  0  0
    1.7293  -51.9488  -21.4904 C   0  0  0  0  0  0  0  0  0  0  0  0
    0.2955  -52.1102  -21.7748 C   0  0  0  0  0  0  0  0  0  0  0  0
   -0.5370  -52.9090  -20.8732 C   0  0  0  0  0  0  0  0  0  0  0  0
   -0.3478  -54.3105  -21.3341 C   0  0  0  0  0  0  0  0  0  0  0  0
   -0.3685  -54.0908  -22.8627 C   0  0  0  0  0  0  0  0  0  0  0  0
    0.0753  -52.7512  -23.0933 N   0  0  0  0  0  0  0  0  0  0  0  0
    0.3220  -52.0570  -24.2959 C   0  0  0  0  0  0  0  0  0  0  0  0
    0.7697  -50.8320  -24.1864 O   0  0  0  0  0  0  0  0  0  0  0  0
    0.1561  -52.4991  -25.6557 C   0  0  0  0  0  0  0  0  0  0  0  0
    1.1141  -53.0527  -26.4655 C   0  0  0  0  0  0  0  0  0  0  0  0
    0.8771  -53.4328  -27.7972 C   0  0  0  0  0  0  0  0  0  0  0  0
    2.1403  -54.1365  -28.7770 Cl  0  0  0  0  0  0  0  0  0  0  0  0
   -0.3623  -53.2595  -28.3575 C   0  0  0  0  0  0  0  0  0  0  0  0
   -1.3366  -52.7082  -27.5661 C   0  0  0  0  0  0  0  0  0  0  0  0
   -2.9299  -52.4904  -28.3003 Cl  0  0  0  0  0  0  0  0  0  0  0  0
   -1.1035  -52.3373  -26.2637 C   0  0  0  0  0  0  0  0  0  0  0  0
 11 12  1  0  0  0
 12  5  1  0  0  0
  5  6  2  0  0  0
  6  7  1  0  0  0
  7  8  2  0  0  0
  8  9  1  0  0  0
  9 13  1  0  0  0
 13 14  1  0  0  0
  9 10  2  0  0  0
 10 15  1  0  0  0
 15 16  1  0  0  0
  7  1  1  0  0  0
  1  2  2  0  0  0
  1  3  1  0  0  0
  3 17  1  0  0  0
 17 18  1  0  0  0
 18 19  1  0  0  0
 19 20  1  0  0  0
 20 21  1  0  0  0
 21 22  1  0  0  0
 22 23  1  0  0  0
 23 24  2  0  0  0
 23 25  1  0  0  0
 25 26  2  0  0  0
 26 27  1  0  0  0
 27 28  1  0  0  0
 27 29  2  0  0  0
 29 30  1  0  0  0
 30 31  1  0  0  0
 30 32  2  0  0  0
 10  5  1  0  0  0
 22 18  1  0  0  0
 32 25  1  0  0  0
  3  4  1  0  0  0
M  END
> <minimizedAffinity>
-6.85163

> <CNNscore>
0.3659330904

> <CNNaffinity>
6.3909797668

> <CNN_VS>
2.3386709690

> <CNNaffinity_variance>
0.2533213496

$$$$
[H]c1c(Cl)c([H])c(C(=O)N2C([H])([H])C([H])([H])C([H])([H])[C@@]2([H])C([H])([H])N([H])C(=O)c2c([H])c(OC([H])([H])[H])c(OC([H])([H])[H])c(OC([H])([H])[H])c2[H])c([H])c1Cl


 32 34  0  0  0  0  0  0  0  0999 V2000
   -0.3297  -53.0585  -21.9097 C   0  0  0  0  0  0  0  0  0  0  0  0
   -1.1059  -54.0350  -22.0208 O   0  0  0  0  0  0  0  0  0  0  0  0
    0.3866  -52.6038  -23.0347 N   0  0  0  0  0  0  0  0  0  0  0  0
    1.0230  -51.7827  -22.8912 H   0  0  0  0  0  0  0  0  0  0  0  0
   -0.6812  -52.4179  -18.2498 C   0  0  0  0  0  0  0  0  0  0  0  0
   -0.7844  -53.0293  -19.5065 C   0  0  0  0  0  0  0  0  0  0  0  0
   -0.2031  -52.4379  -20.6036 C   0  0  0  0  0  0  0  0  0  0  0  0
    0.4752  -51.2390  -20.4218 C   0  0  0  0  0  0  0  0  0  0  0  0
    0.5738  -50.6406  -19.1822 C   0  0  0  0  0  0  0  0  0  0  0  0
   -0.0088  -51.2316  -18.0814 C   0  0  0  0  0  0  0  0  0  0  0  0
   -2.6566  -52.9291  -16.9623 C   0  0  0  0  0  0  0  0  0  0  0  0
   -1.2624  -53.0158  -17.1724 O   0  0  0  0  0  0  0  0  0  0  0  0
    1.2702  -49.4478  -19.1068 O   0  0  0  0  0  0  0  0  0  0  0  0
    2.6566  -49.3373  -19.0698 C   0  0  0  0  0  0  0  0  0  0  0  0
    0.1202  -50.5878  -16.8545 O   0  0  0  0  0  0  0  0  0  0  0  0
    1.1760  -50.8791  -15.9592 C   0  0  0  0  0  0  0  0  0  0  0  0
    0.2138  -53.2683  -24.2834 C   0  0  0  0  0  0  0  0  0  0  0  0
    0.0814  -52.4072  -25.4681 C   0  0  0  0  0  0  0  0  0  0  0  0
   -0.4360  -52.9679  -26.7179 C   0  0  0  0  0  0  0  0  0  0  0  0
    0.7507  -53.5832  -27.3703 C   0  0  0  0  0  0  0  0  0  0  0  0
    1.8103  -52.5018  -27.0648 C   0  0  0  0  0  0  0  0  0  0  0  0
    1.3895  -51.8374  -25.8706 N   0  0  0  0  0  0  0  0  0  0  0  0
    2.0175  -50.8324  -25.1058 C   0  0  0  0  0  0  0  0  0  0  0  0
    1.3969  -50.4456  -24.0203 O   0  0  0  0  0  0  0  0  0  0  0  0
    3.2651  -50.1534  -25.3391 C   0  0  0  0  0  0  0  0  0  0  0  0
    4.4577  -50.3774  -24.7009 C   0  0  0  0  0  0  0  0  0  0  0  0
    5.6283  -49.6476  -24.9684 C   0  0  0  0  0  0  0  0  0  0  0  0
    7.1188  -49.9838  -24.1222 Cl  0  0  0  0  0  0  0  0  0  0  0  0
    5.6235  -48.6502  -25.9093 C   0  0  0  0  0  0  0  0  0  0  0  0
    4.4418  -48.4087  -26.5611 C   0  0  0  0  0  0  0  0  0  0  0  0
    4.4491  -47.1205  -27.7717 Cl  0  0  0  0  0  0  0  0  0  0  0  0
    3.2979  -49.1235  -26.2986 C   0  0  0  0  0  0  0  0  0  0  0  0
 11 12  1  0  0  0
 12  5  1  0  0  0
  5  6  2  0  0  0
  6  7  1  0  0  0
  7  8  2  0  0  0
  8  9  1  0  0  0
  9 13  1  0  0  0
 13 14  1  0  0  0
  9 10  2  0  0  0
 10 15  1  0  0  0
 15 16  1  0  0  0
  7  1  1  0  0  0
  1  2  2  0  0  0
  1  3  1  0  0  0
  3 17  1  0  0  0
 17 18  1  0  0  0
 18 19  1  0  0  0
 19 20  1  0  0  0
 20 21  1  0  0  0
 21 22  1  0  0  0
 22 23  1  0  0  0
 23 24  2  0  0  0
 23 25  1  0  0  0
 25 26  2  0  0  0
 26 27  1  0  0  0
 27 28  1  0  0  0
 27 29  2  0  0  0
 29 30  1  0  0  0
 30 31  1  0  0  0
 30 32  2  0  0  0
 10  5  1  0  0  0
 22 18  1  0  0  0
 32 25  1  0  0  0
  3  4  1  0  0  0
M  END
> <minimizedAffinity>
-6.60226

> <CNNscore>
0.3442276418

> <CNNaffinity>
6.5863161087

> <CNN_VS>
2.2671921253

> <CNNaffinity_variance>
0.6521428227

$$$$
[H]c1c(Cl)c([H])c(C(=O)N2C([H])([H])C([H])([H])C([H])([H])[C@@]2([H])C([H])([H])N([H])C(=O)c2c([H])c(OC([H])([H])[H])c(OC([H])([H])[H])c(OC([H])([H])[H])c2[H])c([H])c1Cl


 32 34  0  0  0  0  0  0  0  0999 V2000
    1.3809  -49.2363  -21.0596 C   0  0  0  0  0  0  0  0  0  0  0  0
    0.7387  -48.1851  -21.2852 O   0  0  0  0  0  0  0  0  0  0  0  0
    2.5805  -49.4853  -21.7556 N   0  0  0  0  0  0  0  0  0  0  0  0
    3.0820  -50.3785  -21.5312 H   0  0  0  0  0  0  0  0  0  0  0  0
   -0.2447  -52.2352  -19.5455 C   0  0  0  0  0  0  0  0  0  0  0  0
    0.2939  -51.3525  -20.4912 C   0  0  0  0  0  0  0  0  0  0  0  0
    0.8441  -50.1616  -20.0785 C   0  0  0  0  0  0  0  0  0  0  0  0
    0.8457  -49.8746  -18.7190 C   0  0  0  0  0  0  0  0  0  0  0  0
    0.3137  -50.7469  -17.7915 C   0  0  0  0  0  0  0  0  0  0  0  0
   -0.2389  -51.9409  -18.2034 C   0  0  0  0  0  0  0  0  0  0  0  0
   -0.1212  -54.2097  -20.9265 C   0  0  0  0  0  0  0  0  0  0  0  0
   -0.7863  -53.4111  -19.9698 O   0  0  0  0  0  0  0  0  0  0  0  0
    0.3637  -50.3681  -16.4621 O   0  0  0  0  0  0  0  0  0  0  0  0
   -0.5650  -49.5438  -15.8345 C   0  0  0  0  0  0  0  0  0  0  0  0
   -0.7611  -52.7852  -17.2283 O   0  0  0  0  0  0  0  0  0  0  0  0
   -2.1399  -52.8083  -16.9129 C   0  0  0  0  0  0  0  0  0  0  0  0
    3.0413  -48.5315  -22.7089 C   0  0  0  0  0  0  0  0  0  0  0  0
    3.9046  -49.0464  -23.7824 C   0  0  0  0  0  0  0  0  0  0  0  0
    4.8204  -48.1378  -24.4750 C   0  0  0  0  0  0  0  0  0  0  0  0
    3.9875  -47.5013  -25.5302 C   0  0  0  0  0  0  0  0  0  0  0  0
    3.1720  -48.7266  -25.9979 C   0  0  0  0  0  0  0  0  0  0  0  0
    3.1044  -49.6256  -24.8879 N   0  0  0  0  0  0  0  0  0  0  0  0
    2.4213  -50.8499  -24.7346 C   0  0  0  0  0  0  0  0  0  0  0  0
    2.5160  -51.4339  -23.5671 O   0  0  0  0  0  0  0  0  0  0  0  0
    1.6156  -51.5709  -25.6850 C   0  0  0  0  0  0  0  0  0  0  0  0
    2.0610  -52.3936  -26.6873 C   0  0  0  0  0  0  0  0  0  0  0  0
    1.2061  -53.0406  -27.5956 C   0  0  0  0  0  0  0  0  0  0  0  0
    1.8363  -54.0798  -28.8500 Cl  0  0  0  0  0  0  0  0  0  0  0  0
   -0.1517  -52.8689  -27.5121 C   0  0  0  0  0  0  0  0  0  0  0  0
   -0.6203  -52.0508  -26.5168 C   0  0  0  0  0  0  0  0  0  0  0  0
   -2.3726  -51.8382  -26.4200 Cl  0  0  0  0  0  0  0  0  0  0  0  0
    0.2170  -51.4191  -25.6291 C   0  0  0  0  0  0  0  0  0  0  0  0
 11 12  1  0  0  0
 12  5  1  0  0  0
  5  6  2  0  0  0
  6  7  1  0  0  0
  7  8  2  0  0  0
  8  9  1  0  0  0
  9 13  1  0  0  0
 13 14  1  0  0  0
  9 10  2  0  0  0
 10 15  1  0  0  0
 15 16  1  0  0  0
  7  1  1  0  0  0
  1  2  2  0  0  0
  1  3  1  0  0  0
  3 17  1  0  0  0
 17 18  1  0  0  0
 18 19  1  0  0  0
 19 20  1  0  0  0
 20 21  1  0  0  0
 21 22  1  0  0  0
 22 23  1  0  0  0
 23 24  2  0  0  0
 23 25  1  0  0  0
 25 26  2  0  0  0
 26 27  1  0  0  0
 27 28  1  0  0  0
 27 29  2  0  0  0
 29 30  1  0  0  0
 30 31  1  0  0  0
 30 32  2  0  0  0
 10  5  1  0  0  0
 22 18  1  0  0  0
 32 25  1  0  0  0
  3  4  1  0  0  0
M  END
> <minimizedAffinity>
-7.29877

> <CNNscore>
0.2971165180

> <CNNaffinity>
6.3295612335

> <CNN_VS>
1.8806171417

> <CNNaffinity_variance>
0.2675232887

$$$$
[H]c1c(Cl)c([H])c(C(=O)N2C([H])([H])C([H])([H])C([H])([H])[C@@]2([H])C([H])([H])N([H])C(=O)c2c([H])c(OC([H])([H])[H])c(OC([H])([H])[H])c(OC([H])([H])[H])c2[H])c([H])c1Cl


 32 34  0  0  0  0  0  0  0  0999 V2000
   -0.2489  -53.1563  -21.4391 C   0  0  0  0  0  0  0  0  0  0  0  0
   -0.3060  -54.4050  -21.5145 O   0  0  0  0  0  0  0  0  0  0  0  0
   -0.1841  -52.3873  -22.6180 N   0  0  0  0  0  0  0  0  0  0  0  0
   -0.1385  -51.3459  -22.5027 H   0  0  0  0  0  0  0  0  0  0  0  0
    0.5707  -50.9031  -18.5790 C   0  0  0  0  0  0  0  0  0  0  0  0
    0.5531  -51.4681  -19.8612 C   0  0  0  0  0  0  0  0  0  0  0  0
   -0.2481  -52.5560  -20.1175 C   0  0  0  0  0  0  0  0  0  0  0  0
   -1.0220  -53.0611  -19.0800 C   0  0  0  0  0  0  0  0  0  0  0  0
   -1.0012  -52.5015  -17.8187 C   0  0  0  0  0  0  0  0  0  0  0  0
   -0.1981  -51.4113  -17.5598 C   0  0  0  0  0  0  0  0  0  0  0  0
    1.7221  -48.9420  -19.3847 C   0  0  0  0  0  0  0  0  0  0  0  0
    1.3696  -49.8256  -18.3405 O   0  0  0  0  0  0  0  0  0  0  0  0
   -1.8080  -53.0787  -16.8548 O   0  0  0  0  0  0  0  0  0  0  0  0
   -3.1576  -52.7938  -16.6726 C   0  0  0  0  0  0  0  0  0  0  0  0
   -0.2141  -50.8845  -16.2720 O   0  0  0  0  0  0  0  0  0  0  0  0
   -1.0290  -49.7832  -15.9195 C   0  0  0  0  0  0  0  0  0  0  0  0
   -0.1836  -53.0492  -23.8800 C   0  0  0  0  0  0  0  0  0  0  0  0
   -0.1655  -52.1853  -25.0700 C   0  0  0  0  0  0  0  0  0  0  0  0
   -0.7134  -52.6810  -26.3342 C   0  0  0  0  0  0  0  0  0  0  0  0
    0.4018  -53.4504  -26.9480 C   0  0  0  0  0  0  0  0  0  0  0  0
    1.5841  -52.5154  -26.6118 C   0  0  0  0  0  0  0  0  0  0  0  0
    1.2178  -51.7943  -25.4326 N   0  0  0  0  0  0  0  0  0  0  0  0
    1.9484  -50.8757  -24.6506 C   0  0  0  0  0  0  0  0  0  0  0  0
    1.3509  -50.4043  -23.5858 O   0  0  0  0  0  0  0  0  0  0  0  0
    3.2809  -50.3674  -24.8463 C   0  0  0  0  0  0  0  0  0  0  0  0
    4.4216  -50.7758  -24.2048 C   0  0  0  0  0  0  0  0  0  0  0  0
    5.6853  -50.2055  -24.4336 C   0  0  0  0  0  0  0  0  0  0  0  0
    7.1026  -50.7734  -23.5852 Cl  0  0  0  0  0  0  0  0  0  0  0  0
    5.8317  -49.1848  -25.3372 C   0  0  0  0  0  0  0  0  0  0  0  0
    4.7044  -48.7601  -25.9916 C   0  0  0  0  0  0  0  0  0  0  0  0
    4.9069  -47.4437  -27.1541 Cl  0  0  0  0  0  0  0  0  0  0  0  0
    3.4693  -49.3190  -25.7671 C   0  0  0  0  0  0  0  0  0  0  0  0
 11 12  1  0  0  0
 12  5  1  0  0  0
  5  6  2  0  0  0
  6  7  1  0  0  0
  7  8  2  0  0  0
  8  9  1  0  0  0
  9 13  1  0  0  0
 13 14  1  0  0  0
  9 10  2  0  0  0
 10 15  1  0  0  0
 15 16  1  0  0  0
  7  1  1  0  0  0
  1  2  2  0  0  0
  1  3  1  0  0  0
  3 17  1  0  0  0
 17 18  1  0  0  0
 18 19  1  0  0  0
 19 20  1  0  0  0
 20 21  1  0  0  0
 21 22  1  0  0  0
 22 23  1  0  0  0
 23 24  2  0  0  0
 23 25  1  0  0  0
 25 26  2  0  0  0
 26 27  1  0  0  0
 27 28  1  0  0  0
 27 29  2  0  0  0
 29 30  1  0  0  0
 30 31  1  0  0  0
 30 32  2  0  0  0
 10  5  1  0  0  0
 22 18  1  0  0  0
 32 25  1  0  0  0
  3  4  1  0  0  0
M  END
> <minimizedAffinity>
-6.67649

> <CNNscore>
0.2714911699

> <CNNaffinity>
6.4761977196

> <CNN_VS>
1.7582304478

> <CNNaffinity_variance>
0.5943481922

$$$$
[H]c1c(Cl)c([H])c(C(=O)N2C([H])([H])C([H])([H])C([H])([H])[C@@]2([H])C([H])([H])N([H])C(=O)c2c([H])c(OC([H])([H])[H])c(OC([H])([H])[H])c(OC([H])([H])[H])c2[H])c([H])c1Cl


 32 34  0  0  0  0  0  0  0  0999 V2000
    3.4378  -49.5750  -26.9173 C   0  0  0  0  0  0  0  0  0  0  0  0
    3.8571  -49.3858  -28.0821 O   0  0  0  0  0  0  0  0  0  0  0  0
    3.0234  -50.8632  -26.5246 N   0  0  0  0  0  0  0  0  0  0  0  0
    2.6812  -50.9711  -25.5392 H   0  0  0  0  0  0  0  0  0  0  0  0
    3.3770  -47.5389  -23.7902 C   0  0  0  0  0  0  0  0  0  0  0  0
    3.4404  -48.6371  -24.6584 C   0  0  0  0  0  0  0  0  0  0  0  0
    3.3961  -48.4364  -26.0181 C   0  0  0  0  0  0  0  0  0  0  0  0
    3.2891  -47.1328  -26.4868 C   0  0  0  0  0  0  0  0  0  0  0  0
    3.2267  -46.0545  -25.6280 C   0  0  0  0  0  0  0  0  0  0  0  0
    3.2703  -46.2538  -24.2645 C   0  0  0  0  0  0  0  0  0  0  0  0
    4.2616  -48.7505  -21.9006 C   0  0  0  0  0  0  0  0  0  0  0  0
    3.4220  -47.7537  -22.4456 O   0  0  0  0  0  0  0  0  0  0  0  0
    3.1207  -44.7970  -26.1945 O   0  0  0  0  0  0  0  0  0  0  0  0
    4.1284  -44.1607  -26.9124 C   0  0  0  0  0  0  0  0  0  0  0  0
    3.2046  -45.1331  -23.4423 O   0  0  0  0  0  0  0  0  0  0  0  0
    4.3652  -44.4974  -22.9424 C   0  0  0  0  0  0  0  0  0  0  0  0
    3.0885  -51.9310  -27.4661 C   0  0  0  0  0  0  0  0  0  0  0  0
    2.1793  -53.0631  -27.2328 C   0  0  0  0  0  0  0  0  0  0  0  0
    1.2793  -53.5022  -28.3010 C   0  0  0  0  0  0  0  0  0  0  0  0
    0.0980  -52.6057  -28.1858 C   0  0  0  0  0  0  0  0  0  0  0  0
   -0.0447  -52.5533  -26.6488 C   0  0  0  0  0  0  0  0  0  0  0  0
    1.2562  -52.7910  -26.1051 N   0  0  0  0  0  0  0  0  0  0  0  0
    1.7140  -52.7744  -24.7711 C   0  0  0  0  0  0  0  0  0  0  0  0
    2.9910  -52.9925  -24.5850 O   0  0  0  0  0  0  0  0  0  0  0  0
    0.9768  -52.5468  -23.5559 C   0  0  0  0  0  0  0  0  0  0  0  0
    0.0432  -53.3764  -22.9902 C   0  0  0  0  0  0  0  0  0  0  0  0
   -0.6560  -53.0657  -21.8116 C   0  0  0  0  0  0  0  0  0  0  0  0
   -1.8324  -54.1677  -21.1390 Cl  0  0  0  0  0  0  0  0  0  0  0  0
   -0.4243  -51.8819  -21.1598 C   0  0  0  0  0  0  0  0  0  0  0  0
    0.5060  -51.0365  -21.7069 C   0  0  0  0  0  0  0  0  0  0  0  0
    0.7956  -49.5139  -20.8566 Cl  0  0  0  0  0  0  0  0  0  0  0  0
    1.1893  -51.3418  -22.8593 C   0  0  0  0  0  0  0  0  0  0  0  0
 11 12  1  0  0  0
 12  5  1  0  0  0
  5  6  2  0  0  0
  6  7  1  0  0  0
  7  8  2  0  0  0
  8  9  1  0  0  0
  9 13  1  0  0  0
 13 14  1  0  0  0
  9 10  2  0  0  0
 10 15  1  0  0  0
 15 16  1  0  0  0
  7  1  1  0  0  0
  1  2  2  0  0  0
  1  3  1  0  0  0
  3 17  1  0  0  0
 17 18  1  0  0  0
 18 19  1  0  0  0
 19 20  1  0  0  0
 20 21  1  0  0  0
 21 22  1  0  0  0
 22 23  1  0  0  0
 23 24  2  0  0  0
 23 25  1  0  0  0
 25 26  2  0  0  0
 26 27  1  0  0  0
 27 28  1  0  0  0
 27 29  2  0  0  0
 29 30  1  0  0  0
 30 31  1  0  0  0
 30 32  2  0  0  0
 10  5  1  0  0  0
 22 18  1  0  0  0
 32 25  1  0  0  0
  3  4  1  0  0  0
M  END
> <minimizedAffinity>
-7.38447

> <CNNscore>
0.2463409007

> <CNNaffinity>
6.0204777718

> <CNN_VS>
1.4830899239

> <CNNaffinity_variance>
0.4206879735

$$$$
[H]c1c(Cl)c([H])c(C(=O)N2C([H])([H])C([H])([H])C([H])([H])[C@@]2([H])C([H])([H])N([H])C(=O)c2c([H])c(OC([H])([H])[H])c(OC([H])([H])[H])c(OC([H])([H])[H])c2[H])c([H])c1Cl


 32 34  0  0  0  0  0  0  0  0999 V2000
    0.6421  -50.9940  -19.0772 C   0  0  0  0  0  0  0  0  0  0  0  0
    0.1016  -52.1085  -19.2623 O   0  0  0  0  0  0  0  0  0  0  0  0
    0.9790  -50.1886  -20.1832 N   0  0  0  0  0  0  0  0  0  0  0  0
    1.4288  -49.2641  -19.9767 H   0  0  0  0  0  0  0  0  0  0  0  0
    0.4542  -50.7725  -15.3564 C   0  0  0  0  0  0  0  0  0  0  0  0
    0.2199  -51.1837  -16.6754 C   0  0  0  0  0  0  0  0  0  0  0  0
    0.9016  -50.5850  -17.7089 C   0  0  0  0  0  0  0  0  0  0  0  0
    1.8108  -49.5803  -17.4016 C   0  0  0  0  0  0  0  0  0  0  0  0
    2.0379  -49.1785  -16.1011 C   0  0  0  0  0  0  0  0  0  0  0  0
    1.3550  -49.7772  -15.0638 C   0  0  0  0  0  0  0  0  0  0  0  0
    0.3305  -52.4678  -13.6441 C   0  0  0  0  0  0  0  0  0  0  0  0
   -0.2288  -51.3752  -14.3433 O   0  0  0  0  0  0  0  0  0  0  0  0
    2.9628  -48.1697  -15.9007 O   0  0  0  0  0  0  0  0  0  0  0  0
    2.7014  -46.8108  -16.0450 C   0  0  0  0  0  0  0  0  0  0  0  0
    1.6211  -49.3358  -13.7713 O   0  0  0  0  0  0  0  0  0  0  0  0
    2.7557  -49.7698  -13.0465 C   0  0  0  0  0  0  0  0  0  0  0  0
    0.6979  -50.6611  -21.4979 C   0  0  0  0  0  0  0  0  0  0  0  0
    1.8139  -51.2942  -22.2165 C   0  0  0  0  0  0  0  0  0  0  0  0
    3.1426  -50.6802  -22.1776 C   0  0  0  0  0  0  0  0  0  0  0  0
    3.1105  -49.6526  -23.2525 C   0  0  0  0  0  0  0  0  0  0  0  0
    2.3481  -50.4357  -24.3437 C   0  0  0  0  0  0  0  0  0  0  0  0
    1.5326  -51.3967  -23.6684 N   0  0  0  0  0  0  0  0  0  0  0  0
    0.5816  -52.3109  -24.1677 C   0  0  0  0  0  0  0  0  0  0  0  0
   -0.0474  -53.0454  -23.2857 O   0  0  0  0  0  0  0  0  0  0  0  0
    0.1856  -52.5641  -25.5283 C   0  0  0  0  0  0  0  0  0  0  0  0
   -1.0522  -52.3547  -26.0793 C   0  0  0  0  0  0  0  0  0  0  0  0
   -1.3664  -52.6568  -27.4152 C   0  0  0  0  0  0  0  0  0  0  0  0
   -2.9634  -52.3633  -28.0588 Cl  0  0  0  0  0  0  0  0  0  0  0  0
   -0.4161  -53.1901  -28.2472 C   0  0  0  0  0  0  0  0  0  0  0  0
    0.8298  -53.4076  -27.7181 C   0  0  0  0  0  0  0  0  0  0  0  0
    2.0459  -54.0954  -28.8013 Cl  0  0  0  0  0  0  0  0  0  0  0  0
    1.1357  -53.1114  -26.4116 C   0  0  0  0  0  0  0  0  0  0  0  0
 11 12  1  0  0  0
 12  5  1  0  0  0
  5  6  2  0  0  0
  6  7  1  0  0  0
  7  8  2  0  0  0
  8  9  1  0  0  0
  9 13  1  0  0  0
 13 14  1  0  0  0
  9 10  2  0  0  0
 10 15  1  0  0  0
 15 16  1  0  0  0
  7  1  1  0  0  0
  1  2  2  0  0  0
  1  3  1  0  0  0
  3 17  1  0  0  0
 17 18  1  0  0  0
 18 19  1  0  0  0
 19 20  1  0  0  0
 20 21  1  0  0  0
 21 22  1  0  0  0
 22 23  1  0  0  0
 23 24  2  0  0  0
 23 25  1  0  0  0
 25 26  2  0  0  0
 26 27  1  0  0  0
 27 28  1  0  0  0
 27 29  2  0  0  0
 29 30  1  0  0  0
 30 31  1  0  0  0
 30 32  2  0  0  0
 10  5  1  0  0  0
 22 18  1  0  0  0
 32 25  1  0  0  0
  3  4  1  0  0  0
M  END
> <minimizedAffinity>
-6.68918

> <CNNscore>
0.2369711548

> <CNNaffinity>
6.1108198166

> <CNN_VS>
1.4480880499

> <CNNaffinity_variance>
0.5157014132

$$$$
[H]c1c(Cl)c([H])c(C(=O)N2C([H])([H])C([H])([H])C([H])([H])[C@@]2([H])C([H])([H])N([H])C(=O)c2c([H])c(OC([H])([H])[H])c(OC([H])([H])[H])c(OC([H])([H])[H])c2[H])c([H])c1Cl


 32 34  0  0  0  0  0  0  0  0999 V2000
    3.3396  -49.5638  -26.8917 C   0  0  0  0  0  0  0  0  0  0  0  0
    3.8170  -49.4225  -28.0408 O   0  0  0  0  0  0  0  0  0  0  0  0
    2.8567  -50.8237  -26.4858 N   0  0  0  0  0  0  0  0  0  0  0  0
    2.4674  -50.8916  -25.5144 H   0  0  0  0  0  0  0  0  0  0  0  0
    3.2044  -46.0182  -25.7346 C   0  0  0  0  0  0  0  0  0  0  0  0
    3.2155  -47.1420  -26.5716 C   0  0  0  0  0  0  0  0  0  0  0  0
    3.3042  -48.4005  -26.0243 C   0  0  0  0  0  0  0  0  0  0  0  0
    3.3801  -48.5118  -24.6414 C   0  0  0  0  0  0  0  0  0  0  0  0
    3.3692  -47.4021  -23.8212 C   0  0  0  0  0  0  0  0  0  0  0  0
    3.2809  -46.1397  -24.3682 C   0  0  0  0  0  0  0  0  0  0  0  0
    4.2360  -44.1841  -26.9149 C   0  0  0  0  0  0  0  0  0  0  0  0
    3.1161  -44.7780  -26.2917 O   0  0  0  0  0  0  0  0  0  0  0  0
    3.4495  -47.6198  -22.4576 O   0  0  0  0  0  0  0  0  0  0  0  0
    4.3248  -48.5108  -21.8447 C   0  0  0  0  0  0  0  0  0  0  0  0
    3.2731  -45.0542  -23.4976 O   0  0  0  0  0  0  0  0  0  0  0  0
    4.4648  -44.4210  -23.0735 C   0  0  0  0  0  0  0  0  0  0  0  0
    2.9201  -51.9182  -27.3962 C   0  0  0  0  0  0  0  0  0  0  0  0
    2.0010  -53.0367  -27.1372 C   0  0  0  0  0  0  0  0  0  0  0  0
    1.0595  -53.4571  -28.1768 C   0  0  0  0  0  0  0  0  0  0  0  0
   -0.1029  -52.5424  -28.0196 C   0  0  0  0  0  0  0  0  0  0  0  0
   -0.1943  -52.4940  -26.4786 C   0  0  0  0  0  0  0  0  0  0  0  0
    1.1199  -52.7544  -25.9788 N   0  0  0  0  0  0  0  0  0  0  0  0
    1.6214  -52.7505  -24.6605 C   0  0  0  0  0  0  0  0  0  0  0  0
    2.9002  -52.9896  -24.5173 O   0  0  0  0  0  0  0  0  0  0  0  0
    0.9282  -52.5161  -23.4209 C   0  0  0  0  0  0  0  0  0  0  0  0
    0.0105  -53.3394  -22.8209 C   0  0  0  0  0  0  0  0  0  0  0  0
   -0.6455  -53.0222  -21.6195 C   0  0  0  0  0  0  0  0  0  0  0  0
   -1.8036  -54.1164  -20.9035 Cl  0  0  0  0  0  0  0  0  0  0  0  0
   -0.3850  -51.8382  -20.9791 C   0  0  0  0  0  0  0  0  0  0  0  0
    0.5300  -50.9990  -21.5604 C   0  0  0  0  0  0  0  0  0  0  0  0
    0.8570  -49.4759  -20.7246 Cl  0  0  0  0  0  0  0  0  0  0  0  0
    1.1712  -51.3107  -22.7352 C   0  0  0  0  0  0  0  0  0  0  0  0
 11 12  1  0  0  0
 12  5  1  0  0  0
  5  6  2  0  0  0
  6  7  1  0  0  0
  7  8  2  0  0  0
  8  9  1  0  0  0
  9 13  1  0  0  0
 13 14  1  0  0  0
  9 10  2  0  0  0
 10 15  1  0  0  0
 15 16  1  0  0  0
  7  1  1  0  0  0
  1  2  2  0  0  0
  1  3  1  0  0  0
  3 17  1  0  0  0
 17 18  1  0  0  0
 18 19  1  0  0  0
 19 20  1  0  0  0
 20 21  1  0  0  0
 21 22  1  0  0  0
 22 23  1  0  0  0
 23 24  2  0  0  0
 23 25  1  0  0  0
 25 26  2  0  0  0
 26 27  1  0  0  0
 27 28  1  0  0  0
 27 29  2  0  0  0
 29 30  1  0  0  0
 30 31  1  0  0  0
 30 32  2  0  0  0
 10  5  1  0  0  0
 22 18  1  0  0  0
 32 25  1  0  0  0
  3  4  1  0  0  0
M  END
> <minimizedAffinity>
-7.34801

> <CNNscore>
0.2351435721

> <CNNaffinity>
6.0634570122

> <CNN_VS>
1.4257829189

> <CNNaffinity_variance>
0.3505786359

$$$$
[H]c1c(Cl)c([H])c(C(=O)N2C([H])([H])C([H])([H])C([H])([H])[C@@]2([H])C([H])([H])N([H])C(=O)c2c([H])c(OC([H])([H])[H])c(OC([H])([H])[H])c(OC([H])([H])[H])c2[H])c([H])c1Cl


 32 34  0  0  0  0  0  0  0  0999 V2000
    3.0757  -50.2737  -24.6092 C   0  0  0  0  0  0  0  0  0  0  0  0
    4.3114  -50.3619  -24.7922 O   0  0  0  0  0  0  0  0  0  0  0  0
    2.5765  -49.4085  -23.6153 N   0  0  0  0  0  0  0  0  0  0  0  0
    1.5348  -49.3691  -23.5009 H   0  0  0  0  0  0  0  0  0  0  0  0
    0.0647  -52.0844  -25.8678 C   0  0  0  0  0  0  0  0  0  0  0  0
    0.8966  -51.2823  -25.0751 C   0  0  0  0  0  0  0  0  0  0  0  0
    2.2071  -51.0850  -25.4424 C   0  0  0  0  0  0  0  0  0  0  0  0
    2.6634  -51.6970  -26.6033 C   0  0  0  0  0  0  0  0  0  0  0  0
    1.8405  -52.4862  -27.3806 C   0  0  0  0  0  0  0  0  0  0  0  0
    0.5266  -52.6856  -27.0136 C   0  0  0  0  0  0  0  0  0  0  0  0
   -2.2514  -51.4151  -25.9630 C   0  0  0  0  0  0  0  0  0  0  0  0
   -1.2312  -52.2705  -25.4908 O   0  0  0  0  0  0  0  0  0  0  0  0
    2.3909  -53.0509  -28.5170 O   0  0  0  0  0  0  0  0  0  0  0  0
    2.2920  -54.3942  -28.8655 C   0  0  0  0  0  0  0  0  0  0  0  0
   -0.2611  -53.4894  -27.8320 O   0  0  0  0  0  0  0  0  0  0  0  0
   -1.0427  -52.9557  -28.8833 C   0  0  0  0  0  0  0  0  0  0  0  0
    3.4926  -48.6476  -22.8328 C   0  0  0  0  0  0  0  0  0  0  0  0
    3.6808  -49.0834  -21.4409 C   0  0  0  0  0  0  0  0  0  0  0  0
    5.0311  -49.3482  -20.9403 C   0  0  0  0  0  0  0  0  0  0  0  0
    5.3150  -50.7481  -21.3552 C   0  0  0  0  0  0  0  0  0  0  0  0
    3.9425  -51.3935  -21.0635 C   0  0  0  0  0  0  0  0  0  0  0  0
    2.9664  -50.3542  -21.1716 N   0  0  0  0  0  0  0  0  0  0  0  0
    1.5594  -50.3996  -21.0845 C   0  0  0  0  0  0  0  0  0  0  0  0
    0.9221  -49.2716  -21.2708 O   0  0  0  0  0  0  0  0  0  0  0  0
    0.6970  -51.5211  -20.8190 C   0  0  0  0  0  0  0  0  0  0  0  0
    0.3034  -52.4873  -21.7086 C   0  0  0  0  0  0  0  0  0  0  0  0
   -0.5681  -53.5380  -21.3755 C   0  0  0  0  0  0  0  0  0  0  0  0
   -1.0296  -54.7408  -22.5550 Cl  0  0  0  0  0  0  0  0  0  0  0  0
   -1.0756  -53.6415  -20.1059 C   0  0  0  0  0  0  0  0  0  0  0  0
   -0.6952  -52.6866  -19.1988 C   0  0  0  0  0  0  0  0  0  0  0  0
   -1.3562  -52.8317  -17.5657 Cl  0  0  0  0  0  0  0  0  0  0  0  0
    0.1575  -51.6599  -19.5259 C   0  0  0  0  0  0  0  0  0  0  0  0
 11 12  1  0  0  0
 12  5  1  0  0  0
  5  6  2  0  0  0
  6  7  1  0  0  0
  7  8  2  0  0  0
  8  9  1  0  0  0
  9 13  1  0  0  0
 13 14  1  0  0  0
  9 10  2  0  0  0
 10 15  1  0  0  0
 15 16  1  0  0  0
  7  1  1  0  0  0
  1  2  2  0  0  0
  1  3  1  0  0  0
  3 17  1  0  0  0
 17 18  1  0  0  0
 18 19  1  0  0  0
 19 20  1  0  0  0
 20 21  1  0  0  0
 21 22  1  0  0  0
 22 23  1  0  0  0
 23 24  2  0  0  0
 23 25  1  0  0  0
 25 26  2  0  0  0
 26 27  1  0  0  0
 27 28  1  0  0  0
 27 29  2  0  0  0
 29 30  1  0  0  0
 30 31  1  0  0  0
 30 32  2  0  0  0
 10  5  1  0  0  0
 22 18  1  0  0  0
 32 25  1  0  0  0
  3  4  1  0  0  0
M  END
> <minimizedAffinity>
-6.94607

> <CNNscore>
0.2070157677

> <CNNaffinity>
6.3359541893

> <CNN_VS>
1.3116424084

> <CNNaffinity_variance>
0.2461818010

$$$$
[H]c1c(Cl)c([H])c(C(=O)N2C([H])([H])C([H])([H])C([H])([H])[C@@]2([H])C([H])([H])N([H])C(=O)c2c([H])c(OC([H])([H])[H])c(OC([H])([H])[H])c(OC([H])([H])[H])c2[H])c([H])c1Cl


 32 34  0  0  0  0  0  0  0  0999 V2000
    0.1591  -52.8863  -21.6995 C   0  0  0  0  0  0  0  0  0  0  0  0
   -0.3337  -53.9701  -21.3111 O   0  0  0  0  0  0  0  0  0  0  0  0
    0.4613  -51.8799  -20.7608 N   0  0  0  0  0  0  0  0  0  0  0  0
    0.8731  -50.9910  -21.1350 H   0  0  0  0  0  0  0  0  0  0  0  0
   -0.4028  -52.7798  -25.3875 C   0  0  0  0  0  0  0  0  0  0  0  0
   -0.6353  -52.9191  -24.0127 C   0  0  0  0  0  0  0  0  0  0  0  0
    0.3935  -52.7191  -23.1222 C   0  0  0  0  0  0  0  0  0  0  0  0
    1.6430  -52.3809  -23.6269 C   0  0  0  0  0  0  0  0  0  0  0  0
    1.8672  -52.2453  -24.9818 C   0  0  0  0  0  0  0  0  0  0  0  0
    0.8372  -52.4460  -25.8759 C   0  0  0  0  0  0  0  0  0  0  0  0
   -2.2984  -51.9225  -26.6095 C   0  0  0  0  0  0  0  0  0  0  0  0
   -1.4320  -52.9812  -26.2573 O   0  0  0  0  0  0  0  0  0  0  0  0
    3.1469  -51.9062  -25.3826 O   0  0  0  0  0  0  0  0  0  0  0  0
    4.3135  -52.2954  -24.7319 C   0  0  0  0  0  0  0  0  0  0  0  0
    1.1157  -52.2962  -27.2311 O   0  0  0  0  0  0  0  0  0  0  0  0
    1.4308  -53.3977  -28.0608 C   0  0  0  0  0  0  0  0  0  0  0  0
    0.1976  -52.1157  -19.3804 C   0  0  0  0  0  0  0  0  0  0  0  0
    1.1680  -51.5587  -18.4261 C   0  0  0  0  0  0  0  0  0  0  0  0
    0.6927  -50.7886  -17.2750 C   0  0  0  0  0  0  0  0  0  0  0  0
    0.5059  -49.4095  -17.8000 C   0  0  0  0  0  0  0  0  0  0  0  0
    1.7606  -49.2949  -18.6932 C   0  0  0  0  0  0  0  0  0  0  0  0
    2.1056  -50.6238  -19.0930 N   0  0  0  0  0  0  0  0  0  0  0  0
    3.1075  -51.0913  -19.9687 C   0  0  0  0  0  0  0  0  0  0  0  0
    3.1532  -52.3832  -20.1735 O   0  0  0  0  0  0  0  0  0  0  0  0
    4.1082  -50.3494  -20.6900 C   0  0  0  0  0  0  0  0  0  0  0  0
    5.3743  -50.0421  -20.2629 C   0  0  0  0  0  0  0  0  0  0  0  0
    6.2844  -49.2850  -21.0197 C   0  0  0  0  0  0  0  0  0  0  0  0
    7.8861  -48.9298  -20.4202 Cl  0  0  0  0  0  0  0  0  0  0  0  0
    5.9304  -48.8084  -22.2556 C   0  0  0  0  0  0  0  0  0  0  0  0
    4.6690  -49.1040  -22.7039 C   0  0  0  0  0  0  0  0  0  0  0  0
    4.2252  -48.4838  -24.2988 Cl  0  0  0  0  0  0  0  0  0  0  0  0
    3.7801  -49.8448  -21.9628 C   0  0  0  0  0  0  0  0  0  0  0  0
 11 12  1  0  0  0
 12  5  1  0  0  0
  5  6  2  0  0  0
  6  7  1  0  0  0
  7  8  2  0  0  0
  8  9  1  0  0  0
  9 13  1  0  0  0
 13 14  1  0  0  0
  9 10  2  0  0  0
 10 15  1  0  0  0
 15 16  1  0  0  0
  7  1  1  0  0  0
  1  2  2  0  0  0
  1  3  1  0  0  0
  3 17  1  0  0  0
 17 18  1  0  0  0
 18 19  1  0  0  0
 19 20  1  0  0  0
 20 21  1  0  0  0
 21 22  1  0  0  0
 22 23  1  0  0  0
 23 24  2  0  0  0
 23 25  1  0  0  0
 25 26  2  0  0  0
 26 27  1  0  0  0
 27 28  1  0  0  0
 27 29  2  0  0  0
 29 30  1  0  0  0
 30 31  1  0  0  0
 30 32  2  0  0  0
 10  5  1  0  0  0
 22 18  1  0  0  0
 32 25  1  0  0  0
  3  4  1  0  0  0
M  END
> <minimizedAffinity>
-6.56724

> <CNNscore>
0.2052911073

> <CNNaffinity>
6.3096761703

> <CNN_VS>
1.2953203917

> <CNNaffinity_variance>
0.6841624975

$$$$
[H]c1nc(N([H])c2c([H])c(OC([H])([H])[H])c(OC([H])([H])[H])c(OC([H])([H])[H])c2[H])nc(N([H])c2nc3c(c([H])c2[H])OC(C([H])([H])[H])(C([H])([H])[H])C(=O)N3[H])c1F


 37 40  0  0  0  0  0  0  0  0999 V2000
   -0.7890  -53.9597  -21.9220 C   0  0  0  0  0  0  0  0  0  0  0  0
   -1.7427  -54.1332  -20.9991 N   0  0  0  0  0  0  0  0  0  0  0  0
   -1.6934  -53.6759  -19.7462 C   0  0  0  0  0  0  0  0  0  0  0  0
   -0.5963  -52.9738  -19.3496 C   0  0  0  0  0  0  0  0  0  0  0  0
   -0.4203  -52.4607  -18.1238 F   0  0  0  0  0  0  0  0  0  0  0  0
    0.4402  -52.7573  -20.2709 C   0  0  0  0  0  0  0  0  0  0  0  0
    0.2945  -53.2567  -21.5022 N   0  0  0  0  0  0  0  0  0  0  0  0
   -0.8119  -54.4281  -23.2476 N   0  0  0  0  0  0  0  0  0  0  0  0
   -1.3682  -55.3315  -23.3993 H   0  0  0  0  0  0  0  0  0  0  0  0
    0.1613  -53.3632  -26.7034 C   0  0  0  0  0  0  0  0  0  0  0  0
   -0.5321  -53.9765  -25.6500 C   0  0  0  0  0  0  0  0  0  0  0  0
   -0.1826  -53.8319  -24.3561 C   0  0  0  0  0  0  0  0  0  0  0  0
    0.9379  -53.0165  -24.0986 C   0  0  0  0  0  0  0  0  0  0  0  0
    1.6376  -52.4022  -25.1042 C   0  0  0  0  0  0  0  0  0  0  0  0
    1.2576  -52.5683  -26.4210 C   0  0  0  0  0  0  0  0  0  0  0  0
   -1.2466  -52.7249  -28.5462 C   0  0  0  0  0  0  0  0  0  0  0  0
   -0.2601  -53.5616  -28.0044 O   0  0  0  0  0  0  0  0  0  0  0  0
    2.7220  -51.6165  -24.8155 O   0  0  0  0  0  0  0  0  0  0  0  0
    3.9307  -52.2258  -24.4124 C   0  0  0  0  0  0  0  0  0  0  0  0
    1.9370  -51.9652  -27.4774 O   0  0  0  0  0  0  0  0  0  0  0  0
    3.0487  -52.6535  -28.0352 C   0  0  0  0  0  0  0  0  0  0  0  0
    1.5939  -52.0307  -19.8876 N   0  0  0  0  0  0  0  0  0  0  0  0
    2.1856  -52.3928  -19.1278 H   0  0  0  0  0  0  0  0  0  0  0  0
    1.9048  -50.8228  -20.5595 C   0  0  0  0  0  0  0  0  0  0  0  0
    0.9643  -49.7846  -20.6320 C   0  0  0  0  0  0  0  0  0  0  0  0
    1.2796  -48.6171  -21.2876 C   0  0  0  0  0  0  0  0  0  0  0  0
    2.5101  -48.4454  -21.8790 C   0  0  0  0  0  0  0  0  0  0  0  0
    2.8612  -47.2814  -22.5481 O   0  0  0  0  0  0  0  0  0  0  0  0
    3.8959  -47.2520  -23.5193 C   0  0  0  0  0  0  0  0  0  0  0  0
    4.4258  -45.8554  -23.6765 C   0  0  0  0  0  0  0  0  0  0  0  0
    3.3857  -47.7867  -24.8314 C   0  0  0  0  0  0  0  0  0  0  0  0
    5.0352  -48.1142  -23.0800 C   0  0  0  0  0  0  0  0  0  0  0  0
    6.2358  -47.7678  -23.3093 O   0  0  0  0  0  0  0  0  0  0  0  0
    4.7114  -49.3158  -22.4071 N   0  0  0  0  0  0  0  0  0  0  0  0
    3.4385  -49.4826  -21.8017 C   0  0  0  0  0  0  0  0  0  0  0  0
    3.0849  -50.6033  -21.1512 N   0  0  0  0  0  0  0  0  0  0  0  0
    5.4184  -50.0723  -22.3634 H   0  0  0  0  0  0  0  0  0  0  0  0
 16 17  1  0  0  0
 17 10  1  0  0  0
 10 11  2  0  0  0
 11 12  1  0  0  0
 12  8  1  0  0  0
  8  1  1  0  0  0
  1  2  2  0  0  0
  2  3  1  0  0  0
  3  4  2  0  0  0
  4  5  1  0  0  0
  4  6  1  0  0  0
  6 22  1  0  0  0
 22 24  1  0  0  0
 24 25  2  0  0  0
 25 26  1  0  0  0
 26 27  2  0  0  0
 27 28  1  0  0  0
 28 29  1  0  0  0
 29 30  1  0  0  0
 29 31  1  0  0  0
 29 32  1  0  0  0
 32 33  2  0  0  0
 32 34  1  0  0  0
 34 35  1  0  0  0
 35 36  2  0  0  0
  6  7  2  0  0  0
 12 13  2  0  0  0
 13 14  1  0  0  0
 14 18  1  0  0  0
 18 19  1  0  0  0
 14 15  2  0  0  0
 15 20  1  0  0  0
 20 21  1  0  0  0
 15 10  1  0  0  0
  7  1  1  0  0  0
 36 24  1  0  0  0
 35 27  1  0  0  0
  8  9  1  0  0  0
 22 23  1  0  0  0
 34 37  1  0  0  0
M  END
> <minimizedAffinity>
-7.62752

> <CNNscore>
0.5694377422

> <CNNaffinity>
7.2929701805

> <CNN_VS>
4.1528925896

> <CNNaffinity_variance>
0.2997055650

$$$$
[H]c1nc(N([H])c2c([H])c(OC([H])([H])[H])c(OC([H])([H])[H])c(OC([H])([H])[H])c2[H])nc(N([H])c2nc3c(c([H])c2[H])OC(C([H])([H])[H])(C([H])([H])[H])C(=O)N3[H])c1F


 37 40  0  0  0  0  0  0  0  0999 V2000
   -1.1155  -53.4520  -20.4558 C   0  0  0  0  0  0  0  0  0  0  0  0
   -1.2830  -54.5971  -21.1280 N   0  0  0  0  0  0  0  0  0  0  0  0
   -0.9658  -54.7903  -22.4099 C   0  0  0  0  0  0  0  0  0  0  0  0
   -0.4272  -53.7560  -23.1128 C   0  0  0  0  0  0  0  0  0  0  0  0
   -0.0652  -53.8157  -24.4021 F   0  0  0  0  0  0  0  0  0  0  0  0
   -0.2259  -52.5274  -22.4649 C   0  0  0  0  0  0  0  0  0  0  0  0
   -0.5770  -52.4360  -21.1783 N   0  0  0  0  0  0  0  0  0  0  0  0
   -1.4390  -53.2179  -19.1075 N   0  0  0  0  0  0  0  0  0  0  0  0
   -2.3288  -53.7064  -18.7637 H   0  0  0  0  0  0  0  0  0  0  0  0
    1.0734  -50.9526  -17.5013 C   0  0  0  0  0  0  0  0  0  0  0  0
    0.3985  -51.7117  -18.4681 C   0  0  0  0  0  0  0  0  0  0  0  0
   -0.7180  -52.4184  -18.2013 C   0  0  0  0  0  0  0  0  0  0  0  0
   -1.1924  -52.3606  -16.8753 C   0  0  0  0  0  0  0  0  0  0  0  0
   -0.5575  -51.6284  -15.9063 C   0  0  0  0  0  0  0  0  0  0  0  0
    0.5850  -50.9145  -16.2076 C   0  0  0  0  0  0  0  0  0  0  0  0
    3.3473  -50.9593  -18.2854 C   0  0  0  0  0  0  0  0  0  0  0  0
    2.2132  -50.2558  -17.8545 O   0  0  0  0  0  0  0  0  0  0  0  0
   -1.0482  -51.5960  -14.6277 O   0  0  0  0  0  0  0  0  0  0  0  0
   -2.4319  -51.4019  -14.4220 C   0  0  0  0  0  0  0  0  0  0  0  0
    1.2657  -50.1561  -15.2573 O   0  0  0  0  0  0  0  0  0  0  0  0
    0.8618  -48.8065  -15.0671 C   0  0  0  0  0  0  0  0  0  0  0  0
    0.3324  -51.4332  -23.1698 N   0  0  0  0  0  0  0  0  0  0  0  0
   -0.1564  -51.0679  -23.9981 H   0  0  0  0  0  0  0  0  0  0  0  0
    1.5504  -50.8686  -22.7173 C   0  0  0  0  0  0  0  0  0  0  0  0
    2.6442  -51.6893  -22.4048 C   0  0  0  0  0  0  0  0  0  0  0  0
    3.8210  -51.1277  -21.9665 C   0  0  0  0  0  0  0  0  0  0  0  0
    3.9481  -49.7646  -21.8273 C   0  0  0  0  0  0  0  0  0  0  0  0
    5.1199  -49.1649  -21.3880 O   0  0  0  0  0  0  0  0  0  0  0  0
    5.1345  -47.8654  -20.8173 C   0  0  0  0  0  0  0  0  0  0  0  0
    6.5035  -47.2586  -20.9340 C   0  0  0  0  0  0  0  0  0  0  0  0
    4.6933  -47.9298  -19.3789 C   0  0  0  0  0  0  0  0  0  0  0  0
    4.1872  -46.9726  -21.5521 C   0  0  0  0  0  0  0  0  0  0  0  0
    4.4731  -45.7516  -21.7553 O   0  0  0  0  0  0  0  0  0  0  0  0
    2.9762  -47.5495  -22.0017 N   0  0  0  0  0  0  0  0  0  0  0  0
    2.8557  -48.9569  -22.1404 C   0  0  0  0  0  0  0  0  0  0  0  0
    1.7282  -49.5511  -22.5643 N   0  0  0  0  0  0  0  0  0  0  0  0
    2.1783  -46.9279  -22.2280 H   0  0  0  0  0  0  0  0  0  0  0  0
 16 17  1  0  0  0
 17 10  1  0  0  0
 10 11  2  0  0  0
 11 12  1  0  0  0
 12  8  1  0  0  0
  8  1  1  0  0  0
  1  2  2  0  0  0
  2  3  1  0  0  0
  3  4  2  0  0  0
  4  5  1  0  0  0
  4  6  1  0  0  0
  6 22  1  0  0  0
 22 24  1  0  0  0
 24 25  2  0  0  0
 25 26  1  0  0  0
 26 27  2  0  0  0
 27 28  1  0  0  0
 28 29  1  0  0  0
 29 30  1  0  0  0
 29 31  1  0  0  0
 29 32  1  0  0  0
 32 33  2  0  0  0
 32 34  1  0  0  0
 34 35  1  0  0  0
 35 36  2  0  0  0
  6  7  2  0  0  0
 12 13  2  0  0  0
 13 14  1  0  0  0
 14 18  1  0  0  0
 18 19  1  0  0  0
 14 15  2  0  0  0
 15 20  1  0  0  0
 20 21  1  0  0  0
 15 10  1  0  0  0
  7  1  1  0  0  0
 36 24  1  0  0  0
 35 27  1  0  0  0
  8  9  1  0  0  0
 22 23  1  0  0  0
 34 37  1  0  0  0
M  END
> <minimizedAffinity>
-6.74319

> <CNNscore>
0.4425265789

> <CNNaffinity>
6.7520737648

> <CNN_VS>
2.9879720211

> <CNNaffinity_variance>
0.2588626742

$$$$
[H]c1nc(N([H])c2c([H])c(OC([H])([H])[H])c(OC([H])([H])[H])c(OC([H])([H])[H])c2[H])nc(N([H])c2nc3c(c([H])c2[H])OC(C([H])([H])[H])(C([H])([H])[H])C(=O)N3[H])c1F


 37 40  0  0  0  0  0  0  0  0999 V2000
   -1.1110  -53.2819  -20.9394 C   0  0  0  0  0  0  0  0  0  0  0  0
   -1.3399  -54.5567  -21.2768 N   0  0  0  0  0  0  0  0  0  0  0  0
   -1.1369  -55.0806  -22.4874 C   0  0  0  0  0  0  0  0  0  0  0  0
   -0.6594  -54.2755  -23.4762 C   0  0  0  0  0  0  0  0  0  0  0  0
   -0.4121  -54.6735  -24.7321 F   0  0  0  0  0  0  0  0  0  0  0  0
   -0.3987  -52.9271  -23.1866 C   0  0  0  0  0  0  0  0  0  0  0  0
   -0.6353  -52.4996  -21.9424 N   0  0  0  0  0  0  0  0  0  0  0  0
   -1.3143  -52.7013  -19.6750 N   0  0  0  0  0  0  0  0  0  0  0  0
   -2.3267  -52.7227  -19.3242 H   0  0  0  0  0  0  0  0  0  0  0  0
    0.5776  -51.2205  -16.8025 C   0  0  0  0  0  0  0  0  0  0  0  0
   -0.4427  -51.8331  -17.5442 C   0  0  0  0  0  0  0  0  0  0  0  0
   -0.3323  -52.1095  -18.8590 C   0  0  0  0  0  0  0  0  0  0  0  0
    0.8836  -51.7487  -19.4737 C   0  0  0  0  0  0  0  0  0  0  0  0
    1.9010  -51.1491  -18.7783 C   0  0  0  0  0  0  0  0  0  0  0  0
    1.7604  -50.8770  -17.4323 C   0  0  0  0  0  0  0  0  0  0  0  0
    0.1499  -52.0398  -14.5818 C   0  0  0  0  0  0  0  0  0  0  0  0
    0.3867  -50.9699  -15.4570 O   0  0  0  0  0  0  0  0  0  0  0  0
    3.0691  -50.8125  -19.4099 O   0  0  0  0  0  0  0  0  0  0  0  0
    3.6423  -51.7153  -20.3325 C   0  0  0  0  0  0  0  0  0  0  0  0
    2.7656  -50.2689  -16.6830 O   0  0  0  0  0  0  0  0  0  0  0  0
    3.6865  -51.1074  -15.9977 C   0  0  0  0  0  0  0  0  0  0  0  0
    0.0984  -52.0652  -24.1944 N   0  0  0  0  0  0  0  0  0  0  0  0
   -0.4760  -51.8847  -25.0287 H   0  0  0  0  0  0  0  0  0  0  0  0
    1.3747  -51.4727  -24.0293 C   0  0  0  0  0  0  0  0  0  0  0  0
    2.5412  -52.2336  -24.1964 C   0  0  0  0  0  0  0  0  0  0  0  0
    3.7739  -51.6454  -24.0331 C   0  0  0  0  0  0  0  0  0  0  0  0
    3.8870  -50.3136  -23.7062 C   0  0  0  0  0  0  0  0  0  0  0  0
    5.1139  -49.6885  -23.5339 O   0  0  0  0  0  0  0  0  0  0  0  0
    5.2532  -48.4946  -22.7790 C   0  0  0  0  0  0  0  0  0  0  0  0
    6.4989  -47.7609  -23.1863 C   0  0  0  0  0  0  0  0  0  0  0  0
    5.2721  -48.8151  -21.3077 C   0  0  0  0  0  0  0  0  0  0  0  0
    4.0954  -47.5859  -23.0397 C   0  0  0  0  0  0  0  0  0  0  0  0
    4.2610  -46.3280  -23.1057 O   0  0  0  0  0  0  0  0  0  0  0  0
    2.8271  -48.1902  -23.2062 N   0  0  0  0  0  0  0  0  0  0  0  0
    2.7222  -49.5653  -23.5423 C   0  0  0  0  0  0  0  0  0  0  0  0
    1.5418  -50.1834  -23.7120 N   0  0  0  0  0  0  0  0  0  0  0  0
    1.9759  -47.6129  -23.0788 H   0  0  0  0  0  0  0  0  0  0  0  0
 16 17  1  0  0  0
 17 10  1  0  0  0
 10 11  2  0  0  0
 11 12  1  0  0  0
 12  8  1  0  0  0
  8  1  1  0  0  0
  1  2  2  0  0  0
  2  3  1  0  0  0
  3  4  2  0  0  0
  4  5  1  0  0  0
  4  6  1  0  0  0
  6 22  1  0  0  0
 22 24  1  0  0  0
 24 25  2  0  0  0
 25 26  1  0  0  0
 26 27  2  0  0  0
 27 28  1  0  0  0
 28 29  1  0  0  0
 29 30  1  0  0  0
 29 31  1  0  0  0
 29 32  1  0  0  0
 32 33  2  0  0  0
 32 34  1  0  0  0
 34 35  1  0  0  0
 35 36  2  0  0  0
  6  7  2  0  0  0
 12 13  2  0  0  0
 13 14  1  0  0  0
 14 18  1  0  0  0
 18 19  1  0  0  0
 14 15  2  0  0  0
 15 20  1  0  0  0
 20 21  1  0  0  0
 15 10  1  0  0  0
  7  1  1  0  0  0
 36 24  1  0  0  0
 35 27  1  0  0  0
  8  9  1  0  0  0
 22 23  1  0  0  0
 34 37  1  0  0  0
M  END
> <minimizedAffinity>
-6.62969

> <CNNscore>
0.3764890134

> <CNNaffinity>
6.7285447121

> <CNN_VS>
2.5332231522

> <CNNaffinity_variance>
0.2216542661

$$$$
[H]c1nc(N([H])c2c([H])c(OC([H])([H])[H])c(OC([H])([H])[H])c(OC([H])([H])[H])c2[H])nc(N([H])c2nc3c(c([H])c2[H])OC(C([H])([H])[H])(C([H])([H])[H])C(=O)N3[H])c1F


 37 40  0  0  0  0  0  0  0  0999 V2000
   -0.6427  -53.3252  -21.8282 C   0  0  0  0  0  0  0  0  0  0  0  0
   -0.7826  -53.9058  -20.6304 N   0  0  0  0  0  0  0  0  0  0  0  0
   -0.5026  -53.3306  -19.4591 C   0  0  0  0  0  0  0  0  0  0  0  0
   -0.0356  -52.0517  -19.4542 C   0  0  0  0  0  0  0  0  0  0  0  0
    0.2831  -51.3595  -18.3514 F   0  0  0  0  0  0  0  0  0  0  0  0
    0.1337  -51.3865  -20.6785 C   0  0  0  0  0  0  0  0  0  0  0  0
   -0.1756  -52.0503  -21.7967 N   0  0  0  0  0  0  0  0  0  0  0  0
   -0.9289  -53.9038  -23.0774 N   0  0  0  0  0  0  0  0  0  0  0  0
   -1.6462  -54.6997  -23.0543 H   0  0  0  0  0  0  0  0  0  0  0  0
   -0.4054  -52.9256  -26.6541 C   0  0  0  0  0  0  0  0  0  0  0  0
   -1.0407  -53.2610  -25.4497 C   0  0  0  0  0  0  0  0  0  0  0  0
   -0.3677  -53.5402  -24.3156 C   0  0  0  0  0  0  0  0  0  0  0  0
    1.0384  -53.4787  -24.3918 C   0  0  0  0  0  0  0  0  0  0  0  0
    1.6909  -53.1538  -25.5523 C   0  0  0  0  0  0  0  0  0  0  0  0
    0.9762  -52.8731  -26.6996 C   0  0  0  0  0  0  0  0  0  0  0  0
   -2.4930  -52.2230  -27.6204 C   0  0  0  0  0  0  0  0  0  0  0  0
   -1.1671  -52.6532  -27.7744 O   0  0  0  0  0  0  0  0  0  0  0  0
    3.0594  -53.1039  -25.5884 O   0  0  0  0  0  0  0  0  0  0  0  0
    3.7597  -52.5241  -24.5076 C   0  0  0  0  0  0  0  0  0  0  0  0
    1.5940  -52.5384  -27.9028 O   0  0  0  0  0  0  0  0  0  0  0  0
    1.9421  -53.5932  -28.7898 C   0  0  0  0  0  0  0  0  0  0  0  0
    0.6176  -50.0558  -20.7053 N   0  0  0  0  0  0  0  0  0  0  0  0
    0.0928  -49.3209  -20.2124 H   0  0  0  0  0  0  0  0  0  0  0  0
    1.8124  -49.7690  -21.4105 C   0  0  0  0  0  0  0  0  0  0  0  0
    2.9756  -50.5173  -21.1767 C   0  0  0  0  0  0  0  0  0  0  0  0
    4.1288  -50.2280  -21.8686 C   0  0  0  0  0  0  0  0  0  0  0  0
    4.1648  -49.2102  -22.7940 C   0  0  0  0  0  0  0  0  0  0  0  0
    5.3104  -48.8914  -23.5093 O   0  0  0  0  0  0  0  0  0  0  0  0
    5.5006  -47.6148  -24.0999 C   0  0  0  0  0  0  0  0  0  0  0  0
    6.4986  -47.7000  -25.2191 C   0  0  0  0  0  0  0  0  0  0  0  0
    5.9442  -46.6252  -23.0551 C   0  0  0  0  0  0  0  0  0  0  0  0
    4.2154  -47.1247  -24.6851 C   0  0  0  0  0  0  0  0  0  0  0  0
    4.2070  -46.4723  -25.7752 O   0  0  0  0  0  0  0  0  0  0  0  0
    3.0293  -47.4207  -23.9731 N   0  0  0  0  0  0  0  0  0  0  0  0
    3.0039  -48.4720  -23.0198 C   0  0  0  0  0  0  0  0  0  0  0  0
    1.9027  -48.7916  -22.3202 N   0  0  0  0  0  0  0  0  0  0  0  0
    2.1792  -46.8575  -24.1586 H   0  0  0  0  0  0  0  0  0  0  0  0
 16 17  1  0  0  0
 17 10  1  0  0  0
 10 11  2  0  0  0
 11 12  1  0  0  0
 12  8  1  0  0  0
  8  1  1  0  0  0
  1  2  2  0  0  0
  2  3  1  0  0  0
  3  4  2  0  0  0
  4  5  1  0  0  0
  4  6  1  0  0  0
  6 22  1  0  0  0
 22 24  1  0  0  0
 24 25  2  0  0  0
 25 26  1  0  0  0
 26 27  2  0  0  0
 27 28  1  0  0  0
 28 29  1  0  0  0
 29 30  1  0  0  0
 29 31  1  0  0  0
 29 32  1  0  0  0
 32 33  2  0  0  0
 32 34  1  0  0  0
 34 35  1  0  0  0
 35 36  2  0  0  0
  6  7  2  0  0  0
 12 13  2  0  0  0
 13 14  1  0  0  0
 14 18  1  0  0  0
 18 19  1  0  0  0
 14 15  2  0  0  0
 15 20  1  0  0  0
 20 21  1  0  0  0
 15 10  1  0  0  0
  7  1  1  0  0  0
 36 24  1  0  0  0
 35 27  1  0  0  0
  8  9  1  0  0  0
 22 23  1  0  0  0
 34 37  1  0  0  0
M  END
> <minimizedAffinity>
-6.71450

> <CNNscore>
0.3028751910

> <CNNaffinity>
6.9632806778

> <CNN_VS>
2.1090049744

> <CNNaffinity_variance>
0.2528246939

$$$$
[H]c1nc(N([H])c2c([H])c(OC([H])([H])[H])c(OC([H])([H])[H])c(OC([H])([H])[H])c2[H])nc(N([H])c2nc3c(c([H])c2[H])OC(C([H])([H])[H])(C([H])([H])[H])C(=O)N3[H])c1F


 37 40  0  0  0  0  0  0  0  0999 V2000
    1.1772  -52.6208  -23.4525 C   0  0  0  0  0  0  0  0  0  0  0  0
    0.0736  -52.9472  -24.1358 N   0  0  0  0  0  0  0  0  0  0  0  0
   -0.9782  -53.5974  -23.6336 C   0  0  0  0  0  0  0  0  0  0  0  0
   -0.9518  -53.9700  -22.3242 C   0  0  0  0  0  0  0  0  0  0  0  0
   -1.9385  -54.6259  -21.6971 F   0  0  0  0  0  0  0  0  0  0  0  0
    0.1780  -53.6572  -21.5524 C   0  0  0  0  0  0  0  0  0  0  0  0
    1.1793  -53.0031  -22.1494 N   0  0  0  0  0  0  0  0  0  0  0  0
    2.2996  -51.9371  -23.9525 N   0  0  0  0  0  0  0  0  0  0  0  0
    2.9645  -52.5316  -24.5468 H   0  0  0  0  0  0  0  0  0  0  0  0
    2.7656  -48.5280  -22.4745 C   0  0  0  0  0  0  0  0  0  0  0  0
    2.4437  -49.8872  -22.5995 C   0  0  0  0  0  0  0  0  0  0  0  0
    2.6159  -50.5822  -23.7416 C   0  0  0  0  0  0  0  0  0  0  0  0
    3.1478  -49.8678  -24.8340 C   0  0  0  0  0  0  0  0  0  0  0  0
    3.4735  -48.5395  -24.7459 C   0  0  0  0  0  0  0  0  0  0  0  0
    3.2860  -47.8521  -23.5635 C   0  0  0  0  0  0  0  0  0  0  0  0
    1.5675  -48.3580  -20.3957 C   0  0  0  0  0  0  0  0  0  0  0  0
    2.5587  -47.8860  -21.2685 O   0  0  0  0  0  0  0  0  0  0  0  0
    3.9886  -47.8779  -25.8292 O   0  0  0  0  0  0  0  0  0  0  0  0
    3.1233  -47.4759  -26.8706 C   0  0  0  0  0  0  0  0  0  0  0  0
    3.6013  -46.5020  -23.4250 O   0  0  0  0  0  0  0  0  0  0  0  0
    2.5772  -45.5487  -23.6763 C   0  0  0  0  0  0  0  0  0  0  0  0
    0.2344  -54.0317  -20.1878 N   0  0  0  0  0  0  0  0  0  0  0  0
    0.4591  -55.0055  -19.9434 H   0  0  0  0  0  0  0  0  0  0  0  0
   -0.0200  -53.0562  -19.1924 C   0  0  0  0  0  0  0  0  0  0  0  0
    0.7723  -51.9018  -19.1061 C   0  0  0  0  0  0  0  0  0  0  0  0
    0.5140  -50.9628  -18.1346 C   0  0  0  0  0  0  0  0  0  0  0  0
   -0.5151  -51.1344  -17.2376 C   0  0  0  0  0  0  0  0  0  0  0  0
   -0.8034  -50.2078  -16.2455 O   0  0  0  0  0  0  0  0  0  0  0  0
   -1.5233  -50.5568  -15.0731 C   0  0  0  0  0  0  0  0  0  0  0  0
   -2.1520  -49.3366  -14.4631 C   0  0  0  0  0  0  0  0  0  0  0  0
   -0.6086  -51.2407  -14.0916 C   0  0  0  0  0  0  0  0  0  0  0  0
   -2.6280  -51.5044  -15.4136 C   0  0  0  0  0  0  0  0  0  0  0  0
   -3.7502  -51.4306  -14.8226 O   0  0  0  0  0  0  0  0  0  0  0  0
   -2.3624  -52.4713  -16.4115 N   0  0  0  0  0  0  0  0  0  0  0  0
   -1.2973  -52.2847  -17.3310 C   0  0  0  0  0  0  0  0  0  0  0  0
   -1.0068  -53.1727  -18.2959 N   0  0  0  0  0  0  0  0  0  0  0  0
   -2.9579  -53.3182  -16.4605 H   0  0  0  0  0  0  0  0  0  0  0  0
 16 17  1  0  0  0
 17 10  1  0  0  0
 10 11  2  0  0  0
 11 12  1  0  0  0
 12  8  1  0  0  0
  8  1  1  0  0  0
  1  2  2  0  0  0
  2  3  1  0  0  0
  3  4  2  0  0  0
  4  5  1  0  0  0
  4  6  1  0  0  0
  6 22  1  0  0  0
 22 24  1  0  0  0
 24 25  2  0  0  0
 25 26  1  0  0  0
 26 27  2  0  0  0
 27 28  1  0  0  0
 28 29  1  0  0  0
 29 30  1  0  0  0
 29 31  1  0  0  0
 29 32  1  0  0  0
 32 33  2  0  0  0
 32 34  1  0  0  0
 34 35  1  0  0  0
 35 36  2  0  0  0
  6  7  2  0  0  0
 12 13  2  0  0  0
 13 14  1  0  0  0
 14 18  1  0  0  0
 18 19  1  0  0  0
 14 15  2  0  0  0
 15 20  1  0  0  0
 20 21  1  0  0  0
 15 10  1  0  0  0
  7  1  1  0  0  0
 36 24  1  0  0  0
 35 27  1  0  0  0
  8  9  1  0  0  0
 22 23  1  0  0  0
 34 37  1  0  0  0
M  END
> <minimizedAffinity>
-6.82548

> <CNNscore>
0.2862326503

> <CNNaffinity>
6.7783789635

> <CNN_VS>
1.9401934147

> <CNNaffinity_variance>
0.0814567208

$$$$
[H]c1nc(N([H])c2c([H])c(OC([H])([H])[H])c(OC([H])([H])[H])c(OC([H])([H])[H])c2[H])nc(N([H])c2nc3c(c([H])c2[H])OC(C([H])([H])[H])(C([H])([H])[H])C(=O)N3[H])c1F


 37 40  0  0  0  0  0  0  0  0999 V2000
   -0.6378  -53.7396  -21.7941 C   0  0  0  0  0  0  0  0  0  0  0  0
   -1.6684  -53.7651  -20.9406 N   0  0  0  0  0  0  0  0  0  0  0  0
   -1.6320  -53.3364  -19.6773 C   0  0  0  0  0  0  0  0  0  0  0  0
   -0.4654  -52.8279  -19.1931 C   0  0  0  0  0  0  0  0  0  0  0  0
   -0.2934  -52.3645  -17.9471 F   0  0  0  0  0  0  0  0  0  0  0  0
    0.6536  -52.7735  -20.0386 C   0  0  0  0  0  0  0  0  0  0  0  0
    0.5140  -53.2283  -21.2878 N   0  0  0  0  0  0  0  0  0  0  0  0
   -0.6450  -54.1829  -23.1286 N   0  0  0  0  0  0  0  0  0  0  0  0
   -1.2566  -55.0425  -23.3171 H   0  0  0  0  0  0  0  0  0  0  0  0
    1.7741  -52.2516  -25.2361 C   0  0  0  0  0  0  0  0  0  0  0  0
    1.1331  -52.7971  -24.1145 C   0  0  0  0  0  0  0  0  0  0  0  0
    0.0640  -53.6135  -24.2026 C   0  0  0  0  0  0  0  0  0  0  0  0
   -0.3947  -53.9048  -25.5032 C   0  0  0  0  0  0  0  0  0  0  0  0
    0.2087  -53.3890  -26.6203 C   0  0  0  0  0  0  0  0  0  0  0  0
    1.3020  -52.5547  -26.5006 C   0  0  0  0  0  0  0  0  0  0  0  0
    2.7050  -50.0342  -25.1887 C   0  0  0  0  0  0  0  0  0  0  0  0
    2.8652  -51.4217  -25.0618 O   0  0  0  0  0  0  0  0  0  0  0  0
   -0.2653  -53.6947  -27.8688 O   0  0  0  0  0  0  0  0  0  0  0  0
   -1.1703  -52.8134  -28.5005 C   0  0  0  0  0  0  0  0  0  0  0  0
    1.9487  -52.0057  -27.6059 O   0  0  0  0  0  0  0  0  0  0  0  0
    3.0264  -52.7348  -28.1782 C   0  0  0  0  0  0  0  0  0  0  0  0
    1.8808  -52.2500  -19.5635 N   0  0  0  0  0  0  0  0  0  0  0  0
    2.2347  -52.5542  -18.6465 H   0  0  0  0  0  0  0  0  0  0  0  0
    2.5910  -51.3202  -20.3623 C   0  0  0  0  0  0  0  0  0  0  0  0
    3.8832  -51.6151  -20.8215 C   0  0  0  0  0  0  0  0  0  0  0  0
    4.5613  -50.7030  -21.5964 C   0  0  0  0  0  0  0  0  0  0  0  0
    3.9926  -49.4962  -21.9334 C   0  0  0  0  0  0  0  0  0  0  0  0
    4.6480  -48.5535  -22.7128 O   0  0  0  0  0  0  0  0  0  0  0  0
    4.2944  -47.1790  -22.6914 C   0  0  0  0  0  0  0  0  0  0  0  0
    4.7446  -46.5036  -23.9551 C   0  0  0  0  0  0  0  0  0  0  0  0
    4.8923  -46.5125  -21.4805 C   0  0  0  0  0  0  0  0  0  0  0  0
    2.8088  -47.0336  -22.6132 C   0  0  0  0  0  0  0  0  0  0  0  0
    2.2148  -46.1034  -23.2425 O   0  0  0  0  0  0  0  0  0  0  0  0
    2.1111  -47.9704  -21.8151 N   0  0  0  0  0  0  0  0  0  0  0  0
    2.7079  -49.2118  -21.4725 C   0  0  0  0  0  0  0  0  0  0  0  0
    2.0857  -50.1334  -20.7191 N   0  0  0  0  0  0  0  0  0  0  0  0
    1.1572  -47.7358  -21.4846 H   0  0  0  0  0  0  0  0  0  0  0  0
 16 17  1  0  0  0
 17 10  1  0  0  0
 10 11  2  0  0  0
 11 12  1  0  0  0
 12  8  1  0  0  0
  8  1  1  0  0  0
  1  2  2  0  0  0
  2  3  1  0  0  0
  3  4  2  0  0  0
  4  5  1  0  0  0
  4  6  1  0  0  0
  6 22  1  0  0  0
 22 24  1  0  0  0
 24 25  2  0  0  0
 25 26  1  0  0  0
 26 27  2  0  0  0
 27 28  1  0  0  0
 28 29  1  0  0  0
 29 30  1  0  0  0
 29 31  1  0  0  0
 29 32  1  0  0  0
 32 33  2  0  0  0
 32 34  1  0  0  0
 34 35  1  0  0  0
 35 36  2  0  0  0
  6  7  2  0  0  0
 12 13  2  0  0  0
 13 14  1  0  0  0
 14 18  1  0  0  0
 18 19  1  0  0  0
 14 15  2  0  0  0
 15 20  1  0  0  0
 20 21  1  0  0  0
 15 10  1  0  0  0
  7  1  1  0  0  0
 36 24  1  0  0  0
 35 27  1  0  0  0
  8  9  1  0  0  0
 22 23  1  0  0  0
 34 37  1  0  0  0
M  END
> <minimizedAffinity>
-7.21615

> <CNNscore>
0.2852786183

> <CNNaffinity>
7.0955514908

> <CNN_VS>
2.0242090225

> <CNNaffinity_variance>
0.3479499221

$$$$
[H]c1nc(N([H])c2c([H])c(OC([H])([H])[H])c(OC([H])([H])[H])c(OC([H])([H])[H])c2[H])nc(N([H])c2nc3c(c([H])c2[H])OC(C([H])([H])[H])(C([H])([H])[H])C(=O)N3[H])c1F


 37 40  0  0  0  0  0  0  0  0999 V2000
   -0.7506  -53.2569  -19.6162 C   0  0  0  0  0  0  0  0  0  0  0  0
   -1.5272  -53.9271  -20.4759 N   0  0  0  0  0  0  0  0  0  0  0  0
   -1.5282  -53.7633  -21.8005 C   0  0  0  0  0  0  0  0  0  0  0  0
   -0.6812  -52.8477  -22.3463 C   0  0  0  0  0  0  0  0  0  0  0  0
   -0.5822  -52.5854  -23.6572 F   0  0  0  0  0  0  0  0  0  0  0  0
    0.1601  -52.1112  -21.4979 C   0  0  0  0  0  0  0  0  0  0  0  0
    0.0850  -52.3499  -20.1848 N   0  0  0  0  0  0  0  0  0  0  0  0
   -0.7262  -53.4069  -18.2183 N   0  0  0  0  0  0  0  0  0  0  0  0
   -0.0827  -54.1841  -17.8572 H   0  0  0  0  0  0  0  0  0  0  0  0
   -3.4001  -52.0390  -15.9815 C   0  0  0  0  0  0  0  0  0  0  0  0
   -2.7341  -52.8543  -16.9079 C   0  0  0  0  0  0  0  0  0  0  0  0
   -1.4557  -52.6493  -17.2832 C   0  0  0  0  0  0  0  0  0  0  0  0
   -0.7980  -51.5530  -16.6896 C   0  0  0  0  0  0  0  0  0  0  0  0
   -1.4191  -50.7368  -15.7807 C   0  0  0  0  0  0  0  0  0  0  0  0
   -2.7297  -50.9697  -15.4150 C   0  0  0  0  0  0  0  0  0  0  0  0
   -5.1107  -53.6461  -15.4557 C   0  0  0  0  0  0  0  0  0  0  0  0
   -4.7126  -52.3153  -15.6492 O   0  0  0  0  0  0  0  0  0  0  0  0
   -0.7476  -49.6802  -15.2243 O   0  0  0  0  0  0  0  0  0  0  0  0
    0.1426  -49.9126  -14.1528 C   0  0  0  0  0  0  0  0  0  0  0  0
   -3.4037  -50.1682  -14.4959 O   0  0  0  0  0  0  0  0  0  0  0  0
   -4.0160  -48.9771  -14.9726 C   0  0  0  0  0  0  0  0  0  0  0  0
    1.0519  -51.1517  -22.0364 N   0  0  0  0  0  0  0  0  0  0  0  0
    0.9837  -50.9072  -23.0334 H   0  0  0  0  0  0  0  0  0  0  0  0
    2.0160  -50.5522  -21.1891 C   0  0  0  0  0  0  0  0  0  0  0  0
    3.1996  -51.2309  -20.8632 C   0  0  0  0  0  0  0  0  0  0  0  0
    4.1272  -50.6368  -20.0393 C   0  0  0  0  0  0  0  0  0  0  0  0
    3.9158  -49.3787  -19.5237 C   0  0  0  0  0  0  0  0  0  0  0  0
    4.8298  -48.7500  -18.6899 O   0  0  0  0  0  0  0  0  0  0  0  0
    4.4527  -47.7010  -17.8114 C   0  0  0  0  0  0  0  0  0  0  0  0
    5.6475  -46.8642  -17.4530 C   0  0  0  0  0  0  0  0  0  0  0  0
    3.8031  -48.2708  -16.5780 C   0  0  0  0  0  0  0  0  0  0  0  0
    3.4641  -46.8022  -18.4816 C   0  0  0  0  0  0  0  0  0  0  0  0
    3.4946  -45.5469  -18.2885 O   0  0  0  0  0  0  0  0  0  0  0  0
    2.5089  -47.4129  -19.3278 N   0  0  0  0  0  0  0  0  0  0  0  0
    2.7367  -48.7117  -19.8531 C   0  0  0  0  0  0  0  0  0  0  0  0
    1.8612  -49.3323  -20.6609 N   0  0  0  0  0  0  0  0  0  0  0  0
    1.6400  -46.8969  -19.5580 H   0  0  0  0  0  0  0  0  0  0  0  0
 16 17  1  0  0  0
 17 10  1  0  0  0
 10 11  2  0  0  0
 11 12  1  0  0  0
 12  8  1  0  0  0
  8  1  1  0  0  0
  1  2  2  0  0  0
  2  3  1  0  0  0
  3  4  2  0  0  0
  4  5  1  0  0  0
  4  6  1  0  0  0
  6 22  1  0  0  0
 22 24  1  0  0  0
 24 25  2  0  0  0
 25 26  1  0  0  0
 26 27  2  0  0  0
 27 28  1  0  0  0
 28 29  1  0  0  0
 29 30  1  0  0  0
 29 31  1  0  0  0
 29 32  1  0  0  0
 32 33  2  0  0  0
 32 34  1  0  0  0
 34 35  1  0  0  0
 35 36  2  0  0  0
  6  7  2  0  0  0
 12 13  2  0  0  0
 13 14  1  0  0  0
 14 18  1  0  0  0
 18 19  1  0  0  0
 14 15  2  0  0  0
 15 20  1  0  0  0
 20 21  1  0  0  0
 15 10  1  0  0  0
  7  1  1  0  0  0
 36 24  1  0  0  0
 35 27  1  0  0  0
  8  9  1  0  0  0
 22 23  1  0  0  0
 34 37  1  0  0  0
M  END
> <minimizedAffinity>
-6.79221

> <CNNscore>
0.2710154653

> <CNNaffinity>
6.5523910522

> <CNN_VS>
1.7757992744

> <CNNaffinity_variance>
0.1297141314

$$$$
[H]c1nc(N([H])c2c([H])c(OC([H])([H])[H])c(OC([H])([H])[H])c(OC([H])([H])[H])c2[H])nc(N([H])c2nc3c(c([H])c2[H])OC(C([H])([H])[H])(C([H])([H])[H])C(=O)N3[H])c1F


 37 40  0  0  0  0  0  0  0  0999 V2000
   -0.3937  -53.5370  -20.6421 C   0  0  0  0  0  0  0  0  0  0  0  0
   -1.5489  -53.9030  -20.0739 N   0  0  0  0  0  0  0  0  0  0  0  0
   -1.9762  -53.5048  -18.8738 C   0  0  0  0  0  0  0  0  0  0  0  0
   -1.1934  -52.6587  -18.1491 C   0  0  0  0  0  0  0  0  0  0  0  0
   -1.5031  -52.1842  -16.9342 F   0  0  0  0  0  0  0  0  0  0  0  0
    0.0315  -52.2373  -18.6895 C   0  0  0  0  0  0  0  0  0  0  0  0
    0.3688  -52.6933  -19.8999 N   0  0  0  0  0  0  0  0  0  0  0  0
    0.0832  -53.9385  -21.9025 N   0  0  0  0  0  0  0  0  0  0  0  0
    0.1575  -54.9985  -22.0421 H   0  0  0  0  0  0  0  0  0  0  0  0
    0.4152  -52.2403  -25.2236 C   0  0  0  0  0  0  0  0  0  0  0  0
   -0.0323  -53.1055  -24.2148 C   0  0  0  0  0  0  0  0  0  0  0  0
    0.4631  -53.0927  -22.9611 C   0  0  0  0  0  0  0  0  0  0  0  0
    1.4757  -52.1481  -22.6987 C   0  0  0  0  0  0  0  0  0  0  0  0
    1.9357  -51.2878  -23.6612 C   0  0  0  0  0  0  0  0  0  0  0  0
    1.4107  -51.3233  -24.9374 C   0  0  0  0  0  0  0  0  0  0  0  0
   -1.5344  -52.2131  -26.6320 C   0  0  0  0  0  0  0  0  0  0  0  0
   -0.1435  -52.3165  -26.4851 O   0  0  0  0  0  0  0  0  0  0  0  0
    2.9216  -50.3826  -23.3690 O   0  0  0  0  0  0  0  0  0  0  0  0
    4.2619  -50.8206  -23.2888 C   0  0  0  0  0  0  0  0  0  0  0  0
    1.8455  -50.4699  -25.9493 O   0  0  0  0  0  0  0  0  0  0  0  0
    2.9252  -50.9011  -26.7673 C   0  0  0  0  0  0  0  0  0  0  0  0
    0.8672  -51.3574  -17.9594 N   0  0  0  0  0  0  0  0  0  0  0  0
    0.7632  -51.2988  -16.9375 H   0  0  0  0  0  0  0  0  0  0  0  0
    1.8260  -50.5793  -18.6539 C   0  0  0  0  0  0  0  0  0  0  0  0
    3.1905  -50.6889  -18.3478 C   0  0  0  0  0  0  0  0  0  0  0  0
    4.1107  -49.9273  -19.0302 C   0  0  0  0  0  0  0  0  0  0  0  0
    3.7161  -49.0523  -20.0161 C   0  0  0  0  0  0  0  0  0  0  0  0
    4.6170  -48.2692  -20.7239 O   0  0  0  0  0  0  0  0  0  0  0  0
    4.2226  -47.0787  -21.3884 C   0  0  0  0  0  0  0  0  0  0  0  0
    5.1999  -46.7395  -22.4773 C   0  0  0  0  0  0  0  0  0  0  0  0
    4.1055  -45.9507  -20.3975 C   0  0  0  0  0  0  0  0  0  0  0  0
    2.8870  -47.2698  -22.0318 C   0  0  0  0  0  0  0  0  0  0  0  0
    2.6306  -46.7457  -23.1603 O   0  0  0  0  0  0  0  0  0  0  0  0
    1.9399  -48.0516  -21.3296 N   0  0  0  0  0  0  0  0  0  0  0  0
    2.3579  -48.9502  -20.3136 C   0  0  0  0  0  0  0  0  0  0  0  0
    1.4975  -49.7140  -19.6205 N   0  0  0  0  0  0  0  0  0  0  0  0
    0.9358  -47.9577  -21.5690 H   0  0  0  0  0  0  0  0  0  0  0  0
 16 17  1  0  0  0
 17 10  1  0  0  0
 10 11  2  0  0  0
 11 12  1  0  0  0
 12  8  1  0  0  0
  8  1  1  0  0  0
  1  2  2  0  0  0
  2  3  1  0  0  0
  3  4  2  0  0  0
  4  5  1  0  0  0
  4  6  1  0  0  0
  6 22  1  0  0  0
 22 24  1  0  0  0
 24 25  2  0  0  0
 25 26  1  0  0  0
 26 27  2  0  0  0
 27 28  1  0  0  0
 28 29  1  0  0  0
 29 30  1  0  0  0
 29 31  1  0  0  0
 29 32  1  0  0  0
 32 33  2  0  0  0
 32 34  1  0  0  0
 34 35  1  0  0  0
 35 36  2  0  0  0
  6  7  2  0  0  0
 12 13  2  0  0  0
 13 14  1  0  0  0
 14 18  1  0  0  0
 18 19  1  0  0  0
 14 15  2  0  0  0
 15 20  1  0  0  0
 20 21  1  0  0  0
 15 10  1  0  0  0
  7  1  1  0  0  0
 36 24  1  0  0  0
 35 27  1  0  0  0
  8  9  1  0  0  0
 22 23  1  0  0  0
 34 37  1  0  0  0
M  END
> <minimizedAffinity>
-6.17281

> <CNNscore>
0.2672726810

> <CNNaffinity>
6.7594780922

> <CNN_VS>
1.8066238165

> <CNNaffinity_variance>
0.3309805989

$$$$
[H]c1nc(N([H])c2c([H])c(OC([H])([H])[H])c(OC([H])([H])[H])c(OC([H])([H])[H])c2[H])nc(N([H])c2nc3c(c([H])c2[H])OC(C([H])([H])[H])(C([H])([H])[H])C(=O)N3[H])c1F


 37 40  0  0  0  0  0  0  0  0999 V2000
   -0.8833  -53.4398  -21.5538 C   0  0  0  0  0  0  0  0  0  0  0  0
   -0.9830  -54.7231  -21.9207 N   0  0  0  0  0  0  0  0  0  0  0  0
   -0.9059  -55.1729  -23.1749 C   0  0  0  0  0  0  0  0  0  0  0  0
   -0.7107  -54.2755  -24.1801 C   0  0  0  0  0  0  0  0  0  0  0  0
   -0.6152  -54.5929  -25.4790 F   0  0  0  0  0  0  0  0  0  0  0  0
   -0.5979  -52.9134  -23.8612 C   0  0  0  0  0  0  0  0  0  0  0  0
   -0.6890  -52.5647  -22.5740 N   0  0  0  0  0  0  0  0  0  0  0  0
   -0.9600  -52.9356  -20.2434 N   0  0  0  0  0  0  0  0  0  0  0  0
   -1.9011  -53.0877  -19.7538 H   0  0  0  0  0  0  0  0  0  0  0  0
    2.3356  -51.5803  -19.0918 C   0  0  0  0  0  0  0  0  0  0  0  0
    1.3731  -52.2581  -19.8539 C   0  0  0  0  0  0  0  0  0  0  0  0
    0.0611  -52.2657  -19.5441 C   0  0  0  0  0  0  0  0  0  0  0  0
   -0.3135  -51.5444  -18.3926 C   0  0  0  0  0  0  0  0  0  0  0  0
    0.6012  -50.8709  -17.6259 C   0  0  0  0  0  0  0  0  0  0  0  0
    1.9390  -50.8807  -17.9663 C   0  0  0  0  0  0  0  0  0  0  0  0
    3.9908  -51.5359  -20.8365 C   0  0  0  0  0  0  0  0  0  0  0  0
    3.6624  -51.6215  -19.4757 O   0  0  0  0  0  0  0  0  0  0  0  0
    0.1996  -50.1803  -16.5130 O   0  0  0  0  0  0  0  0  0  0  0  0
   -0.9253  -50.6304  -15.7874 C   0  0  0  0  0  0  0  0  0  0  0  0
    2.9061  -50.2119  -17.2186 O   0  0  0  0  0  0  0  0  0  0  0  0
    3.5095  -50.9064  -16.1350 C   0  0  0  0  0  0  0  0  0  0  0  0
   -0.3945  -51.9564  -24.8852 N   0  0  0  0  0  0  0  0  0  0  0  0
   -1.1895  -51.6757  -25.4749 H   0  0  0  0  0  0  0  0  0  0  0  0
    0.8987  -51.4091  -25.0726 C   0  0  0  0  0  0  0  0  0  0  0  0
    1.6252  -51.6801  -26.2415 C   0  0  0  0  0  0  0  0  0  0  0  0
    2.8799  -51.1420  -26.4104 C   0  0  0  0  0  0  0  0  0  0  0  0
    3.4418  -50.3358  -25.4473 C   0  0  0  0  0  0  0  0  0  0  0  0
    4.7046  -49.7768  -25.5849 O   0  0  0  0  0  0  0  0  0  0  0  0
    5.4644  -49.3444  -24.4668 C   0  0  0  0  0  0  0  0  0  0  0  0
    6.4867  -48.3289  -24.8907 C   0  0  0  0  0  0  0  0  0  0  0  0
    6.1204  -50.5258  -23.8022 C   0  0  0  0  0  0  0  0  0  0  0  0
    4.5717  -48.6866  -23.4645 C   0  0  0  0  0  0  0  0  0  0  0  0
    4.9701  -47.6749  -22.8073 O   0  0  0  0  0  0  0  0  0  0  0  0
    3.2818  -49.2406  -23.2893 N   0  0  0  0  0  0  0  0  0  0  0  0
    2.7123  -50.0719  -24.2889 C   0  0  0  0  0  0  0  0  0  0  0  0
    1.4918  -50.6197  -24.1692 N   0  0  0  0  0  0  0  0  0  0  0  0
    2.7593  -49.0297  -22.4194 H   0  0  0  0  0  0  0  0  0  0  0  0
 16 17  1  0  0  0
 17 10  1  0  0  0
 10 11  2  0  0  0
 11 12  1  0  0  0
 12  8  1  0  0  0
  8  1  1  0  0  0
  1  2  2  0  0  0
  2  3  1  0  0  0
  3  4  2  0  0  0
  4  5  1  0  0  0
  4  6  1  0  0  0
  6 22  1  0  0  0
 22 24  1  0  0  0
 24 25  2  0  0  0
 25 26  1  0  0  0
 26 27  2  0  0  0
 27 28  1  0  0  0
 28 29  1  0  0  0
 29 30  1  0  0  0
 29 31  1  0  0  0
 29 32  1  0  0  0
 32 33  2  0  0  0
 32 34  1  0  0  0
 34 35  1  0  0  0
 35 36  2  0  0  0
  6  7  2  0  0  0
 12 13  2  0  0  0
 13 14  1  0  0  0
 14 18  1  0  0  0
 18 19  1  0  0  0
 14 15  2  0  0  0
 15 20  1  0  0  0
 20 21  1  0  0  0
 15 10  1  0  0  0
  7  1  1  0  0  0
 36 24  1  0  0  0
 35 27  1  0  0  0
  8  9  1  0  0  0
 22 23  1  0  0  0
 34 37  1  0  0  0
M  END
> <minimizedAffinity>
-7.10311

> <CNNscore>
0.2660870254

> <CNNaffinity>
6.7272491455

> <CNN_VS>
1.7900336981

> <CNNaffinity_variance>
0.3042783141

$$$$
[H]O[C@@]1([H])C([H])([H])C([H])([H])[C@]2([H])[C@]1(C([H])([H])[H])C([H])([H])C([H])([H])[C@]1([H])[C@]3(C([H])([H])[H])C(=C([H])C(=O)C([H])([H])C3([H])[H])C([H])([H])C([H])([H])[C@@]21[H]


 22 25  0  0  0  0  0  0  0  0999 V2000
   -0.1675  -50.6637  -21.0011 C   0  0  0  0  0  0  0  0  0  0  0  0
    0.7864  -51.8266  -21.0605 C   0  0  0  0  0  0  0  0  0  0  0  0
    1.9788  -51.5520  -21.9111 C   0  0  0  0  0  0  0  0  0  0  0  0
    1.5123  -51.3642  -23.3333 C   0  0  0  0  0  0  0  0  0  0  0  0
    0.8791  -52.6463  -23.8311 C   0  0  0  0  0  0  0  0  0  0  0  0
   -0.3124  -53.0547  -22.9675 C   0  0  0  0  0  0  0  0  0  0  0  0
   -0.6676  -54.4875  -23.3400 C   0  0  0  0  0  0  0  0  0  0  0  0
   -0.9203  -54.6705  -24.7936 C   0  0  0  0  0  0  0  0  0  0  0  0
   -0.0111  -53.9200  -25.6727 C   0  0  0  0  0  0  0  0  0  0  0  0
    0.3499  -54.4829  -26.8139 C   0  0  0  0  0  0  0  0  0  0  0  0
    1.2404  -53.8341  -27.7542 C   0  0  0  0  0  0  0  0  0  0  0  0
    1.8513  -54.4510  -28.6512 O   0  0  0  0  0  0  0  0  0  0  0  0
    1.3955  -52.3443  -27.5914 C   0  0  0  0  0  0  0  0  0  0  0  0
    1.6240  -52.1123  -26.1115 C   0  0  0  0  0  0  0  0  0  0  0  0
    0.4745  -52.5665  -25.2653 C   0  0  0  0  0  0  0  0  0  0  0  0
   -0.6703  -51.5947  -25.4678 C   0  0  0  0  0  0  0  0  0  0  0  0
    0.1274  -53.0923  -21.5622 C   0  0  0  0  0  0  0  0  0  0  0  0
   -0.9259  -53.3031  -20.5389 C   0  0  0  0  0  0  0  0  0  0  0  0
   -0.1921  -52.9426  -19.2449 C   0  0  0  0  0  0  0  0  0  0  0  0
    1.1298  -52.3387  -19.6774 C   0  0  0  0  0  0  0  0  0  0  0  0
    1.6175  -51.4023  -18.8309 O   0  0  0  0  0  0  0  0  0  0  0  0
    1.2319  -50.5120  -18.8806 H   0  0  0  0  0  0  0  0  0  0  0  0
  2  1  1  0  0  0
  2  3  1  0  0  0
  3  4  1  0  0  0
  4  5  1  0  0  0
  5  6  1  0  0  0
  6  7  1  0  0  0
  7  8  1  0  0  0
  8  9  1  0  0  0
  9 10  2  0  0  0
 10 11  1  0  0  0
 11 12  2  0  0  0
 11 13  1  0  0  0
 13 14  1  0  0  0
 14 15  1  0  0  0
 15 16  1  0  0  0
  6 17  1  0  0  0
 17 18  1  0  0  0
 18 19  1  0  0  0
 19 20  1  0  0  0
 20 21  1  0  0  0
 17  2  1  0  0  0
 20  2  1  0  0  0
 15  5  1  0  0  0
 15  9  1  0  0  0
 21 22  1  0  0  0
M  END
> <minimizedAffinity>
-8.81760

> <CNNscore>
0.6362128854

> <CNNaffinity>
6.3717761040

> <CNN_VS>
4.0538058281

> <CNNaffinity_variance>
0.1447900236

$$$$
[H]O[C@@]1([H])C([H])([H])C([H])([H])[C@]2([H])[C@]1(C([H])([H])[H])C([H])([H])C([H])([H])[C@]1([H])[C@]3(C([H])([H])[H])C(=C([H])C(=O)C([H])([H])C3([H])[H])C([H])([H])C([H])([H])[C@@]21[H]


 22 25  0  0  0  0  0  0  0  0999 V2000
    2.6390  -54.4981  -28.7692 C   0  0  0  0  0  0  0  0  0  0  0  0
    1.7783  -53.4803  -28.0698 C   0  0  0  0  0  0  0  0  0  0  0  0
    2.4441  -52.1534  -27.9394 C   0  0  0  0  0  0  0  0  0  0  0  0
    3.6503  -52.3149  -27.0480 C   0  0  0  0  0  0  0  0  0  0  0  0
    3.2039  -52.7420  -25.6657 C   0  0  0  0  0  0  0  0  0  0  0  0
    2.4371  -54.0621  -25.7076 C   0  0  0  0  0  0  0  0  0  0  0  0
    1.7658  -54.2354  -24.3522 C   0  0  0  0  0  0  0  0  0  0  0  0
    2.7168  -54.1576  -23.2121 C   0  0  0  0  0  0  0  0  0  0  0  0
    3.7606  -53.1315  -23.3539 C   0  0  0  0  0  0  0  0  0  0  0  0
    4.1572  -52.4982  -22.2625 C   0  0  0  0  0  0  0  0  0  0  0  0
    5.1777  -51.4705  -22.2865 C   0  0  0  0  0  0  0  0  0  0  0  0
    5.3329  -50.6426  -21.3652 O   0  0  0  0  0  0  0  0  0  0  0  0
    6.0618  -51.4509  -23.5063 C   0  0  0  0  0  0  0  0  0  0  0  0
    5.1281  -51.5610  -24.6947 C   0  0  0  0  0  0  0  0  0  0  0  0
    4.3378  -52.8335  -24.7000 C   0  0  0  0  0  0  0  0  0  0  0  0
    5.2781  -53.9686  -25.0510 C   0  0  0  0  0  0  0  0  0  0  0  0
    1.3488  -53.9328  -26.6918 C   0  0  0  0  0  0  0  0  0  0  0  0
    0.5866  -55.1653  -27.0092 C   0  0  0  0  0  0  0  0  0  0  0  0
   -0.1826  -54.7514  -28.2663 C   0  0  0  0  0  0  0  0  0  0  0  0
    0.3924  -53.4094  -28.6759 C   0  0  0  0  0  0  0  0  0  0  0  0
    0.3676  -53.1766  -30.0087 O   0  0  0  0  0  0  0  0  0  0  0  0
    1.0560  -53.5994  -30.5482 H   0  0  0  0  0  0  0  0  0  0  0  0
  2  1  1  0  0  0
  2  3  1  0  0  0
  3  4  1  0  0  0
  4  5  1  0  0  0
  5  6  1  0  0  0
  6  7  1  0  0  0
  7  8  1  0  0  0
  8  9  1  0  0  0
  9 10  2  0  0  0
 10 11  1  0  0  0
 11 12  2  0  0  0
 11 13  1  0  0  0
 13 14  1  0  0  0
 14 15  1  0  0  0
 15 16  1  0  0  0
  6 17  1  0  0  0
 17 18  1  0  0  0
 18 19  1  0  0  0
 19 20  1  0  0  0
 20 21  1  0  0  0
 17  2  1  0  0  0
 20  2  1  0  0  0
 15  5  1  0  0  0
 15  9  1  0  0  0
 21 22  1  0  0  0
M  END
> <minimizedAffinity>
9.86796

> <CNNscore>
0.5816384554

> <CNNaffinity>
5.6964058876

> <CNN_VS>
3.3132486343

> <CNNaffinity_variance>
0.5176647902

$$$$
[H]O[C@@]1([H])C([H])([H])C([H])([H])[C@]2([H])[C@]1(C([H])([H])[H])C([H])([H])C([H])([H])[C@]1([H])[C@]3(C([H])([H])[H])C(=C([H])C(=O)C([H])([H])C3([H])[H])C([H])([H])C([H])([H])[C@@]21[H]


 22 25  0  0  0  0  0  0  0  0999 V2000
    2.7737  -47.8052  -19.0934 C   0  0  0  0  0  0  0  0  0  0  0  0
    3.3394  -49.1476  -18.7140 C   0  0  0  0  0  0  0  0  0  0  0  0
    3.8506  -49.9109  -19.8875 C   0  0  0  0  0  0  0  0  0  0  0  0
    2.6845  -50.2263  -20.7910 C   0  0  0  0  0  0  0  0  0  0  0  0
    1.7027  -51.1155  -20.0576 C   0  0  0  0  0  0  0  0  0  0  0  0
    1.1805  -50.4458  -18.7883 C   0  0  0  0  0  0  0  0  0  0  0  0
    0.4728  -51.5188  -17.9723 C   0  0  0  0  0  0  0  0  0  0  0  0
   -0.5928  -52.2255  -18.7309 C   0  0  0  0  0  0  0  0  0  0  0  0
   -0.2573  -52.5151  -20.1331 C   0  0  0  0  0  0  0  0  0  0  0  0
   -0.7041  -53.6455  -20.6548 C   0  0  0  0  0  0  0  0  0  0  0  0
   -0.4335  -54.0309  -22.0246 C   0  0  0  0  0  0  0  0  0  0  0  0
   -0.5463  -55.2035  -22.4377 O   0  0  0  0  0  0  0  0  0  0  0  0
    0.0008  -52.9206  -22.9459 C   0  0  0  0  0  0  0  0  0  0  0  0
    1.0692  -52.1537  -22.1933 C   0  0  0  0  0  0  0  0  0  0  0  0
    0.5641  -51.5461  -20.9207 C   0  0  0  0  0  0  0  0  0  0  0  0
   -0.3336  -50.3798  -21.2812 C   0  0  0  0  0  0  0  0  0  0  0  0
    2.3370  -50.0143  -17.9847 C   0  0  0  0  0  0  0  0  0  0  0  0
    2.0464  -49.1873  -16.7877 C   0  0  0  0  0  0  0  0  0  0  0  0
    3.4335  -48.6519  -16.4238 C   0  0  0  0  0  0  0  0  0  0  0  0
    4.3369  -49.0334  -17.5803 C   0  0  0  0  0  0  0  0  0  0  0  0
    5.3519  -48.1665  -17.8033 O   0  0  0  0  0  0  0  0  0  0  0  0
    5.1417  -47.3469  -18.2805 H   0  0  0  0  0  0  0  0  0  0  0  0
  2  1  1  0  0  0
  2  3  1  0  0  0
  3  4  1  0  0  0
  4  5  1  0  0  0
  5  6  1  0  0  0
  6  7  1  0  0  0
  7  8  1  0  0  0
  8  9  1  0  0  0
  9 10  2  0  0  0
 10 11  1  0  0  0
 11 12  2  0  0  0
 11 13  1  0  0  0
 13 14  1  0  0  0
 14 15  1  0  0  0
 15 16  1  0  0  0
  6 17  1  0  0  0
 17 18  1  0  0  0
 18 19  1  0  0  0
 19 20  1  0  0  0
 20 21  1  0  0  0
 17  2  1  0  0  0
 20  2  1  0  0  0
 15  5  1  0  0  0
 15  9  1  0  0  0
 21 22  1  0  0  0
M  END
> <minimizedAffinity>
-5.86354

> <CNNscore>
0.5117821693

> <CNNaffinity>
5.5577740669

> <CNN_VS>
2.8443696499

> <CNNaffinity_variance>
0.2462304533

$$$$
[H]O[C@@]1([H])C([H])([H])C([H])([H])[C@]2([H])[C@]1(C([H])([H])[H])C([H])([H])C([H])([H])[C@]1([H])[C@]3(C([H])([H])[H])C(=C([H])C(=O)C([H])([H])C3([H])[H])C([H])([H])C([H])([H])[C@@]21[H]


 22 25  0  0  0  0  0  0  0  0999 V2000
   -1.6958  -52.4412  -21.8903 C   0  0  0  0  0  0  0  0  0  0  0  0
   -0.4193  -53.2306  -22.0058 C   0  0  0  0  0  0  0  0  0  0  0  0
    0.2467  -53.4465  -20.6903 C   0  0  0  0  0  0  0  0  0  0  0  0
    0.6722  -52.1041  -20.1495 C   0  0  0  0  0  0  0  0  0  0  0  0
    1.6900  -51.4827  -21.0825 C   0  0  0  0  0  0  0  0  0  0  0  0
    1.1208  -51.2945  -22.4871 C   0  0  0  0  0  0  0  0  0  0  0  0
    2.2911  -50.9770  -23.4077 C   0  0  0  0  0  0  0  0  0  0  0  0
    3.0972  -49.8137  -22.9523 C   0  0  0  0  0  0  0  0  0  0  0  0
    3.3074  -49.7457  -21.4984 C   0  0  0  0  0  0  0  0  0  0  0  0
    4.4679  -49.2843  -21.0626 C   0  0  0  0  0  0  0  0  0  0  0  0
    4.7817  -49.1742  -19.6528 C   0  0  0  0  0  0  0  0  0  0  0  0
    5.9479  -49.0664  -19.2205 O   0  0  0  0  0  0  0  0  0  0  0  0
    3.6036  -49.1971  -18.7138 C   0  0  0  0  0  0  0  0  0  0  0  0
    2.7372  -50.3549  -19.1664 C   0  0  0  0  0  0  0  0  0  0  0  0
    2.2277  -50.1904  -20.5654 C   0  0  0  0  0  0  0  0  0  0  0  0
    1.1655  -49.1098  -20.5541 C   0  0  0  0  0  0  0  0  0  0  0  0
    0.5784  -52.5861  -22.9424 C   0  0  0  0  0  0  0  0  0  0  0  0
   -0.1760  -52.5799  -24.2197 C   0  0  0  0  0  0  0  0  0  0  0  0
   -0.8605  -53.9488  -24.1942 C   0  0  0  0  0  0  0  0  0  0  0  0
   -0.6191  -54.5023  -22.8033 C   0  0  0  0  0  0  0  0  0  0  0  0
   -1.6048  -55.3092  -22.3464 O   0  0  0  0  0  0  0  0  0  0  0  0
   -2.4067  -54.8826  -22.0020 H   0  0  0  0  0  0  0  0  0  0  0  0
  2  1  1  0  0  0
  2  3  1  0  0  0
  3  4  1  0  0  0
  4  5  1  0  0  0
  5  6  1  0  0  0
  6  7  1  0  0  0
  7  8  1  0  0  0
  8  9  1  0  0  0
  9 10  2  0  0  0
 10 11  1  0  0  0
 11 12  2  0  0  0
 11 13  1  0  0  0
 13 14  1  0  0  0
 14 15  1  0  0  0
 15 16  1  0  0  0
  6 17  1  0  0  0
 17 18  1  0  0  0
 18 19  1  0  0  0
 19 20  1  0  0  0
 20 21  1  0  0  0
 17  2  1  0  0  0
 20  2  1  0  0  0
 15  5  1  0  0  0
 15  9  1  0  0  0
 21 22  1  0  0  0
M  END
> <minimizedAffinity>
-7.15426

> <CNNscore>
0.5109649301

> <CNNaffinity>
5.8983230591

> <CNN_VS>
3.0138361454

> <CNNaffinity_variance>
0.2988739014

$$$$
[H]O[C@@]1([H])C([H])([H])C([H])([H])[C@]2([H])[C@]1(C([H])([H])[H])C([H])([H])C([H])([H])[C@]1([H])[C@]3(C([H])([H])[H])C(=C([H])C(=O)C([H])([H])C3([H])[H])C([H])([H])C([H])([H])[C@@]21[H]


 22 25  0  0  0  0  0  0  0  0999 V2000
    5.0815  -52.1389  -26.3463 C   0  0  0  0  0  0  0  0  0  0  0  0
    4.2172  -53.1176  -25.5973 C   0  0  0  0  0  0  0  0  0  0  0  0
    3.7292  -54.2325  -26.4575 C   0  0  0  0  0  0  0  0  0  0  0  0
    2.8247  -53.6522  -27.5161 C   0  0  0  0  0  0  0  0  0  0  0  0
    1.6174  -53.0186  -26.8577 C   0  0  0  0  0  0  0  0  0  0  0  0
    2.0248  -51.9094  -25.8901 C   0  0  0  0  0  0  0  0  0  0  0  0
    0.7977  -51.5667  -25.0566 C   0  0  0  0  0  0  0  0  0  0  0  0
   -0.3881  -51.2076  -25.8782 C   0  0  0  0  0  0  0  0  0  0  0  0
   -0.5654  -52.0246  -27.0880 C   0  0  0  0  0  0  0  0  0  0  0  0
   -1.8005  -52.3118  -27.4644 C   0  0  0  0  0  0  0  0  0  0  0  0
   -2.0908  -53.1084  -28.6389 C   0  0  0  0  0  0  0  0  0  0  0  0
   -3.1917  -53.6652  -28.8297 O   0  0  0  0  0  0  0  0  0  0  0  0
   -0.9723  -53.2338  -29.6405 C   0  0  0  0  0  0  0  0  0  0  0  0
    0.2669  -53.5696  -28.8357 C   0  0  0  0  0  0  0  0  0  0  0  0
    0.6289  -52.5022  -27.8491 C   0  0  0  0  0  0  0  0  0  0  0  0
    1.1786  -51.3183  -28.6188 C   0  0  0  0  0  0  0  0  0  0  0  0
    3.0191  -52.4575  -24.9517 C   0  0  0  0  0  0  0  0  0  0  0  0
    3.6721  -51.4928  -24.0331 C   0  0  0  0  0  0  0  0  0  0  0  0
    4.8415  -52.3142  -23.4845 C   0  0  0  0  0  0  0  0  0  0  0  0
    4.8790  -53.5812  -24.3166 C   0  0  0  0  0  0  0  0  0  0  0  0
    6.1160  -54.1065  -24.4755 O   0  0  0  0  0  0  0  0  0  0  0  0
    6.6943  -53.6934  -25.1378 H   0  0  0  0  0  0  0  0  0  0  0  0
  2  1  1  0  0  0
  2  3  1  0  0  0
  3  4  1  0  0  0
  4  5  1  0  0  0
  5  6  1  0  0  0
  6  7  1  0  0  0
  7  8  1  0  0  0
  8  9  1  0  0  0
  9 10  2  0  0  0
 10 11  1  0  0  0
 11 12  2  0  0  0
 11 13  1  0  0  0
 13 14  1  0  0  0
 14 15  1  0  0  0
 15 16  1  0  0  0
  6 17  1  0  0  0
 17 18  1  0  0  0
 18 19  1  0  0  0
 19 20  1  0  0  0
 20 21  1  0  0  0
 17  2  1  0  0  0
 20  2  1  0  0  0
 15  5  1  0  0  0
 15  9  1  0  0  0
 21 22  1  0  0  0
M  END
> <minimizedAffinity>
10.75430

> <CNNscore>
0.4877370894

> <CNNaffinity>
5.6786375046

> <CNN_VS>
2.7696821690

> <CNNaffinity_variance>
0.5336214900

$$$$
[H]O[C@@]1([H])C([H])([H])C([H])([H])[C@]2([H])[C@]1(C([H])([H])[H])C([H])([H])C([H])([H])[C@]1([H])[C@]3(C([H])([H])[H])C(=C([H])C(=O)C([H])([H])C3([H])[H])C([H])([H])C([H])([H])[C@@]21[H]


 22 25  0  0  0  0  0  0  0  0999 V2000
    2.1367  -50.0289  -21.2791 C   0  0  0  0  0  0  0  0  0  0  0  0
    2.2046  -51.5327  -21.2758 C   0  0  0  0  0  0  0  0  0  0  0  0
    3.3953  -52.0582  -22.0017 C   0  0  0  0  0  0  0  0  0  0  0  0
    3.2663  -51.6821  -23.4569 C   0  0  0  0  0  0  0  0  0  0  0  0
    2.0400  -52.3482  -24.0444 C   0  0  0  0  0  0  0  0  0  0  0  0
    0.7687  -51.9299  -23.3087 C   0  0  0  0  0  0  0  0  0  0  0  0
   -0.3381  -52.8783  -23.7487 C   0  0  0  0  0  0  0  0  0  0  0  0
   -0.5161  -52.9281  -25.2238 C   0  0  0  0  0  0  0  0  0  0  0  0
    0.7368  -52.9044  -25.9933 C   0  0  0  0  0  0  0  0  0  0  0  0
    0.7910  -53.6137  -27.1084 C   0  0  0  0  0  0  0  0  0  0  0  0
    1.9738  -53.6624  -27.9431 C   0  0  0  0  0  0  0  0  0  0  0  0
    2.1722  -54.5555  -28.7926 O   0  0  0  0  0  0  0  0  0  0  0  0
    2.9746  -52.5567  -27.7295 C   0  0  0  0  0  0  0  0  0  0  0  0
    3.1605  -52.4521  -26.2293 C   0  0  0  0  0  0  0  0  0  0  0  0
    1.8967  -52.0962  -25.5082 C   0  0  0  0  0  0  0  0  0  0  0  0
    1.5864  -50.6410  -25.7950 C   0  0  0  0  0  0  0  0  0  0  0  0
    0.9680  -52.1704  -21.8692 C   0  0  0  0  0  0  0  0  0  0  0  0
   -0.0896  -51.6705  -20.9567 C   0  0  0  0  0  0  0  0  0  0  0  0
    0.5921  -51.7724  -19.5900 C   0  0  0  0  0  0  0  0  0  0  0  0
    2.0450  -52.0961  -19.8793 C   0  0  0  0  0  0  0  0  0  0  0  0
    2.9167  -51.6065  -18.9673 O   0  0  0  0  0  0  0  0  0  0  0  0
    3.1476  -50.6651  -19.0315 H   0  0  0  0  0  0  0  0  0  0  0  0
  2  1  1  0  0  0
  2  3  1  0  0  0
  3  4  1  0  0  0
  4  5  1  0  0  0
  5  6  1  0  0  0
  6  7  1  0  0  0
  7  8  1  0  0  0
  8  9  1  0  0  0
  9 10  2  0  0  0
 10 11  1  0  0  0
 11 12  2  0  0  0
 11 13  1  0  0  0
 13 14  1  0  0  0
 14 15  1  0  0  0
 15 16  1  0  0  0
  6 17  1  0  0  0
 17 18  1  0  0  0
 18 19  1  0  0  0
 19 20  1  0  0  0
 20 21  1  0  0  0
 17  2  1  0  0  0
 20  2  1  0  0  0
 15  5  1  0  0  0
 15  9  1  0  0  0
 21 22  1  0  0  0
M  END
> <minimizedAffinity>
-8.49435

> <CNNscore>
0.4207669199

> <CNNaffinity>
6.0683856010

> <CNN_VS>
2.5533759594

> <CNNaffinity_variance>
0.1401472539

$$$$
[H]O[C@@]1([H])C([H])([H])C([H])([H])[C@]2([H])[C@]1(C([H])([H])[H])C([H])([H])C([H])([H])[C@]1([H])[C@]3(C([H])([H])[H])C(=C([H])C(=O)C([H])([H])C3([H])[H])C([H])([H])C([H])([H])[C@@]21[H]


 22 25  0  0  0  0  0  0  0  0999 V2000
   -1.7361  -52.2873  -21.7558 C   0  0  0  0  0  0  0  0  0  0  0  0
   -0.7904  -53.3637  -21.2944 C   0  0  0  0  0  0  0  0  0  0  0  0
   -0.9691  -53.7112  -19.8563 C   0  0  0  0  0  0  0  0  0  0  0  0
   -0.6088  -52.5023  -19.0291 C   0  0  0  0  0  0  0  0  0  0  0  0
    0.8513  -52.1617  -19.2408 C   0  0  0  0  0  0  0  0  0  0  0  0
    1.1502  -51.8659  -20.7090 C   0  0  0  0  0  0  0  0  0  0  0  0
    2.6646  -51.8568  -20.8665 C   0  0  0  0  0  0  0  0  0  0  0  0
    3.3452  -50.9151  -19.9390 C   0  0  0  0  0  0  0  0  0  0  0  0
    2.7790  -50.8746  -18.5825 C   0  0  0  0  0  0  0  0  0  0  0  0
    3.6118  -50.6998  -17.5699 C   0  0  0  0  0  0  0  0  0  0  0  0
    3.1631  -50.6443  -16.1938 C   0  0  0  0  0  0  0  0  0  0  0  0
    3.9264  -50.8140  -15.2206 O   0  0  0  0  0  0  0  0  0  0  0  0
    1.6963  -50.3654  -15.9918 C   0  0  0  0  0  0  0  0  0  0  0  0
    0.9654  -51.2871  -16.9469 C   0  0  0  0  0  0  0  0  0  0  0  0
    1.3058  -51.0288  -18.3825 C   0  0  0  0  0  0  0  0  0  0  0  0
    0.6541  -49.7235  -18.7919 C   0  0  0  0  0  0  0  0  0  0  0  0
    0.6599  -52.9959  -21.5167 C   0  0  0  0  0  0  0  0  0  0  0  0
    0.7004  -52.8298  -22.9904 C   0  0  0  0  0  0  0  0  0  0  0  0
   -0.1737  -53.9920  -23.4679 C   0  0  0  0  0  0  0  0  0  0  0  0
   -0.8155  -54.5631  -22.2185 C   0  0  0  0  0  0  0  0  0  0  0  0
   -2.0416  -55.0998  -22.4179 O   0  0  0  0  0  0  0  0  0  0  0  0
   -2.7919  -54.4861  -22.4832 H   0  0  0  0  0  0  0  0  0  0  0  0
  2  1  1  0  0  0
  2  3  1  0  0  0
  3  4  1  0  0  0
  4  5  1  0  0  0
  5  6  1  0  0  0
  6  7  1  0  0  0
  7  8  1  0  0  0
  8  9  1  0  0  0
  9 10  2  0  0  0
 10 11  1  0  0  0
 11 12  2  0  0  0
 11 13  1  0  0  0
 13 14  1  0  0  0
 14 15  1  0  0  0
 15 16  1  0  0  0
  6 17  1  0  0  0
 17 18  1  0  0  0
 18 19  1  0  0  0
 19 20  1  0  0  0
 20 21  1  0  0  0
 17  2  1  0  0  0
 20  2  1  0  0  0
 15  5  1  0  0  0
 15  9  1  0  0  0
 21 22  1  0  0  0
M  END
> <minimizedAffinity>
-6.95386

> <CNNscore>
0.4063091278

> <CNNaffinity>
5.5728883743

> <CNN_VS>
2.2643153667

> <CNNaffinity_variance>
0.1359328181

$$$$
[H]O[C@@]1([H])C([H])([H])C([H])([H])[C@]2([H])[C@]1(C([H])([H])[H])C([H])([H])C([H])([H])[C@]1([H])[C@]3(C([H])([H])[H])C(=C([H])C(=O)C([H])([H])C3([H])[H])C([H])([H])C([H])([H])[C@@]21[H]


 22 25  0  0  0  0  0  0  0  0999 V2000
    0.6684  -49.9239  -20.8598 C   0  0  0  0  0  0  0  0  0  0  0  0
    1.5154  -51.1633  -20.7489 C   0  0  0  0  0  0  0  0  0  0  0  0
    2.4632  -51.3184  -21.8884 C   0  0  0  0  0  0  0  0  0  0  0  0
    1.6589  -51.5137  -23.1496 C   0  0  0  0  0  0  0  0  0  0  0  0
    0.8554  -52.7927  -23.0438 C   0  0  0  0  0  0  0  0  0  0  0  0
   -0.0949  -52.7599  -21.8488 C   0  0  0  0  0  0  0  0  0  0  0  0
   -0.6056  -54.1792  -21.6414 C   0  0  0  0  0  0  0  0  0  0  0  0
   -1.2302  -54.7617  -22.8583 C   0  0  0  0  0  0  0  0  0  0  0  0
   -0.5390  -54.4397  -24.1157 C   0  0  0  0  0  0  0  0  0  0  0  0
   -0.5106  -55.3654  -25.0601 C   0  0  0  0  0  0  0  0  0  0  0  0
    0.1418  -55.1554  -26.3363 C   0  0  0  0  0  0  0  0  0  0  0  0
    0.4713  -56.0902  -27.0952 O   0  0  0  0  0  0  0  0  0  0  0  0
    0.4086  -53.7203  -26.7095 C   0  0  0  0  0  0  0  0  0  0  0  0
    1.0191  -53.0803  -25.4791 C   0  0  0  0  0  0  0  0  0  0  0  0
    0.1025  -53.1016  -24.2946 C   0  0  0  0  0  0  0  0  0  0  0  0
   -1.0054  -52.0974  -24.5402 C   0  0  0  0  0  0  0  0  0  0  0  0
    0.6868  -52.4247  -20.6463 C   0  0  0  0  0  0  0  0  0  0  0  0
   -0.0794  -52.1748  -19.4007 C   0  0  0  0  0  0  0  0  0  0  0  0
    0.9780  -51.5360  -18.4969 C   0  0  0  0  0  0  0  0  0  0  0  0
    2.1744  -51.2699  -19.3897 C   0  0  0  0  0  0  0  0  0  0  0  0
    2.9089  -50.1919  -19.0296 O   0  0  0  0  0  0  0  0  0  0  0  0
    2.5690  -49.3169  -19.2795 H   0  0  0  0  0  0  0  0  0  0  0  0
  2  1  1  0  0  0
  2  3  1  0  0  0
  3  4  1  0  0  0
  4  5  1  0  0  0
  5  6  1  0  0  0
  6  7  1  0  0  0
  7  8  1  0  0  0
  8  9  1  0  0  0
  9 10  2  0  0  0
 10 11  1  0  0  0
 11 12  2  0  0  0
 11 13  1  0  0  0
 13 14  1  0  0  0
 14 15  1  0  0  0
 15 16  1  0  0  0
  6 17  1  0  0  0
 17 18  1  0  0  0
 18 19  1  0  0  0
 19 20  1  0  0  0
 20 21  1  0  0  0
 17  2  1  0  0  0
 20  2  1  0  0  0
 15  5  1  0  0  0
 15  9  1  0  0  0
 21 22  1  0  0  0
M  END
> <minimizedAffinity>
-8.19826

> <CNNscore>
0.4022431970

> <CNNaffinity>
6.0862035751

> <CNN_VS>
2.4481339455

> <CNNaffinity_variance>
0.1380663812

$$$$
[H]O[C@@]1([H])C([H])([H])C([H])([H])[C@]2([H])[C@]1(C([H])([H])[H])C([H])([H])C([H])([H])[C@]1([H])[C@]3(C([H])([H])[H])C(=C([H])C(=O)C([H])([H])C3([H])[H])C([H])([H])C([H])([H])[C@@]21[H]


 22 25  0  0  0  0  0  0  0  0999 V2000
   -1.5496  -53.1265  -26.6834 C   0  0  0  0  0  0  0  0  0  0  0  0
   -0.1732  -53.6336  -26.3455 C   0  0  0  0  0  0  0  0  0  0  0  0
   -0.1890  -54.6866  -25.2910 C   0  0  0  0  0  0  0  0  0  0  0  0
   -0.6957  -54.0678  -24.0120 C   0  0  0  0  0  0  0  0  0  0  0  0
    0.2596  -52.9825  -23.5624 C   0  0  0  0  0  0  0  0  0  0  0  0
    0.4038  -51.8899  -24.6196 C   0  0  0  0  0  0  0  0  0  0  0  0
    1.6016  -51.0371  -24.2244 C   0  0  0  0  0  0  0  0  0  0  0  0
    1.5050  -50.4936  -22.8440 C   0  0  0  0  0  0  0  0  0  0  0  0
    0.9510  -51.4298  -21.8544 C   0  0  0  0  0  0  0  0  0  0  0  0
    1.4388  -51.3905  -20.6255 C   0  0  0  0  0  0  0  0  0  0  0  0
    0.9671  -52.2663  -19.5726 C   0  0  0  0  0  0  0  0  0  0  0  0
    1.6133  -52.4845  -18.5270 O   0  0  0  0  0  0  0  0  0  0  0  0
   -0.3723  -52.9148  -19.8083 C   0  0  0  0  0  0  0  0  0  0  0  0
   -0.3258  -53.4559  -21.2229 C   0  0  0  0  0  0  0  0  0  0  0  0
   -0.1281  -52.3848  -22.2512 C   0  0  0  0  0  0  0  0  0  0  0  0
   -1.4160  -51.5938  -22.3587 C   0  0  0  0  0  0  0  0  0  0  0  0
    0.7584  -52.5290  -25.8985 C   0  0  0  0  0  0  0  0  0  0  0  0
    0.7786  -51.6557  -27.0976 C   0  0  0  0  0  0  0  0  0  0  0  0
    0.8302  -52.6768  -28.2368 C   0  0  0  0  0  0  0  0  0  0  0  0
    0.5978  -54.0274  -27.5879 C   0  0  0  0  0  0  0  0  0  0  0  0
   -0.0280  -54.9264  -28.3825 O   0  0  0  0  0  0  0  0  0  0  0  0
   -0.9912  -54.8431  -28.4778 H   0  0  0  0  0  0  0  0  0  0  0  0
  2  1  1  0  0  0
  2  3  1  0  0  0
  3  4  1  0  0  0
  4  5  1  0  0  0
  5  6  1  0  0  0
  6  7  1  0  0  0
  7  8  1  0  0  0
  8  9  1  0  0  0
  9 10  2  0  0  0
 10 11  1  0  0  0
 11 12  2  0  0  0
 11 13  1  0  0  0
 13 14  1  0  0  0
 14 15  1  0  0  0
 15 16  1  0  0  0
  6 17  1  0  0  0
 17 18  1  0  0  0
 18 19  1  0  0  0
 19 20  1  0  0  0
 20 21  1  0  0  0
 17  2  1  0  0  0
 20  2  1  0  0  0
 15  5  1  0  0  0
 15  9  1  0  0  0
 21 22  1  0  0  0
M  END
> <minimizedAffinity>
-5.41042

> <CNNscore>
0.3956986666

> <CNNaffinity>
6.0626516342

> <CNN_VS>
2.3989832401

> <CNNaffinity_variance>
0.1807198822

$$$$
[H]Oc1c([H])c([H])c(C([H])([H])[C@@]([H])(C(=O)N2C([H])([H])C([H])([H])C([H])([H])[C@@]2([H])C(=O)N([H])C([H])([H])C(=O)N([H])[C@]([H])(C(=O)N([H])[C@]([H])(C(=O)N([H])[C@]([H])(C(=O)N([H])[H])C([H])([H])c2c([H])n([H])c3c([H])c([H])c([H])c([H])c23)C([H])([H])C([H])(C([H])([H])[H])C([H])([H])[H])C([H])([H])c2c([H])c([H])c([H])c([H])c2[H])N([H])[H])c([H])c1[H]


 67 71  0  0  0  0  0  0  0  0999 V2000
    0.8550  -50.1119  -18.7334 C   0  0  0  0  0  0  0  0  0  0  0  0
    1.9345  -49.2101  -19.1719 N   0  0  0  0  0  0  0  0  0  0  0  0
    1.8597  -48.2995  -20.2417 C   0  0  0  0  0  0  0  0  0  0  0  0
    0.8284  -48.1959  -20.9238 O   0  0  0  0  0  0  0  0  0  0  0  0
    2.8423  -49.2789  -18.6308 H   0  0  0  0  0  0  0  0  0  0  0  0
    3.0073  -47.4224  -20.6320 C   0  0  0  0  0  0  0  0  0  0  0  0
    3.8595  -48.1513  -21.6047 N   0  0  0  0  0  0  0  0  0  0  0  0
    4.1271  -47.4677  -22.8495 C   0  0  0  0  0  0  0  0  0  0  0  0
    3.5816  -46.3167  -23.0275 O   0  0  0  0  0  0  0  0  0  0  0  0
    4.2039  -49.0692  -21.3393 H   0  0  0  0  0  0  0  0  0  0  0  0
    4.9661  -47.9968  -23.8940 C   0  0  0  0  0  0  0  0  0  0  0  0
    4.6889  -47.1849  -25.2203 C   0  0  0  0  0  0  0  0  0  0  0  0
    3.4149  -47.8295  -25.7285 C   0  0  0  0  0  0  0  0  0  0  0  0
    3.4118  -49.2134  -25.1434 C   0  0  0  0  0  0  0  0  0  0  0  0
    4.6416  -49.2997  -24.4194 N   0  0  0  0  0  0  0  0  0  0  0  0
    5.4628  -50.4541  -24.2360 C   0  0  0  0  0  0  0  0  0  0  0  0
    6.5443  -50.3237  -23.5609 O   0  0  0  0  0  0  0  0  0  0  0  0
    5.1817  -51.7905  -24.7571 C   0  0  0  0  0  0  0  0  0  0  0  0
    6.3139  -52.6518  -24.5556 N   0  0  0  0  0  0  0  0  0  0  0  0
    7.2008  -52.1513  -24.4149 H   0  0  0  0  0  0  0  0  0  0  0  0
    6.4121  -53.2871  -25.3725 H   0  0  0  0  0  0  0  0  0  0  0  0
    4.0178  -52.4044  -23.9442 C   0  0  0  0  0  0  0  0  0  0  0  0
    2.8998  -52.7178  -24.9061 C   0  0  0  0  0  0  0  0  0  0  0  0
    1.6604  -53.0425  -24.3870 C   0  0  0  0  0  0  0  0  0  0  0  0
    0.6638  -53.3617  -25.2962 C   0  0  0  0  0  0  0  0  0  0  0  0
    0.9028  -53.3530  -26.6623 C   0  0  0  0  0  0  0  0  0  0  0  0
   -0.1550  -53.6919  -27.5058 O   0  0  0  0  0  0  0  0  0  0  0  0
    2.1266  -53.0292  -27.1323 C   0  0  0  0  0  0  0  0  0  0  0  0
    3.1580  -52.7007  -26.2353 C   0  0  0  0  0  0  0  0  0  0  0  0
    0.0355  -53.6871  -28.5042 H   0  0  0  0  0  0  0  0  0  0  0  0
   -0.0439  -48.9847  -16.6071 N   0  0  0  0  0  0  0  0  0  0  0  0
    0.6380  -49.9601  -17.3026 C   0  0  0  0  0  0  0  0  0  0  0  0
    1.1751  -50.8944  -16.5720 O   0  0  0  0  0  0  0  0  0  0  0  0
   -0.5033  -48.1820  -17.0246 H   0  0  0  0  0  0  0  0  0  0  0  0
   -0.1196  -49.0921  -15.0750 C   0  0  0  0  0  0  0  0  0  0  0  0
   -1.0782  -50.1438  -14.7923 C   0  0  0  0  0  0  0  0  0  0  0  0
   -1.1516  -50.5476  -13.5697 O   0  0  0  0  0  0  0  0  0  0  0  0
   -1.9458  -50.7411  -15.7212 N   0  0  0  0  0  0  0  0  0  0  0  0
   -1.8451  -50.4318  -16.7113 H   0  0  0  0  0  0  0  0  0  0  0  0
   -2.9691  -51.7290  -15.4448 C   0  0  0  0  0  0  0  0  0  0  0  0
   -3.0379  -52.7614  -16.4647 C   0  0  0  0  0  0  0  0  0  0  0  0
   -1.8560  -53.1106  -17.2108 N   0  0  0  0  0  0  0  0  0  0  0  0
   -4.1079  -53.3513  -16.7112 O   0  0  0  0  0  0  0  0  0  0  0  0
   -1.5781  -54.0891  -17.2775 H   0  0  0  0  0  0  0  0  0  0  0  0
   -1.2953  -52.3719  -17.6702 H   0  0  0  0  0  0  0  0  0  0  0  0
   -4.2696  -51.0368  -15.1236 C   0  0  0  0  0  0  0  0  0  0  0  0
   -4.8123  -51.1449  -13.7982 C   0  0  0  0  0  0  0  0  0  0  0  0
   -5.0108  -50.0581  -12.9558 C   0  0  0  0  0  0  0  0  0  0  0  0
   -5.4596  -50.4637  -11.7731 N   0  0  0  0  0  0  0  0  0  0  0  0
   -5.5604  -51.8203  -11.8332 C   0  0  0  0  0  0  0  0  0  0  0  0
   -5.9811  -52.7223  -10.8510 C   0  0  0  0  0  0  0  0  0  0  0  0
   -5.9977  -54.0697  -11.1462 C   0  0  0  0  0  0  0  0  0  0  0  0
   -5.6028  -54.4947  -12.3868 C   0  0  0  0  0  0  0  0  0  0  0  0
   -5.1824  -53.6247  -13.3735 C   0  0  0  0  0  0  0  0  0  0  0  0
   -5.1672  -52.2690  -13.0755 C   0  0  0  0  0  0  0  0  0  0  0  0
   -5.7003  -49.8926  -10.9316 H   0  0  0  0  0  0  0  0  0  0  0  0
   -0.2466  -47.7193  -14.5982 C   0  0  0  0  0  0  0  0  0  0  0  0
   -2.6004  -47.2181  -14.6981 C   0  0  0  0  0  0  0  0  0  0  0  0
   -1.1895  -46.7472  -15.1551 C   0  0  0  0  0  0  0  0  0  0  0  0
   -1.0492  -45.3193  -14.7680 C   0  0  0  0  0  0  0  0  0  0  0  0
    1.3549  -51.5448  -19.0670 C   0  0  0  0  0  0  0  0  0  0  0  0
    0.5507  -52.2571  -20.0559 C   0  0  0  0  0  0  0  0  0  0  0  0
   -0.1767  -51.5891  -21.0126 C   0  0  0  0  0  0  0  0  0  0  0  0
   -0.9619  -52.2961  -21.9316 C   0  0  0  0  0  0  0  0  0  0  0  0
   -1.0330  -53.6687  -21.9104 C   0  0  0  0  0  0  0  0  0  0  0  0
   -0.2998  -54.3416  -20.9470 C   0  0  0  0  0  0  0  0  0  0  0  0
    0.4557  -53.6266  -20.0663 C   0  0  0  0  0  0  0  0  0  0  0  0
 58 59  1  0  0  0
 59 60  1  0  0  0
 59 57  1  0  0  0
 57 35  1  0  0  0
 35 31  1  0  0  0
 31 32  1  0  0  0
 32 33  2  0  0  0
 32  1  1  0  0  0
  1 61  1  0  0  0
 61 62  1  0  0  0
 62 63  2  0  0  0
 63 64  1  0  0  0
 64 65  2  0  0  0
 65 66  1  0  0  0
 66 67  2  0  0  0
  1  2  1  0  0  0
  2  3  1  0  0  0
  3  4  2  0  0  0
  3  6  1  0  0  0
  6  7  1  0  0  0
  7  8  1  0  0  0
  8  9  2  0  0  0
  8 11  1  0  0  0
 11 12  1  0  0  0
 12 13  1  0  0  0
 13 14  1  0  0  0
 14 15  1  0  0  0
 15 16  1  0  0  0
 16 17  2  0  0  0
 16 18  1  0  0  0
 18 19  1  0  0  0
 18 22  1  0  0  0
 22 23  1  0  0  0
 23 24  2  0  0  0
 24 25  1  0  0  0
 25 26  2  0  0  0
 26 27  1  0  0  0
 26 28  1  0  0  0
 28 29  2  0  0  0
 35 36  1  0  0  0
 36 37  2  0  0  0
 36 38  1  0  0  0
 38 40  1  0  0  0
 40 46  1  0  0  0
 46 47  1  0  0  0
 47 48  2  0  0  0
 48 49  1  0  0  0
 49 50  1  0  0  0
 50 51  2  0  0  0
 51 52  1  0  0  0
 52 53  2  0  0  0
 53 54  1  0  0  0
 54 55  2  0  0  0
 40 41  1  0  0  0
 41 42  1  0  0  0
 41 43  2  0  0  0
 67 62  1  0  0  0
 15 11  1  0  0  0
 29 23  1  0  0  0
 55 47  1  0  0  0
 55 50  1  0  0  0
 31 34  1  0  0  0
  2  5  1  0  0  0
  7 10  1  0  0  0
 19 20  1  0  0  0
 19 21  1  0  0  0
 27 30  1  0  0  0
 38 39  1  0  0  0
 49 56  1  0  0  0
 42 44  1  0  0  0
 42 45  1  0  0  0
M  END
> <minimizedAffinity>
-8.16952

> <CNNscore>
0.2304012924

> <CNNaffinity>
6.8741064072

> <CNN_VS>
1.5838030577

> <CNNaffinity_variance>
1.0807024240

$$$$
[H]Oc1c([H])c([H])c(C([H])([H])[C@@]([H])(C(=O)N2C([H])([H])C([H])([H])C([H])([H])[C@@]2([H])C(=O)N([H])C([H])([H])C(=O)N([H])[C@]([H])(C(=O)N([H])[C@]([H])(C(=O)N([H])[C@]([H])(C(=O)N([H])[H])C([H])([H])c2c([H])n([H])c3c([H])c([H])c([H])c([H])c23)C([H])([H])C([H])(C([H])([H])[H])C([H])([H])[H])C([H])([H])c2c([H])c([H])c([H])c([H])c2[H])N([H])[H])c([H])c1[H]


 67 71  0  0  0  0  0  0  0  0999 V2000
    4.4011  -49.8122  -19.2518 C   0  0  0  0  0  0  0  0  0  0  0  0
    5.4571  -48.8682  -19.6576 N   0  0  0  0  0  0  0  0  0  0  0  0
    6.6013  -49.1903  -20.4100 C   0  0  0  0  0  0  0  0  0  0  0  0
    6.8085  -50.3513  -20.7956 O   0  0  0  0  0  0  0  0  0  0  0  0
    5.3326  -47.8681  -19.3323 H   0  0  0  0  0  0  0  0  0  0  0  0
    7.6363  -48.1730  -20.7740 C   0  0  0  0  0  0  0  0  0  0  0  0
    7.6472  -48.0058  -22.2490 N   0  0  0  0  0  0  0  0  0  0  0  0
    8.8917  -47.5510  -22.8260 C   0  0  0  0  0  0  0  0  0  0  0  0
    9.8630  -47.2942  -22.0231 O   0  0  0  0  0  0  0  0  0  0  0  0
    6.7955  -48.2239  -22.7577 H   0  0  0  0  0  0  0  0  0  0  0  0
    9.1058  -47.3724  -24.2392 C   0  0  0  0  0  0  0  0  0  0  0  0
    9.7854  -45.9654  -24.4701 C   0  0  0  0  0  0  0  0  0  0  0  0
    8.6015  -45.0225  -24.3910 C   0  0  0  0  0  0  0  0  0  0  0  0
    7.4074  -45.8560  -24.7611 C   0  0  0  0  0  0  0  0  0  0  0  0
    7.9494  -47.1427  -25.0689 N   0  0  0  0  0  0  0  0  0  0  0  0
    7.4760  -48.0747  -26.0426 C   0  0  0  0  0  0  0  0  0  0  0  0
    8.1123  -49.1786  -26.1799 O   0  0  0  0  0  0  0  0  0  0  0  0
    6.3172  -47.8825  -26.9125 C   0  0  0  0  0  0  0  0  0  0  0  0
    6.4867  -48.6153  -28.1367 N   0  0  0  0  0  0  0  0  0  0  0  0
    7.4638  -48.8523  -28.3509 H   0  0  0  0  0  0  0  0  0  0  0  0
    6.0938  -48.0632  -28.9250 H   0  0  0  0  0  0  0  0  0  0  0  0
    5.0713  -48.4790  -26.2170 C   0  0  0  0  0  0  0  0  0  0  0  0
    4.2219  -47.3319  -25.7313 C   0  0  0  0  0  0  0  0  0  0  0  0
    3.9688  -47.2317  -24.3760 C   0  0  0  0  0  0  0  0  0  0  0  0
    3.1542  -46.1878  -23.9656 C   0  0  0  0  0  0  0  0  0  0  0  0
    2.6210  -45.2871  -24.8756 C   0  0  0  0  0  0  0  0  0  0  0  0
    1.8075  -44.2697  -24.3773 O   0  0  0  0  0  0  0  0  0  0  0  0
    2.8917  -45.4165  -26.1922 C   0  0  0  0  0  0  0  0  0  0  0  0
    3.7146  -46.4649  -26.6395 C   0  0  0  0  0  0  0  0  0  0  0  0
    1.4188  -43.6202  -25.0557 H   0  0  0  0  0  0  0  0  0  0  0  0
    3.5890  -50.0776  -21.6747 N   0  0  0  0  0  0  0  0  0  0  0  0
    3.9150  -50.5367  -20.4165 C   0  0  0  0  0  0  0  0  0  0  0  0
    3.7670  -51.8172  -20.2338 O   0  0  0  0  0  0  0  0  0  0  0  0
    3.6328  -49.1087  -21.9730 H   0  0  0  0  0  0  0  0  0  0  0  0
    3.1072  -51.0924  -22.7247 C   0  0  0  0  0  0  0  0  0  0  0  0
    1.7122  -51.3524  -22.4227 C   0  0  0  0  0  0  0  0  0  0  0  0
    1.0067  -50.3462  -22.0318 O   0  0  0  0  0  0  0  0  0  0  0  0
    1.0591  -52.5901  -22.5408 N   0  0  0  0  0  0  0  0  0  0  0  0
    1.6530  -53.4002  -22.8188 H   0  0  0  0  0  0  0  0  0  0  0  0
   -0.3498  -52.8535  -22.3287 C   0  0  0  0  0  0  0  0  0  0  0  0
   -0.5820  -54.0737  -21.5751 C   0  0  0  0  0  0  0  0  0  0  0  0
    0.1063  -54.2868  -20.3276 N   0  0  0  0  0  0  0  0  0  0  0  0
   -1.3669  -54.9475  -21.9924 O   0  0  0  0  0  0  0  0  0  0  0  0
   -0.4294  -54.5406  -19.4984 H   0  0  0  0  0  0  0  0  0  0  0  0
    1.1343  -54.1786  -20.2772 H   0  0  0  0  0  0  0  0  0  0  0  0
   -1.0901  -52.7400  -23.6374 C   0  0  0  0  0  0  0  0  0  0  0  0
   -0.4532  -53.1887  -24.8440 C   0  0  0  0  0  0  0  0  0  0  0  0
    0.7310  -53.9150  -24.8661 C   0  0  0  0  0  0  0  0  0  0  0  0
    1.1186  -54.1324  -26.1180 N   0  0  0  0  0  0  0  0  0  0  0  0
    0.1890  -53.5513  -26.9256 C   0  0  0  0  0  0  0  0  0  0  0  0
    0.1386  -53.4956  -28.3220 C   0  0  0  0  0  0  0  0  0  0  0  0
   -0.9148  -52.8406  -28.9255 C   0  0  0  0  0  0  0  0  0  0  0  0
   -1.8831  -52.2601  -28.1503 C   0  0  0  0  0  0  0  0  0  0  0  0
   -1.8560  -52.3002  -26.7701 C   0  0  0  0  0  0  0  0  0  0  0  0
   -0.7960  -52.9607  -26.1640 C   0  0  0  0  0  0  0  0  0  0  0  0
    1.9630  -54.6417  -26.4643 H   0  0  0  0  0  0  0  0  0  0  0  0
    4.1405  -52.1213  -22.7688 C   0  0  0  0  0  0  0  0  0  0  0  0
    4.0890  -52.2775  -25.1718 C   0  0  0  0  0  0  0  0  0  0  0  0
    5.0131  -52.3509  -23.9220 C   0  0  0  0  0  0  0  0  0  0  0  0
    6.1475  -51.4188  -24.1512 C   0  0  0  0  0  0  0  0  0  0  0  0
    3.2760  -48.9327  -18.6396 C   0  0  0  0  0  0  0  0  0  0  0  0
    2.2901  -49.6651  -17.8499 C   0  0  0  0  0  0  0  0  0  0  0  0
    1.0218  -49.9081  -18.3223 C   0  0  0  0  0  0  0  0  0  0  0  0
    0.0870  -50.5888  -17.5327 C   0  0  0  0  0  0  0  0  0  0  0  0
    0.4002  -51.0338  -16.2704 C   0  0  0  0  0  0  0  0  0  0  0  0
    1.6779  -50.7896  -15.7948 C   0  0  0  0  0  0  0  0  0  0  0  0
    2.5665  -50.1251  -16.5863 C   0  0  0  0  0  0  0  0  0  0  0  0
 58 59  1  0  0  0
 59 60  1  0  0  0
 59 57  1  0  0  0
 57 35  1  0  0  0
 35 31  1  0  0  0
 31 32  1  0  0  0
 32 33  2  0  0  0
 32  1  1  0  0  0
  1 61  1  0  0  0
 61 62  1  0  0  0
 62 63  2  0  0  0
 63 64  1  0  0  0
 64 65  2  0  0  0
 65 66  1  0  0  0
 66 67  2  0  0  0
  1  2  1  0  0  0
  2  3  1  0  0  0
  3  4  2  0  0  0
  3  6  1  0  0  0
  6  7  1  0  0  0
  7  8  1  0  0  0
  8  9  2  0  0  0
  8 11  1  0  0  0
 11 12  1  0  0  0
 12 13  1  0  0  0
 13 14  1  0  0  0
 14 15  1  0  0  0
 15 16  1  0  0  0
 16 17  2  0  0  0
 16 18  1  0  0  0
 18 19  1  0  0  0
 18 22  1  0  0  0
 22 23  1  0  0  0
 23 24  2  0  0  0
 24 25  1  0  0  0
 25 26  2  0  0  0
 26 27  1  0  0  0
 26 28  1  0  0  0
 28 29  2  0  0  0
 35 36  1  0  0  0
 36 37  2  0  0  0
 36 38  1  0  0  0
 38 40  1  0  0  0
 40 46  1  0  0  0
 46 47  1  0  0  0
 47 48  2  0  0  0
 48 49  1  0  0  0
 49 50  1  0  0  0
 50 51  2  0  0  0
 51 52  1  0  0  0
 52 53  2  0  0  0
 53 54  1  0  0  0
 54 55  2  0  0  0
 40 41  1  0  0  0
 41 42  1  0  0  0
 41 43  2  0  0  0
 67 62  1  0  0  0
 15 11  1  0  0  0
 29 23  1  0  0  0
 55 47  1  0  0  0
 55 50  1  0  0  0
 31 34  1  0  0  0
  2  5  1  0  0  0
  7 10  1  0  0  0
 19 20  1  0  0  0
 19 21  1  0  0  0
 27 30  1  0  0  0
 38 39  1  0  0  0
 49 56  1  0  0  0
 42 44  1  0  0  0
 42 45  1  0  0  0
M  END
> <minimizedAffinity>
-8.24061

> <CNNscore>
0.2190261930

> <CNNaffinity>
7.5713777542

> <CNN_VS>
1.6583300829

> <CNNaffinity_variance>
0.7623853683

$$$$
[H]Oc1c([H])c([H])c(C([H])([H])[C@@]([H])(C(=O)N2C([H])([H])C([H])([H])C([H])([H])[C@@]2([H])C(=O)N([H])C([H])([H])C(=O)N([H])[C@]([H])(C(=O)N([H])[C@]([H])(C(=O)N([H])[C@]([H])(C(=O)N([H])[H])C([H])([H])c2c([H])n([H])c3c([H])c([H])c([H])c([H])c23)C([H])([H])C([H])(C([H])([H])[H])C([H])([H])[H])C([H])([H])c2c([H])c([H])c([H])c([H])c2[H])N([H])[H])c([H])c1[H]


 67 71  0  0  0  0  0  0  0  0999 V2000
    3.6169  -47.3813  -25.8965 C   0  0  0  0  0  0  0  0  0  0  0  0
    3.9776  -46.2432  -25.0330 N   0  0  0  0  0  0  0  0  0  0  0  0
    3.4764  -46.0021  -23.7407 C   0  0  0  0  0  0  0  0  0  0  0  0
    2.6513  -46.7688  -23.2203 O   0  0  0  0  0  0  0  0  0  0  0  0
    4.6643  -45.5502  -25.4449 H   0  0  0  0  0  0  0  0  0  0  0  0
    3.8860  -44.8139  -22.9289 C   0  0  0  0  0  0  0  0  0  0  0  0
    4.6975  -45.2773  -21.7754 N   0  0  0  0  0  0  0  0  0  0  0  0
    4.5826  -44.4959  -20.5651 C   0  0  0  0  0  0  0  0  0  0  0  0
    3.8278  -43.4550  -20.5963 O   0  0  0  0  0  0  0  0  0  0  0  0
    5.2706  -46.1064  -21.9009 H   0  0  0  0  0  0  0  0  0  0  0  0
    5.2582  -44.8153  -19.3338 C   0  0  0  0  0  0  0  0  0  0  0  0
    5.8414  -43.4816  -18.7205 C   0  0  0  0  0  0  0  0  0  0  0  0
    7.1102  -43.2880  -19.5264 C   0  0  0  0  0  0  0  0  0  0  0  0
    7.4929  -44.6628  -19.9968 C   0  0  0  0  0  0  0  0  0  0  0  0
    6.5097  -45.5259  -19.4203 N   0  0  0  0  0  0  0  0  0  0  0  0
    6.6904  -46.8688  -18.9679 C   0  0  0  0  0  0  0  0  0  0  0  0
    5.6809  -47.4760  -18.4633 O   0  0  0  0  0  0  0  0  0  0  0  0
    7.9395  -47.6257  -19.0248 C   0  0  0  0  0  0  0  0  0  0  0  0
    8.5772  -47.6318  -17.7373 N   0  0  0  0  0  0  0  0  0  0  0  0
    8.2722  -46.8720  -17.1155 H   0  0  0  0  0  0  0  0  0  0  0  0
    9.6071  -47.5702  -17.8636 H   0  0  0  0  0  0  0  0  0  0  0  0
    7.6103  -49.1006  -19.3544 C   0  0  0  0  0  0  0  0  0  0  0  0
    7.8223  -49.2999  -20.8338 C   0  0  0  0  0  0  0  0  0  0  0  0
    8.5683  -48.3608  -21.5214 C   0  0  0  0  0  0  0  0  0  0  0  0
    8.7136  -48.5527  -22.8866 C   0  0  0  0  0  0  0  0  0  0  0  0
    8.1370  -49.6384  -23.5287 C   0  0  0  0  0  0  0  0  0  0  0  0
    8.3291  -49.7520  -24.9055 O   0  0  0  0  0  0  0  0  0  0  0  0
    7.4160  -50.5360  -22.8232 C   0  0  0  0  0  0  0  0  0  0  0  0
    7.2505  -50.3689  -21.4372 C   0  0  0  0  0  0  0  0  0  0  0  0
    7.8964  -50.5491  -25.3642 H   0  0  0  0  0  0  0  0  0  0  0  0
    3.1486  -49.5267  -24.5632 N   0  0  0  0  0  0  0  0  0  0  0  0
    3.9551  -48.6303  -25.2309 C   0  0  0  0  0  0  0  0  0  0  0  0
    5.2182  -48.9428  -25.2769 O   0  0  0  0  0  0  0  0  0  0  0  0
    2.1488  -49.4226  -24.4243 H   0  0  0  0  0  0  0  0  0  0  0  0
    3.7920  -50.7873  -23.9620 C   0  0  0  0  0  0  0  0  0  0  0  0
    3.1863  -51.9139  -24.6466 C   0  0  0  0  0  0  0  0  0  0  0  0
    3.4067  -53.0822  -24.1470 O   0  0  0  0  0  0  0  0  0  0  0  0
    2.3657  -51.8441  -25.7842 N   0  0  0  0  0  0  0  0  0  0  0  0
    2.2311  -50.8972  -26.1983 H   0  0  0  0  0  0  0  0  0  0  0  0
    1.6811  -52.9449  -26.4314 C   0  0  0  0  0  0  0  0  0  0  0  0
    1.9798  -53.0308  -27.8506 C   0  0  0  0  0  0  0  0  0  0  0  0
    3.2628  -52.5950  -28.3399 N   0  0  0  0  0  0  0  0  0  0  0  0
    1.1401  -53.4728  -28.6587 O   0  0  0  0  0  0  0  0  0  0  0  0
    3.8092  -53.2181  -28.9334 H   0  0  0  0  0  0  0  0  0  0  0  0
    3.6243  -51.6590  -28.0860 H   0  0  0  0  0  0  0  0  0  0  0  0
    0.2174  -52.9153  -26.0699 C   0  0  0  0  0  0  0  0  0  0  0  0
   -0.2646  -53.7784  -25.0280 C   0  0  0  0  0  0  0  0  0  0  0  0
   -0.6307  -55.1029  -25.2322 C   0  0  0  0  0  0  0  0  0  0  0  0
   -1.1004  -55.6330  -24.1084 N   0  0  0  0  0  0  0  0  0  0  0  0
   -1.0432  -54.6592  -23.1585 C   0  0  0  0  0  0  0  0  0  0  0  0
   -1.4217  -54.7097  -21.8132 C   0  0  0  0  0  0  0  0  0  0  0  0
   -1.2703  -53.5807  -21.0352 C   0  0  0  0  0  0  0  0  0  0  0  0
   -0.7574  -52.4396  -21.5923 C   0  0  0  0  0  0  0  0  0  0  0  0
   -0.3770  -52.3636  -22.9178 C   0  0  0  0  0  0  0  0  0  0  0  0
   -0.5288  -53.5007  -23.6994 C   0  0  0  0  0  0  0  0  0  0  0  0
   -1.4566  -56.6008  -23.9382 H   0  0  0  0  0  0  0  0  0  0  0  0
    3.7510  -50.5893  -22.5173 C   0  0  0  0  0  0  0  0  0  0  0  0
    3.0630  -51.5290  -20.4090 C   0  0  0  0  0  0  0  0  0  0  0  0
    2.5594  -50.8161  -21.6972 C   0  0  0  0  0  0  0  0  0  0  0  0
    1.7561  -49.6409  -21.2710 C   0  0  0  0  0  0  0  0  0  0  0  0
    4.4584  -47.1993  -27.1899 C   0  0  0  0  0  0  0  0  0  0  0  0
    3.6941  -46.7814  -28.3617 C   0  0  0  0  0  0  0  0  0  0  0  0
    2.5365  -46.0485  -28.2458 C   0  0  0  0  0  0  0  0  0  0  0  0
    1.8078  -45.6847  -29.3849 C   0  0  0  0  0  0  0  0  0  0  0  0
    2.2192  -46.0436  -30.6465 C   0  0  0  0  0  0  0  0  0  0  0  0
    3.3856  -46.7814  -30.7633 C   0  0  0  0  0  0  0  0  0  0  0  0
    4.0738  -47.1203  -29.6367 C   0  0  0  0  0  0  0  0  0  0  0  0
 58 59  1  0  0  0
 59 60  1  0  0  0
 59 57  1  0  0  0
 57 35  1  0  0  0
 35 31  1  0  0  0
 31 32  1  0  0  0
 32 33  2  0  0  0
 32  1  1  0  0  0
  1 61  1  0  0  0
 61 62  1  0  0  0
 62 63  2  0  0  0
 63 64  1  0  0  0
 64 65  2  0  0  0
 65 66  1  0  0  0
 66 67  2  0  0  0
  1  2  1  0  0  0
  2  3  1  0  0  0
  3  4  2  0  0  0
  3  6  1  0  0  0
  6  7  1  0  0  0
  7  8  1  0  0  0
  8  9  2  0  0  0
  8 11  1  0  0  0
 11 12  1  0  0  0
 12 13  1  0  0  0
 13 14  1  0  0  0
 14 15  1  0  0  0
 15 16  1  0  0  0
 16 17  2  0  0  0
 16 18  1  0  0  0
 18 19  1  0  0  0
 18 22  1  0  0  0
 22 23  1  0  0  0
 23 24  2  0  0  0
 24 25  1  0  0  0
 25 26  2  0  0  0
 26 27  1  0  0  0
 26 28  1  0  0  0
 28 29  2  0  0  0
 35 36  1  0  0  0
 36 37  2  0  0  0
 36 38  1  0  0  0
 38 40  1  0  0  0
 40 46  1  0  0  0
 46 47  1  0  0  0
 47 48  2  0  0  0
 48 49  1  0  0  0
 49 50  1  0  0  0
 50 51  2  0  0  0
 51 52  1  0  0  0
 52 53  2  0  0  0
 53 54  1  0  0  0
 54 55  2  0  0  0
 40 41  1  0  0  0
 41 42  1  0  0  0
 41 43  2  0  0  0
 67 62  1  0  0  0
 15 11  1  0  0  0
 29 23  1  0  0  0
 55 47  1  0  0  0
 55 50  1  0  0  0
 31 34  1  0  0  0
  2  5  1  0  0  0
  7 10  1  0  0  0
 19 20  1  0  0  0
 19 21  1  0  0  0
 27 30  1  0  0  0
 38 39  1  0  0  0
 49 56  1  0  0  0
 42 44  1  0  0  0
 42 45  1  0  0  0
M  END
> <minimizedAffinity>
-8.28596

> <CNNscore>
0.1851745695

> <CNNaffinity>
7.2643256187

> <CNN_VS>
1.3451683521

> <CNNaffinity_variance>
0.8277948499

$$$$
[H]Oc1c([H])c([H])c(C([H])([H])[C@@]([H])(C(=O)N2C([H])([H])C([H])([H])C([H])([H])[C@@]2([H])C(=O)N([H])C([H])([H])C(=O)N([H])[C@]([H])(C(=O)N([H])[C@]([H])(C(=O)N([H])[C@]([H])(C(=O)N([H])[H])C([H])([H])c2c([H])n([H])c3c([H])c([H])c([H])c([H])c23)C([H])([H])C([H])(C([H])([H])[H])C([H])([H])[H])C([H])([H])c2c([H])c([H])c([H])c([H])c2[H])N([H])[H])c([H])c1[H]


 67 71  0  0  0  0  0  0  0  0999 V2000
    2.7977  -50.2234  -25.5472 C   0  0  0  0  0  0  0  0  0  0  0  0
    4.0805  -50.9099  -25.3146 N   0  0  0  0  0  0  0  0  0  0  0  0
    4.8375  -50.8560  -24.1300 C   0  0  0  0  0  0  0  0  0  0  0  0
    4.4567  -50.1877  -23.1564 O   0  0  0  0  0  0  0  0  0  0  0  0
    4.4553  -51.4764  -26.1271 H   0  0  0  0  0  0  0  0  0  0  0  0
    6.1400  -51.5758  -23.9752 C   0  0  0  0  0  0  0  0  0  0  0  0
    7.2103  -50.7758  -24.6218 N   0  0  0  0  0  0  0  0  0  0  0  0
    7.9841  -49.9267  -23.7450 C   0  0  0  0  0  0  0  0  0  0  0  0
    7.6624  -49.9036  -22.5000 O   0  0  0  0  0  0  0  0  0  0  0  0
    7.3378  -50.8761  -25.6245 H   0  0  0  0  0  0  0  0  0  0  0  0
    9.0890  -49.1125  -24.1821 C   0  0  0  0  0  0  0  0  0  0  0  0
    9.2096  -47.8691  -23.2155 C   0  0  0  0  0  0  0  0  0  0  0  0
    8.1366  -46.9429  -23.7517 C   0  0  0  0  0  0  0  0  0  0  0  0
    7.9616  -47.3332  -25.1920 C   0  0  0  0  0  0  0  0  0  0  0  0
    8.9286  -48.3647  -25.4043 N   0  0  0  0  0  0  0  0  0  0  0  0
    9.6593  -48.6378  -26.6011 C   0  0  0  0  0  0  0  0  0  0  0  0
   10.4988  -49.6059  -26.5873 O   0  0  0  0  0  0  0  0  0  0  0  0
    9.5391  -47.9025  -27.8587 C   0  0  0  0  0  0  0  0  0  0  0  0
   10.8261  -47.4220  -28.2795 N   0  0  0  0  0  0  0  0  0  0  0  0
   11.5186  -47.3619  -27.5221 H   0  0  0  0  0  0  0  0  0  0  0  0
   10.7179  -46.4829  -28.7118 H   0  0  0  0  0  0  0  0  0  0  0  0
    9.0576  -48.8776  -28.9584 C   0  0  0  0  0  0  0  0  0  0  0  0
    7.7709  -48.3331  -29.5251 C   0  0  0  0  0  0  0  0  0  0  0  0
    7.7208  -48.0424  -30.8757 C   0  0  0  0  0  0  0  0  0  0  0  0
    6.5362  -47.5085  -31.3587 C   0  0  0  0  0  0  0  0  0  0  0  0
    5.4534  -47.2795  -30.5227 C   0  0  0  0  0  0  0  0  0  0  0  0
    4.3019  -46.7350  -31.0908 O   0  0  0  0  0  0  0  0  0  0  0  0
    5.5394  -47.5776  -29.2085 C   0  0  0  0  0  0  0  0  0  0  0  0
    6.7275  -48.1203  -28.6886 C   0  0  0  0  0  0  0  0  0  0  0  0
    3.5181  -46.5671  -30.4659 H   0  0  0  0  0  0  0  0  0  0  0  0
    0.4060  -51.1610  -25.5751 N   0  0  0  0  0  0  0  0  0  0  0  0
    1.7599  -51.2033  -25.8306 C   0  0  0  0  0  0  0  0  0  0  0  0
    2.1838  -52.2861  -26.4162 O   0  0  0  0  0  0  0  0  0  0  0  0
   -0.0781  -50.3986  -25.1123 H   0  0  0  0  0  0  0  0  0  0  0  0
   -0.4604  -52.3562  -26.0055 C   0  0  0  0  0  0  0  0  0  0  0  0
   -0.4285  -53.2951  -24.8999 C   0  0  0  0  0  0  0  0  0  0  0  0
   -0.5493  -54.5442  -25.1969 O   0  0  0  0  0  0  0  0  0  0  0  0
   -0.2545  -52.9689  -23.5451 N   0  0  0  0  0  0  0  0  0  0  0  0
   -0.1991  -51.9531  -23.3187 H   0  0  0  0  0  0  0  0  0  0  0  0
   -0.1326  -53.8941  -22.4367 C   0  0  0  0  0  0  0  0  0  0  0  0
   -1.4147  -54.2120  -21.8317 C   0  0  0  0  0  0  0  0  0  0  0  0
   -1.8956  -53.4308  -20.7208 N   0  0  0  0  0  0  0  0  0  0  0  0
   -2.1089  -55.1566  -22.2552 O   0  0  0  0  0  0  0  0  0  0  0  0
   -2.8355  -53.0380  -20.7559 H   0  0  0  0  0  0  0  0  0  0  0  0
   -1.2881  -53.2693  -19.8986 H   0  0  0  0  0  0  0  0  0  0  0  0
    0.9383  -53.4140  -21.4899 C   0  0  0  0  0  0  0  0  0  0  0  0
    1.0952  -52.0040  -21.2665 C   0  0  0  0  0  0  0  0  0  0  0  0
    1.4494  -51.1009  -22.2610 C   0  0  0  0  0  0  0  0  0  0  0  0
    1.5862  -49.8812  -21.7529 N   0  0  0  0  0  0  0  0  0  0  0  0
    1.3200  -49.9763  -20.4209 C   0  0  0  0  0  0  0  0  0  0  0  0
    1.3296  -48.9782  -19.4415 C   0  0  0  0  0  0  0  0  0  0  0  0
    1.0240  -49.3182  -18.1400 C   0  0  0  0  0  0  0  0  0  0  0  0
    0.7210  -50.6184  -17.8344 C   0  0  0  0  0  0  0  0  0  0  0  0
    0.7054  -51.6224  -18.7826 C   0  0  0  0  0  0  0  0  0  0  0  0
    1.0120  -51.2787  -20.0921 C   0  0  0  0  0  0  0  0  0  0  0  0
    1.8465  -48.9933  -22.2389 H   0  0  0  0  0  0  0  0  0  0  0  0
   -0.0303  -52.6751  -27.3625 C   0  0  0  0  0  0  0  0  0  0  0  0
   -2.3268  -52.4698  -28.0594 C   0  0  0  0  0  0  0  0  0  0  0  0
   -0.9441  -53.0777  -28.4335 C   0  0  0  0  0  0  0  0  0  0  0  0
   -0.6353  -52.6592  -29.8256 C   0  0  0  0  0  0  0  0  0  0  0  0
    3.0398  -49.3043  -26.7764 C   0  0  0  0  0  0  0  0  0  0  0  0
    3.2319  -47.8931  -26.4549 C   0  0  0  0  0  0  0  0  0  0  0  0
    4.1668  -47.4823  -25.5341 C   0  0  0  0  0  0  0  0  0  0  0  0
    4.3110  -46.1244  -25.2240 C   0  0  0  0  0  0  0  0  0  0  0  0
    3.5313  -45.1635  -25.8225 C   0  0  0  0  0  0  0  0  0  0  0  0
    2.5899  -45.5772  -26.7504 C   0  0  0  0  0  0  0  0  0  0  0  0
    2.4728  -46.9056  -27.0323 C   0  0  0  0  0  0  0  0  0  0  0  0
 58 59  1  0  0  0
 59 60  1  0  0  0
 59 57  1  0  0  0
 57 35  1  0  0  0
 35 31  1  0  0  0
 31 32  1  0  0  0
 32 33  2  0  0  0
 32  1  1  0  0  0
  1 61  1  0  0  0
 61 62  1  0  0  0
 62 63  2  0  0  0
 63 64  1  0  0  0
 64 65  2  0  0  0
 65 66  1  0  0  0
 66 67  2  0  0  0
  1  2  1  0  0  0
  2  3  1  0  0  0
  3  4  2  0  0  0
  3  6  1  0  0  0
  6  7  1  0  0  0
  7  8  1  0  0  0
  8  9  2  0  0  0
  8 11  1  0  0  0
 11 12  1  0  0  0
 12 13  1  0  0  0
 13 14  1  0  0  0
 14 15  1  0  0  0
 15 16  1  0  0  0
 16 17  2  0  0  0
 16 18  1  0  0  0
 18 19  1  0  0  0
 18 22  1  0  0  0
 22 23  1  0  0  0
 23 24  2  0  0  0
 24 25  1  0  0  0
 25 26  2  0  0  0
 26 27  1  0  0  0
 26 28  1  0  0  0
 28 29  2  0  0  0
 35 36  1  0  0  0
 36 37  2  0  0  0
 36 38  1  0  0  0
 38 40  1  0  0  0
 40 46  1  0  0  0
 46 47  1  0  0  0
 47 48  2  0  0  0
 48 49  1  0  0  0
 49 50  1  0  0  0
 50 51  2  0  0  0
 51 52  1  0  0  0
 52 53  2  0  0  0
 53 54  1  0  0  0
 54 55  2  0  0  0
 40 41  1  0  0  0
 41 42  1  0  0  0
 41 43  2  0  0  0
 67 62  1  0  0  0
 15 11  1  0  0  0
 29 23  1  0  0  0
 55 47  1  0  0  0
 55 50  1  0  0  0
 31 34  1  0  0  0
  2  5  1  0  0  0
  7 10  1  0  0  0
 19 20  1  0  0  0
 19 21  1  0  0  0
 27 30  1  0  0  0
 38 39  1  0  0  0
 49 56  1  0  0  0
 42 44  1  0  0  0
 42 45  1  0  0  0
M  END
> <minimizedAffinity>
-8.18665

> <CNNscore>
0.1304877996

> <CNNaffinity>
7.5907173157

> <CNN_VS>
0.9904959798

> <CNNaffinity_variance>
0.4225037098

$$$$
[H]Oc1c([H])c([H])c(C([H])([H])[C@@]([H])(C(=O)N2C([H])([H])C([H])([H])C([H])([H])[C@@]2([H])C(=O)N([H])C([H])([H])C(=O)N([H])[C@]([H])(C(=O)N([H])[C@]([H])(C(=O)N([H])[C@]([H])(C(=O)N([H])[H])C([H])([H])c2c([H])n([H])c3c([H])c([H])c([H])c([H])c23)C([H])([H])C([H])(C([H])([H])[H])C([H])([H])[H])C([H])([H])c2c([H])c([H])c([H])c([H])c2[H])N([H])[H])c([H])c1[H]


 67 71  0  0  0  0  0  0  0  0999 V2000
    1.3717  -50.2064  -19.3414 C   0  0  0  0  0  0  0  0  0  0  0  0
    2.2099  -49.4569  -20.2936 N   0  0  0  0  0  0  0  0  0  0  0  0
    1.7599  -48.4513  -21.1686 C   0  0  0  0  0  0  0  0  0  0  0  0
    0.5654  -48.1175  -21.2005 O   0  0  0  0  0  0  0  0  0  0  0  0
    3.2346  -49.7233  -20.3160 H   0  0  0  0  0  0  0  0  0  0  0  0
    2.6753  -47.7418  -22.1158 C   0  0  0  0  0  0  0  0  0  0  0  0
    2.9849  -48.6458  -23.2520 N   0  0  0  0  0  0  0  0  0  0  0  0
    4.3864  -48.9012  -23.4948 C   0  0  0  0  0  0  0  0  0  0  0  0
    5.2411  -48.3028  -22.7427 O   0  0  0  0  0  0  0  0  0  0  0  0
    2.2060  -49.0303  -23.7784 H   0  0  0  0  0  0  0  0  0  0  0  0
    4.8775  -49.7833  -24.5222 C   0  0  0  0  0  0  0  0  0  0  0  0
    6.0147  -49.0360  -25.3242 C   0  0  0  0  0  0  0  0  0  0  0  0
    5.2161  -48.1588  -26.2674 C   0  0  0  0  0  0  0  0  0  0  0  0
    3.8910  -48.8499  -26.4227 C   0  0  0  0  0  0  0  0  0  0  0  0
    4.0169  -50.0454  -25.6488 N   0  0  0  0  0  0  0  0  0  0  0  0
    3.4277  -51.3191  -25.9153 C   0  0  0  0  0  0  0  0  0  0  0  0
    3.6738  -52.2792  -25.1029 O   0  0  0  0  0  0  0  0  0  0  0  0
    2.5590  -51.6353  -27.0476 C   0  0  0  0  0  0  0  0  0  0  0  0
    3.3461  -51.9031  -28.2194 N   0  0  0  0  0  0  0  0  0  0  0  0
    4.2978  -51.5161  -28.1819 H   0  0  0  0  0  0  0  0  0  0  0  0
    2.8600  -51.5205  -29.0548 H   0  0  0  0  0  0  0  0  0  0  0  0
    1.7898  -52.9396  -26.7326 C   0  0  0  0  0  0  0  0  0  0  0  0
    0.3381  -52.7105  -27.0694 C   0  0  0  0  0  0  0  0  0  0  0  0
   -0.5225  -52.3503  -26.0493 C   0  0  0  0  0  0  0  0  0  0  0  0
   -1.8572  -52.1834  -26.3844 C   0  0  0  0  0  0  0  0  0  0  0  0
   -2.3041  -52.3688  -27.6842 C   0  0  0  0  0  0  0  0  0  0  0  0
   -3.6642  -52.1851  -27.9325 O   0  0  0  0  0  0  0  0  0  0  0  0
   -1.4332  -52.7194  -28.6547 C   0  0  0  0  0  0  0  0  0  0  0  0
   -0.0731  -52.8961  -28.3463 C   0  0  0  0  0  0  0  0  0  0  0  0
   -3.9791  -52.3297  -28.8881 H   0  0  0  0  0  0  0  0  0  0  0  0
    1.6095  -48.5501  -17.3920 N   0  0  0  0  0  0  0  0  0  0  0  0
    1.6836  -49.7940  -17.9813 C   0  0  0  0  0  0  0  0  0  0  0  0
    2.0970  -50.7550  -17.2062 O   0  0  0  0  0  0  0  0  0  0  0  0
    1.3231  -47.6971  -17.8612 H   0  0  0  0  0  0  0  0  0  0  0  0
    1.9968  -48.4151  -15.9100 C   0  0  0  0  0  0  0  0  0  0  0  0
    0.7545  -48.2246  -15.1852 C   0  0  0  0  0  0  0  0  0  0  0  0
    0.7936  -48.4101  -13.9097 O   0  0  0  0  0  0  0  0  0  0  0  0
   -0.4744  -47.8347  -15.7422 N   0  0  0  0  0  0  0  0  0  0  0  0
   -0.4980  -47.7285  -16.7787 H   0  0  0  0  0  0  0  0  0  0  0  0
   -1.7032  -47.5548  -15.0273 C   0  0  0  0  0  0  0  0  0  0  0  0
   -1.6583  -46.2896  -14.3146 C   0  0  0  0  0  0  0  0  0  0  0  0
   -1.2828  -46.2640  -12.9240 N   0  0  0  0  0  0  0  0  0  0  0  0
   -1.9448  -45.2194  -14.8859 O   0  0  0  0  0  0  0  0  0  0  0  0
   -0.5495  -45.6265  -12.6160 H   0  0  0  0  0  0  0  0  0  0  0  0
   -1.7530  -46.8911  -12.2481 H   0  0  0  0  0  0  0  0  0  0  0  0
   -2.0980  -48.7563  -14.2062 C   0  0  0  0  0  0  0  0  0  0  0  0
   -2.8819  -49.7943  -14.8152 C   0  0  0  0  0  0  0  0  0  0  0  0
   -4.2440  -49.9600  -14.5969 C   0  0  0  0  0  0  0  0  0  0  0  0
   -4.6883  -51.0374  -15.2343 N   0  0  0  0  0  0  0  0  0  0  0  0
   -3.6199  -51.5845  -15.8771 C   0  0  0  0  0  0  0  0  0  0  0  0
   -3.5589  -52.7270  -16.6812 C   0  0  0  0  0  0  0  0  0  0  0  0
   -2.3475  -53.0913  -17.2311 C   0  0  0  0  0  0  0  0  0  0  0  0
   -1.2353  -52.3330  -16.9791 C   0  0  0  0  0  0  0  0  0  0  0  0
   -1.2688  -51.2013  -16.1882 C   0  0  0  0  0  0  0  0  0  0  0  0
   -2.4887  -50.8351  -15.6363 C   0  0  0  0  0  0  0  0  0  0  0  0
   -5.6570  -51.4287  -15.2649 H   0  0  0  0  0  0  0  0  0  0  0  0
    3.1103  -47.4730  -15.8870 C   0  0  0  0  0  0  0  0  0  0  0  0
    3.1147  -45.0669  -15.7772 C   0  0  0  0  0  0  0  0  0  0  0  0
    3.1916  -46.2862  -16.7409 C   0  0  0  0  0  0  0  0  0  0  0  0
    4.3953  -46.1054  -17.5932 C   0  0  0  0  0  0  0  0  0  0  0  0
    1.7340  -51.7011  -19.5621 C   0  0  0  0  0  0  0  0  0  0  0  0
    0.8254  -52.4254  -20.4462 C   0  0  0  0  0  0  0  0  0  0  0  0
    0.3192  -51.8522  -21.5890 C   0  0  0  0  0  0  0  0  0  0  0  0
   -0.5726  -52.5596  -22.4046 C   0  0  0  0  0  0  0  0  0  0  0  0
   -0.9699  -53.8387  -22.0953 C   0  0  0  0  0  0  0  0  0  0  0  0
   -0.4595  -54.4162  -20.9445 C   0  0  0  0  0  0  0  0  0  0  0  0
    0.4071  -53.7035  -20.1706 C   0  0  0  0  0  0  0  0  0  0  0  0
 58 59  1  0  0  0
 59 60  1  0  0  0
 59 57  1  0  0  0
 57 35  1  0  0  0
 35 31  1  0  0  0
 31 32  1  0  0  0
 32 33  2  0  0  0
 32  1  1  0  0  0
  1 61  1  0  0  0
 61 62  1  0  0  0
 62 63  2  0  0  0
 63 64  1  0  0  0
 64 65  2  0  0  0
 65 66  1  0  0  0
 66 67  2  0  0  0
  1  2  1  0  0  0
  2  3  1  0  0  0
  3  4  2  0  0  0
  3  6  1  0  0  0
  6  7  1  0  0  0
  7  8  1  0  0  0
  8  9  2  0  0  0
  8 11  1  0  0  0
 11 12  1  0  0  0
 12 13  1  0  0  0
 13 14  1  0  0  0
 14 15  1  0  0  0
 15 16  1  0  0  0
 16 17  2  0  0  0
 16 18  1  0  0  0
 18 19  1  0  0  0
 18 22  1  0  0  0
 22 23  1  0  0  0
 23 24  2  0  0  0
 24 25  1  0  0  0
 25 26  2  0  0  0
 26 27  1  0  0  0
 26 28  1  0  0  0
 28 29  2  0  0  0
 35 36  1  0  0  0
 36 37  2  0  0  0
 36 38  1  0  0  0
 38 40  1  0  0  0
 40 46  1  0  0  0
 46 47  1  0  0  0
 47 48  2  0  0  0
 48 49  1  0  0  0
 49 50  1  0  0  0
 50 51  2  0  0  0
 51 52  1  0  0  0
 52 53  2  0  0  0
 53 54  1  0  0  0
 54 55  2  0  0  0
 40 41  1  0  0  0
 41 42  1  0  0  0
 41 43  2  0  0  0
 67 62  1  0  0  0
 15 11  1  0  0  0
 29 23  1  0  0  0
 55 47  1  0  0  0
 55 50  1  0  0  0
 31 34  1  0  0  0
  2  5  1  0  0  0
  7 10  1  0  0  0
 19 20  1  0  0  0
 19 21  1  0  0  0
 27 30  1  0  0  0
 38 39  1  0  0  0
 49 56  1  0  0  0
 42 44  1  0  0  0
 42 45  1  0  0  0
M  END
> <minimizedAffinity>
-9.37183

> <CNNscore>
0.1248842403

> <CNNaffinity>
7.0455260277

> <CNN_VS>
0.8798751831

> <CNNaffinity_variance>
0.9983282089

$$$$
[H]Oc1c([H])c([H])c(C([H])([H])[C@@]([H])(C(=O)N2C([H])([H])C([H])([H])C([H])([H])[C@@]2([H])C(=O)N([H])C([H])([H])C(=O)N([H])[C@]([H])(C(=O)N([H])[C@]([H])(C(=O)N([H])[C@]([H])(C(=O)N([H])[H])C([H])([H])c2c([H])n([H])c3c([H])c([H])c([H])c([H])c23)C([H])([H])C([H])(C([H])([H])[H])C([H])([H])[H])C([H])([H])c2c([H])c([H])c([H])c([H])c2[H])N([H])[H])c([H])c1[H]


 67 71  0  0  0  0  0  0  0  0999 V2000
    1.7139  -49.1701  -19.3149 C   0  0  0  0  0  0  0  0  0  0  0  0
    1.5603  -49.5560  -17.9012 N   0  0  0  0  0  0  0  0  0  0  0  0
    2.6081  -49.8811  -17.0205 C   0  0  0  0  0  0  0  0  0  0  0  0
    3.7898  -49.8688  -17.3986 O   0  0  0  0  0  0  0  0  0  0  0  0
    0.5658  -49.6003  -17.5399 H   0  0  0  0  0  0  0  0  0  0  0  0
    2.3684  -50.2741  -15.5969 C   0  0  0  0  0  0  0  0  0  0  0  0
    0.9875  -49.8835  -15.2171 N   0  0  0  0  0  0  0  0  0  0  0  0
    0.8748  -48.8326  -14.2314 C   0  0  0  0  0  0  0  0  0  0  0  0
    1.9637  -48.3547  -13.7414 O   0  0  0  0  0  0  0  0  0  0  0  0
    0.2165  -50.3651  -15.6699 H   0  0  0  0  0  0  0  0  0  0  0  0
   -0.3784  -48.2917  -13.7713 C   0  0  0  0  0  0  0  0  0  0  0  0
   -0.2588  -47.9927  -12.2250 C   0  0  0  0  0  0  0  0  0  0  0  0
   -0.4708  -49.3649  -11.6174 C   0  0  0  0  0  0  0  0  0  0  0  0
   -1.2688  -50.1288  -12.6360 C   0  0  0  0  0  0  0  0  0  0  0  0
   -1.5047  -49.1878  -13.6862 N   0  0  0  0  0  0  0  0  0  0  0  0
   -2.6565  -49.0936  -14.5260 C   0  0  0  0  0  0  0  0  0  0  0  0
   -2.6853  -48.1641  -15.4078 O   0  0  0  0  0  0  0  0  0  0  0  0
   -3.8248  -49.9702  -14.4705 C   0  0  0  0  0  0  0  0  0  0  0  0
   -4.9812  -49.2920  -14.9874 N   0  0  0  0  0  0  0  0  0  0  0  0
   -4.9014  -48.2671  -14.9845 H   0  0  0  0  0  0  0  0  0  0  0  0
   -5.8167  -49.5660  -14.4330 H   0  0  0  0  0  0  0  0  0  0  0  0
   -3.5793  -51.1820  -15.3998 C   0  0  0  0  0  0  0  0  0  0  0  0
   -4.3101  -52.3648  -14.8164 C   0  0  0  0  0  0  0  0  0  0  0  0
   -4.1855  -52.6088  -13.4614 C   0  0  0  0  0  0  0  0  0  0  0  0
   -4.8392  -53.7249  -12.9625 C   0  0  0  0  0  0  0  0  0  0  0  0
   -5.5837  -54.5547  -13.7876 C   0  0  0  0  0  0  0  0  0  0  0  0
   -6.2045  -55.6587  -13.2037 O   0  0  0  0  0  0  0  0  0  0  0  0
   -5.6834  -54.2832  -15.1066 C   0  0  0  0  0  0  0  0  0  0  0  0
   -5.0320  -53.1586  -15.6425 C   0  0  0  0  0  0  0  0  0  0  0  0
   -6.7421  -56.2615  -13.8208 H   0  0  0  0  0  0  0  0  0  0  0  0
    0.8090  -50.5260  -21.3005 N   0  0  0  0  0  0  0  0  0  0  0  0
    1.5667  -50.3428  -20.1636 C   0  0  0  0  0  0  0  0  0  0  0  0
    2.2612  -51.3763  -19.7833 O   0  0  0  0  0  0  0  0  0  0  0  0
    0.2018  -49.8278  -21.7171 H   0  0  0  0  0  0  0  0  0  0  0  0
    0.8617  -51.8911  -22.0062 C   0  0  0  0  0  0  0  0  0  0  0  0
    1.8406  -51.7575  -23.0686 C   0  0  0  0  0  0  0  0  0  0  0  0
    2.0190  -50.5730  -23.5465 O   0  0  0  0  0  0  0  0  0  0  0  0
    2.6246  -52.7927  -23.6033 N   0  0  0  0  0  0  0  0  0  0  0  0
    2.4391  -53.7495  -23.2342 H   0  0  0  0  0  0  0  0  0  0  0  0
    3.6675  -52.6670  -24.6013 C   0  0  0  0  0  0  0  0  0  0  0  0
    4.9570  -52.3324  -24.0217 C   0  0  0  0  0  0  0  0  0  0  0  0
    6.1353  -52.3286  -24.8507 N   0  0  0  0  0  0  0  0  0  0  0  0
    5.0648  -52.0513  -22.8122 O   0  0  0  0  0  0  0  0  0  0  0  0
    6.7442  -51.5111  -24.8499 H   0  0  0  0  0  0  0  0  0  0  0  0
    6.3560  -53.1486  -25.4424 H   0  0  0  0  0  0  0  0  0  0  0  0
    3.1969  -51.7684  -25.7170 C   0  0  0  0  0  0  0  0  0  0  0  0
    2.3868  -52.3201  -26.7667 C   0  0  0  0  0  0  0  0  0  0  0  0
    2.9066  -52.9096  -27.9125 C   0  0  0  0  0  0  0  0  0  0  0  0
    1.9271  -53.2676  -28.7352 N   0  0  0  0  0  0  0  0  0  0  0  0
    0.7574  -52.9170  -28.1328 C   0  0  0  0  0  0  0  0  0  0  0  0
   -0.5558  -53.0753  -28.5866 C   0  0  0  0  0  0  0  0  0  0  0  0
   -1.5936  -52.6350  -27.7917 C   0  0  0  0  0  0  0  0  0  0  0  0
   -1.3191  -52.0536  -26.5825 C   0  0  0  0  0  0  0  0  0  0  0  0
   -0.0317  -51.8848  -26.1120 C   0  0  0  0  0  0  0  0  0  0  0  0
    1.0117  -52.3294  -26.9124 C   0  0  0  0  0  0  0  0  0  0  0  0
    1.9918  -53.7286  -29.6710 H   0  0  0  0  0  0  0  0  0  0  0  0
   -0.5312  -52.2686  -22.2197 C   0  0  0  0  0  0  0  0  0  0  0  0
   -1.1539  -54.5953  -22.2212 C   0  0  0  0  0  0  0  0  0  0  0  0
   -1.2375  -53.2672  -21.4147 C   0  0  0  0  0  0  0  0  0  0  0  0
   -0.7464  -53.5485  -20.0407 C   0  0  0  0  0  0  0  0  0  0  0  0
    3.1482  -48.5834  -19.4278 C   0  0  0  0  0  0  0  0  0  0  0  0
    3.2982  -47.5248  -20.4223 C   0  0  0  0  0  0  0  0  0  0  0  0
    2.8421  -47.6739  -21.7109 C   0  0  0  0  0  0  0  0  0  0  0  0
    3.0240  -46.6534  -22.6523 C   0  0  0  0  0  0  0  0  0  0  0  0
    3.6584  -45.4785  -22.3256 C   0  0  0  0  0  0  0  0  0  0  0  0
    4.1173  -45.3281  -21.0275 C   0  0  0  0  0  0  0  0  0  0  0  0
    3.9254  -46.3384  -20.1329 C   0  0  0  0  0  0  0  0  0  0  0  0
 58 59  1  0  0  0
 59 60  1  0  0  0
 59 57  1  0  0  0
 57 35  1  0  0  0
 35 31  1  0  0  0
 31 32  1  0  0  0
 32 33  2  0  0  0
 32  1  1  0  0  0
  1 61  1  0  0  0
 61 62  1  0  0  0
 62 63  2  0  0  0
 63 64  1  0  0  0
 64 65  2  0  0  0
 65 66  1  0  0  0
 66 67  2  0  0  0
  1  2  1  0  0  0
  2  3  1  0  0  0
  3  4  2  0  0  0
  3  6  1  0  0  0
  6  7  1  0  0  0
  7  8  1  0  0  0
  8  9  2  0  0  0
  8 11  1  0  0  0
 11 12  1  0  0  0
 12 13  1  0  0  0
 13 14  1  0  0  0
 14 15  1  0  0  0
 15 16  1  0  0  0
 16 17  2  0  0  0
 16 18  1  0  0  0
 18 19  1  0  0  0
 18 22  1  0  0  0
 22 23  1  0  0  0
 23 24  2  0  0  0
 24 25  1  0  0  0
 25 26  2  0  0  0
 26 27  1  0  0  0
 26 28  1  0  0  0
 28 29  2  0  0  0
 35 36  1  0  0  0
 36 37  2  0  0  0
 36 38  1  0  0  0
 38 40  1  0  0  0
 40 46  1  0  0  0
 46 47  1  0  0  0
 47 48  2  0  0  0
 48 49  1  0  0  0
 49 50  1  0  0  0
 50 51  2  0  0  0
 51 52  1  0  0  0
 52 53  2  0  0  0
 53 54  1  0  0  0
 54 55  2  0  0  0
 40 41  1  0  0  0
 41 42  1  0  0  0
 41 43  2  0  0  0
 67 62  1  0  0  0
 15 11  1  0  0  0
 29 23  1  0  0  0
 55 47  1  0  0  0
 55 50  1  0  0  0
 31 34  1  0  0  0
  2  5  1  0  0  0
  7 10  1  0  0  0
 19 20  1  0  0  0
 19 21  1  0  0  0
 27 30  1  0  0  0
 38 39  1  0  0  0
 49 56  1  0  0  0
 42 44  1  0  0  0
 42 45  1  0  0  0
M  END
> <minimizedAffinity>
-8.72769

> <CNNscore>
0.1118088588

> <CNNaffinity>
7.0261106491

> <CNN_VS>
0.7855814099

> <CNNaffinity_variance>
0.8021818399

$$$$
[H]Oc1c([H])c([H])c(C([H])([H])[C@@]([H])(C(=O)N2C([H])([H])C([H])([H])C([H])([H])[C@@]2([H])C(=O)N([H])C([H])([H])C(=O)N([H])[C@]([H])(C(=O)N([H])[C@]([H])(C(=O)N([H])[C@]([H])(C(=O)N([H])[H])C([H])([H])c2c([H])n([H])c3c([H])c([H])c([H])c([H])c23)C([H])([H])C([H])(C([H])([H])[H])C([H])([H])[H])C([H])([H])c2c([H])c([H])c([H])c([H])c2[H])N([H])[H])c([H])c1[H]


 67 71  0  0  0  0  0  0  0  0999 V2000
    4.1670  -47.7019  -26.3338 C   0  0  0  0  0  0  0  0  0  0  0  0
    4.3162  -46.4747  -25.5321 N   0  0  0  0  0  0  0  0  0  0  0  0
    3.4370  -45.3765  -25.5408 C   0  0  0  0  0  0  0  0  0  0  0  0
    2.4301  -45.3678  -26.2657 O   0  0  0  0  0  0  0  0  0  0  0  0
    5.1741  -46.4289  -24.9129 H   0  0  0  0  0  0  0  0  0  0  0  0
    3.6645  -44.1584  -24.7022 C   0  0  0  0  0  0  0  0  0  0  0  0
    4.9005  -44.3501  -23.9026 N   0  0  0  0  0  0  0  0  0  0  0  0
    4.7088  -44.6528  -22.5025 C   0  0  0  0  0  0  0  0  0  0  0  0
    3.5017  -44.6926  -22.0605 O   0  0  0  0  0  0  0  0  0  0  0  0
    5.7927  -44.2654  -24.3804 H   0  0  0  0  0  0  0  0  0  0  0  0
    5.7846  -44.9131  -21.5808 C   0  0  0  0  0  0  0  0  0  0  0  0
    7.1006  -45.1882  -22.4099 C   0  0  0  0  0  0  0  0  0  0  0  0
    6.9210  -46.6354  -22.8225 C   0  0  0  0  0  0  0  0  0  0  0  0
    6.0037  -47.2292  -21.7911 C   0  0  0  0  0  0  0  0  0  0  0  0
    5.7672  -46.1651  -20.8660 N   0  0  0  0  0  0  0  0  0  0  0  0
    5.5639  -46.2687  -19.4559 C   0  0  0  0  0  0  0  0  0  0  0  0
    5.3804  -45.1880  -18.7921 O   0  0  0  0  0  0  0  0  0  0  0  0
    5.5483  -47.5117  -18.6869 C   0  0  0  0  0  0  0  0  0  0  0  0
    6.8618  -47.8013  -18.1818 N   0  0  0  0  0  0  0  0  0  0  0  0
    7.6196  -47.3274  -18.6901 H   0  0  0  0  0  0  0  0  0  0  0  0
    7.0245  -48.8274  -18.2154 H   0  0  0  0  0  0  0  0  0  0  0  0
    4.6395  -47.3179  -17.4505 C   0  0  0  0  0  0  0  0  0  0  0  0
    3.4204  -48.1856  -17.6348 C   0  0  0  0  0  0  0  0  0  0  0  0
    3.0882  -49.0717  -16.6270 C   0  0  0  0  0  0  0  0  0  0  0  0
    1.9839  -49.8815  -16.8427 C   0  0  0  0  0  0  0  0  0  0  0  0
    1.2483  -49.8022  -18.0158 C   0  0  0  0  0  0  0  0  0  0  0  0
    0.1551  -50.6574  -18.1524 O   0  0  0  0  0  0  0  0  0  0  0  0
    1.6027  -48.9230  -18.9775 C   0  0  0  0  0  0  0  0  0  0  0  0
    2.7178  -48.0881  -18.7883 C   0  0  0  0  0  0  0  0  0  0  0  0
   -0.3716  -50.5928  -19.0193 H   0  0  0  0  0  0  0  0  0  0  0  0
    3.3824  -49.5103  -24.6864 N   0  0  0  0  0  0  0  0  0  0  0  0
    4.3117  -48.8694  -25.4773 C   0  0  0  0  0  0  0  0  0  0  0  0
    5.5081  -49.3826  -25.4602 O   0  0  0  0  0  0  0  0  0  0  0  0
    2.4140  -49.2277  -24.5763 H   0  0  0  0  0  0  0  0  0  0  0  0
    3.8256  -50.7478  -23.8884 C   0  0  0  0  0  0  0  0  0  0  0  0
    3.3609  -51.8987  -24.6396 C   0  0  0  0  0  0  0  0  0  0  0  0
    3.7761  -53.0542  -24.2454 O   0  0  0  0  0  0  0  0  0  0  0  0
    2.4847  -51.8690  -25.7368 N   0  0  0  0  0  0  0  0  0  0  0  0
    2.1912  -50.9251  -26.0671 H   0  0  0  0  0  0  0  0  0  0  0  0
    1.9400  -53.0092  -26.4457 C   0  0  0  0  0  0  0  0  0  0  0  0
    2.4024  -53.0840  -27.8210 C   0  0  0  0  0  0  0  0  0  0  0  0
    1.9963  -54.1870  -28.6540 N   0  0  0  0  0  0  0  0  0  0  0  0
    3.1524  -52.2088  -28.2956 O   0  0  0  0  0  0  0  0  0  0  0  0
    1.5916  -53.9985  -29.5704 H   0  0  0  0  0  0  0  0  0  0  0  0
    2.1126  -55.1596  -28.3201 H   0  0  0  0  0  0  0  0  0  0  0  0
    0.4455  -53.0606  -26.2527 C   0  0  0  0  0  0  0  0  0  0  0  0
   -0.0956  -53.8434  -25.1769 C   0  0  0  0  0  0  0  0  0  0  0  0
   -0.5291  -55.1555  -25.3209 C   0  0  0  0  0  0  0  0  0  0  0  0
   -1.0412  -55.6028  -24.1797 N   0  0  0  0  0  0  0  0  0  0  0  0
   -0.9448  -54.5865  -23.2786 C   0  0  0  0  0  0  0  0  0  0  0  0
   -1.3432  -54.5491  -21.9387 C   0  0  0  0  0  0  0  0  0  0  0  0
   -1.1422  -53.3918  -21.2154 C   0  0  0  0  0  0  0  0  0  0  0  0
   -0.5619  -52.3088  -21.8204 C   0  0  0  0  0  0  0  0  0  0  0  0
   -0.1605  -52.3199  -23.1418 C   0  0  0  0  0  0  0  0  0  0  0  0
   -0.3623  -53.4855  -23.8682 C   0  0  0  0  0  0  0  0  0  0  0  0
   -1.4506  -56.5406  -23.9673 H   0  0  0  0  0  0  0  0  0  0  0  0
    3.4534  -50.4685  -22.5058 C   0  0  0  0  0  0  0  0  0  0  0  0
    4.7776  -50.4144  -20.4946 C   0  0  0  0  0  0  0  0  0  0  0  0
    3.8491  -51.3043  -21.3706 C   0  0  0  0  0  0  0  0  0  0  0  0
    2.7873  -51.8479  -20.4844 C   0  0  0  0  0  0  0  0  0  0  0  0
    5.3069  -47.6459  -27.3881 C   0  0  0  0  0  0  0  0  0  0  0  0
    4.8539  -47.5278  -28.7712 C   0  0  0  0  0  0  0  0  0  0  0  0
    3.8472  -46.6629  -29.1306 C   0  0  0  0  0  0  0  0  0  0  0  0
    3.4130  -46.5899  -30.4599 C   0  0  0  0  0  0  0  0  0  0  0  0
    3.9715  -47.3720  -31.4427 C   0  0  0  0  0  0  0  0  0  0  0  0
    4.9859  -48.2428  -31.0807 C   0  0  0  0  0  0  0  0  0  0  0  0
    5.3879  -48.2915  -29.7793 C   0  0  0  0  0  0  0  0  0  0  0  0
 58 59  1  0  0  0
 59 60  1  0  0  0
 59 57  1  0  0  0
 57 35  1  0  0  0
 35 31  1  0  0  0
 31 32  1  0  0  0
 32 33  2  0  0  0
 32  1  1  0  0  0
  1 61  1  0  0  0
 61 62  1  0  0  0
 62 63  2  0  0  0
 63 64  1  0  0  0
 64 65  2  0  0  0
 65 66  1  0  0  0
 66 67  2  0  0  0
  1  2  1  0  0  0
  2  3  1  0  0  0
  3  4  2  0  0  0
  3  6  1  0  0  0
  6  7  1  0  0  0
  7  8  1  0  0  0
  8  9  2  0  0  0
  8 11  1  0  0  0
 11 12  1  0  0  0
 12 13  1  0  0  0
 13 14  1  0  0  0
 14 15  1  0  0  0
 15 16  1  0  0  0
 16 17  2  0  0  0
 16 18  1  0  0  0
 18 19  1  0  0  0
 18 22  1  0  0  0
 22 23  1  0  0  0
 23 24  2  0  0  0
 24 25  1  0  0  0
 25 26  2  0  0  0
 26 27  1  0  0  0
 26 28  1  0  0  0
 28 29  2  0  0  0
 35 36  1  0  0  0
 36 37  2  0  0  0
 36 38  1  0  0  0
 38 40  1  0  0  0
 40 46  1  0  0  0
 46 47  1  0  0  0
 47 48  2  0  0  0
 48 49  1  0  0  0
 49 50  1  0  0  0
 50 51  2  0  0  0
 51 52  1  0  0  0
 52 53  2  0  0  0
 53 54  1  0  0  0
 54 55  2  0  0  0
 40 41  1  0  0  0
 41 42  1  0  0  0
 41 43  2  0  0  0
 67 62  1  0  0  0
 15 11  1  0  0  0
 29 23  1  0  0  0
 55 47  1  0  0  0
 55 50  1  0  0  0
 31 34  1  0  0  0
  2  5  1  0  0  0
  7 10  1  0  0  0
 19 20  1  0  0  0
 19 21  1  0  0  0
 27 30  1  0  0  0
 38 39  1  0  0  0
 49 56  1  0  0  0
 42 44  1  0  0  0
 42 45  1  0  0  0
M  END
> <minimizedAffinity>
-7.60796

> <CNNscore>
0.1054707766

> <CNNaffinity>
7.1790361404

> <CNN_VS>
0.7571785450

> <CNNaffinity_variance>
1.0313299894

$$$$
[H]Oc1c([H])c([H])c(C([H])([H])[C@@]([H])(C(=O)N2C([H])([H])C([H])([H])C([H])([H])[C@@]2([H])C(=O)N([H])C([H])([H])C(=O)N([H])[C@]([H])(C(=O)N([H])[C@]([H])(C(=O)N([H])[C@]([H])(C(=O)N([H])[H])C([H])([H])c2c([H])n([H])c3c([H])c([H])c([H])c([H])c23)C([H])([H])C([H])(C([H])([H])[H])C([H])([H])[H])C([H])([H])c2c([H])c([H])c([H])c([H])c2[H])N([H])[H])c([H])c1[H]


 67 71  0  0  0  0  0  0  0  0999 V2000
    5.9950  -48.0995  -25.7109 C   0  0  0  0  0  0  0  0  0  0  0  0
    7.0462  -48.9183  -26.3399 N   0  0  0  0  0  0  0  0  0  0  0  0
    8.4146  -48.8887  -26.0146 C   0  0  0  0  0  0  0  0  0  0  0  0
    8.8477  -48.1277  -25.1354 O   0  0  0  0  0  0  0  0  0  0  0  0
    6.7253  -49.5687  -27.1116 H   0  0  0  0  0  0  0  0  0  0  0  0
    9.4243  -49.7471  -26.7090 C   0  0  0  0  0  0  0  0  0  0  0  0
    9.2218  -49.6358  -28.1754 N   0  0  0  0  0  0  0  0  0  0  0  0
   10.1322  -48.7590  -28.8760 C   0  0  0  0  0  0  0  0  0  0  0  0
   11.0067  -48.1253  -28.1776 O   0  0  0  0  0  0  0  0  0  0  0  0
    8.4721  -50.1787  -28.5935 H   0  0  0  0  0  0  0  0  0  0  0  0
   10.1182  -48.5576  -30.3022 C   0  0  0  0  0  0  0  0  0  0  0  0
   11.2657  -47.5389  -30.6767 C   0  0  0  0  0  0  0  0  0  0  0  0
   10.6289  -46.2045  -30.3439 C   0  0  0  0  0  0  0  0  0  0  0  0
    9.1480  -46.4375  -30.4452 C   0  0  0  0  0  0  0  0  0  0  0  0
    9.0267  -47.7998  -30.8617 N   0  0  0  0  0  0  0  0  0  0  0  0
    8.0237  -48.3635  -31.7084 C   0  0  0  0  0  0  0  0  0  0  0  0
    8.0964  -49.6141  -31.9791 O   0  0  0  0  0  0  0  0  0  0  0  0
    6.9065  -47.6352  -32.3066 C   0  0  0  0  0  0  0  0  0  0  0  0
    6.4238  -48.3301  -33.4678 N   0  0  0  0  0  0  0  0  0  0  0  0
    7.1029  -48.9850  -33.8761 H   0  0  0  0  0  0  0  0  0  0  0  0
    6.1465  -47.6379  -34.1921 H   0  0  0  0  0  0  0  0  0  0  0  0
    5.7352  -47.6087  -31.2970 C   0  0  0  0  0  0  0  0  0  0  0  0
    5.2654  -46.1813  -31.1745 C   0  0  0  0  0  0  0  0  0  0  0  0
    4.0239  -45.9457  -30.6136 C   0  0  0  0  0  0  0  0  0  0  0  0
    3.6051  -44.6258  -30.5493 C   0  0  0  0  0  0  0  0  0  0  0  0
    4.3983  -43.5924  -31.0252 C   0  0  0  0  0  0  0  0  0  0  0  0
    3.8975  -42.2945  -30.9258 O   0  0  0  0  0  0  0  0  0  0  0  0
    5.6063  -43.8614  -31.5655 C   0  0  0  0  0  0  0  0  0  0  0  0
    6.0590  -45.1900  -31.6449 C   0  0  0  0  0  0  0  0  0  0  0  0
    4.4865  -41.5474  -31.2835 H   0  0  0  0  0  0  0  0  0  0  0  0
    3.9151  -49.3985  -24.9449 N   0  0  0  0  0  0  0  0  0  0  0  0
    5.2022  -48.9237  -24.8110 C   0  0  0  0  0  0  0  0  0  0  0  0
    5.8097  -49.2606  -23.7098 O   0  0  0  0  0  0  0  0  0  0  0  0
    3.3026  -49.2133  -25.7325 H   0  0  0  0  0  0  0  0  0  0  0  0
    3.3334  -50.2710  -23.8202 C   0  0  0  0  0  0  0  0  0  0  0  0
    2.9036  -51.5053  -24.4500 C   0  0  0  0  0  0  0  0  0  0  0  0
    3.5623  -52.5713  -24.1450 O   0  0  0  0  0  0  0  0  0  0  0  0
    1.8251  -51.6465  -25.3383 N   0  0  0  0  0  0  0  0  0  0  0  0
    1.3295  -50.7693  -25.6051 H   0  0  0  0  0  0  0  0  0  0  0  0
    1.3252  -52.8805  -25.9099 C   0  0  0  0  0  0  0  0  0  0  0  0
    1.6483  -53.0133  -27.3201 C   0  0  0  0  0  0  0  0  0  0  0  0
    1.2535  -54.1991  -28.0366 N   0  0  0  0  0  0  0  0  0  0  0  0
    2.2687  -52.1170  -27.9247 O   0  0  0  0  0  0  0  0  0  0  0  0
    0.7422  -54.1061  -28.9135 H   0  0  0  0  0  0  0  0  0  0  0  0
    1.4855  -55.1345  -27.6594 H   0  0  0  0  0  0  0  0  0  0  0  0
   -0.1291  -53.0537  -25.5512 C   0  0  0  0  0  0  0  0  0  0  0  0
   -0.4745  -53.7349  -24.3349 C   0  0  0  0  0  0  0  0  0  0  0  0
   -0.9773  -55.0294  -24.2926 C   0  0  0  0  0  0  0  0  0  0  0  0
   -1.2686  -55.3733  -23.0430 N   0  0  0  0  0  0  0  0  0  0  0  0
   -0.9565  -54.3064  -22.2568 C   0  0  0  0  0  0  0  0  0  0  0  0
   -1.0786  -54.1602  -20.8715 C   0  0  0  0  0  0  0  0  0  0  0  0
   -0.6941  -52.9697  -20.2902 C   0  0  0  0  0  0  0  0  0  0  0  0
   -0.2052  -51.9605  -21.0764 C   0  0  0  0  0  0  0  0  0  0  0  0
   -0.0755  -52.0794  -22.4461 C   0  0  0  0  0  0  0  0  0  0  0  0
   -0.4617  -53.2782  -23.0297 C   0  0  0  0  0  0  0  0  0  0  0  0
   -1.6627  -56.2727  -22.6850 H   0  0  0  0  0  0  0  0  0  0  0  0
    2.4520  -49.3880  -23.0641 C   0  0  0  0  0  0  0  0  0  0  0  0
    1.2321  -48.5903  -21.1466 C   0  0  0  0  0  0  0  0  0  0  0  0
    2.6192  -49.0948  -21.6393 C   0  0  0  0  0  0  0  0  0  0  0  0
    3.0414  -50.1939  -20.7326 C   0  0  0  0  0  0  0  0  0  0  0  0
    5.1261  -47.5718  -26.8859 C   0  0  0  0  0  0  0  0  0  0  0  0
    5.2498  -46.1395  -27.1413 C   0  0  0  0  0  0  0  0  0  0  0  0
    6.3811  -45.6015  -27.7081 C   0  0  0  0  0  0  0  0  0  0  0  0
    6.4846  -44.2206  -27.9163 C   0  0  0  0  0  0  0  0  0  0  0  0
    5.4698  -43.3625  -27.5651 C   0  0  0  0  0  0  0  0  0  0  0  0
    4.3300  -43.9045  -26.9947 C   0  0  0  0  0  0  0  0  0  0  0  0
    4.2576  -45.2523  -26.8048 C   0  0  0  0  0  0  0  0  0  0  0  0
 58 59  1  0  0  0
 59 60  1  0  0  0
 59 57  1  0  0  0
 57 35  1  0  0  0
 35 31  1  0  0  0
 31 32  1  0  0  0
 32 33  2  0  0  0
 32  1  1  0  0  0
  1 61  1  0  0  0
 61 62  1  0  0  0
 62 63  2  0  0  0
 63 64  1  0  0  0
 64 65  2  0  0  0
 65 66  1  0  0  0
 66 67  2  0  0  0
  1  2  1  0  0  0
  2  3  1  0  0  0
  3  4  2  0  0  0
  3  6  1  0  0  0
  6  7  1  0  0  0
  7  8  1  0  0  0
  8  9  2  0  0  0
  8 11  1  0  0  0
 11 12  1  0  0  0
 12 13  1  0  0  0
 13 14  1  0  0  0
 14 15  1  0  0  0
 15 16  1  0  0  0
 16 17  2  0  0  0
 16 18  1  0  0  0
 18 19  1  0  0  0
 18 22  1  0  0  0
 22 23  1  0  0  0
 23 24  2  0  0  0
 24 25  1  0  0  0
 25 26  2  0  0  0
 26 27  1  0  0  0
 26 28  1  0  0  0
 28 29  2  0  0  0
 35 36  1  0  0  0
 36 37  2  0  0  0
 36 38  1  0  0  0
 38 40  1  0  0  0
 40 46  1  0  0  0
 46 47  1  0  0  0
 47 48  2  0  0  0
 48 49  1  0  0  0
 49 50  1  0  0  0
 50 51  2  0  0  0
 51 52  1  0  0  0
 52 53  2  0  0  0
 53 54  1  0  0  0
 54 55  2  0  0  0
 40 41  1  0  0  0
 41 42  1  0  0  0
 41 43  2  0  0  0
 67 62  1  0  0  0
 15 11  1  0  0  0
 29 23  1  0  0  0
 55 47  1  0  0  0
 55 50  1  0  0  0
 31 34  1  0  0  0
  2  5  1  0  0  0
  7 10  1  0  0  0
 19 20  1  0  0  0
 19 21  1  0  0  0
 27 30  1  0  0  0
 38 39  1  0  0  0
 49 56  1  0  0  0
 42 44  1  0  0  0
 42 45  1  0  0  0
M  END
> <minimizedAffinity>
-7.82861

> <CNNscore>
0.1036370471

> <CNNaffinity>
7.2523355484

> <CNN_VS>
0.7516106367

> <CNNaffinity_variance>
0.6221576929

$$$$
[H]Oc1c([H])c([H])c(C([H])([H])[C@@]([H])(C(=O)N2C([H])([H])C([H])([H])C([H])([H])[C@@]2([H])C(=O)N([H])C([H])([H])C(=O)N([H])[C@]([H])(C(=O)N([H])[C@]([H])(C(=O)N([H])[C@]([H])(C(=O)N([H])[H])C([H])([H])c2c([H])n([H])c3c([H])c([H])c([H])c([H])c23)C([H])([H])C([H])(C([H])([H])[H])C([H])([H])[H])C([H])([H])c2c([H])c([H])c([H])c([H])c2[H])N([H])[H])c([H])c1[H]


 67 71  0  0  0  0  0  0  0  0999 V2000
    4.2451  -47.5852  -29.6134 C   0  0  0  0  0  0  0  0  0  0  0  0
    4.4249  -47.4024  -28.1624 N   0  0  0  0  0  0  0  0  0  0  0  0
    4.0563  -48.3254  -27.1668 C   0  0  0  0  0  0  0  0  0  0  0  0
    3.5232  -49.4064  -27.4612 O   0  0  0  0  0  0  0  0  0  0  0  0
    4.8579  -46.4835  -27.8628 H   0  0  0  0  0  0  0  0  0  0  0  0
    4.2637  -48.0603  -25.7089 C   0  0  0  0  0  0  0  0  0  0  0  0
    3.5388  -49.0920  -24.9255 N   0  0  0  0  0  0  0  0  0  0  0  0
    4.2737  -49.6926  -23.8357 C   0  0  0  0  0  0  0  0  0  0  0  0
    5.4915  -49.3185  -23.6595 O   0  0  0  0  0  0  0  0  0  0  0  0
    2.5827  -49.3062  -25.1931 H   0  0  0  0  0  0  0  0  0  0  0  0
    3.7235  -50.6777  -22.9403 C   0  0  0  0  0  0  0  0  0  0  0  0
    4.8967  -51.6048  -22.4316 C   0  0  0  0  0  0  0  0  0  0  0  0
    5.0746  -52.5609  -23.5940 C   0  0  0  0  0  0  0  0  0  0  0  0
    3.7469  -52.5788  -24.2973 C   0  0  0  0  0  0  0  0  0  0  0  0
    2.9128  -51.7244  -23.5111 N   0  0  0  0  0  0  0  0  0  0  0  0
    1.5092  -51.8542  -23.2789 C   0  0  0  0  0  0  0  0  0  0  0  0
    0.9398  -50.9871  -22.5263 O   0  0  0  0  0  0  0  0  0  0  0  0
    0.6490  -52.9018  -23.8257 C   0  0  0  0  0  0  0  0  0  0  0  0
    0.0887  -53.6908  -22.7637 N   0  0  0  0  0  0  0  0  0  0  0  0
    0.6109  -53.6344  -21.8799 H   0  0  0  0  0  0  0  0  0  0  0  0
    0.0400  -54.6850  -23.0629 H   0  0  0  0  0  0  0  0  0  0  0  0
   -0.5445  -52.2353  -24.5491 C   0  0  0  0  0  0  0  0  0  0  0  0
   -0.3203  -52.3768  -26.0334 C   0  0  0  0  0  0  0  0  0  0  0  0
   -1.4223  -52.3550  -26.8677 C   0  0  0  0  0  0  0  0  0  0  0  0
   -1.1862  -52.5248  -28.2231 C   0  0  0  0  0  0  0  0  0  0  0  0
    0.0977  -52.7063  -28.7154 C   0  0  0  0  0  0  0  0  0  0  0  0
    0.2444  -52.8746  -30.0921 O   0  0  0  0  0  0  0  0  0  0  0  0
    1.1501  -52.7204  -27.8693 C   0  0  0  0  0  0  0  0  0  0  0  0
    0.9429  -52.5508  -26.4892 C   0  0  0  0  0  0  0  0  0  0  0  0
    1.1900  -53.0122  -30.4386 H   0  0  0  0  0  0  0  0  0  0  0  0
    6.6022  -47.6894  -30.6299 N   0  0  0  0  0  0  0  0  0  0  0  0
    5.4196  -48.2337  -30.1766 C   0  0  0  0  0  0  0  0  0  0  0  0
    5.3324  -49.5299  -30.2633 O   0  0  0  0  0  0  0  0  0  0  0  0
    6.8212  -46.6987  -30.6465 H   0  0  0  0  0  0  0  0  0  0  0  0
    7.6876  -48.6361  -31.1686 C   0  0  0  0  0  0  0  0  0  0  0  0
    8.8958  -48.3261  -30.4277 C   0  0  0  0  0  0  0  0  0  0  0  0
    9.4671  -49.3063  -29.8147 O   0  0  0  0  0  0  0  0  0  0  0  0
    9.5088  -47.0657  -30.3388 N   0  0  0  0  0  0  0  0  0  0  0  0
    9.0123  -46.2774  -30.8060 H   0  0  0  0  0  0  0  0  0  0  0  0
   10.7596  -46.7517  -29.6782 C   0  0  0  0  0  0  0  0  0  0  0  0
   10.6083  -45.7356  -28.6508 C   0  0  0  0  0  0  0  0  0  0  0  0
   11.6947  -44.8312  -28.3728 N   0  0  0  0  0  0  0  0  0  0  0  0
    9.5513  -45.6338  -27.9980 O   0  0  0  0  0  0  0  0  0  0  0  0
   11.5185  -43.8273  -28.3608 H   0  0  0  0  0  0  0  0  0  0  0  0
   12.6440  -45.2011  -28.1910 H   0  0  0  0  0  0  0  0  0  0  0  0
   11.8264  -46.4870  -30.7104 C   0  0  0  0  0  0  0  0  0  0  0  0
   11.4803  -45.7762  -31.9094 C   0  0  0  0  0  0  0  0  0  0  0  0
   11.3572  -44.3940  -31.9776 C   0  0  0  0  0  0  0  0  0  0  0  0
   10.9628  -44.0226  -33.1905 N   0  0  0  0  0  0  0  0  0  0  0  0
   10.8268  -45.1598  -33.9268 C   0  0  0  0  0  0  0  0  0  0  0  0
   10.4330  -45.3107  -35.2601 C   0  0  0  0  0  0  0  0  0  0  0  0
   10.3662  -46.5801  -35.7960 C   0  0  0  0  0  0  0  0  0  0  0  0
   10.6830  -47.6605  -35.0163 C   0  0  0  0  0  0  0  0  0  0  0  0
   11.0737  -47.5384  -33.6973 C   0  0  0  0  0  0  0  0  0  0  0  0
   11.1416  -46.2604  -33.1596 C   0  0  0  0  0  0  0  0  0  0  0  0
   10.7785  -43.0603  -33.5545 H   0  0  0  0  0  0  0  0  0  0  0  0
    7.5769  -48.5622  -32.6214 C   0  0  0  0  0  0  0  0  0  0  0  0
    7.2319  -46.5821  -33.9486 C   0  0  0  0  0  0  0  0  0  0  0  0
    6.5271  -47.8198  -33.3220 C   0  0  0  0  0  0  0  0  0  0  0  0
    5.7779  -48.5033  -34.4082 C   0  0  0  0  0  0  0  0  0  0  0  0
    4.0751  -46.1527  -30.1907 C   0  0  0  0  0  0  0  0  0  0  0  0
    3.6568  -46.1037  -31.5888 C   0  0  0  0  0  0  0  0  0  0  0  0
    2.7605  -47.0085  -32.1071 C   0  0  0  0  0  0  0  0  0  0  0  0
    2.3978  -46.9560  -33.4586 C   0  0  0  0  0  0  0  0  0  0  0  0
    2.9193  -46.0081  -34.3066 C   0  0  0  0  0  0  0  0  0  0  0  0
    3.8217  -45.0964  -33.7844 C   0  0  0  0  0  0  0  0  0  0  0  0
    4.1553  -45.1719  -32.4650 C   0  0  0  0  0  0  0  0  0  0  0  0
 58 59  1  0  0  0
 59 60  1  0  0  0
 59 57  1  0  0  0
 57 35  1  0  0  0
 35 31  1  0  0  0
 31 32  1  0  0  0
 32 33  2  0  0  0
 32  1  1  0  0  0
  1 61  1  0  0  0
 61 62  1  0  0  0
 62 63  2  0  0  0
 63 64  1  0  0  0
 64 65  2  0  0  0
 65 66  1  0  0  0
 66 67  2  0  0  0
  1  2  1  0  0  0
  2  3  1  0  0  0
  3  4  2  0  0  0
  3  6  1  0  0  0
  6  7  1  0  0  0
  7  8  1  0  0  0
  8  9  2  0  0  0
  8 11  1  0  0  0
 11 12  1  0  0  0
 12 13  1  0  0  0
 13 14  1  0  0  0
 14 15  1  0  0  0
 15 16  1  0  0  0
 16 17  2  0  0  0
 16 18  1  0  0  0
 18 19  1  0  0  0
 18 22  1  0  0  0
 22 23  1  0  0  0
 23 24  2  0  0  0
 24 25  1  0  0  0
 25 26  2  0  0  0
 26 27  1  0  0  0
 26 28  1  0  0  0
 28 29  2  0  0  0
 35 36  1  0  0  0
 36 37  2  0  0  0
 36 38  1  0  0  0
 38 40  1  0  0  0
 40 46  1  0  0  0
 46 47  1  0  0  0
 47 48  2  0  0  0
 48 49  1  0  0  0
 49 50  1  0  0  0
 50 51  2  0  0  0
 51 52  1  0  0  0
 52 53  2  0  0  0
 53 54  1  0  0  0
 54 55  2  0  0  0
 40 41  1  0  0  0
 41 42  1  0  0  0
 41 43  2  0  0  0
 67 62  1  0  0  0
 15 11  1  0  0  0
 29 23  1  0  0  0
 55 47  1  0  0  0
 55 50  1  0  0  0
 31 34  1  0  0  0
  2  5  1  0  0  0
  7 10  1  0  0  0
 19 20  1  0  0  0
 19 21  1  0  0  0
 27 30  1  0  0  0
 38 39  1  0  0  0
 49 56  1  0  0  0
 42 44  1  0  0  0
 42 45  1  0  0  0
M  END
> <minimizedAffinity>
-8.48102

> <CNNscore>
0.0996539146

> <CNNaffinity>
6.4464616776

> <CNN_VS>
0.6424151659

> <CNNaffinity_variance>
1.0681221485

$$$$
[H]N=C(c1c([H])c([H])c([H])c(C([H])([H])[C@]([H])(C(=O)N2C([H])([H])C([H])([H])C([H])([H])[C@@]2([H])C(=O)N([H])C([H])(C([H])=O)C([H])([H])C([H])([H])C([H])([H])N([H])C(=N[H])N([H])[H])N([H])C(=O)OC(C([H])([H])[H])(C([H])([H])[H])C([H])([H])[H])c1[H])N([H])[H]


 48 49  0  0  0  0  0  0  0  0999 V2000
    1.4923  -51.3280  -26.1208 C   0  0  0  0  0  0  0  0  0  0  0  0
    0.5207  -50.7453  -25.4560 O   0  0  0  0  0  0  0  0  0  0  0  0
    1.0514  -52.3183  -26.9712 N   0  0  0  0  0  0  0  0  0  0  0  0
    1.6232  -53.0896  -28.0129 C   0  0  0  0  0  0  0  0  0  0  0  0
    0.4510  -53.0396  -29.0440 C   0  0  0  0  0  0  0  0  0  0  0  0
   -0.6481  -53.5616  -28.1023 C   0  0  0  0  0  0  0  0  0  0  0  0
   -0.3135  -52.9187  -26.8109 C   0  0  0  0  0  0  0  0  0  0  0  0
   -0.2298  -53.9293  -25.6991 C   0  0  0  0  0  0  0  0  0  0  0  0
   -0.0950  -55.1428  -25.9451 O   0  0  0  0  0  0  0  0  0  0  0  0
   -0.3019  -53.5115  -24.3462 N   0  0  0  0  0  0  0  0  0  0  0  0
   -0.4136  -52.5013  -24.1422 H   0  0  0  0  0  0  0  0  0  0  0  0
   -0.2338  -54.3597  -23.1840 C   0  0  0  0  0  0  0  0  0  0  0  0
   -1.5465  -54.9477  -22.9147 C   0  0  0  0  0  0  0  0  0  0  0  0
   -2.0490  -54.9106  -21.8259 O   0  0  0  0  0  0  0  0  0  0  0  0
    0.2045  -53.5592  -21.9623 C   0  0  0  0  0  0  0  0  0  0  0  0
   -0.0287  -52.0896  -22.2401 C   0  0  0  0  0  0  0  0  0  0  0  0
   -0.1649  -51.4205  -20.8577 C   0  0  0  0  0  0  0  0  0  0  0  0
   -0.2374  -52.4385  -19.8386 N   0  0  0  0  0  0  0  0  0  0  0  0
   -0.2776  -53.4645  -20.1422 H   0  0  0  0  0  0  0  0  0  0  0  0
   -0.2647  -52.1973  -18.4482 C   0  0  0  0  0  0  0  0  0  0  0  0
   -1.1274  -52.9796  -17.6263 N   0  0  0  0  0  0  0  0  0  0  0  0
    0.4527  -51.2826  -17.8673 N   0  0  0  0  0  0  0  0  0  0  0  0
   -1.3896  -53.9259  -17.9606 H   0  0  0  0  0  0  0  0  0  0  0  0
   -1.4636  -52.5792  -16.7320 H   0  0  0  0  0  0  0  0  0  0  0  0
    1.0944  -50.6754  -18.4368 H   0  0  0  0  0  0  0  0  0  0  0  0
    2.8197  -50.7863  -25.7891 C   0  0  0  0  0  0  0  0  0  0  0  0
    4.3270  -49.0591  -26.9257 C   0  0  0  0  0  0  0  0  0  0  0  0
    4.8188  -48.4240  -25.9598 O   0  0  0  0  0  0  0  0  0  0  0  0
    3.4248  -50.1133  -26.9069 N   0  0  0  0  0  0  0  0  0  0  0  0
    3.1164  -50.4982  -27.8566 H   0  0  0  0  0  0  0  0  0  0  0  0
    4.7925  -48.5786  -28.1501 O   0  0  0  0  0  0  0  0  0  0  0  0
    4.3799  -47.5417  -30.1902 C   0  0  0  0  0  0  0  0  0  0  0  0
    4.4310  -47.3201  -28.6528 C   0  0  0  0  0  0  0  0  0  0  0  0
    5.5168  -46.3159  -28.3716 C   0  0  0  0  0  0  0  0  0  0  0  0
    3.1139  -46.7706  -28.2886 C   0  0  0  0  0  0  0  0  0  0  0  0
    3.6489  -51.7894  -25.0986 C   0  0  0  0  0  0  0  0  0  0  0  0
    4.2560  -51.4246  -23.8229 C   0  0  0  0  0  0  0  0  0  0  0  0
    5.5821  -51.0918  -23.7419 C   0  0  0  0  0  0  0  0  0  0  0  0
    6.1988  -50.7557  -22.5549 C   0  0  0  0  0  0  0  0  0  0  0  0
    5.4740  -50.7468  -21.3900 C   0  0  0  0  0  0  0  0  0  0  0  0
    4.1362  -51.0741  -21.4228 C   0  0  0  0  0  0  0  0  0  0  0  0
    3.5545  -51.4049  -22.6263 C   0  0  0  0  0  0  0  0  0  0  0  0
    3.3690  -51.0728  -20.1961 C   0  0  0  0  0  0  0  0  0  0  0  0
    2.9507  -49.8891  -19.5651 N   0  0  0  0  0  0  0  0  0  0  0  0
    3.0598  -52.2079  -19.6576 N   0  0  0  0  0  0  0  0  0  0  0  0
    2.6051  -49.0252  -20.0198 H   0  0  0  0  0  0  0  0  0  0  0  0
    2.9711  -49.8211  -18.5039 H   0  0  0  0  0  0  0  0  0  0  0  0
    2.5031  -52.2707  -18.7553 H   0  0  0  0  0  0  0  0  0  0  0  0
 32 33  1  0  0  0
 33 34  1  0  0  0
 33 35  1  0  0  0
 33 31  1  0  0  0
 31 27  1  0  0  0
 27 28  2  0  0  0
 27 29  1  0  0  0
 29 26  1  0  0  0
 26 36  1  0  0  0
 36 37  1  0  0  0
 37 38  2  0  0  0
 38 39  1  0  0  0
 39 40  2  0  0  0
 40 41  1  0  0  0
 41 42  2  0  0  0
 41 43  1  0  0  0
 43 44  1  0  0  0
 43 45  2  0  0  0
 26  1  1  0  0  0
  1  2  2  0  0  0
  1  3  1  0  0  0
  3  4  1  0  0  0
  4  5  1  0  0  0
  5  6  1  0  0  0
  6  7  1  0  0  0
  7  8  1  0  0  0
  8  9  2  0  0  0
  8 10  1  0  0  0
 10 12  1  0  0  0
 12 15  1  0  0  0
 15 16  1  0  0  0
 16 17  1  0  0  0
 17 18  1  0  0  0
 18 20  1  0  0  0
 20 21  1  0  0  0
 20 22  2  0  0  0
 12 13  1  0  0  0
 13 14  2  0  0  0
 42 37  1  0  0  0
  7  3  1  0  0  0
 29 30  1  0  0  0
 44 46  1  0  0  0
 44 47  1  0  0  0
 45 48  1  0  0  0
 10 11  1  0  0  0
 18 19  1  0  0  0
 21 23  1  0  0  0
 21 24  1  0  0  0
 22 25  1  0  0  0
M  END
> <minimizedAffinity>
-7.04582

> <CNNscore>
0.2382020354

> <CNNaffinity>
6.7890534401

> <CNN_VS>
1.6171664000

> <CNNaffinity_variance>
0.1050111204

$$$$
[H]N=C(c1c([H])c([H])c([H])c(C([H])([H])[C@]([H])(C(=O)N2C([H])([H])C([H])([H])C([H])([H])[C@@]2([H])C(=O)N([H])C([H])(C([H])=O)C([H])([H])C([H])([H])C([H])([H])N([H])C(=N[H])N([H])[H])N([H])C(=O)OC(C([H])([H])[H])(C([H])([H])[H])C([H])([H])[H])c1[H])N([H])[H]


 48 49  0  0  0  0  0  0  0  0999 V2000
    2.5981  -49.5547  -21.3337 C   0  0  0  0  0  0  0  0  0  0  0  0
    2.1233  -48.5167  -21.9838 O   0  0  0  0  0  0  0  0  0  0  0  0
    3.9749  -49.6064  -21.3235 N   0  0  0  0  0  0  0  0  0  0  0  0
    4.9566  -50.3627  -20.6371 C   0  0  0  0  0  0  0  0  0  0  0  0
    5.9732  -49.2244  -20.3045 C   0  0  0  0  0  0  0  0  0  0  0  0
    6.1491  -48.7056  -21.7423 C   0  0  0  0  0  0  0  0  0  0  0  0
    4.7821  -48.8072  -22.3028 C   0  0  0  0  0  0  0  0  0  0  0  0
    4.7769  -49.5594  -23.6061 C   0  0  0  0  0  0  0  0  0  0  0  0
    5.6420  -50.4209  -23.8520 O   0  0  0  0  0  0  0  0  0  0  0  0
    3.7791  -49.2977  -24.5787 N   0  0  0  0  0  0  0  0  0  0  0  0
    3.0591  -48.5808  -24.3730 H   0  0  0  0  0  0  0  0  0  0  0  0
    3.6470  -49.9372  -25.8625 C   0  0  0  0  0  0  0  0  0  0  0  0
    3.8159  -48.9535  -26.9326 C   0  0  0  0  0  0  0  0  0  0  0  0
    3.8617  -49.2722  -28.0883 O   0  0  0  0  0  0  0  0  0  0  0  0
    2.2713  -50.5805  -26.0008 C   0  0  0  0  0  0  0  0  0  0  0  0
    2.3523  -52.0047  -25.4945 C   0  0  0  0  0  0  0  0  0  0  0  0
    3.1241  -52.7880  -26.5753 C   0  0  0  0  0  0  0  0  0  0  0  0
    2.4179  -52.6951  -27.8294 N   0  0  0  0  0  0  0  0  0  0  0  0
    2.7672  -51.9976  -28.5628 H   0  0  0  0  0  0  0  0  0  0  0  0
    1.2815  -53.4545  -28.1815 C   0  0  0  0  0  0  0  0  0  0  0  0
    0.4397  -52.9936  -29.2354 N   0  0  0  0  0  0  0  0  0  0  0  0
    0.9470  -54.5591  -27.5842 N   0  0  0  0  0  0  0  0  0  0  0  0
    0.8608  -52.3839  -29.9614 H   0  0  0  0  0  0  0  0  0  0  0  0
   -0.5565  -53.2776  -29.2394 H   0  0  0  0  0  0  0  0  0  0  0  0
    1.5332  -54.9296  -26.7943 H   0  0  0  0  0  0  0  0  0  0  0  0
    1.5421  -50.4169  -20.7799 C   0  0  0  0  0  0  0  0  0  0  0  0
    1.8252  -50.5225  -18.2391 C   0  0  0  0  0  0  0  0  0  0  0  0
    2.7708  -51.3353  -18.0868 O   0  0  0  0  0  0  0  0  0  0  0  0
    1.2323  -50.0853  -19.4151 N   0  0  0  0  0  0  0  0  0  0  0  0
    0.4173  -49.3990  -19.3156 H   0  0  0  0  0  0  0  0  0  0  0  0
    1.3556  -50.0417  -17.0163 O   0  0  0  0  0  0  0  0  0  0  0  0
   -0.5833  -49.5335  -15.8375 C   0  0  0  0  0  0  0  0  0  0  0  0
    0.3500  -50.6923  -16.2865 C   0  0  0  0  0  0  0  0  0  0  0  0
    0.9295  -51.3191  -15.0465 C   0  0  0  0  0  0  0  0  0  0  0  0
   -0.5198  -51.6504  -16.9900 C   0  0  0  0  0  0  0  0  0  0  0  0
    1.8067  -51.8375  -21.0672 C   0  0  0  0  0  0  0  0  0  0  0  0
    0.6699  -52.7113  -21.3381 C   0  0  0  0  0  0  0  0  0  0  0  0
   -0.1985  -53.0689  -20.3412 C   0  0  0  0  0  0  0  0  0  0  0  0
   -1.2761  -53.9040  -20.5506 C   0  0  0  0  0  0  0  0  0  0  0  0
   -1.5103  -54.4120  -21.8034 C   0  0  0  0  0  0  0  0  0  0  0  0
   -0.6633  -54.0792  -22.8377 C   0  0  0  0  0  0  0  0  0  0  0  0
    0.4026  -53.2431  -22.5911 C   0  0  0  0  0  0  0  0  0  0  0  0
   -0.9018  -54.6177  -24.1593 C   0  0  0  0  0  0  0  0  0  0  0  0
   -1.2254  -55.9670  -24.3809 N   0  0  0  0  0  0  0  0  0  0  0  0
   -0.8091  -53.8247  -25.1774 N   0  0  0  0  0  0  0  0  0  0  0  0
   -1.8436  -56.5657  -23.8048 H   0  0  0  0  0  0  0  0  0  0  0  0
   -0.8168  -56.4767  -25.2201 H   0  0  0  0  0  0  0  0  0  0  0  0
   -0.9679  -54.1628  -26.1716 H   0  0  0  0  0  0  0  0  0  0  0  0
 32 33  1  0  0  0
 33 34  1  0  0  0
 33 35  1  0  0  0
 33 31  1  0  0  0
 31 27  1  0  0  0
 27 28  2  0  0  0
 27 29  1  0  0  0
 29 26  1  0  0  0
 26 36  1  0  0  0
 36 37  1  0  0  0
 37 38  2  0  0  0
 38 39  1  0  0  0
 39 40  2  0  0  0
 40 41  1  0  0  0
 41 42  2  0  0  0
 41 43  1  0  0  0
 43 44  1  0  0  0
 43 45  2  0  0  0
 26  1  1  0  0  0
  1  2  2  0  0  0
  1  3  1  0  0  0
  3  4  1  0  0  0
  4  5  1  0  0  0
  5  6  1  0  0  0
  6  7  1  0  0  0
  7  8  1  0  0  0
  8  9  2  0  0  0
  8 10  1  0  0  0
 10 12  1  0  0  0
 12 15  1  0  0  0
 15 16  1  0  0  0
 16 17  1  0  0  0
 17 18  1  0  0  0
 18 20  1  0  0  0
 20 21  1  0  0  0
 20 22  2  0  0  0
 12 13  1  0  0  0
 13 14  2  0  0  0
 42 37  1  0  0  0
  7  3  1  0  0  0
 29 30  1  0  0  0
 44 46  1  0  0  0
 44 47  1  0  0  0
 45 48  1  0  0  0
 10 11  1  0  0  0
 18 19  1  0  0  0
 21 23  1  0  0  0
 21 24  1  0  0  0
 22 25  1  0  0  0
M  END
> <minimizedAffinity>
-7.40019

> <CNNscore>
0.2322135419

> <CNNaffinity>
6.5883626938

> <CNN_VS>
1.5299069881

> <CNNaffinity_variance>
0.6630488038

$$$$
[H]N=C(c1c([H])c([H])c([H])c(C([H])([H])[C@]([H])(C(=O)N2C([H])([H])C([H])([H])C([H])([H])[C@@]2([H])C(=O)N([H])C([H])(C([H])=O)C([H])([H])C([H])([H])C([H])([H])N([H])C(=N[H])N([H])[H])N([H])C(=O)OC(C([H])([H])[H])(C([H])([H])[H])C([H])([H])[H])c1[H])N([H])[H]


 48 49  0  0  0  0  0  0  0  0999 V2000
    1.3465  -51.0443  -22.6421 C   0  0  0  0  0  0  0  0  0  0  0  0
    0.9345  -49.8380  -22.3248 O   0  0  0  0  0  0  0  0  0  0  0  0
    0.6290  -52.0442  -22.0226 N   0  0  0  0  0  0  0  0  0  0  0  0
    0.5284  -53.4512  -22.1539 C   0  0  0  0  0  0  0  0  0  0  0  0
   -1.0209  -53.6110  -22.0368 C   0  0  0  0  0  0  0  0  0  0  0  0
   -1.1847  -52.8663  -20.7004 C   0  0  0  0  0  0  0  0  0  0  0  0
   -0.2168  -51.7518  -20.8191 C   0  0  0  0  0  0  0  0  0  0  0  0
    0.7029  -51.6934  -19.6296 C   0  0  0  0  0  0  0  0  0  0  0  0
    1.8113  -52.2611  -19.6483 O   0  0  0  0  0  0  0  0  0  0  0  0
    0.3191  -50.9847  -18.4631 N   0  0  0  0  0  0  0  0  0  0  0  0
   -0.6034  -50.5120  -18.4486 H   0  0  0  0  0  0  0  0  0  0  0  0
    1.0919  -50.8410  -17.2562 C   0  0  0  0  0  0  0  0  0  0  0  0
    0.2495  -51.0987  -16.0876 C   0  0  0  0  0  0  0  0  0  0  0  0
    0.4927  -50.6271  -15.0116 O   0  0  0  0  0  0  0  0  0  0  0  0
    1.6599  -49.4298  -17.1492 C   0  0  0  0  0  0  0  0  0  0  0  0
    3.1579  -49.5268  -16.9549 C   0  0  0  0  0  0  0  0  0  0  0  0
    3.4658  -51.0328  -16.8347 C   0  0  0  0  0  0  0  0  0  0  0  0
    4.1511  -51.2831  -15.5905 N   0  0  0  0  0  0  0  0  0  0  0  0
    4.9342  -50.6157  -15.2944 H   0  0  0  0  0  0  0  0  0  0  0  0
    3.8783  -52.3541  -14.7126 C   0  0  0  0  0  0  0  0  0  0  0  0
    2.6666  -52.3430  -13.9619 N   0  0  0  0  0  0  0  0  0  0  0  0
    4.6847  -53.3581  -14.5377 N   0  0  0  0  0  0  0  0  0  0  0  0
    1.8621  -51.8132  -14.3470 H   0  0  0  0  0  0  0  0  0  0  0  0
    2.6311  -52.8570  -13.0633 H   0  0  0  0  0  0  0  0  0  0  0  0
    5.5943  -53.4011  -15.0626 H   0  0  0  0  0  0  0  0  0  0  0  0
    2.4824  -51.0351  -23.5775 C   0  0  0  0  0  0  0  0  0  0  0  0
    2.1510  -52.4695  -25.6703 C   0  0  0  0  0  0  0  0  0  0  0  0
    2.6231  -53.5842  -25.3348 O   0  0  0  0  0  0  0  0  0  0  0  0
    2.0718  -51.2981  -24.9306 N   0  0  0  0  0  0  0  0  0  0  0  0
    1.6468  -50.4478  -25.4221 H   0  0  0  0  0  0  0  0  0  0  0  0
    1.6654  -52.4870  -26.9782 O   0  0  0  0  0  0  0  0  0  0  0  0
    0.3472  -52.8718  -28.8548 C   0  0  0  0  0  0  0  0  0  0  0  0
    0.4057  -53.0083  -27.3077 C   0  0  0  0  0  0  0  0  0  0  0  0
   -0.6828  -52.1428  -26.7310 C   0  0  0  0  0  0  0  0  0  0  0  0
    0.1382  -54.4290  -27.0258 C   0  0  0  0  0  0  0  0  0  0  0  0
    3.6048  -51.8390  -23.0633 C   0  0  0  0  0  0  0  0  0  0  0  0
    4.8463  -51.1533  -22.7204 C   0  0  0  0  0  0  0  0  0  0  0  0
    5.1647  -50.8800  -21.4167 C   0  0  0  0  0  0  0  0  0  0  0  0
    6.3196  -50.2211  -21.0501 C   0  0  0  0  0  0  0  0  0  0  0  0
    7.2049  -49.8112  -22.0148 C   0  0  0  0  0  0  0  0  0  0  0  0
    6.9268  -50.0649  -23.3401 C   0  0  0  0  0  0  0  0  0  0  0  0
    5.7638  -50.7247  -23.6686 C   0  0  0  0  0  0  0  0  0  0  0  0
    7.8538  -49.6287  -24.3618 C   0  0  0  0  0  0  0  0  0  0  0  0
    7.8187  -50.1215  -25.6773 N   0  0  0  0  0  0  0  0  0  0  0  0
    8.7532  -48.7527  -24.0493 N   0  0  0  0  0  0  0  0  0  0  0  0
    6.9787  -50.3336  -26.2445 H   0  0  0  0  0  0  0  0  0  0  0  0
    8.7286  -50.3145  -26.1929 H   0  0  0  0  0  0  0  0  0  0  0  0
    9.4639  -48.3981  -24.7544 H   0  0  0  0  0  0  0  0  0  0  0  0
 32 33  1  0  0  0
 33 34  1  0  0  0
 33 35  1  0  0  0
 33 31  1  0  0  0
 31 27  1  0  0  0
 27 28  2  0  0  0
 27 29  1  0  0  0
 29 26  1  0  0  0
 26 36  1  0  0  0
 36 37  1  0  0  0
 37 38  2  0  0  0
 38 39  1  0  0  0
 39 40  2  0  0  0
 40 41  1  0  0  0
 41 42  2  0  0  0
 41 43  1  0  0  0
 43 44  1  0  0  0
 43 45  2  0  0  0
 26  1  1  0  0  0
  1  2  2  0  0  0
  1  3  1  0  0  0
  3  4  1  0  0  0
  4  5  1  0  0  0
  5  6  1  0  0  0
  6  7  1  0  0  0
  7  8  1  0  0  0
  8  9  2  0  0  0
  8 10  1  0  0  0
 10 12  1  0  0  0
 12 15  1  0  0  0
 15 16  1  0  0  0
 16 17  1  0  0  0
 17 18  1  0  0  0
 18 20  1  0  0  0
 20 21  1  0  0  0
 20 22  2  0  0  0
 12 13  1  0  0  0
 13 14  2  0  0  0
 42 37  1  0  0  0
  7  3  1  0  0  0
 29 30  1  0  0  0
 44 46  1  0  0  0
 44 47  1  0  0  0
 45 48  1  0  0  0
 10 11  1  0  0  0
 18 19  1  0  0  0
 21 23  1  0  0  0
 21 24  1  0  0  0
 22 25  1  0  0  0
M  END
> <minimizedAffinity>
-7.21188

> <CNNscore>
0.2132360637

> <CNNaffinity>
6.2748327255

> <CNN_VS>
1.3380206823

> <CNNaffinity_variance>
0.5738341808

$$$$
[H]N=C(c1c([H])c([H])c([H])c(C([H])([H])[C@]([H])(C(=O)N2C([H])([H])C([H])([H])C([H])([H])[C@@]2([H])C(=O)N([H])C([H])(C([H])=O)C([H])([H])C([H])([H])C([H])([H])N([H])C(=N[H])N([H])[H])N([H])C(=O)OC(C([H])([H])[H])(C([H])([H])[H])C([H])([H])[H])c1[H])N([H])[H]


 48 49  0  0  0  0  0  0  0  0999 V2000
    2.8401  -51.3749  -20.9527 C   0  0  0  0  0  0  0  0  0  0  0  0
    3.5761  -52.0011  -20.0628 O   0  0  0  0  0  0  0  0  0  0  0  0
    3.3444  -51.4602  -22.2320 N   0  0  0  0  0  0  0  0  0  0  0  0
    2.8718  -51.1512  -23.5314 C   0  0  0  0  0  0  0  0  0  0  0  0
    3.3799  -52.4140  -24.2976 C   0  0  0  0  0  0  0  0  0  0  0  0
    4.8566  -52.3040  -23.8798 C   0  0  0  0  0  0  0  0  0  0  0  0
    4.7719  -51.8528  -22.4719 C   0  0  0  0  0  0  0  0  0  0  0  0
    5.6177  -50.6311  -22.2343 C   0  0  0  0  0  0  0  0  0  0  0  0
    6.0520  -49.9574  -23.1875 O   0  0  0  0  0  0  0  0  0  0  0  0
    5.9330  -50.2257  -20.9128 N   0  0  0  0  0  0  0  0  0  0  0  0
    5.5707  -50.7867  -20.1200 H   0  0  0  0  0  0  0  0  0  0  0  0
    6.7249  -49.0837  -20.5342 C   0  0  0  0  0  0  0  0  0  0  0  0
    8.1201  -49.4818  -20.3436 C   0  0  0  0  0  0  0  0  0  0  0  0
    8.6754  -49.3682  -19.2862 O   0  0  0  0  0  0  0  0  0  0  0  0
    6.2056  -48.4798  -19.2337 C   0  0  0  0  0  0  0  0  0  0  0  0
    5.7949  -47.0471  -19.4980 C   0  0  0  0  0  0  0  0  0  0  0  0
    4.2630  -47.0778  -19.6709 C   0  0  0  0  0  0  0  0  0  0  0  0
    3.9117  -46.4720  -20.9317 N   0  0  0  0  0  0  0  0  0  0  0  0
    3.8303  -45.4055  -20.9819 H   0  0  0  0  0  0  0  0  0  0  0  0
    3.6563  -47.1745  -22.1289 C   0  0  0  0  0  0  0  0  0  0  0  0
    2.3695  -47.7533  -22.3314 N   0  0  0  0  0  0  0  0  0  0  0  0
    4.5426  -47.3366  -23.0654 N   0  0  0  0  0  0  0  0  0  0  0  0
    1.5632  -47.3292  -21.8353 H   0  0  0  0  0  0  0  0  0  0  0  0
    2.2837  -48.5729  -22.9591 H   0  0  0  0  0  0  0  0  0  0  0  0
    5.5078  -46.9361  -22.9526 H   0  0  0  0  0  0  0  0  0  0  0  0
    1.6576  -50.7258  -20.3649 C   0  0  0  0  0  0  0  0  0  0  0  0
    1.3271  -50.3836  -17.8508 C   0  0  0  0  0  0  0  0  0  0  0  0
    1.4307  -49.1395  -17.7120 O   0  0  0  0  0  0  0  0  0  0  0  0
    1.4291  -51.1432  -19.0076 N   0  0  0  0  0  0  0  0  0  0  0  0
    1.3284  -52.2028  -18.8966 H   0  0  0  0  0  0  0  0  0  0  0  0
    1.0832  -51.0204  -16.6335 O   0  0  0  0  0  0  0  0  0  0  0  0
    0.0355  -51.8302  -14.7219 C   0  0  0  0  0  0  0  0  0  0  0  0
   -0.2094  -51.1844  -16.1142 C   0  0  0  0  0  0  0  0  0  0  0  0
   -0.9831  -52.1719  -16.9464 C   0  0  0  0  0  0  0  0  0  0  0  0
   -1.0197  -49.9821  -15.8553 C   0  0  0  0  0  0  0  0  0  0  0  0
    0.5022  -50.7936  -21.2766 C   0  0  0  0  0  0  0  0  0  0  0  0
   -0.1331  -52.0894  -21.4922 C   0  0  0  0  0  0  0  0  0  0  0  0
   -0.6931  -52.7826  -20.4522 C   0  0  0  0  0  0  0  0  0  0  0  0
   -1.2898  -54.0161  -20.6094 C   0  0  0  0  0  0  0  0  0  0  0  0
   -1.3376  -54.5957  -21.8520 C   0  0  0  0  0  0  0  0  0  0  0  0
   -0.7876  -53.9350  -22.9285 C   0  0  0  0  0  0  0  0  0  0  0  0
   -0.1997  -52.7051  -22.7335 C   0  0  0  0  0  0  0  0  0  0  0  0
   -0.8293  -54.5449  -24.2399 C   0  0  0  0  0  0  0  0  0  0  0  0
   -1.1439  -55.9003  -24.4357 N   0  0  0  0  0  0  0  0  0  0  0  0
   -0.5619  -53.8126  -25.2725 N   0  0  0  0  0  0  0  0  0  0  0  0
   -1.8571  -56.4569  -23.9318 H   0  0  0  0  0  0  0  0  0  0  0  0
   -0.6209  -56.4625  -25.1716 H   0  0  0  0  0  0  0  0  0  0  0  0
   -0.5714  -54.2049  -26.2595 H   0  0  0  0  0  0  0  0  0  0  0  0
 32 33  1  0  0  0
 33 34  1  0  0  0
 33 35  1  0  0  0
 33 31  1  0  0  0
 31 27  1  0  0  0
 27 28  2  0  0  0
 27 29  1  0  0  0
 29 26  1  0  0  0
 26 36  1  0  0  0
 36 37  1  0  0  0
 37 38  2  0  0  0
 38 39  1  0  0  0
 39 40  2  0  0  0
 40 41  1  0  0  0
 41 42  2  0  0  0
 41 43  1  0  0  0
 43 44  1  0  0  0
 43 45  2  0  0  0
 26  1  1  0  0  0
  1  2  2  0  0  0
  1  3  1  0  0  0
  3  4  1  0  0  0
  4  5  1  0  0  0
  5  6  1  0  0  0
  6  7  1  0  0  0
  7  8  1  0  0  0
  8  9  2  0  0  0
  8 10  1  0  0  0
 10 12  1  0  0  0
 12 15  1  0  0  0
 15 16  1  0  0  0
 16 17  1  0  0  0
 17 18  1  0  0  0
 18 20  1  0  0  0
 20 21  1  0  0  0
 20 22  2  0  0  0
 12 13  1  0  0  0
 13 14  2  0  0  0
 42 37  1  0  0  0
  7  3  1  0  0  0
 29 30  1  0  0  0
 44 46  1  0  0  0
 44 47  1  0  0  0
 45 48  1  0  0  0
 10 11  1  0  0  0
 18 19  1  0  0  0
 21 23  1  0  0  0
 21 24  1  0  0  0
 22 25  1  0  0  0
M  END
> <minimizedAffinity>
-6.91250

> <CNNscore>
0.1617087871

> <CNNaffinity>
6.2715463638

> <CNN_VS>
1.0141642094

> <CNNaffinity_variance>
0.2401688993

$$$$
[H]N=C(c1c([H])c([H])c([H])c(C([H])([H])[C@]([H])(C(=O)N2C([H])([H])C([H])([H])C([H])([H])[C@@]2([H])C(=O)N([H])C([H])(C([H])=O)C([H])([H])C([H])([H])C([H])([H])N([H])C(=N[H])N([H])[H])N([H])C(=O)OC(C([H])([H])[H])(C([H])([H])[H])C([H])([H])[H])c1[H])N([H])[H]


 48 49  0  0  0  0  0  0  0  0999 V2000
    1.7535  -49.2428  -20.3953 C   0  0  0  0  0  0  0  0  0  0  0  0
    0.8962  -48.6861  -21.2203 O   0  0  0  0  0  0  0  0  0  0  0  0
    2.9077  -48.5080  -20.2334 N   0  0  0  0  0  0  0  0  0  0  0  0
    4.0188  -48.5448  -19.3553 C   0  0  0  0  0  0  0  0  0  0  0  0
    4.1704  -47.0171  -19.0670 C   0  0  0  0  0  0  0  0  0  0  0  0
    4.2580  -46.5585  -20.5331 C   0  0  0  0  0  0  0  0  0  0  0  0
    3.2844  -47.4402  -21.2169 C   0  0  0  0  0  0  0  0  0  0  0  0
    3.9031  -48.1250  -22.4054 C   0  0  0  0  0  0  0  0  0  0  0  0
    5.1253  -48.3616  -22.4440 O   0  0  0  0  0  0  0  0  0  0  0  0
    3.0978  -48.5151  -23.5051 N   0  0  0  0  0  0  0  0  0  0  0  0
    2.0806  -48.3183  -23.4720 H   0  0  0  0  0  0  0  0  0  0  0  0
    3.5475  -49.1772  -24.7026 C   0  0  0  0  0  0  0  0  0  0  0  0
    3.7527  -48.1978  -25.7704 C   0  0  0  0  0  0  0  0  0  0  0  0
    2.8620  -47.8511  -26.4955 O   0  0  0  0  0  0  0  0  0  0  0  0
    2.5166  -50.2003  -25.1677 C   0  0  0  0  0  0  0  0  0  0  0  0
    3.2482  -51.3936  -25.7439 C   0  0  0  0  0  0  0  0  0  0  0  0
    3.8248  -52.1537  -24.5326 C   0  0  0  0  0  0  0  0  0  0  0  0
    5.2546  -52.2729  -24.6790 N   0  0  0  0  0  0  0  0  0  0  0  0
    5.6437  -53.0861  -25.2568 H   0  0  0  0  0  0  0  0  0  0  0  0
    6.2063  -51.3974  -24.1134 C   0  0  0  0  0  0  0  0  0  0  0  0
    6.2527  -51.2463  -22.6968 N   0  0  0  0  0  0  0  0  0  0  0  0
    7.0468  -50.7024  -24.8201 N   0  0  0  0  0  0  0  0  0  0  0  0
    5.9078  -52.0317  -22.1135 H   0  0  0  0  0  0  0  0  0  0  0  0
    6.6229  -50.3636  -22.3006 H   0  0  0  0  0  0  0  0  0  0  0  0
    7.0399  -50.7748  -25.8687 H   0  0  0  0  0  0  0  0  0  0  0  0
    1.2758  -50.5231  -19.8494 C   0  0  0  0  0  0  0  0  0  0  0  0
    0.9052  -50.7968  -17.3326 C   0  0  0  0  0  0  0  0  0  0  0  0
   -0.3419  -50.7067  -17.2122 O   0  0  0  0  0  0  0  0  0  0  0  0
    1.6784  -50.7127  -18.4818 N   0  0  0  0  0  0  0  0  0  0  0  0
    2.7377  -50.7964  -18.3549 H   0  0  0  0  0  0  0  0  0  0  0  0
    1.5292  -51.0023  -16.1016 O   0  0  0  0  0  0  0  0  0  0  0  0
    3.4646  -50.3305  -15.0015 C   0  0  0  0  0  0  0  0  0  0  0  0
    1.9898  -49.9445  -15.3040 C   0  0  0  0  0  0  0  0  0  0  0  0
    1.2467  -49.9178  -13.9951 C   0  0  0  0  0  0  0  0  0  0  0  0
    2.0469  -48.5953  -15.8918 C   0  0  0  0  0  0  0  0  0  0  0  0
    1.5514  -51.6351  -20.7758 C   0  0  0  0  0  0  0  0  0  0  0  0
    0.4634  -52.5527  -21.0973 C   0  0  0  0  0  0  0  0  0  0  0  0
   -0.4473  -52.9284  -20.1458 C   0  0  0  0  0  0  0  0  0  0  0  0
   -1.4811  -53.8044  -20.4032 C   0  0  0  0  0  0  0  0  0  0  0  0
   -1.6255  -54.3368  -21.6594 C   0  0  0  0  0  0  0  0  0  0  0  0
   -0.7332  -53.9871  -22.6491 C   0  0  0  0  0  0  0  0  0  0  0  0
    0.2869  -53.1100  -22.3553 C   0  0  0  0  0  0  0  0  0  0  0  0
   -0.8769  -54.5509  -23.9739 C   0  0  0  0  0  0  0  0  0  0  0  0
   -0.5732  -53.8303  -25.1413 N   0  0  0  0  0  0  0  0  0  0  0  0
   -1.3062  -55.7663  -24.0867 N   0  0  0  0  0  0  0  0  0  0  0  0
    0.2157  -53.1751  -25.2856 H   0  0  0  0  0  0  0  0  0  0  0  0
   -1.1906  -53.9340  -26.0011 H   0  0  0  0  0  0  0  0  0  0  0  0
   -1.4370  -56.2324  -25.0321 H   0  0  0  0  0  0  0  0  0  0  0  0
 32 33  1  0  0  0
 33 34  1  0  0  0
 33 35  1  0  0  0
 33 31  1  0  0  0
 31 27  1  0  0  0
 27 28  2  0  0  0
 27 29  1  0  0  0
 29 26  1  0  0  0
 26 36  1  0  0  0
 36 37  1  0  0  0
 37 38  2  0  0  0
 38 39  1  0  0  0
 39 40  2  0  0  0
 40 41  1  0  0  0
 41 42  2  0  0  0
 41 43  1  0  0  0
 43 44  1  0  0  0
 43 45  2  0  0  0
 26  1  1  0  0  0
  1  2  2  0  0  0
  1  3  1  0  0  0
  3  4  1  0  0  0
  4  5  1  0  0  0
  5  6  1  0  0  0
  6  7  1  0  0  0
  7  8  1  0  0  0
  8  9  2  0  0  0
  8 10  1  0  0  0
 10 12  1  0  0  0
 12 15  1  0  0  0
 15 16  1  0  0  0
 16 17  1  0  0  0
 17 18  1  0  0  0
 18 20  1  0  0  0
 20 21  1  0  0  0
 20 22  2  0  0  0
 12 13  1  0  0  0
 13 14  2  0  0  0
 42 37  1  0  0  0
  7  3  1  0  0  0
 29 30  1  0  0  0
 44 46  1  0  0  0
 44 47  1  0  0  0
 45 48  1  0  0  0
 10 11  1  0  0  0
 18 19  1  0  0  0
 21 23  1  0  0  0
 21 24  1  0  0  0
 22 25  1  0  0  0
M  END
> <minimizedAffinity>
-6.72754

> <CNNscore>
0.1551946253

> <CNNaffinity>
6.2104978561

> <CNN_VS>
0.9638358951

> <CNNaffinity_variance>
0.4371716976

$$$$
[H]N=C(c1c([H])c([H])c([H])c(C([H])([H])[C@]([H])(C(=O)N2C([H])([H])C([H])([H])C([H])([H])[C@@]2([H])C(=O)N([H])C([H])(C([H])=O)C([H])([H])C([H])([H])C([H])([H])N([H])C(=N[H])N([H])[H])N([H])C(=O)OC(C([H])([H])[H])(C([H])([H])[H])C([H])([H])[H])c1[H])N([H])[H]


 48 49  0  0  0  0  0  0  0  0999 V2000
    3.8482  -49.8073  -24.8842 C   0  0  0  0  0  0  0  0  0  0  0  0
    2.7586  -49.0835  -25.0040 O   0  0  0  0  0  0  0  0  0  0  0  0
    4.9313  -49.0878  -24.4288 N   0  0  0  0  0  0  0  0  0  0  0  0
    6.2304  -49.3994  -23.9572 C   0  0  0  0  0  0  0  0  0  0  0  0
    6.3085  -48.4148  -22.7472 C   0  0  0  0  0  0  0  0  0  0  0  0
    5.9705  -47.1328  -23.5280 C   0  0  0  0  0  0  0  0  0  0  0  0
    4.9395  -47.5893  -24.4879 C   0  0  0  0  0  0  0  0  0  0  0  0
    5.2903  -47.1992  -25.8983 C   0  0  0  0  0  0  0  0  0  0  0  0
    6.4521  -47.3277  -26.3283 O   0  0  0  0  0  0  0  0  0  0  0  0
    4.2962  -46.6779  -26.7643 N   0  0  0  0  0  0  0  0  0  0  0  0
    3.3294  -46.5717  -26.4058 H   0  0  0  0  0  0  0  0  0  0  0  0
    4.4831  -46.2666  -28.1320 C   0  0  0  0  0  0  0  0  0  0  0  0
    4.2036  -44.8367  -28.2684 C   0  0  0  0  0  0  0  0  0  0  0  0
    3.4885  -44.2523  -27.5026 O   0  0  0  0  0  0  0  0  0  0  0  0
    3.5472  -47.0391  -29.0557 C   0  0  0  0  0  0  0  0  0  0  0  0
    3.5461  -46.3670  -30.4120 C   0  0  0  0  0  0  0  0  0  0  0  0
    4.7193  -46.9963  -31.1899 C   0  0  0  0  0  0  0  0  0  0  0  0
    4.5978  -48.4331  -31.1590 N   0  0  0  0  0  0  0  0  0  0  0  0
    3.6685  -48.8745  -31.4553 H   0  0  0  0  0  0  0  0  0  0  0  0
    5.6147  -49.3272  -30.7607 C   0  0  0  0  0  0  0  0  0  0  0  0
    6.4307  -48.9937  -29.6405 N   0  0  0  0  0  0  0  0  0  0  0  0
    5.8613  -50.4472  -31.3720 N   0  0  0  0  0  0  0  0  0  0  0  0
    6.0336  -48.3585  -28.9229 H   0  0  0  0  0  0  0  0  0  0  0  0
    7.3858  -49.3906  -29.5826 H   0  0  0  0  0  0  0  0  0  0  0  0
    5.2912  -50.7271  -32.2095 H   0  0  0  0  0  0  0  0  0  0  0  0
    3.6494  -51.2122  -25.2743 C   0  0  0  0  0  0  0  0  0  0  0  0
    2.4912  -52.3533  -27.2500 C   0  0  0  0  0  0  0  0  0  0  0  0
    3.1969  -53.3732  -27.4494 O   0  0  0  0  0  0  0  0  0  0  0  0
    2.6528  -51.3533  -26.3016 N   0  0  0  0  0  0  0  0  0  0  0  0
    1.9411  -50.5543  -26.3204 H   0  0  0  0  0  0  0  0  0  0  0  0
    1.4234  -52.2812  -28.1452 O   0  0  0  0  0  0  0  0  0  0  0  0
    0.2567  -54.1717  -27.4576 C   0  0  0  0  0  0  0  0  0  0  0  0
    0.1193  -52.6608  -27.7951 C   0  0  0  0  0  0  0  0  0  0  0  0
   -0.7951  -52.5396  -28.9849 C   0  0  0  0  0  0  0  0  0  0  0  0
   -0.4962  -52.0448  -26.6073 C   0  0  0  0  0  0  0  0  0  0  0  0
    3.5022  -52.0793  -24.0924 C   0  0  0  0  0  0  0  0  0  0  0  0
    2.2093  -52.1136  -23.4168 C   0  0  0  0  0  0  0  0  0  0  0  0
    1.8244  -51.1018  -22.5779 C   0  0  0  0  0  0  0  0  0  0  0  0
    0.6186  -51.1019  -21.9083 C   0  0  0  0  0  0  0  0  0  0  0  0
   -0.2514  -52.1499  -22.0731 C   0  0  0  0  0  0  0  0  0  0  0  0
    0.0929  -53.1902  -22.9080 C   0  0  0  0  0  0  0  0  0  0  0  0
    1.3054  -53.1562  -23.5597 C   0  0  0  0  0  0  0  0  0  0  0  0
   -0.8181  -54.3011  -23.0800 C   0  0  0  0  0  0  0  0  0  0  0  0
   -1.1424  -54.8270  -24.3421 N   0  0  0  0  0  0  0  0  0  0  0  0
   -1.3581  -54.8280  -22.0289 N   0  0  0  0  0  0  0  0  0  0  0  0
   -0.5048  -54.9627  -25.1468 H   0  0  0  0  0  0  0  0  0  0  0  0
   -2.1398  -55.1355  -24.5448 H   0  0  0  0  0  0  0  0  0  0  0  0
   -2.0379  -55.6415  -22.0921 H   0  0  0  0  0  0  0  0  0  0  0  0
 32 33  1  0  0  0
 33 34  1  0  0  0
 33 35  1  0  0  0
 33 31  1  0  0  0
 31 27  1  0  0  0
 27 28  2  0  0  0
 27 29  1  0  0  0
 29 26  1  0  0  0
 26 36  1  0  0  0
 36 37  1  0  0  0
 37 38  2  0  0  0
 38 39  1  0  0  0
 39 40  2  0  0  0
 40 41  1  0  0  0
 41 42  2  0  0  0
 41 43  1  0  0  0
 43 44  1  0  0  0
 43 45  2  0  0  0
 26  1  1  0  0  0
  1  2  2  0  0  0
  1  3  1  0  0  0
  3  4  1  0  0  0
  4  5  1  0  0  0
  5  6  1  0  0  0
  6  7  1  0  0  0
  7  8  1  0  0  0
  8  9  2  0  0  0
  8 10  1  0  0  0
 10 12  1  0  0  0
 12 15  1  0  0  0
 15 16  1  0  0  0
 16 17  1  0  0  0
 17 18  1  0  0  0
 18 20  1  0  0  0
 20 21  1  0  0  0
 20 22  2  0  0  0
 12 13  1  0  0  0
 13 14  2  0  0  0
 42 37  1  0  0  0
  7  3  1  0  0  0
 29 30  1  0  0  0
 44 46  1  0  0  0
 44 47  1  0  0  0
 45 48  1  0  0  0
 10 11  1  0  0  0
 18 19  1  0  0  0
 21 23  1  0  0  0
 21 24  1  0  0  0
 22 25  1  0  0  0
M  END
> <minimizedAffinity>
-7.71777

> <CNNscore>
0.1469576955

> <CNNaffinity>
6.5548810959

> <CNN_VS>
0.9632902145

> <CNNaffinity_variance>
0.3441418111

$$$$
[H]N=C(c1c([H])c([H])c([H])c(C([H])([H])[C@]([H])(C(=O)N2C([H])([H])C([H])([H])C([H])([H])[C@@]2([H])C(=O)N([H])C([H])(C([H])=O)C([H])([H])C([H])([H])C([H])([H])N([H])C(=N[H])N([H])[H])N([H])C(=O)OC(C([H])([H])[H])(C([H])([H])[H])C([H])([H])[H])c1[H])N([H])[H]


 48 49  0  0  0  0  0  0  0  0999 V2000
    2.2944  -49.8439  -21.7873 C   0  0  0  0  0  0  0  0  0  0  0  0
    1.2085  -49.1992  -22.1490 O   0  0  0  0  0  0  0  0  0  0  0  0
    2.9179  -49.2867  -20.6923 N   0  0  0  0  0  0  0  0  0  0  0  0
    3.9589  -49.6726  -19.8123 C   0  0  0  0  0  0  0  0  0  0  0  0
    3.3297  -49.2227  -18.4554 C   0  0  0  0  0  0  0  0  0  0  0  0
    3.0490  -47.7635  -18.8548 C   0  0  0  0  0  0  0  0  0  0  0  0
    2.6121  -47.8821  -20.2648 C   0  0  0  0  0  0  0  0  0  0  0  0
    3.3941  -46.9611  -21.1619 C   0  0  0  0  0  0  0  0  0  0  0  0
    4.2646  -46.2011  -20.6974 O   0  0  0  0  0  0  0  0  0  0  0  0
    3.1507  -46.9467  -22.5585 N   0  0  0  0  0  0  0  0  0  0  0  0
    2.4264  -47.5800  -22.9444 H   0  0  0  0  0  0  0  0  0  0  0  0
    3.8191  -46.1255  -23.5350 C   0  0  0  0  0  0  0  0  0  0  0  0
    2.8509  -45.2600  -24.2096 C   0  0  0  0  0  0  0  0  0  0  0  0
    3.1806  -44.4725  -25.0525 O   0  0  0  0  0  0  0  0  0  0  0  0
    4.5119  -46.9935  -24.5801 C   0  0  0  0  0  0  0  0  0  0  0  0
    5.0433  -48.2363  -23.8986 C   0  0  0  0  0  0  0  0  0  0  0  0
    5.8744  -48.9744  -24.9671 C   0  0  0  0  0  0  0  0  0  0  0  0
    5.6113  -50.3900  -24.8841 N   0  0  0  0  0  0  0  0  0  0  0  0
    4.8201  -50.7991  -25.4783 H   0  0  0  0  0  0  0  0  0  0  0  0
    6.3159  -51.3022  -24.0695 C   0  0  0  0  0  0  0  0  0  0  0  0
    5.7613  -52.5945  -23.8366 N   0  0  0  0  0  0  0  0  0  0  0  0
    7.4514  -51.0241  -23.5020 N   0  0  0  0  0  0  0  0  0  0  0  0
    5.1123  -52.9795  -24.5485 H   0  0  0  0  0  0  0  0  0  0  0  0
    6.0198  -53.1002  -22.9703 H   0  0  0  0  0  0  0  0  0  0  0  0
    7.8910  -50.0790  -23.6378 H   0  0  0  0  0  0  0  0  0  0  0  0
    2.5868  -51.0023  -22.6463 C   0  0  0  0  0  0  0  0  0  0  0  0
    2.1497  -51.4571  -25.1260 C   0  0  0  0  0  0  0  0  0  0  0  0
    3.2099  -52.0105  -25.5100 O   0  0  0  0  0  0  0  0  0  0  0  0
    1.8229  -50.9798  -23.8646 N   0  0  0  0  0  0  0  0  0  0  0  0
    0.8629  -50.5186  -23.7597 H   0  0  0  0  0  0  0  0  0  0  0  0
    1.2257  -51.3348  -26.1643 O   0  0  0  0  0  0  0  0  0  0  0  0
    0.8659  -53.6286  -26.0372 C   0  0  0  0  0  0  0  0  0  0  0  0
    0.1977  -52.2660  -26.3722 C   0  0  0  0  0  0  0  0  0  0  0  0
   -0.1934  -52.2937  -27.8257 C   0  0  0  0  0  0  0  0  0  0  0  0
   -0.9997  -52.1923  -25.5177 C   0  0  0  0  0  0  0  0  0  0  0  0
    2.5598  -52.2584  -21.8768 C   0  0  0  0  0  0  0  0  0  0  0  0
    1.2674  -52.7687  -21.4315 C   0  0  0  0  0  0  0  0  0  0  0  0
    0.8048  -52.5125  -20.1681 C   0  0  0  0  0  0  0  0  0  0  0  0
   -0.4032  -52.9877  -19.7021 C   0  0  0  0  0  0  0  0  0  0  0  0
   -1.1950  -53.7530  -20.5205 C   0  0  0  0  0  0  0  0  0  0  0  0
   -0.7709  -54.0363  -21.8003 C   0  0  0  0  0  0  0  0  0  0  0  0
    0.4412  -53.5450  -22.2310 C   0  0  0  0  0  0  0  0  0  0  0  0
   -1.5990  -54.8486  -22.6651 C   0  0  0  0  0  0  0  0  0  0  0  0
   -1.1153  -55.4320  -23.8483 N   0  0  0  0  0  0  0  0  0  0  0  0
   -2.8355  -55.0413  -22.3366 N   0  0  0  0  0  0  0  0  0  0  0  0
   -0.1845  -55.8596  -24.0008 H   0  0  0  0  0  0  0  0  0  0  0  0
   -1.7345  -55.4642  -24.7124 H   0  0  0  0  0  0  0  0  0  0  0  0
   -3.4932  -55.6235  -22.9337 H   0  0  0  0  0  0  0  0  0  0  0  0
 32 33  1  0  0  0
 33 34  1  0  0  0
 33 35  1  0  0  0
 33 31  1  0  0  0
 31 27  1  0  0  0
 27 28  2  0  0  0
 27 29  1  0  0  0
 29 26  1  0  0  0
 26 36  1  0  0  0
 36 37  1  0  0  0
 37 38  2  0  0  0
 38 39  1  0  0  0
 39 40  2  0  0  0
 40 41  1  0  0  0
 41 42  2  0  0  0
 41 43  1  0  0  0
 43 44  1  0  0  0
 43 45  2  0  0  0
 26  1  1  0  0  0
  1  2  2  0  0  0
  1  3  1  0  0  0
  3  4  1  0  0  0
  4  5  1  0  0  0
  5  6  1  0  0  0
  6  7  1  0  0  0
  7  8  1  0  0  0
  8  9  2  0  0  0
  8 10  1  0  0  0
 10 12  1  0  0  0
 12 15  1  0  0  0
 15 16  1  0  0  0
 16 17  1  0  0  0
 17 18  1  0  0  0
 18 20  1  0  0  0
 20 21  1  0  0  0
 20 22  2  0  0  0
 12 13  1  0  0  0
 13 14  2  0  0  0
 42 37  1  0  0  0
  7  3  1  0  0  0
 29 30  1  0  0  0
 44 46  1  0  0  0
 44 47  1  0  0  0
 45 48  1  0  0  0
 10 11  1  0  0  0
 18 19  1  0  0  0
 21 23  1  0  0  0
 21 24  1  0  0  0
 22 25  1  0  0  0
M  END
> <minimizedAffinity>
-6.24153

> <CNNscore>
0.1408904791

> <CNNaffinity>
6.3214445114

> <CNN_VS>
0.8906313181

> <CNNaffinity_variance>
0.3171948791

$$$$
[H]N=C(c1c([H])c([H])c([H])c(C([H])([H])[C@]([H])(C(=O)N2C([H])([H])C([H])([H])C([H])([H])[C@@]2([H])C(=O)N([H])C([H])(C([H])=O)C([H])([H])C([H])([H])C([H])([H])N([H])C(=N[H])N([H])[H])N([H])C(=O)OC(C([H])([H])[H])(C([H])([H])[H])C([H])([H])[H])c1[H])N([H])[H]


 48 49  0  0  0  0  0  0  0  0999 V2000
    2.3004  -49.6291  -21.5475 C   0  0  0  0  0  0  0  0  0  0  0  0
    1.1816  -49.0047  -21.8375 O   0  0  0  0  0  0  0  0  0  0  0  0
    3.0491  -48.9849  -20.5869 N   0  0  0  0  0  0  0  0  0  0  0  0
    4.1844  -49.3049  -19.8023 C   0  0  0  0  0  0  0  0  0  0  0  0
    3.7191  -48.7273  -18.4277 C   0  0  0  0  0  0  0  0  0  0  0  0
    3.3982  -47.3059  -18.9218 C   0  0  0  0  0  0  0  0  0  0  0  0
    2.7994  -47.5438  -20.2551 C   0  0  0  0  0  0  0  0  0  0  0  0
    3.4741  -46.7172  -21.3162 C   0  0  0  0  0  0  0  0  0  0  0  0
    4.2790  -45.8169  -21.0114 O   0  0  0  0  0  0  0  0  0  0  0  0
    3.2028  -46.9541  -22.6874 N   0  0  0  0  0  0  0  0  0  0  0  0
    2.5332  -47.7039  -22.9402 H   0  0  0  0  0  0  0  0  0  0  0  0
    3.7722  -46.2485  -23.8066 C   0  0  0  0  0  0  0  0  0  0  0  0
    2.7322  -45.4908  -24.5034 C   0  0  0  0  0  0  0  0  0  0  0  0
    2.0959  -44.6329  -23.9570 O   0  0  0  0  0  0  0  0  0  0  0  0
    4.4070  -47.2270  -24.7891 C   0  0  0  0  0  0  0  0  0  0  0  0
    5.3962  -48.0913  -24.0370 C   0  0  0  0  0  0  0  0  0  0  0  0
    6.1049  -48.9431  -25.1091 C   0  0  0  0  0  0  0  0  0  0  0  0
    5.7521  -50.3298  -24.9286 N   0  0  0  0  0  0  0  0  0  0  0  0
    4.9815  -50.7461  -25.5445 H   0  0  0  0  0  0  0  0  0  0  0  0
    6.3416  -51.2039  -23.9902 C   0  0  0  0  0  0  0  0  0  0  0  0
    5.5756  -52.2931  -23.4817 N   0  0  0  0  0  0  0  0  0  0  0  0
    7.5556  -51.0644  -23.5480 N   0  0  0  0  0  0  0  0  0  0  0  0
    4.8041  -52.6603  -24.0701 H   0  0  0  0  0  0  0  0  0  0  0  0
    5.8105  -52.6762  -22.5483 H   0  0  0  0  0  0  0  0  0  0  0  0
    8.1521  -50.2684  -23.8878 H   0  0  0  0  0  0  0  0  0  0  0  0
    2.4871  -50.8633  -22.3267 C   0  0  0  0  0  0  0  0  0  0  0  0
    1.9644  -51.2311  -24.8043 C   0  0  0  0  0  0  0  0  0  0  0  0
    3.0747  -51.5646  -25.2879 O   0  0  0  0  0  0  0  0  0  0  0  0
    1.6485  -50.8988  -23.4946 N   0  0  0  0  0  0  0  0  0  0  0  0
    0.6332  -50.6208  -23.3013 H   0  0  0  0  0  0  0  0  0  0  0  0
    0.9638  -51.2079  -25.7764 O   0  0  0  0  0  0  0  0  0  0  0  0
    0.4042  -52.5444  -27.5953 C   0  0  0  0  0  0  0  0  0  0  0  0
    0.1750  -52.3291  -26.0732 C   0  0  0  0  0  0  0  0  0  0  0  0
   -1.2820  -52.0086  -25.8712 C   0  0  0  0  0  0  0  0  0  0  0  0
    0.5131  -53.6137  -25.4370 C   0  0  0  0  0  0  0  0  0  0  0  0
    2.4555  -52.0533  -21.4585 C   0  0  0  0  0  0  0  0  0  0  0  0
    1.1604  -52.5258  -20.9803 C   0  0  0  0  0  0  0  0  0  0  0  0
    0.2895  -53.1678  -21.8201 C   0  0  0  0  0  0  0  0  0  0  0  0
   -0.9495  -53.6169  -21.4132 C   0  0  0  0  0  0  0  0  0  0  0  0
   -1.3509  -53.4245  -20.1154 C   0  0  0  0  0  0  0  0  0  0  0  0
   -0.5076  -52.7839  -19.2343 C   0  0  0  0  0  0  0  0  0  0  0  0
    0.7219  -52.3488  -19.6762 C   0  0  0  0  0  0  0  0  0  0  0  0
   -0.9287  -52.5723  -17.8663 C   0  0  0  0  0  0  0  0  0  0  0  0
   -0.3631  -51.5838  -17.0434 N   0  0  0  0  0  0  0  0  0  0  0  0
   -1.8610  -53.3271  -17.3813 N   0  0  0  0  0  0  0  0  0  0  0  0
   -0.0817  -50.6257  -17.3181 H   0  0  0  0  0  0  0  0  0  0  0  0
   -0.1838  -51.7916  -16.0159 H   0  0  0  0  0  0  0  0  0  0  0  0
   -2.2083  -53.2230  -16.3830 H   0  0  0  0  0  0  0  0  0  0  0  0
 32 33  1  0  0  0
 33 34  1  0  0  0
 33 35  1  0  0  0
 33 31  1  0  0  0
 31 27  1  0  0  0
 27 28  2  0  0  0
 27 29  1  0  0  0
 29 26  1  0  0  0
 26 36  1  0  0  0
 36 37  1  0  0  0
 37 38  2  0  0  0
 38 39  1  0  0  0
 39 40  2  0  0  0
 40 41  1  0  0  0
 41 42  2  0  0  0
 41 43  1  0  0  0
 43 44  1  0  0  0
 43 45  2  0  0  0
 26  1  1  0  0  0
  1  2  2  0  0  0
  1  3  1  0  0  0
  3  4  1  0  0  0
  4  5  1  0  0  0
  5  6  1  0  0  0
  6  7  1  0  0  0
  7  8  1  0  0  0
  8  9  2  0  0  0
  8 10  1  0  0  0
 10 12  1  0  0  0
 12 15  1  0  0  0
 15 16  1  0  0  0
 16 17  1  0  0  0
 17 18  1  0  0  0
 18 20  1  0  0  0
 20 21  1  0  0  0
 20 22  2  0  0  0
 12 13  1  0  0  0
 13 14  2  0  0  0
 42 37  1  0  0  0
  7  3  1  0  0  0
 29 30  1  0  0  0
 44 46  1  0  0  0
 44 47  1  0  0  0
 45 48  1  0  0  0
 10 11  1  0  0  0
 18 19  1  0  0  0
 21 23  1  0  0  0
 21 24  1  0  0  0
 22 25  1  0  0  0
M  END
> <minimizedAffinity>
-6.95879

> <CNNscore>
0.1384615153

> <CNNaffinity>
6.1611695290

> <CNN_VS>
0.8530848622

> <CNNaffinity_variance>
0.5501008034

$$$$
[H]N=C(c1c([H])c([H])c([H])c(C([H])([H])[C@]([H])(C(=O)N2C([H])([H])C([H])([H])C([H])([H])[C@@]2([H])C(=O)N([H])C([H])(C([H])=O)C([H])([H])C([H])([H])C([H])([H])N([H])C(=N[H])N([H])[H])N([H])C(=O)OC(C([H])([H])[H])(C([H])([H])[H])C([H])([H])[H])c1[H])N([H])[H]


 48 49  0  0  0  0  0  0  0  0999 V2000
    1.0197  -51.7172  -19.8114 C   0  0  0  0  0  0  0  0  0  0  0  0
    2.2368  -52.2112  -19.8113 O   0  0  0  0  0  0  0  0  0  0  0  0
    0.1505  -52.4137  -20.6224 N   0  0  0  0  0  0  0  0  0  0  0  0
   -1.2509  -52.4304  -20.8296 C   0  0  0  0  0  0  0  0  0  0  0  0
   -1.4804  -53.9730  -20.9161 C   0  0  0  0  0  0  0  0  0  0  0  0
   -0.4519  -54.2525  -22.0258 C   0  0  0  0  0  0  0  0  0  0  0  0
    0.6639  -53.3412  -21.6833 C   0  0  0  0  0  0  0  0  0  0  0  0
    1.0641  -52.4951  -22.8616 C   0  0  0  0  0  0  0  0  0  0  0  0
    0.7692  -51.2861  -22.9118 O   0  0  0  0  0  0  0  0  0  0  0  0
    1.7893  -53.0656  -23.9380 N   0  0  0  0  0  0  0  0  0  0  0  0
    2.0348  -54.0718  -23.8952 H   0  0  0  0  0  0  0  0  0  0  0  0
    2.2399  -52.3825  -25.1234 C   0  0  0  0  0  0  0  0  0  0  0  0
    3.5987  -51.8769  -24.9249 C   0  0  0  0  0  0  0  0  0  0  0  0
    3.9064  -50.7520  -25.2066 O   0  0  0  0  0  0  0  0  0  0  0  0
    1.3221  -51.2080  -25.4457 C   0  0  0  0  0  0  0  0  0  0  0  0
    0.6375  -51.4802  -26.7679 C   0  0  0  0  0  0  0  0  0  0  0  0
    0.0337  -52.8933  -26.6414 C   0  0  0  0  0  0  0  0  0  0  0  0
   -1.4049  -52.8054  -26.6946 N   0  0  0  0  0  0  0  0  0  0  0  0
   -1.9547  -52.8535  -25.7771 H   0  0  0  0  0  0  0  0  0  0  0  0
   -2.1683  -52.6626  -27.8731 C   0  0  0  0  0  0  0  0  0  0  0  0
   -1.5108  -52.7261  -29.1363 N   0  0  0  0  0  0  0  0  0  0  0  0
   -3.4523  -52.4623  -27.8731 N   0  0  0  0  0  0  0  0  0  0  0  0
   -0.6218  -53.2575  -29.1945 H   0  0  0  0  0  0  0  0  0  0  0  0
   -1.9372  -52.2408  -29.9462 H   0  0  0  0  0  0  0  0  0  0  0  0
   -3.9756  -52.3976  -26.9638 H   0  0  0  0  0  0  0  0  0  0  0  0
    0.8814  -50.5321  -18.9501 C   0  0  0  0  0  0  0  0  0  0  0  0
    1.6245  -48.5099  -20.3305 C   0  0  0  0  0  0  0  0  0  0  0  0
    0.6780  -48.3489  -21.1406 O   0  0  0  0  0  0  0  0  0  0  0  0
    1.7709  -49.4717  -19.3410 N   0  0  0  0  0  0  0  0  0  0  0  0
    2.6764  -49.4405  -18.7714 H   0  0  0  0  0  0  0  0  0  0  0  0
    2.6298  -47.5603  -20.5157 O   0  0  0  0  0  0  0  0  0  0  0  0
    3.2085  -46.6880  -22.5922 C   0  0  0  0  0  0  0  0  0  0  0  0
    3.6288  -47.7002  -21.4903 C   0  0  0  0  0  0  0  0  0  0  0  0
    3.5785  -49.0789  -22.0928 C   0  0  0  0  0  0  0  0  0  0  0  0
    5.0126  -47.3440  -21.1333 C   0  0  0  0  0  0  0  0  0  0  0  0
    0.8883  -50.9039  -17.5245 C   0  0  0  0  0  0  0  0  0  0  0  0
   -0.2668  -50.5415  -16.7100 C   0  0  0  0  0  0  0  0  0  0  0  0
   -0.3928  -49.2830  -16.1846 C   0  0  0  0  0  0  0  0  0  0  0  0
   -1.4600  -48.9034  -15.3976 C   0  0  0  0  0  0  0  0  0  0  0  0
   -2.4522  -49.8075  -15.1140 C   0  0  0  0  0  0  0  0  0  0  0  0
   -2.3683  -51.0856  -15.6214 C   0  0  0  0  0  0  0  0  0  0  0  0
   -1.2878  -51.4289  -16.4030 C   0  0  0  0  0  0  0  0  0  0  0  0
   -3.4085  -52.0450  -15.3197 C   0  0  0  0  0  0  0  0  0  0  0  0
   -4.4325  -52.3633  -16.2277 N   0  0  0  0  0  0  0  0  0  0  0  0
   -3.3964  -52.6295  -14.1655 N   0  0  0  0  0  0  0  0  0  0  0  0
   -4.3477  -52.4741  -17.2539 H   0  0  0  0  0  0  0  0  0  0  0  0
   -5.4230  -52.5183  -15.8730 H   0  0  0  0  0  0  0  0  0  0  0  0
   -4.1358  -53.3384  -13.8849 H   0  0  0  0  0  0  0  0  0  0  0  0
 32 33  1  0  0  0
 33 34  1  0  0  0
 33 35  1  0  0  0
 33 31  1  0  0  0
 31 27  1  0  0  0
 27 28  2  0  0  0
 27 29  1  0  0  0
 29 26  1  0  0  0
 26 36  1  0  0  0
 36 37  1  0  0  0
 37 38  2  0  0  0
 38 39  1  0  0  0
 39 40  2  0  0  0
 40 41  1  0  0  0
 41 42  2  0  0  0
 41 43  1  0  0  0
 43 44  1  0  0  0
 43 45  2  0  0  0
 26  1  1  0  0  0
  1  2  2  0  0  0
  1  3  1  0  0  0
  3  4  1  0  0  0
  4  5  1  0  0  0
  5  6  1  0  0  0
  6  7  1  0  0  0
  7  8  1  0  0  0
  8  9  2  0  0  0
  8 10  1  0  0  0
 10 12  1  0  0  0
 12 15  1  0  0  0
 15 16  1  0  0  0
 16 17  1  0  0  0
 17 18  1  0  0  0
 18 20  1  0  0  0
 20 21  1  0  0  0
 20 22  2  0  0  0
 12 13  1  0  0  0
 13 14  2  0  0  0
 42 37  1  0  0  0
  7  3  1  0  0  0
 29 30  1  0  0  0
 44 46  1  0  0  0
 44 47  1  0  0  0
 45 48  1  0  0  0
 10 11  1  0  0  0
 18 19  1  0  0  0
 21 23  1  0  0  0
 21 24  1  0  0  0
 22 25  1  0  0  0
M  END
> <minimizedAffinity>
-7.47967

> <CNNscore>
0.1292982996

> <CNNaffinity>
6.4336128235

> <CNN_VS>
0.8318551779

> <CNNaffinity_variance>
0.3503625691

$$$$
[H]c1c([H])c([H])c2c(c1[H])c(C(=O)OC1([H])C([H])([H])C3([H])N(C([H])([H])[H])C([H])(C([H])([H])C3([H])[H])C1([H])[H])c([H])n2C([H])([H])C([H])(F)F


 25 28  0  0  0  0  0  0  0  0999 V2000
    0.3406  -52.4369  -21.0070 C   0  0  0  0  0  0  0  0  0  0  0  0
    1.2244  -51.4666  -21.4118 C   0  0  0  0  0  0  0  0  0  0  0  0
    1.4487  -50.6570  -20.3627 N   0  0  0  0  0  0  0  0  0  0  0  0
    0.7499  -51.0606  -19.2983 C   0  0  0  0  0  0  0  0  0  0  0  0
    0.6004  -50.6234  -17.9997 C   0  0  0  0  0  0  0  0  0  0  0  0
   -0.2315  -51.2916  -17.1168 C   0  0  0  0  0  0  0  0  0  0  0  0
   -0.9265  -52.4089  -17.5226 C   0  0  0  0  0  0  0  0  0  0  0  0
   -0.7879  -52.8650  -18.8306 C   0  0  0  0  0  0  0  0  0  0  0  0
    0.0426  -52.1854  -19.6865 C   0  0  0  0  0  0  0  0  0  0  0  0
   -0.1470  -53.5095  -21.8822 C   0  0  0  0  0  0  0  0  0  0  0  0
   -0.0715  -54.7213  -21.5349 O   0  0  0  0  0  0  0  0  0  0  0  0
   -0.7118  -53.2764  -23.1222 O   0  0  0  0  0  0  0  0  0  0  0  0
   -1.3151  -52.7472  -28.2815 C   0  0  0  0  0  0  0  0  0  0  0  0
   -1.0650  -52.9290  -26.8869 N   0  0  0  0  0  0  0  0  0  0  0  0
   -0.2344  -51.8291  -26.3897 C   0  0  0  0  0  0  0  0  0  0  0  0
    1.1419  -52.0555  -26.9773 C   0  0  0  0  0  0  0  0  0  0  0  0
    1.1703  -53.5496  -27.1849 C   0  0  0  0  0  0  0  0  0  0  0  0
   -0.1477  -54.0462  -26.6669 C   0  0  0  0  0  0  0  0  0  0  0  0
   -0.1485  -54.3490  -25.2120 C   0  0  0  0  0  0  0  0  0  0  0  0
    0.0946  -53.2000  -24.3102 C   0  0  0  0  0  0  0  0  0  0  0  0
   -0.1123  -51.8495  -24.8892 C   0  0  0  0  0  0  0  0  0  0  0  0
    2.3245  -49.5040  -20.3723 C   0  0  0  0  0  0  0  0  0  0  0  0
    1.6801  -48.4487  -21.2579 C   0  0  0  0  0  0  0  0  0  0  0  0
    0.3238  -48.4483  -21.0534 F   0  0  0  0  0  0  0  0  0  0  0  0
    1.9037  -48.7633  -22.5777 F   0  0  0  0  0  0  0  0  0  0  0  0
 13 14  1  0  0  0
 14 15  1  0  0  0
 15 16  1  0  0  0
 16 17  1  0  0  0
 17 18  1  0  0  0
 18 19  1  0  0  0
 19 20  1  0  0  0
 20 21  1  0  0  0
 20 12  1  0  0  0
 12 10  1  0  0  0
 10 11  2  0  0  0
 10  1  1  0  0  0
  1  2  2  0  0  0
  2  3  1  0  0  0
  3 22  1  0  0  0
 22 23  1  0  0  0
 23 24  1  0  0  0
 23 25  1  0  0  0
  3  4  1  0  0  0
  4  5  2  0  0  0
  5  6  1  0  0  0
  6  7  2  0  0  0
  7  8  1  0  0  0
  8  9  2  0  0  0
 18 14  1  0  0  0
  9  1  1  0  0  0
 21 15  1  0  0  0
  9  4  1  0  0  0
M  END
> <minimizedAffinity>
-7.64844

> <CNNscore>
0.7305440307

> <CNNaffinity>
6.4858064651

> <CNN_VS>
4.7381672859

> <CNNaffinity_variance>
0.1087698340

$$$$
[H]c1c([H])c([H])c2c(c1[H])c(C(=O)OC1([H])C([H])([H])C3([H])N(C([H])([H])[H])C([H])(C([H])([H])C3([H])[H])C1([H])[H])c([H])n2C([H])([H])C([H])(F)F


 25 28  0  0  0  0  0  0  0  0999 V2000
   -0.0617  -51.9181  -20.1086 C   0  0  0  0  0  0  0  0  0  0  0  0
   -0.1346  -52.2012  -18.7666 C   0  0  0  0  0  0  0  0  0  0  0  0
    0.4472  -51.1867  -18.1043 N   0  0  0  0  0  0  0  0  0  0  0  0
    0.8925  -50.2607  -18.9578 C   0  0  0  0  0  0  0  0  0  0  0  0
    1.5457  -49.0526  -18.8414 C   0  0  0  0  0  0  0  0  0  0  0  0
    1.8757  -48.3126  -19.9646 C   0  0  0  0  0  0  0  0  0  0  0  0
    1.5556  -48.7730  -21.2224 C   0  0  0  0  0  0  0  0  0  0  0  0
    0.8958  -49.9912  -21.3592 C   0  0  0  0  0  0  0  0  0  0  0  0
    0.5797  -50.7058  -20.2306 C   0  0  0  0  0  0  0  0  0  0  0  0
   -0.5939  -52.7978  -21.1559 C   0  0  0  0  0  0  0  0  0  0  0  0
   -1.7640  -53.2673  -21.0827 O   0  0  0  0  0  0  0  0  0  0  0  0
    0.1306  -53.1682  -22.2734 O   0  0  0  0  0  0  0  0  0  0  0  0
    2.0331  -53.1321  -27.1357 C   0  0  0  0  0  0  0  0  0  0  0  0
    1.4540  -53.0727  -25.8312 N   0  0  0  0  0  0  0  0  0  0  0  0
    0.1948  -53.8219  -25.8185 C   0  0  0  0  0  0  0  0  0  0  0  0
   -0.7838  -52.9943  -26.6234 C   0  0  0  0  0  0  0  0  0  0  0  0
   -0.2468  -51.5942  -26.4570 C   0  0  0  0  0  0  0  0  0  0  0  0
    0.9427  -51.7315  -25.5525 C   0  0  0  0  0  0  0  0  0  0  0  0
    0.6104  -51.6686  -24.1054 C   0  0  0  0  0  0  0  0  0  0  0  0
   -0.2610  -52.7504  -23.5923 C   0  0  0  0  0  0  0  0  0  0  0  0
   -0.3555  -53.9747  -24.4255 C   0  0  0  0  0  0  0  0  0  0  0  0
    0.5790  -51.0980  -16.6651 C   0  0  0  0  0  0  0  0  0  0  0  0
   -0.7326  -50.5549  -16.1192 C   0  0  0  0  0  0  0  0  0  0  0  0
   -0.7888  -49.2009  -16.3314 F   0  0  0  0  0  0  0  0  0  0  0  0
   -0.7838  -50.7676  -14.7616 F   0  0  0  0  0  0  0  0  0  0  0  0
 13 14  1  0  0  0
 14 15  1  0  0  0
 15 16  1  0  0  0
 16 17  1  0  0  0
 17 18  1  0  0  0
 18 19  1  0  0  0
 19 20  1  0  0  0
 20 21  1  0  0  0
 20 12  1  0  0  0
 12 10  1  0  0  0
 10 11  2  0  0  0
 10  1  1  0  0  0
  1  2  2  0  0  0
  2  3  1  0  0  0
  3 22  1  0  0  0
 22 23  1  0  0  0
 23 24  1  0  0  0
 23 25  1  0  0  0
  3  4  1  0  0  0
  4  5  2  0  0  0
  5  6  1  0  0  0
  6  7  2  0  0  0
  7  8  1  0  0  0
  8  9  2  0  0  0
 18 14  1  0  0  0
  9  1  1  0  0  0
 21 15  1  0  0  0
  9  4  1  0  0  0
M  END
> <minimizedAffinity>
-7.04542

> <CNNscore>
0.5618919730

> <CNNaffinity>
6.1239380836

> <CNN_VS>
3.4409916401

> <CNNaffinity_variance>
0.2091171443

$$$$
[H]c1c([H])c([H])c2c(c1[H])c(C(=O)OC1([H])C([H])([H])C3([H])N(C([H])([H])[H])C([H])(C([H])([H])C3([H])[H])C1([H])[H])c([H])n2C([H])([H])C([H])(F)F


 25 28  0  0  0  0  0  0  0  0999 V2000
    0.1380  -53.2789  -24.0059 C   0  0  0  0  0  0  0  0  0  0  0  0
   -0.5326  -53.6738  -25.1376 C   0  0  0  0  0  0  0  0  0  0  0  0
    0.3191  -53.5711  -26.1723 N   0  0  0  0  0  0  0  0  0  0  0  0
    1.5098  -53.1279  -25.7601 C   0  0  0  0  0  0  0  0  0  0  0  0
    2.7146  -52.8444  -26.3666 C   0  0  0  0  0  0  0  0  0  0  0  0
    3.7912  -52.3844  -25.6268 C   0  0  0  0  0  0  0  0  0  0  0  0
    3.6761  -52.2013  -24.2668 C   0  0  0  0  0  0  0  0  0  0  0  0
    2.4668  -52.4825  -23.6371 C   0  0  0  0  0  0  0  0  0  0  0  0
    1.4146  -52.9372  -24.3923 C   0  0  0  0  0  0  0  0  0  0  0  0
   -0.4665  -53.2545  -22.6687 C   0  0  0  0  0  0  0  0  0  0  0  0
   -0.7010  -54.3231  -22.0380 O   0  0  0  0  0  0  0  0  0  0  0  0
   -0.8152  -52.0862  -22.0172 O   0  0  0  0  0  0  0  0  0  0  0  0
    3.9132  -50.5806  -20.3931 C   0  0  0  0  0  0  0  0  0  0  0  0
    2.5997  -51.0158  -20.7482 N   0  0  0  0  0  0  0  0  0  0  0  0
    1.6331  -49.9574  -20.4446 C   0  0  0  0  0  0  0  0  0  0  0  0
    1.5390  -49.9077  -18.9348 C   0  0  0  0  0  0  0  0  0  0  0  0
    1.9055  -51.3155  -18.5349 C   0  0  0  0  0  0  0  0  0  0  0  0
    2.1294  -52.0479  -19.8255 C   0  0  0  0  0  0  0  0  0  0  0  0
    0.8956  -52.6404  -20.4045 C   0  0  0  0  0  0  0  0  0  0  0  0
   -0.1592  -51.6809  -20.8036 C   0  0  0  0  0  0  0  0  0  0  0  0
    0.2650  -50.2711  -20.9892 C   0  0  0  0  0  0  0  0  0  0  0  0
    0.0019  -53.8936  -27.5477 C   0  0  0  0  0  0  0  0  0  0  0  0
   -0.5473  -52.6327  -28.1972 C   0  0  0  0  0  0  0  0  0  0  0  0
   -1.9179  -52.6864  -28.2100 F   0  0  0  0  0  0  0  0  0  0  0  0
   -0.1194  -52.5693  -29.5024 F   0  0  0  0  0  0  0  0  0  0  0  0
 13 14  1  0  0  0
 14 15  1  0  0  0
 15 16  1  0  0  0
 16 17  1  0  0  0
 17 18  1  0  0  0
 18 19  1  0  0  0
 19 20  1  0  0  0
 20 21  1  0  0  0
 20 12  1  0  0  0
 12 10  1  0  0  0
 10 11  2  0  0  0
 10  1  1  0  0  0
  1  2  2  0  0  0
  2  3  1  0  0  0
  3 22  1  0  0  0
 22 23  1  0  0  0
 23 24  1  0  0  0
 23 25  1  0  0  0
  3  4  1  0  0  0
  4  5  2  0  0  0
  5  6  1  0  0  0
  6  7  2  0  0  0
  7  8  1  0  0  0
  8  9  2  0  0  0
 18 14  1  0  0  0
  9  1  1  0  0  0
 21 15  1  0  0  0
  9  4  1  0  0  0
M  END
> <minimizedAffinity>
-7.63383

> <CNNscore>
0.5488054752

> <CNNaffinity>
6.0237660408

> <CNN_VS>
3.3058757782

> <CNNaffinity_variance>
0.1134907454

$$$$
[H]c1c([H])c([H])c2c(c1[H])c(C(=O)OC1([H])C([H])([H])C3([H])N(C([H])([H])[H])C([H])(C([H])([H])C3([H])[H])C1([H])[H])c([H])n2C([H])([H])C([H])(F)F


 25 28  0  0  0  0  0  0  0  0999 V2000
   -0.4780  -52.5160  -18.6628 C   0  0  0  0  0  0  0  0  0  0  0  0
   -1.4923  -52.9153  -17.8273 C   0  0  0  0  0  0  0  0  0  0  0  0
   -1.5609  -52.0302  -16.8182 N   0  0  0  0  0  0  0  0  0  0  0  0
   -0.6368  -51.0769  -16.9642 C   0  0  0  0  0  0  0  0  0  0  0  0
   -0.2635  -49.9557  -16.2546 C   0  0  0  0  0  0  0  0  0  0  0  0
    0.7736  -49.1499  -16.6940 C   0  0  0  0  0  0  0  0  0  0  0  0
    1.4526  -49.4560  -17.8522 C   0  0  0  0  0  0  0  0  0  0  0  0
    1.0894  -50.5845  -18.5820 C   0  0  0  0  0  0  0  0  0  0  0  0
    0.0582  -51.3672  -18.1256 C   0  0  0  0  0  0  0  0  0  0  0  0
   -0.0984  -53.2363  -19.8839 C   0  0  0  0  0  0  0  0  0  0  0  0
    0.7239  -54.1941  -19.8487 O   0  0  0  0  0  0  0  0  0  0  0  0
   -0.6021  -52.9258  -21.1333 O   0  0  0  0  0  0  0  0  0  0  0  0
   -0.7703  -51.8260  -26.2347 C   0  0  0  0  0  0  0  0  0  0  0  0
   -0.6705  -52.2015  -24.8600 N   0  0  0  0  0  0  0  0  0  0  0  0
    0.6032  -51.7271  -24.3128 C   0  0  0  0  0  0  0  0  0  0  0  0
    1.6702  -52.5957  -24.9433 C   0  0  0  0  0  0  0  0  0  0  0  0
    0.9220  -53.8706  -25.2451 C   0  0  0  0  0  0  0  0  0  0  0  0
   -0.4695  -53.6440  -24.7308 C   0  0  0  0  0  0  0  0  0  0  0  0
   -0.6478  -53.9963  -23.2981 C   0  0  0  0  0  0  0  0  0  0  0  0
    0.1435  -53.2016  -22.3313 C   0  0  0  0  0  0  0  0  0  0  0  0
    0.6758  -51.9054  -22.8196 C   0  0  0  0  0  0  0  0  0  0  0  0
   -2.5019  -52.0907  -15.7194 C   0  0  0  0  0  0  0  0  0  0  0  0
   -3.8520  -52.4880  -16.2960 C   0  0  0  0  0  0  0  0  0  0  0  0
   -4.6972  -51.4081  -16.2634 F   0  0  0  0  0  0  0  0  0  0  0  0
   -4.4067  -53.4763  -15.5173 F   0  0  0  0  0  0  0  0  0  0  0  0
 13 14  1  0  0  0
 14 15  1  0  0  0
 15 16  1  0  0  0
 16 17  1  0  0  0
 17 18  1  0  0  0
 18 19  1  0  0  0
 19 20  1  0  0  0
 20 21  1  0  0  0
 20 12  1  0  0  0
 12 10  1  0  0  0
 10 11  2  0  0  0
 10  1  1  0  0  0
  1  2  2  0  0  0
  2  3  1  0  0  0
  3 22  1  0  0  0
 22 23  1  0  0  0
 23 24  1  0  0  0
 23 25  1  0  0  0
  3  4  1  0  0  0
  4  5  2  0  0  0
  5  6  1  0  0  0
  6  7  2  0  0  0
  7  8  1  0  0  0
  8  9  2  0  0  0
 18 14  1  0  0  0
  9  1  1  0  0  0
 21 15  1  0  0  0
  9  4  1  0  0  0
M  END
> <minimizedAffinity>
-7.20530

> <CNNscore>
0.5360919237

> <CNNaffinity>
5.9716711044

> <CNN_VS>
3.2013647556

> <CNNaffinity_variance>
0.0915312320

$$$$
[H]c1c([H])c([H])c2c(c1[H])c(C(=O)OC1([H])C([H])([H])C3([H])N(C([H])([H])[H])C([H])(C([H])([H])C3([H])[H])C1([H])[H])c([H])n2C([H])([H])C([H])(F)F


 25 28  0  0  0  0  0  0  0  0999 V2000
    0.1770  -53.2718  -24.1616 C   0  0  0  0  0  0  0  0  0  0  0  0
   -0.5626  -53.6041  -25.2702 C   0  0  0  0  0  0  0  0  0  0  0  0
    0.2432  -53.5066  -26.3414 N   0  0  0  0  0  0  0  0  0  0  0  0
    1.4702  -53.1265  -25.9750 C   0  0  0  0  0  0  0  0  0  0  0  0
    2.6564  -52.8761  -26.6308 C   0  0  0  0  0  0  0  0  0  0  0  0
    3.7855  -52.4842  -25.9312 C   0  0  0  0  0  0  0  0  0  0  0  0
    3.7426  -52.3372  -24.5627 C   0  0  0  0  0  0  0  0  0  0  0  0
    2.5531  -52.5858  -23.8835 C   0  0  0  0  0  0  0  0  0  0  0  0
    1.4478  -52.9729  -24.5995 C   0  0  0  0  0  0  0  0  0  0  0  0
   -0.3623  -53.2619  -22.7966 C   0  0  0  0  0  0  0  0  0  0  0  0
   -0.7877  -54.3201  -22.2544 O   0  0  0  0  0  0  0  0  0  0  0  0
   -0.4420  -52.1192  -22.0227 O   0  0  0  0  0  0  0  0  0  0  0  0
    0.8772  -49.7542  -17.5586 C   0  0  0  0  0  0  0  0  0  0  0  0
    0.5931  -50.3632  -18.8191 N   0  0  0  0  0  0  0  0  0  0  0  0
    1.3984  -51.5780  -18.9700 C   0  0  0  0  0  0  0  0  0  0  0  0
    2.8213  -51.1048  -19.1748 C   0  0  0  0  0  0  0  0  0  0  0  0
    2.6300  -49.7377  -19.7836 C   0  0  0  0  0  0  0  0  0  0  0  0
    1.1448  -49.5671  -19.9145 C   0  0  0  0  0  0  0  0  0  0  0  0
    0.5860  -50.1007  -21.1840 C   0  0  0  0  0  0  0  0  0  0  0  0
    0.7219  -51.5608  -21.3895 C   0  0  0  0  0  0  0  0  0  0  0  0
    0.9915  -52.3766  -20.1797 C   0  0  0  0  0  0  0  0  0  0  0  0
   -0.1520  -53.7741  -27.7084 C   0  0  0  0  0  0  0  0  0  0  0  0
   -0.7334  -52.4882  -28.2755 C   0  0  0  0  0  0  0  0  0  0  0  0
   -2.0990  -52.5102  -28.1477 F   0  0  0  0  0  0  0  0  0  0  0  0
   -0.4405  -52.4085  -29.6166 F   0  0  0  0  0  0  0  0  0  0  0  0
 13 14  1  0  0  0
 14 15  1  0  0  0
 15 16  1  0  0  0
 16 17  1  0  0  0
 17 18  1  0  0  0
 18 19  1  0  0  0
 19 20  1  0  0  0
 20 21  1  0  0  0
 20 12  1  0  0  0
 12 10  1  0  0  0
 10 11  2  0  0  0
 10  1  1  0  0  0
  1  2  2  0  0  0
  2  3  1  0  0  0
  3 22  1  0  0  0
 22 23  1  0  0  0
 23 24  1  0  0  0
 23 25  1  0  0  0
  3  4  1  0  0  0
  4  5  2  0  0  0
  5  6  1  0  0  0
  6  7  2  0  0  0
  7  8  1  0  0  0
  8  9  2  0  0  0
 18 14  1  0  0  0
  9  1  1  0  0  0
 21 15  1  0  0  0
  9  4  1  0  0  0
M  END
> <minimizedAffinity>
-7.49424

> <CNNscore>
0.5222638249

> <CNNaffinity>
5.9736948013

> <CNN_VS>
3.1198446751

> <CNNaffinity_variance>
0.1633519232

$$$$
[H]c1c([H])c([H])c2c(c1[H])c(C(=O)OC1([H])C([H])([H])C3([H])N(C([H])([H])[H])C([H])(C([H])([H])C3([H])[H])C1([H])[H])c([H])n2C([H])([H])C([H])(F)F


 25 28  0  0  0  0  0  0  0  0999 V2000
    0.3593  -52.8282  -22.1778 C   0  0  0  0  0  0  0  0  0  0  0  0
   -0.4039  -53.2910  -23.2218 C   0  0  0  0  0  0  0  0  0  0  0  0
    0.2577  -53.0218  -24.3604 N   0  0  0  0  0  0  0  0  0  0  0  0
    1.4139  -52.4061  -24.0991 C   0  0  0  0  0  0  0  0  0  0  0  0
    2.4565  -51.9150  -24.8552 C   0  0  0  0  0  0  0  0  0  0  0  0
    3.5476  -51.3110  -24.2530 C   0  0  0  0  0  0  0  0  0  0  0  0
    3.6101  -51.1901  -22.8826 C   0  0  0  0  0  0  0  0  0  0  0  0
    2.5662  -51.6804  -22.1028 C   0  0  0  0  0  0  0  0  0  0  0  0
    1.4958  -52.2748  -22.7235 C   0  0  0  0  0  0  0  0  0  0  0  0
   -0.0353  -52.9415  -20.7687 C   0  0  0  0  0  0  0  0  0  0  0  0
   -0.1961  -54.0694  -20.2239 O   0  0  0  0  0  0  0  0  0  0  0  0
   -0.2545  -51.8466  -19.9538 O   0  0  0  0  0  0  0  0  0  0  0  0
   -0.0917  -48.5943  -15.8724 C   0  0  0  0  0  0  0  0  0  0  0  0
   -0.0455  -49.5040  -16.9728 N   0  0  0  0  0  0  0  0  0  0  0  0
   -0.1966  -50.8763  -16.4819 C   0  0  0  0  0  0  0  0  0  0  0  0
    1.0961  -51.2008  -15.7649 C   0  0  0  0  0  0  0  0  0  0  0  0
    2.0915  -50.3021  -16.4562 C   0  0  0  0  0  0  0  0  0  0  0  0
    1.3085  -49.5877  -17.5185 C   0  0  0  0  0  0  0  0  0  0  0  0
    1.2292  -50.3239  -18.8071 C   0  0  0  0  0  0  0  0  0  0  0  0
    0.5276  -51.6273  -18.7674 C   0  0  0  0  0  0  0  0  0  0  0  0
   -0.3680  -51.8613  -17.6076 C   0  0  0  0  0  0  0  0  0  0  0  0
   -0.2078  -53.3490  -25.6918 C   0  0  0  0  0  0  0  0  0  0  0  0
   -1.2337  -52.2983  -26.0878 C   0  0  0  0  0  0  0  0  0  0  0  0
   -1.6607  -52.5383  -27.3691 F   0  0  0  0  0  0  0  0  0  0  0  0
   -0.6438  -51.0563  -26.0698 F   0  0  0  0  0  0  0  0  0  0  0  0
 13 14  1  0  0  0
 14 15  1  0  0  0
 15 16  1  0  0  0
 16 17  1  0  0  0
 17 18  1  0  0  0
 18 19  1  0  0  0
 19 20  1  0  0  0
 20 21  1  0  0  0
 20 12  1  0  0  0
 12 10  1  0  0  0
 10 11  2  0  0  0
 10  1  1  0  0  0
  1  2  2  0  0  0
  2  3  1  0  0  0
  3 22  1  0  0  0
 22 23  1  0  0  0
 23 24  1  0  0  0
 23 25  1  0  0  0
  3  4  1  0  0  0
  4  5  2  0  0  0
  5  6  1  0  0  0
  6  7  2  0  0  0
  7  8  1  0  0  0
  8  9  2  0  0  0
 18 14  1  0  0  0
  9  1  1  0  0  0
 21 15  1  0  0  0
  9  4  1  0  0  0
M  END
> <minimizedAffinity>
-6.59900

> <CNNscore>
0.4366523623

> <CNNaffinity>
5.7781243324

> <CNN_VS>
2.5230317116

> <CNNaffinity_variance>
0.3534030914

$$$$
[H]c1c([H])c([H])c2c(c1[H])c(C(=O)OC1([H])C([H])([H])C3([H])N(C([H])([H])[H])C([H])(C([H])([H])C3([H])[H])C1([H])[H])c([H])n2C([H])([H])C([H])(F)F


 25 28  0  0  0  0  0  0  0  0999 V2000
    0.7067  -51.3687  -22.7456 C   0  0  0  0  0  0  0  0  0  0  0  0
    1.0040  -51.3191  -24.0856 C   0  0  0  0  0  0  0  0  0  0  0  0
    0.5160  -52.4358  -24.6525 N   0  0  0  0  0  0  0  0  0  0  0  0
   -0.0833  -53.2045  -23.7392 C   0  0  0  0  0  0  0  0  0  0  0  0
   -0.7353  -54.4188  -23.7545 C   0  0  0  0  0  0  0  0  0  0  0  0
   -1.2607  -54.9574  -22.5918 C   0  0  0  0  0  0  0  0  0  0  0  0
   -1.1403  -54.2863  -21.3953 C   0  0  0  0  0  0  0  0  0  0  0  0
   -0.4849  -53.0586  -21.3608 C   0  0  0  0  0  0  0  0  0  0  0  0
    0.0272  -52.5460  -22.5267 C   0  0  0  0  0  0  0  0  0  0  0  0
    1.0800  -50.3191  -21.7900 C   0  0  0  0  0  0  0  0  0  0  0  0
    0.6066  -50.3028  -20.6194 O   0  0  0  0  0  0  0  0  0  0  0  0
    1.9572  -49.2952  -22.0951 O   0  0  0  0  0  0  0  0  0  0  0  0
    5.6759  -52.3292  -24.1512 C   0  0  0  0  0  0  0  0  0  0  0  0
    4.7169  -51.4817  -23.5167 N   0  0  0  0  0  0  0  0  0  0  0  0
    5.0296  -50.0807  -23.8105 C   0  0  0  0  0  0  0  0  0  0  0  0
    6.2825  -49.7653  -23.0222 C   0  0  0  0  0  0  0  0  0  0  0  0
    6.1997  -50.7349  -21.8693 C   0  0  0  0  0  0  0  0  0  0  0  0
    4.9099  -51.4761  -22.0674 C   0  0  0  0  0  0  0  0  0  0  0  0
    3.7304  -50.8072  -21.4592 C   0  0  0  0  0  0  0  0  0  0  0  0
    3.3809  -49.4790  -22.0128 C   0  0  0  0  0  0  0  0  0  0  0  0
    3.9389  -49.1515  -23.3482 C   0  0  0  0  0  0  0  0  0  0  0  0
    0.6191  -52.7705  -26.0574 C   0  0  0  0  0  0  0  0  0  0  0  0
   -0.5607  -52.1253  -26.7681 C   0  0  0  0  0  0  0  0  0  0  0  0
   -1.4376  -51.6289  -25.8374 F   0  0  0  0  0  0  0  0  0  0  0  0
   -1.2264  -53.0782  -27.5028 F   0  0  0  0  0  0  0  0  0  0  0  0
 13 14  1  0  0  0
 14 15  1  0  0  0
 15 16  1  0  0  0
 16 17  1  0  0  0
 17 18  1  0  0  0
 18 19  1  0  0  0
 19 20  1  0  0  0
 20 21  1  0  0  0
 20 12  1  0  0  0
 12 10  1  0  0  0
 10 11  2  0  0  0
 10  1  1  0  0  0
  1  2  2  0  0  0
  2  3  1  0  0  0
  3 22  1  0  0  0
 22 23  1  0  0  0
 23 24  1  0  0  0
 23 25  1  0  0  0
  3  4  1  0  0  0
  4  5  2  0  0  0
  5  6  1  0  0  0
  6  7  2  0  0  0
  7  8  1  0  0  0
  8  9  2  0  0  0
 18 14  1  0  0  0
  9  1  1  0  0  0
 21 15  1  0  0  0
  9  4  1  0  0  0
M  END
> <minimizedAffinity>
-7.16712

> <CNNscore>
0.3978832960

> <CNNaffinity>
5.8104233742

> <CNN_VS>
2.3118703365

> <CNNaffinity_variance>
0.1278326362

$$$$
[H]c1c([H])c([H])c2c(c1[H])c(C(=O)OC1([H])C([H])([H])C3([H])N(C([H])([H])[H])C([H])(C([H])([H])C3([H])[H])C1([H])[H])c([H])n2C([H])([H])C([H])(F)F


 25 28  0  0  0  0  0  0  0  0999 V2000
    0.2077  -52.9047  -24.0139 C   0  0  0  0  0  0  0  0  0  0  0  0
   -0.9396  -52.4988  -24.6506 C   0  0  0  0  0  0  0  0  0  0  0  0
   -0.6046  -52.1344  -25.9002 N   0  0  0  0  0  0  0  0  0  0  0  0
    0.7073  -52.2867  -26.0996 C   0  0  0  0  0  0  0  0  0  0  0  0
    1.5702  -52.0764  -27.1537 C   0  0  0  0  0  0  0  0  0  0  0  0
    2.9231  -52.3447  -27.0283 C   0  0  0  0  0  0  0  0  0  0  0  0
    3.4317  -52.8283  -25.8435 C   0  0  0  0  0  0  0  0  0  0  0  0
    2.5751  -53.0469  -24.7681 C   0  0  0  0  0  0  0  0  0  0  0  0
    1.2383  -52.7731  -24.9174 C   0  0  0  0  0  0  0  0  0  0  0  0
    0.2437  -53.3779  -22.6251 C   0  0  0  0  0  0  0  0  0  0  0  0
   -0.3007  -54.4676  -22.2917 O   0  0  0  0  0  0  0  0  0  0  0  0
    0.8622  -52.6810  -21.6039 O   0  0  0  0  0  0  0  0  0  0  0  0
    2.7994  -48.7797  -18.7248 C   0  0  0  0  0  0  0  0  0  0  0  0
    2.2311  -49.7821  -19.5691 N   0  0  0  0  0  0  0  0  0  0  0  0
    3.0832  -49.9737  -20.7456 C   0  0  0  0  0  0  0  0  0  0  0  0
    2.9053  -48.7295  -21.5888 C   0  0  0  0  0  0  0  0  0  0  0  0
    1.5241  -48.2627  -21.2007 C   0  0  0  0  0  0  0  0  0  0  0  0
    1.0217  -49.2837  -20.2224 C   0  0  0  0  0  0  0  0  0  0  0  0
    0.3426  -50.4435  -20.8565 C   0  0  0  0  0  0  0  0  0  0  0  0
    1.1840  -51.2860  -21.7369 C   0  0  0  0  0  0  0  0  0  0  0  0
    2.6526  -51.1608  -21.5654 C   0  0  0  0  0  0  0  0  0  0  0  0
   -1.5288  -51.6434  -26.9009 C   0  0  0  0  0  0  0  0  0  0  0  0
   -1.6966  -52.7380  -27.9434 C   0  0  0  0  0  0  0  0  0  0  0  0
   -1.0141  -52.3917  -29.0818 F   0  0  0  0  0  0  0  0  0  0  0  0
   -3.0267  -52.8534  -28.2726 F   0  0  0  0  0  0  0  0  0  0  0  0
 13 14  1  0  0  0
 14 15  1  0  0  0
 15 16  1  0  0  0
 16 17  1  0  0  0
 17 18  1  0  0  0
 18 19  1  0  0  0
 19 20  1  0  0  0
 20 21  1  0  0  0
 20 12  1  0  0  0
 12 10  1  0  0  0
 10 11  2  0  0  0
 10  1  1  0  0  0
  1  2  2  0  0  0
  2  3  1  0  0  0
  3 22  1  0  0  0
 22 23  1  0  0  0
 23 24  1  0  0  0
 23 25  1  0  0  0
  3  4  1  0  0  0
  4  5  2  0  0  0
  5  6  1  0  0  0
  6  7  2  0  0  0
  7  8  1  0  0  0
  8  9  2  0  0  0
 18 14  1  0  0  0
  9  1  1  0  0  0
 21 15  1  0  0  0
  9  4  1  0  0  0
M  END
> <minimizedAffinity>
-6.85906

> <CNNscore>
0.3709896803

> <CNNaffinity>
5.7856969833

> <CNN_VS>
2.1464338303

> <CNNaffinity_variance>
0.1929273009

$$$$
[H]c1c([H])c([H])c2c(c1[H])c(C(=O)OC1([H])C([H])([H])C3([H])N(C([H])([H])[H])C([H])(C([H])([H])C3([H])[H])C1([H])[H])c([H])n2C([H])([H])C([H])(F)F


 25 28  0  0  0  0  0  0  0  0999 V2000
   -0.3616  -52.3278  -18.4976 C   0  0  0  0  0  0  0  0  0  0  0  0
   -1.1880  -52.5289  -17.4192 C   0  0  0  0  0  0  0  0  0  0  0  0
   -0.9976  -51.5092  -16.5645 N   0  0  0  0  0  0  0  0  0  0  0  0
   -0.0856  -50.6582  -17.0423 C   0  0  0  0  0  0  0  0  0  0  0  0
    0.4815  -49.4807  -16.6045 C   0  0  0  0  0  0  0  0  0  0  0  0
    1.4338  -48.8247  -17.3668 C   0  0  0  0  0  0  0  0  0  0  0  0
    1.8321  -49.3398  -18.5802 C   0  0  0  0  0  0  0  0  0  0  0  0
    1.2702  -50.5282  -19.0384 C   0  0  0  0  0  0  0  0  0  0  0  0
    0.3284  -51.1593  -18.2644 C   0  0  0  0  0  0  0  0  0  0  0  0
   -0.2872  -53.2379  -19.6466 C   0  0  0  0  0  0  0  0  0  0  0  0
    0.7406  -53.9406  -19.8581 O   0  0  0  0  0  0  0  0  0  0  0  0
   -1.3137  -53.3888  -20.5602 O   0  0  0  0  0  0  0  0  0  0  0  0
    2.4402  -52.7662  -24.1355 C   0  0  0  0  0  0  0  0  0  0  0  0
    1.3605  -52.8759  -23.2067 N   0  0  0  0  0  0  0  0  0  0  0  0
    0.3598  -53.8121  -23.7255 C   0  0  0  0  0  0  0  0  0  0  0  0
   -0.3065  -53.1010  -24.8835 C   0  0  0  0  0  0  0  0  0  0  0  0
   -0.1329  -51.6467  -24.5216 C   0  0  0  0  0  0  0  0  0  0  0  0
    0.5636  -51.6501  -23.1924 C   0  0  0  0  0  0  0  0  0  0  0  0
   -0.3579  -51.7263  -22.0289 C   0  0  0  0  0  0  0  0  0  0  0  0
   -1.1709  -52.9595  -21.9250 C   0  0  0  0  0  0  0  0  0  0  0  0
   -0.6966  -54.1317  -22.7015 C   0  0  0  0  0  0  0  0  0  0  0  0
   -1.6806  -51.3446  -15.2985 C   0  0  0  0  0  0  0  0  0  0  0  0
   -0.7401  -51.8295  -14.2060 C   0  0  0  0  0  0  0  0  0  0  0  0
   -0.1858  -50.7486  -13.5689 F   0  0  0  0  0  0  0  0  0  0  0  0
    0.2841  -52.5504  -14.7736 F   0  0  0  0  0  0  0  0  0  0  0  0
 13 14  1  0  0  0
 14 15  1  0  0  0
 15 16  1  0  0  0
 16 17  1  0  0  0
 17 18  1  0  0  0
 18 19  1  0  0  0
 19 20  1  0  0  0
 20 21  1  0  0  0
 20 12  1  0  0  0
 12 10  1  0  0  0
 10 11  2  0  0  0
 10  1  1  0  0  0
  1  2  2  0  0  0
  2  3  1  0  0  0
  3 22  1  0  0  0
 22 23  1  0  0  0
 23 24  1  0  0  0
 23 25  1  0  0  0
  3  4  1  0  0  0
  4  5  2  0  0  0
  5  6  1  0  0  0
  6  7  2  0  0  0
  7  8  1  0  0  0
  8  9  2  0  0  0
 18 14  1  0  0  0
  9  1  1  0  0  0
 21 15  1  0  0  0
  9  4  1  0  0  0
M  END
> <minimizedAffinity>
-6.24487

> <CNNscore>
0.3594834208

> <CNNaffinity>
5.8257451057

> <CNN_VS>
2.0942587852

> <CNNaffinity_variance>
0.0906585008

$$$$
[H]c1c([H])c(Cl)c(-c2c([H])c3c([H])nc(N([H])c4c([H])c(OC([H])([H])[H])c(OC([H])([H])[H])c(OC([H])([H])[H])c4[H])nc3n(C([H])([H])[H])c2=O)c(Cl)c1[H]


 34 37  0  0  0  0  0  0  0  0999 V2000
   -0.3868  -53.6119  -20.4493 C   0  0  0  0  0  0  0  0  0  0  0  0
   -1.0153  -54.6032  -21.0731 N   0  0  0  0  0  0  0  0  0  0  0  0
   -1.1437  -54.7338  -22.4029 C   0  0  0  0  0  0  0  0  0  0  0  0
   -0.5812  -53.7657  -23.2068 C   0  0  0  0  0  0  0  0  0  0  0  0
   -0.6638  -53.8191  -24.5797 C   0  0  0  0  0  0  0  0  0  0  0  0
   -0.0769  -52.8144  -25.3246 C   0  0  0  0  0  0  0  0  0  0  0  0
    0.5790  -51.7783  -24.6989 C   0  0  0  0  0  0  0  0  0  0  0  0
    1.1114  -50.8652  -25.4072 O   0  0  0  0  0  0  0  0  0  0  0  0
    0.6517  -51.7380  -23.3800 N   0  0  0  0  0  0  0  0  0  0  0  0
    1.3418  -50.6478  -22.7265 C   0  0  0  0  0  0  0  0  0  0  0  0
    0.0832  -52.7143  -22.6087 C   0  0  0  0  0  0  0  0  0  0  0  0
    0.1635  -52.6623  -21.2748 N   0  0  0  0  0  0  0  0  0  0  0  0
   -0.1295  -52.8143  -26.7703 C   0  0  0  0  0  0  0  0  0  0  0  0
    0.9802  -53.1929  -27.4892 C   0  0  0  0  0  0  0  0  0  0  0  0
    2.4599  -53.6768  -26.7107 Cl  0  0  0  0  0  0  0  0  0  0  0  0
    0.9566  -53.2020  -28.8919 C   0  0  0  0  0  0  0  0  0  0  0  0
   -0.1961  -52.8258  -29.5543 C   0  0  0  0  0  0  0  0  0  0  0  0
   -1.3113  -52.4456  -28.8441 C   0  0  0  0  0  0  0  0  0  0  0  0
   -1.2566  -52.4470  -27.4582 C   0  0  0  0  0  0  0  0  0  0  0  0
   -2.6828  -51.9609  -26.5718 Cl  0  0  0  0  0  0  0  0  0  0  0  0
   -0.2398  -53.4548  -19.0527 N   0  0  0  0  0  0  0  0  0  0  0  0
   -0.2009  -54.3508  -18.4534 H   0  0  0  0  0  0  0  0  0  0  0  0
   -0.9370  -50.9641  -16.4456 C   0  0  0  0  0  0  0  0  0  0  0  0
   -0.9608  -52.1179  -17.1904 C   0  0  0  0  0  0  0  0  0  0  0  0
   -0.1438  -52.2594  -18.3300 C   0  0  0  0  0  0  0  0  0  0  0  0
    0.6890  -51.2519  -18.7191 C   0  0  0  0  0  0  0  0  0  0  0  0
    0.7168  -50.0681  -17.9585 C   0  0  0  0  0  0  0  0  0  0  0  0
   -0.0909  -49.9476  -16.8444 C   0  0  0  0  0  0  0  0  0  0  0  0
   -1.4516  -51.3785  -14.0789 C   0  0  0  0  0  0  0  0  0  0  0  0
   -1.7166  -50.7642  -15.3144 O   0  0  0  0  0  0  0  0  0  0  0  0
    1.5500  -49.0213  -18.3205 O   0  0  0  0  0  0  0  0  0  0  0  0
    1.7084  -48.7351  -19.6945 C   0  0  0  0  0  0  0  0  0  0  0  0
   -0.0450  -48.7680  -16.1099 O   0  0  0  0  0  0  0  0  0  0  0  0
    0.9484  -48.6442  -15.0827 C   0  0  0  0  0  0  0  0  0  0  0  0
 29 30  1  0  0  0
 30 23  1  0  0  0
 23 24  2  0  0  0
 24 25  1  0  0  0
 25 21  1  0  0  0
 21  1  1  0  0  0
  1  2  2  0  0  0
  2  3  1  0  0  0
  3  4  2  0  0  0
  4  5  1  0  0  0
  5  6  2  0  0  0
  6 13  1  0  0  0
 13 14  2  0  0  0
 14 15  1  0  0  0
 14 16  1  0  0  0
 16 17  2  0  0  0
 17 18  1  0  0  0
 18 19  2  0  0  0
 19 20  1  0  0  0
  6  7  1  0  0  0
  7  8  2  0  0  0
  7  9  1  0  0  0
  9 10  1  0  0  0
  9 11  1  0  0  0
 11 12  2  0  0  0
 25 26  2  0  0  0
 26 27  1  0  0  0
 27 31  1  0  0  0
 31 32  1  0  0  0
 27 28  2  0  0  0
 28 33  1  0  0  0
 33 34  1  0  0  0
 28 23  1  0  0  0
 12  1  1  0  0  0
 11  4  1  0  0  0
 19 13  1  0  0  0
 21 22  1  0  0  0
M  END
> <minimizedAffinity>
-9.05349

> <CNNscore>
0.8319379091

> <CNNaffinity>
7.6039571762

> <CNN_VS>
6.3260202408

> <CNNaffinity_variance>
0.2639064491

$$$$
[H]c1c([H])c(Cl)c(-c2c([H])c3c([H])nc(N([H])c4c([H])c(OC([H])([H])[H])c(OC([H])([H])[H])c(OC([H])([H])[H])c4[H])nc3n(C([H])([H])[H])c2=O)c(Cl)c1[H]


 34 37  0  0  0  0  0  0  0  0999 V2000
   -0.3527  -53.6087  -20.4339 C   0  0  0  0  0  0  0  0  0  0  0  0
   -0.9754  -54.6037  -21.0576 N   0  0  0  0  0  0  0  0  0  0  0  0
   -1.1040  -54.7346  -22.3874 C   0  0  0  0  0  0  0  0  0  0  0  0
   -0.5485  -53.7626  -23.1913 C   0  0  0  0  0  0  0  0  0  0  0  0
   -0.6320  -53.8159  -24.5642 C   0  0  0  0  0  0  0  0  0  0  0  0
   -0.0521  -52.8071  -25.3091 C   0  0  0  0  0  0  0  0  0  0  0  0
    0.5977  -51.7671  -24.6835 C   0  0  0  0  0  0  0  0  0  0  0  0
    1.1237  -50.8503  -25.3919 O   0  0  0  0  0  0  0  0  0  0  0  0
    0.6713  -51.7269  -23.3647 N   0  0  0  0  0  0  0  0  0  0  0  0
    1.3549  -50.6326  -22.7113 C   0  0  0  0  0  0  0  0  0  0  0  0
    0.1097  -52.7071  -22.5934 C   0  0  0  0  0  0  0  0  0  0  0  0
    0.1908  -52.6552  -21.2595 N   0  0  0  0  0  0  0  0  0  0  0  0
   -0.1059  -52.8067  -26.7548 C   0  0  0  0  0  0  0  0  0  0  0  0
   -1.2657  -52.4284  -27.3899 C   0  0  0  0  0  0  0  0  0  0  0  0
   -2.6843  -51.9455  -26.5045 Cl  0  0  0  0  0  0  0  0  0  0  0  0
   -1.3453  -52.4188  -28.7906 C   0  0  0  0  0  0  0  0  0  0  0  0
   -0.2443  -52.7943  -29.5361 C   0  0  0  0  0  0  0  0  0  0  0  0
    0.9202  -53.1743  -28.9100 C   0  0  0  0  0  0  0  0  0  0  0  0
    0.9676  -53.1733  -27.5238 C   0  0  0  0  0  0  0  0  0  0  0  0
    2.4555  -53.6590  -26.7450 Cl  0  0  0  0  0  0  0  0  0  0  0  0
   -0.2055  -53.4512  -19.0374 N   0  0  0  0  0  0  0  0  0  0  0  0
   -0.1375  -54.3475  -18.4409 H   0  0  0  0  0  0  0  0  0  0  0  0
   -0.9887  -50.9789  -16.4373 C   0  0  0  0  0  0  0  0  0  0  0  0
   -0.9796  -52.1315  -17.1841 C   0  0  0  0  0  0  0  0  0  0  0  0
   -0.1429  -52.2556  -18.3115 C   0  0  0  0  0  0  0  0  0  0  0  0
    0.6767  -51.2320  -18.6863 C   0  0  0  0  0  0  0  0  0  0  0  0
    0.6707  -50.0493  -17.9235 C   0  0  0  0  0  0  0  0  0  0  0  0
   -0.1559  -49.9460  -16.8216 C   0  0  0  0  0  0  0  0  0  0  0  0
   -3.0610  -51.3759  -15.1779 C   0  0  0  0  0  0  0  0  0  0  0  0
   -1.7890  -50.7957  -15.3178 O   0  0  0  0  0  0  0  0  0  0  0  0
    1.4896  -48.9864  -18.2712 O   0  0  0  0  0  0  0  0  0  0  0  0
    1.8213  -48.8134  -19.6331 C   0  0  0  0  0  0  0  0  0  0  0  0
   -0.1433  -48.7671  -16.0847 O   0  0  0  0  0  0  0  0  0  0  0  0
    0.7934  -48.6497  -15.0047 C   0  0  0  0  0  0  0  0  0  0  0  0
 29 30  1  0  0  0
 30 23  1  0  0  0
 23 24  2  0  0  0
 24 25  1  0  0  0
 25 21  1  0  0  0
 21  1  1  0  0  0
  1  2  2  0  0  0
  2  3  1  0  0  0
  3  4  2  0  0  0
  4  5  1  0  0  0
  5  6  2  0  0  0
  6 13  1  0  0  0
 13 14  2  0  0  0
 14 15  1  0  0  0
 14 16  1  0  0  0
 16 17  2  0  0  0
 17 18  1  0  0  0
 18 19  2  0  0  0
 19 20  1  0  0  0
  6  7  1  0  0  0
  7  8  2  0  0  0
  7  9  1  0  0  0
  9 10  1  0  0  0
  9 11  1  0  0  0
 11 12  2  0  0  0
 25 26  2  0  0  0
 26 27  1  0  0  0
 27 31  1  0  0  0
 31 32  1  0  0  0
 27 28  2  0  0  0
 28 33  1  0  0  0
 33 34  1  0  0  0
 28 23  1  0  0  0
 12  1  1  0  0  0
 11  4  1  0  0  0
 19 13  1  0  0  0
 21 22  1  0  0  0
M  END
> <minimizedAffinity>
-9.06148

> <CNNscore>
0.8240278363

> <CNNaffinity>
7.6146059036

> <CNN_VS>
6.2746472359

> <CNNaffinity_variance>
0.2907739282

$$$$
[H]c1c([H])c(Cl)c(-c2c([H])c3c([H])nc(N([H])c4c([H])c(OC([H])([H])[H])c(OC([H])([H])[H])c(OC([H])([H])[H])c4[H])nc3n(C([H])([H])[H])c2=O)c(Cl)c1[H]


 34 37  0  0  0  0  0  0  0  0999 V2000
   -0.3503  -53.6014  -20.4002 C   0  0  0  0  0  0  0  0  0  0  0  0
   -0.9925  -54.5852  -21.0220 N   0  0  0  0  0  0  0  0  0  0  0  0
   -1.1324  -54.7107  -22.3512 C   0  0  0  0  0  0  0  0  0  0  0  0
   -0.5678  -53.7451  -23.1566 C   0  0  0  0  0  0  0  0  0  0  0  0
   -0.6617  -53.7936  -24.5290 C   0  0  0  0  0  0  0  0  0  0  0  0
   -0.0718  -52.7918  -25.2755 C   0  0  0  0  0  0  0  0  0  0  0  0
    0.5982  -51.7635  -24.6518 C   0  0  0  0  0  0  0  0  0  0  0  0
    1.1330  -50.8529  -25.3616 O   0  0  0  0  0  0  0  0  0  0  0  0
    0.6816  -51.7278  -23.3335 N   0  0  0  0  0  0  0  0  0  0  0  0
    1.3864  -50.6457  -22.6822 C   0  0  0  0  0  0  0  0  0  0  0  0
    0.1105  -52.7014  -22.5606 C   0  0  0  0  0  0  0  0  0  0  0  0
    0.2018  -52.6541  -21.2273 N   0  0  0  0  0  0  0  0  0  0  0  0
   -0.1358  -52.7869  -26.7207 C   0  0  0  0  0  0  0  0  0  0  0  0
    0.9648  -53.1731  -27.4494 C   0  0  0  0  0  0  0  0  0  0  0  0
    2.4463  -53.6724  -26.6841 Cl  0  0  0  0  0  0  0  0  0  0  0  0
    0.9300  -53.1777  -28.8519 C   0  0  0  0  0  0  0  0  0  0  0  0
   -0.2245  -52.7893  -29.5040 C   0  0  0  0  0  0  0  0  0  0  0  0
   -1.3306  -52.4013  -28.7839 C   0  0  0  0  0  0  0  0  0  0  0  0
   -1.2649  -52.4075  -27.3985 C   0  0  0  0  0  0  0  0  0  0  0  0
   -2.6798  -51.9114  -26.4995 Cl  0  0  0  0  0  0  0  0  0  0  0  0
   -0.1909  -53.4498  -19.0044 N   0  0  0  0  0  0  0  0  0  0  0  0
   -0.0424  -54.3451  -18.4213 H   0  0  0  0  0  0  0  0  0  0  0  0
    0.7153  -50.0441  -17.9717 C   0  0  0  0  0  0  0  0  0  0  0  0
    0.6620  -51.2290  -18.6644 C   0  0  0  0  0  0  0  0  0  0  0  0
   -0.2091  -52.2618  -18.2636 C   0  0  0  0  0  0  0  0  0  0  0  0
   -1.0189  -52.1074  -17.1772 C   0  0  0  0  0  0  0  0  0  0  0  0
   -0.9678  -50.8946  -16.4649 C   0  0  0  0  0  0  0  0  0  0  0  0
   -0.1079  -49.8935  -16.8727 C   0  0  0  0  0  0  0  0  0  0  0  0
    1.8649  -48.6599  -19.6451 C   0  0  0  0  0  0  0  0  0  0  0  0
    1.5509  -48.9903  -18.3160 O   0  0  0  0  0  0  0  0  0  0  0  0
   -1.7753  -50.6983  -15.3556 O   0  0  0  0  0  0  0  0  0  0  0  0
   -3.0606  -51.2839  -15.3500 C   0  0  0  0  0  0  0  0  0  0  0  0
   -0.0761  -48.7049  -16.1520 O   0  0  0  0  0  0  0  0  0  0  0  0
    0.8373  -48.6009  -15.0510 C   0  0  0  0  0  0  0  0  0  0  0  0
 29 30  1  0  0  0
 30 23  1  0  0  0
 23 24  2  0  0  0
 24 25  1  0  0  0
 25 21  1  0  0  0
 21  1  1  0  0  0
  1  2  2  0  0  0
  2  3  1  0  0  0
  3  4  2  0  0  0
  4  5  1  0  0  0
  5  6  2  0  0  0
  6 13  1  0  0  0
 13 14  2  0  0  0
 14 15  1  0  0  0
 14 16  1  0  0  0
 16 17  2  0  0  0
 17 18  1  0  0  0
 18 19  2  0  0  0
 19 20  1  0  0  0
  6  7  1  0  0  0
  7  8  2  0  0  0
  7  9  1  0  0  0
  9 10  1  0  0  0
  9 11  1  0  0  0
 11 12  2  0  0  0
 25 26  2  0  0  0
 26 27  1  0  0  0
 27 31  1  0  0  0
 31 32  1  0  0  0
 27 28  2  0  0  0
 28 33  1  0  0  0
 33 34  1  0  0  0
 28 23  1  0  0  0
 12  1  1  0  0  0
 11  4  1  0  0  0
 19 13  1  0  0  0
 21 22  1  0  0  0
M  END
> <minimizedAffinity>
-9.04085

> <CNNscore>
0.8214406371

> <CNNaffinity>
7.6083235741

> <CNN_VS>
6.2497863770

> <CNNaffinity_variance>
0.2944902778

$$$$
[H]c1c([H])c(Cl)c(-c2c([H])c3c([H])nc(N([H])c4c([H])c(OC([H])([H])[H])c(OC([H])([H])[H])c(OC([H])([H])[H])c4[H])nc3n(C([H])([H])[H])c2=O)c(Cl)c1[H]


 34 37  0  0  0  0  0  0  0  0999 V2000
   -0.4380  -53.6037  -20.4455 C   0  0  0  0  0  0  0  0  0  0  0  0
   -1.0441  -54.6047  -21.0757 N   0  0  0  0  0  0  0  0  0  0  0  0
   -1.1491  -54.7417  -22.4070 C   0  0  0  0  0  0  0  0  0  0  0  0
   -0.5853  -53.7698  -23.2052 C   0  0  0  0  0  0  0  0  0  0  0  0
   -0.6449  -53.8291  -24.5791 C   0  0  0  0  0  0  0  0  0  0  0  0
   -0.0580  -52.8200  -25.3181 C   0  0  0  0  0  0  0  0  0  0  0  0
    0.5749  -51.7738  -24.6857 C   0  0  0  0  0  0  0  0  0  0  0  0
    1.1077  -50.8568  -25.3887 O   0  0  0  0  0  0  0  0  0  0  0  0
    0.6255  -51.7278  -23.3660 N   0  0  0  0  0  0  0  0  0  0  0  0
    1.2916  -50.6269  -22.7055 C   0  0  0  0  0  0  0  0  0  0  0  0
    0.0564  -52.7082  -22.6004 C   0  0  0  0  0  0  0  0  0  0  0  0
    0.1142  -52.6504  -21.2656 N   0  0  0  0  0  0  0  0  0  0  0  0
   -0.0870  -52.8258  -26.7645 C   0  0  0  0  0  0  0  0  0  0  0  0
   -1.2372  -52.4551  -27.4210 C   0  0  0  0  0  0  0  0  0  0  0  0
   -2.6730  -51.9746  -26.5621 Cl  0  0  0  0  0  0  0  0  0  0  0  0
   -1.2928  -52.4515  -28.8229 C   0  0  0  0  0  0  0  0  0  0  0  0
   -0.1776  -52.8253  -29.5478 C   0  0  0  0  0  0  0  0  0  0  0  0
    0.9776  -53.1977  -28.9002 C   0  0  0  0  0  0  0  0  0  0  0  0
    1.0011  -53.1909  -27.5134 C   0  0  0  0  0  0  0  0  0  0  0  0
    2.4774  -53.6670  -26.7071 Cl  0  0  0  0  0  0  0  0  0  0  0  0
   -0.3157  -53.4397  -19.0473 N   0  0  0  0  0  0  0  0  0  0  0  0
   -0.3330  -54.3306  -18.4393 H   0  0  0  0  0  0  0  0  0  0  0  0
    0.9984  -50.1404  -18.1122 C   0  0  0  0  0  0  0  0  0  0  0  0
    0.7931  -51.3249  -18.7766 C   0  0  0  0  0  0  0  0  0  0  0  0
   -0.1798  -52.2430  -18.3332 C   0  0  0  0  0  0  0  0  0  0  0  0
   -0.9395  -51.9754  -17.2327 C   0  0  0  0  0  0  0  0  0  0  0  0
   -0.7326  -50.7626  -16.5492 C   0  0  0  0  0  0  0  0  0  0  0  0
    0.2254  -49.8748  -16.9987 C   0  0  0  0  0  0  0  0  0  0  0  0
    1.8683  -48.4899  -19.7113 C   0  0  0  0  0  0  0  0  0  0  0  0
    1.9399  -49.1963  -18.4989 O   0  0  0  0  0  0  0  0  0  0  0  0
   -1.4847  -50.4531  -15.4267 O   0  0  0  0  0  0  0  0  0  0  0  0
   -2.7001  -51.1430  -15.2231 C   0  0  0  0  0  0  0  0  0  0  0  0
    0.4104  -48.6836  -16.3058 O   0  0  0  0  0  0  0  0  0  0  0  0
    1.4144  -48.6405  -15.2824 C   0  0  0  0  0  0  0  0  0  0  0  0
 29 30  1  0  0  0
 30 23  1  0  0  0
 23 24  2  0  0  0
 24 25  1  0  0  0
 25 21  1  0  0  0
 21  1  1  0  0  0
  1  2  2  0  0  0
  2  3  1  0  0  0
  3  4  2  0  0  0
  4  5  1  0  0  0
  5  6  2  0  0  0
  6 13  1  0  0  0
 13 14  2  0  0  0
 14 15  1  0  0  0
 14 16  1  0  0  0
 16 17  2  0  0  0
 17 18  1  0  0  0
 18 19  2  0  0  0
 19 20  1  0  0  0
  6  7  1  0  0  0
  7  8  2  0  0  0
  7  9  1  0  0  0
  9 10  1  0  0  0
  9 11  1  0  0  0
 11 12  2  0  0  0
 25 26  2  0  0  0
 26 27  1  0  0  0
 27 31  1  0  0  0
 31 32  1  0  0  0
 27 28  2  0  0  0
 28 33  1  0  0  0
 33 34  1  0  0  0
 28 23  1  0  0  0
 12  1  1  0  0  0
 11  4  1  0  0  0
 19 13  1  0  0  0
 21 22  1  0  0  0
M  END
> <minimizedAffinity>
-9.00873

> <CNNscore>
0.8213342428

> <CNNaffinity>
7.6097564697

> <CNN_VS>
6.2501535416

> <CNNaffinity_variance>
0.2880008817

$$$$
[H]c1c([H])c(Cl)c(-c2c([H])c3c([H])nc(N([H])c4c([H])c(OC([H])([H])[H])c(OC([H])([H])[H])c(OC([H])([H])[H])c4[H])nc3n(C([H])([H])[H])c2=O)c(Cl)c1[H]


 34 37  0  0  0  0  0  0  0  0999 V2000
   -0.4009  -53.2115  -19.7118 C   0  0  0  0  0  0  0  0  0  0  0  0
   -1.0326  -54.2129  -20.3158 N   0  0  0  0  0  0  0  0  0  0  0  0
   -1.1275  -54.3908  -21.6430 C   0  0  0  0  0  0  0  0  0  0  0  0
   -0.5236  -53.4648  -22.4661 C   0  0  0  0  0  0  0  0  0  0  0  0
   -0.5701  -53.5680  -23.8379 C   0  0  0  0  0  0  0  0  0  0  0  0
    0.0575  -52.6036  -24.6027 C   0  0  0  0  0  0  0  0  0  0  0  0
    0.7174  -51.5579  -23.9977 C   0  0  0  0  0  0  0  0  0  0  0  0
    1.2875  -50.6825  -24.7242 O   0  0  0  0  0  0  0  0  0  0  0  0
    0.7551  -51.4696  -22.6797 N   0  0  0  0  0  0  0  0  0  0  0  0
    1.4496  -50.3693  -22.0480 C   0  0  0  0  0  0  0  0  0  0  0  0
    0.1459  -52.4049  -21.8890 C   0  0  0  0  0  0  0  0  0  0  0  0
    0.1911  -52.3044  -20.5562 N   0  0  0  0  0  0  0  0  0  0  0  0
    0.0440  -52.6567  -26.0484 C   0  0  0  0  0  0  0  0  0  0  0  0
    1.1673  -53.0764  -26.7218 C   0  0  0  0  0  0  0  0  0  0  0  0
    2.6185  -53.5502  -25.8854 Cl  0  0  0  0  0  0  0  0  0  0  0  0
    1.1817  -53.1375  -28.1234 C   0  0  0  0  0  0  0  0  0  0  0  0
    0.0528  -52.7711  -28.8308 C   0  0  0  0  0  0  0  0  0  0  0  0
   -1.0758  -52.3500  -28.1661 C   0  0  0  0  0  0  0  0  0  0  0  0
   -1.0586  -52.3006  -26.7801 C   0  0  0  0  0  0  0  0  0  0  0  0
   -2.5014  -51.7631  -25.9520 Cl  0  0  0  0  0  0  0  0  0  0  0  0
   -0.2885  -53.0050  -18.3184 N   0  0  0  0  0  0  0  0  0  0  0  0
    0.6339  -53.3025  -17.8450 H   0  0  0  0  0  0  0  0  0  0  0  0
   -1.7271  -50.8009  -15.7574 C   0  0  0  0  0  0  0  0  0  0  0  0
   -0.8501  -51.3727  -16.6464 C   0  0  0  0  0  0  0  0  0  0  0  0
   -1.2443  -52.4592  -17.4529 C   0  0  0  0  0  0  0  0  0  0  0  0
   -2.5069  -52.9676  -17.3677 C   0  0  0  0  0  0  0  0  0  0  0  0
   -3.4088  -52.3843  -16.4583 C   0  0  0  0  0  0  0  0  0  0  0  0
   -3.0047  -51.3199  -15.6761 C   0  0  0  0  0  0  0  0  0  0  0  0
   -0.1098  -49.5244  -14.4184 C   0  0  0  0  0  0  0  0  0  0  0  0
   -1.3995  -49.7303  -14.9365 O   0  0  0  0  0  0  0  0  0  0  0  0
   -4.7013  -52.8716  -16.3423 O   0  0  0  0  0  0  0  0  0  0  0  0
   -4.9585  -53.8645  -15.3713 C   0  0  0  0  0  0  0  0  0  0  0  0
   -3.9146  -50.7614  -14.7855 O   0  0  0  0  0  0  0  0  0  0  0  0
   -4.7271  -49.6693  -15.2381 C   0  0  0  0  0  0  0  0  0  0  0  0
 29 30  1  0  0  0
 30 23  1  0  0  0
 23 24  2  0  0  0
 24 25  1  0  0  0
 25 21  1  0  0  0
 21  1  1  0  0  0
  1  2  2  0  0  0
  2  3  1  0  0  0
  3  4  2  0  0  0
  4  5  1  0  0  0
  5  6  2  0  0  0
  6 13  1  0  0  0
 13 14  2  0  0  0
 14 15  1  0  0  0
 14 16  1  0  0  0
 16 17  2  0  0  0
 17 18  1  0  0  0
 18 19  2  0  0  0
 19 20  1  0  0  0
  6  7  1  0  0  0
  7  8  2  0  0  0
  7  9  1  0  0  0
  9 10  1  0  0  0
  9 11  1  0  0  0
 11 12  2  0  0  0
 25 26  2  0  0  0
 26 27  1  0  0  0
 27 31  1  0  0  0
 31 32  1  0  0  0
 27 28  2  0  0  0
 28 33  1  0  0  0
 33 34  1  0  0  0
 28 23  1  0  0  0
 12  1  1  0  0  0
 11  4  1  0  0  0
 19 13  1  0  0  0
 21 22  1  0  0  0
M  END
> <minimizedAffinity>
-8.65901

> <CNNscore>
0.7811595201

> <CNNaffinity>
7.4238824844

> <CNN_VS>
5.7992362976

> <CNNaffinity_variance>
0.3125646710

$$$$
[H]c1c([H])c(Cl)c(-c2c([H])c3c([H])nc(N([H])c4c([H])c(OC([H])([H])[H])c(OC([H])([H])[H])c(OC([H])([H])[H])c4[H])nc3n(C([H])([H])[H])c2=O)c(Cl)c1[H]


 34 37  0  0  0  0  0  0  0  0999 V2000
   -0.3855  -53.2009  -19.6503 C   0  0  0  0  0  0  0  0  0  0  0  0
   -1.0376  -54.1882  -20.2558 N   0  0  0  0  0  0  0  0  0  0  0  0
   -1.1373  -54.3614  -21.5832 C   0  0  0  0  0  0  0  0  0  0  0  0
   -0.5158  -53.4459  -22.4050 C   0  0  0  0  0  0  0  0  0  0  0  0
   -0.5656  -53.5453  -23.7769 C   0  0  0  0  0  0  0  0  0  0  0  0
    0.0804  -52.5922  -24.5404 C   0  0  0  0  0  0  0  0  0  0  0  0
    0.7618  -51.5611  -23.9338 C   0  0  0  0  0  0  0  0  0  0  0  0
    1.3487  -50.6959  -24.6590 O   0  0  0  0  0  0  0  0  0  0  0  0
    0.8025  -51.4763  -22.6157 N   0  0  0  0  0  0  0  0  0  0  0  0
    1.5194  -50.3915  -21.9824 C   0  0  0  0  0  0  0  0  0  0  0  0
    0.1753  -52.4009  -21.8264 C   0  0  0  0  0  0  0  0  0  0  0  0
    0.2238  -52.3041  -20.4934 N   0  0  0  0  0  0  0  0  0  0  0  0
    0.0646  -52.6420  -25.9861 C   0  0  0  0  0  0  0  0  0  0  0  0
   -1.0717  -52.2686  -26.6650 C   0  0  0  0  0  0  0  0  0  0  0  0
   -2.5051  -51.7331  -25.8353 Cl  0  0  0  0  0  0  0  0  0  0  0  0
   -1.1144  -52.3072  -28.0667 C   0  0  0  0  0  0  0  0  0  0  0  0
   -0.0004  -52.7256  -28.7689 C   0  0  0  0  0  0  0  0  0  0  0  0
    1.1410  -53.1010  -28.0989 C   0  0  0  0  0  0  0  0  0  0  0  0
    1.1519  -53.0518  -26.7128 C   0  0  0  0  0  0  0  0  0  0  0  0
    2.6107  -53.5325  -25.8778 Cl  0  0  0  0  0  0  0  0  0  0  0  0
   -0.2677  -52.9996  -18.2566 N   0  0  0  0  0  0  0  0  0  0  0  0
    0.6290  -53.3594  -17.7768 H   0  0  0  0  0  0  0  0  0  0  0  0
   -3.4394  -52.3913  -16.5082 C   0  0  0  0  0  0  0  0  0  0  0  0
   -2.4770  -52.9517  -17.3121 C   0  0  0  0  0  0  0  0  0  0  0  0
   -1.1886  -52.3869  -17.3982 C   0  0  0  0  0  0  0  0  0  0  0  0
   -0.8691  -51.2695  -16.6845 C   0  0  0  0  0  0  0  0  0  0  0  0
   -1.8523  -50.6924  -15.8592 C   0  0  0  0  0  0  0  0  0  0  0  0
   -3.1095  -51.2601  -15.7874 C   0  0  0  0  0  0  0  0  0  0  0  0
   -5.0618  -53.9227  -15.4785 C   0  0  0  0  0  0  0  0  0  0  0  0
   -4.7249  -52.8998  -16.3809 O   0  0  0  0  0  0  0  0  0  0  0  0
   -1.5669  -49.5568  -15.1174 O   0  0  0  0  0  0  0  0  0  0  0  0
   -0.7765  -48.5487  -15.7123 C   0  0  0  0  0  0  0  0  0  0  0  0
   -4.0630  -50.6708  -14.9648 O   0  0  0  0  0  0  0  0  0  0  0  0
   -4.0849  -51.0366  -13.5780 C   0  0  0  0  0  0  0  0  0  0  0  0
 29 30  1  0  0  0
 30 23  1  0  0  0
 23 24  2  0  0  0
 24 25  1  0  0  0
 25 21  1  0  0  0
 21  1  1  0  0  0
  1  2  2  0  0  0
  2  3  1  0  0  0
  3  4  2  0  0  0
  4  5  1  0  0  0
  5  6  2  0  0  0
  6 13  1  0  0  0
 13 14  2  0  0  0
 14 15  1  0  0  0
 14 16  1  0  0  0
 16 17  2  0  0  0
 17 18  1  0  0  0
 18 19  2  0  0  0
 19 20  1  0  0  0
  6  7  1  0  0  0
  7  8  2  0  0  0
  7  9  1  0  0  0
  9 10  1  0  0  0
  9 11  1  0  0  0
 11 12  2  0  0  0
 25 26  2  0  0  0
 26 27  1  0  0  0
 27 31  1  0  0  0
 31 32  1  0  0  0
 27 28  2  0  0  0
 28 33  1  0  0  0
 33 34  1  0  0  0
 28 23  1  0  0  0
 12  1  1  0  0  0
 11  4  1  0  0  0
 19 13  1  0  0  0
 21 22  1  0  0  0
M  END
> <minimizedAffinity>
-8.41537

> <CNNscore>
0.7741503119

> <CNNaffinity>
7.3756637573

> <CNN_VS>
5.7098722458

> <CNNaffinity_variance>
0.2419804335

$$$$
[H]c1c([H])c(Cl)c(-c2c([H])c3c([H])nc(N([H])c4c([H])c(OC([H])([H])[H])c(OC([H])([H])[H])c(OC([H])([H])[H])c4[H])nc3n(C([H])([H])[H])c2=O)c(Cl)c1[H]


 34 37  0  0  0  0  0  0  0  0999 V2000
   -0.5794  -53.1759  -20.2797 C   0  0  0  0  0  0  0  0  0  0  0  0
   -1.1632  -54.2130  -20.8717 N   0  0  0  0  0  0  0  0  0  0  0  0
   -1.2147  -54.4311  -22.1952 C   0  0  0  0  0  0  0  0  0  0  0  0
   -0.6154  -53.5105  -23.0278 C   0  0  0  0  0  0  0  0  0  0  0  0
   -0.6195  -53.6538  -24.3968 C   0  0  0  0  0  0  0  0  0  0  0  0
    0.0005  -52.6926  -25.1717 C   0  0  0  0  0  0  0  0  0  0  0  0
    0.6112  -51.6103  -24.5792 C   0  0  0  0  0  0  0  0  0  0  0  0
    1.1754  -50.7387  -25.3147 O   0  0  0  0  0  0  0  0  0  0  0  0
    0.6085  -51.4837  -23.2638 N   0  0  0  0  0  0  0  0  0  0  0  0
    1.2512  -50.3452  -22.6453 C   0  0  0  0  0  0  0  0  0  0  0  0
    0.0051  -52.4146  -22.4635 C   0  0  0  0  0  0  0  0  0  0  0  0
    0.0091  -52.2753  -21.1334 N   0  0  0  0  0  0  0  0  0  0  0  0
    0.0302  -52.7869  -26.6150 C   0  0  0  0  0  0  0  0  0  0  0  0
   -1.1000  -52.4835  -27.3375 C   0  0  0  0  0  0  0  0  0  0  0  0
   -2.5789  -51.9852  -26.5666 Cl  0  0  0  0  0  0  0  0  0  0  0  0
   -1.0990  -52.5664  -28.7380 C   0  0  0  0  0  0  0  0  0  0  0  0
    0.0522  -52.9576  -29.3944 C   0  0  0  0  0  0  0  0  0  0  0  0
    1.1877  -53.2631  -28.6804 C   0  0  0  0  0  0  0  0  0  0  0  0
    1.1551  -53.1715  -27.2969 C   0  0  0  0  0  0  0  0  0  0  0  0
    2.6071  -53.5634  -26.4057 Cl  0  0  0  0  0  0  0  0  0  0  0  0
   -0.5133  -52.9268  -18.8904 N   0  0  0  0  0  0  0  0  0  0  0  0
   -1.1656  -53.5008  -18.2512 H   0  0  0  0  0  0  0  0  0  0  0  0
    0.4659  -50.3465  -16.4676 C   0  0  0  0  0  0  0  0  0  0  0  0
   -0.2669  -51.2836  -17.1541 C   0  0  0  0  0  0  0  0  0  0  0  0
    0.3023  -52.0051  -18.2227 C   0  0  0  0  0  0  0  0  0  0  0  0
    1.5949  -51.7877  -18.5993 C   0  0  0  0  0  0  0  0  0  0  0  0
    2.3494  -50.8287  -17.8982 C   0  0  0  0  0  0  0  0  0  0  0  0
    1.7748  -50.1314  -16.8534 C   0  0  0  0  0  0  0  0  0  0  0  0
   -1.0468  -48.6386  -15.5552 C   0  0  0  0  0  0  0  0  0  0  0  0
   -0.0370  -49.6044  -15.4076 O   0  0  0  0  0  0  0  0  0  0  0  0
    3.6667  -50.5789  -18.2498 O   0  0  0  0  0  0  0  0  0  0  0  0
    4.0021  -50.5591  -19.6217 C   0  0  0  0  0  0  0  0  0  0  0  0
    2.5413  -49.1892  -16.1768 O   0  0  0  0  0  0  0  0  0  0  0  0
    2.5802  -47.8496  -16.6879 C   0  0  0  0  0  0  0  0  0  0  0  0
 29 30  1  0  0  0
 30 23  1  0  0  0
 23 24  2  0  0  0
 24 25  1  0  0  0
 25 21  1  0  0  0
 21  1  1  0  0  0
  1  2  2  0  0  0
  2  3  1  0  0  0
  3  4  2  0  0  0
  4  5  1  0  0  0
  5  6  2  0  0  0
  6 13  1  0  0  0
 13 14  2  0  0  0
 14 15  1  0  0  0
 14 16  1  0  0  0
 16 17  2  0  0  0
 17 18  1  0  0  0
 18 19  2  0  0  0
 19 20  1  0  0  0
  6  7  1  0  0  0
  7  8  2  0  0  0
  7  9  1  0  0  0
  9 10  1  0  0  0
  9 11  1  0  0  0
 11 12  2  0  0  0
 25 26  2  0  0  0
 26 27  1  0  0  0
 27 31  1  0  0  0
 31 32  1  0  0  0
 27 28  2  0  0  0
 28 33  1  0  0  0
 33 34  1  0  0  0
 28 23  1  0  0  0
 12  1  1  0  0  0
 11  4  1  0  0  0
 19 13  1  0  0  0
 21 22  1  0  0  0
M  END
> <minimizedAffinity>
-8.34123

> <CNNscore>
0.6593793631

> <CNNaffinity>
7.4299049377

> <CNN_VS>
4.8991260529

> <CNNaffinity_variance>
0.5037964582

$$$$
[H]c1c([H])c(Cl)c(-c2c([H])c3c([H])nc(N([H])c4c([H])c(OC([H])([H])[H])c(OC([H])([H])[H])c(OC([H])([H])[H])c4[H])nc3n(C([H])([H])[H])c2=O)c(Cl)c1[H]


 34 37  0  0  0  0  0  0  0  0999 V2000
   -1.0513  -53.2118  -19.4487 C   0  0  0  0  0  0  0  0  0  0  0  0
   -1.3662  -54.2741  -20.1828 N   0  0  0  0  0  0  0  0  0  0  0  0
   -1.0595  -54.4487  -21.4780 C   0  0  0  0  0  0  0  0  0  0  0  0
   -0.3574  -53.4504  -22.1183 C   0  0  0  0  0  0  0  0  0  0  0  0
   -0.0005  -53.5447  -23.4443 C   0  0  0  0  0  0  0  0  0  0  0  0
    0.7032  -52.5061  -24.0230 C   0  0  0  0  0  0  0  0  0  0  0  0
    1.0397  -51.3964  -23.2809 C   0  0  0  0  0  0  0  0  0  0  0  0
    1.6880  -50.4533  -23.8370 O   0  0  0  0  0  0  0  0  0  0  0  0
    0.6914  -51.3174  -22.0087 N   0  0  0  0  0  0  0  0  0  0  0  0
    1.0469  -50.1498  -21.2325 C   0  0  0  0  0  0  0  0  0  0  0  0
   -0.0056  -52.3253  -21.4007 C   0  0  0  0  0  0  0  0  0  0  0  0
   -0.3523  -52.2335  -20.1124 N   0  0  0  0  0  0  0  0  0  0  0  0
    1.1067  -52.5461  -25.4117 C   0  0  0  0  0  0  0  0  0  0  0  0
    0.1754  -52.3088  -26.3955 C   0  0  0  0  0  0  0  0  0  0  0  0
   -1.4884  -51.9588  -26.0224 Cl  0  0  0  0  0  0  0  0  0  0  0  0
    0.5396  -52.3413  -27.7499 C   0  0  0  0  0  0  0  0  0  0  0  0
    1.8492  -52.6150  -28.0948 C   0  0  0  0  0  0  0  0  0  0  0  0
    2.7881  -52.8536  -27.1180 C   0  0  0  0  0  0  0  0  0  0  0  0
    2.3970  -52.8144  -25.7878 C   0  0  0  0  0  0  0  0  0  0  0  0
    3.6032  -53.1201  -24.5599 Cl  0  0  0  0  0  0  0  0  0  0  0  0
   -1.3634  -53.0074  -18.0858 N   0  0  0  0  0  0  0  0  0  0  0  0
   -2.0390  -53.7079  -17.6204 H   0  0  0  0  0  0  0  0  0  0  0  0
    0.9257  -50.5142  -16.6609 C   0  0  0  0  0  0  0  0  0  0  0  0
    0.4003  -51.4995  -17.4606 C   0  0  0  0  0  0  0  0  0  0  0  0
   -0.9048  -51.9858  -17.2452 C   0  0  0  0  0  0  0  0  0  0  0  0
   -1.6756  -51.4883  -16.2361 C   0  0  0  0  0  0  0  0  0  0  0  0
   -1.1412  -50.4781  -15.4146 C   0  0  0  0  0  0  0  0  0  0  0  0
    0.1399  -50.0138  -15.6409 C   0  0  0  0  0  0  0  0  0  0  0  0
    3.3693  -50.6990  -16.4810 C   0  0  0  0  0  0  0  0  0  0  0  0
    2.2027  -49.9940  -16.8220 O   0  0  0  0  0  0  0  0  0  0  0  0
   -1.8928  -49.9459  -14.3787 O   0  0  0  0  0  0  0  0  0  0  0  0
   -3.3006  -50.0220  -14.4642 C   0  0  0  0  0  0  0  0  0  0  0  0
    0.6447  -49.0155  -14.8153 O   0  0  0  0  0  0  0  0  0  0  0  0
    1.3026  -49.4043  -13.6015 C   0  0  0  0  0  0  0  0  0  0  0  0
 29 30  1  0  0  0
 30 23  1  0  0  0
 23 24  2  0  0  0
 24 25  1  0  0  0
 25 21  1  0  0  0
 21  1  1  0  0  0
  1  2  2  0  0  0
  2  3  1  0  0  0
  3  4  2  0  0  0
  4  5  1  0  0  0
  5  6  2  0  0  0
  6 13  1  0  0  0
 13 14  2  0  0  0
 14 15  1  0  0  0
 14 16  1  0  0  0
 16 17  2  0  0  0
 17 18  1  0  0  0
 18 19  2  0  0  0
 19 20  1  0  0  0
  6  7  1  0  0  0
  7  8  2  0  0  0
  7  9  1  0  0  0
  9 10  1  0  0  0
  9 11  1  0  0  0
 11 12  2  0  0  0
 25 26  2  0  0  0
 26 27  1  0  0  0
 27 31  1  0  0  0
 31 32  1  0  0  0
 27 28  2  0  0  0
 28 33  1  0  0  0
 33 34  1  0  0  0
 28 23  1  0  0  0
 12  1  1  0  0  0
 11  4  1  0  0  0
 19 13  1  0  0  0
 21 22  1  0  0  0
M  END
> <minimizedAffinity>
-8.07693

> <CNNscore>
0.6076241732

> <CNNaffinity>
7.1716070175

> <CNN_VS>
4.3576416969

> <CNNaffinity_variance>
0.5156472921

$$$$
[H]c1c([H])c(Cl)c(-c2c([H])c3c([H])nc(N([H])c4c([H])c(OC([H])([H])[H])c(OC([H])([H])[H])c(OC([H])([H])[H])c4[H])nc3n(C([H])([H])[H])c2=O)c(Cl)c1[H]


 34 37  0  0  0  0  0  0  0  0999 V2000
   -0.1296  -52.3024  -18.6682 C   0  0  0  0  0  0  0  0  0  0  0  0
   -0.5073  -53.4511  -19.2200 N   0  0  0  0  0  0  0  0  0  0  0  0
   -0.3776  -53.7765  -20.5159 C   0  0  0  0  0  0  0  0  0  0  0  0
    0.1948  -52.8515  -21.3624 C   0  0  0  0  0  0  0  0  0  0  0  0
    0.3672  -53.1001  -22.7052 C   0  0  0  0  0  0  0  0  0  0  0  0
    0.9484  -52.1277  -23.4960 C   0  0  0  0  0  0  0  0  0  0  0  0
    1.3470  -50.9307  -22.9451 C   0  0  0  0  0  0  0  0  0  0  0  0
    1.8797  -50.0512  -23.6946 O   0  0  0  0  0  0  0  0  0  0  0  0
    1.1762  -50.7037  -21.6546 N   0  0  0  0  0  0  0  0  0  0  0  0
    1.5963  -49.4447  -21.0796 C   0  0  0  0  0  0  0  0  0  0  0  0
    0.6047  -51.6419  -20.8395 C   0  0  0  0  0  0  0  0  0  0  0  0
    0.4372  -51.4003  -19.5349 N   0  0  0  0  0  0  0  0  0  0  0  0
    1.1565  -52.3291  -24.9134 C   0  0  0  0  0  0  0  0  0  0  0  0
    2.4061  -52.6739  -25.3730 C   0  0  0  0  0  0  0  0  0  0  0  0
    3.7585  -52.8780  -24.2964 Cl  0  0  0  0  0  0  0  0  0  0  0  0
    2.6357  -52.8753  -26.7423 C   0  0  0  0  0  0  0  0  0  0  0  0
    1.5923  -52.7245  -27.6353 C   0  0  0  0  0  0  0  0  0  0  0  0
    0.3388  -52.3798  -27.1854 C   0  0  0  0  0  0  0  0  0  0  0  0
    0.1436  -52.1876  -25.8257 C   0  0  0  0  0  0  0  0  0  0  0  0
   -1.4557  -51.7500  -25.2716 Cl  0  0  0  0  0  0  0  0  0  0  0  0
   -0.2563  -51.9394  -17.3084 N   0  0  0  0  0  0  0  0  0  0  0  0
    0.6399  -51.9418  -16.7081 H   0  0  0  0  0  0  0  0  0  0  0  0
   -3.7248  -52.1232  -16.1157 C   0  0  0  0  0  0  0  0  0  0  0  0
   -2.5402  -52.4266  -16.7412 C   0  0  0  0  0  0  0  0  0  0  0  0
   -1.4222  -51.5767  -16.6231 C   0  0  0  0  0  0  0  0  0  0  0  0
   -1.4924  -50.4324  -15.8846 C   0  0  0  0  0  0  0  0  0  0  0  0
   -2.7042  -50.1180  -15.2416 C   0  0  0  0  0  0  0  0  0  0  0  0
   -3.7894  -50.9631  -15.3686 C   0  0  0  0  0  0  0  0  0  0  0  0
   -5.1004  -54.0025  -15.3325 C   0  0  0  0  0  0  0  0  0  0  0  0
   -4.8599  -52.9186  -16.1935 O   0  0  0  0  0  0  0  0  0  0  0  0
   -2.8159  -48.9644  -14.4812 O   0  0  0  0  0  0  0  0  0  0  0  0
   -2.5451  -47.7244  -15.1008 C   0  0  0  0  0  0  0  0  0  0  0  0
   -4.9752  -50.6299  -14.7236 O   0  0  0  0  0  0  0  0  0  0  0  0
   -5.0893  -50.9106  -13.3216 C   0  0  0  0  0  0  0  0  0  0  0  0
 29 30  1  0  0  0
 30 23  1  0  0  0
 23 24  2  0  0  0
 24 25  1  0  0  0
 25 21  1  0  0  0
 21  1  1  0  0  0
  1  2  2  0  0  0
  2  3  1  0  0  0
  3  4  2  0  0  0
  4  5  1  0  0  0
  5  6  2  0  0  0
  6 13  1  0  0  0
 13 14  2  0  0  0
 14 15  1  0  0  0
 14 16  1  0  0  0
 16 17  2  0  0  0
 17 18  1  0  0  0
 18 19  2  0  0  0
 19 20  1  0  0  0
  6  7  1  0  0  0
  7  8  2  0  0  0
  7  9  1  0  0  0
  9 10  1  0  0  0
  9 11  1  0  0  0
 11 12  2  0  0  0
 25 26  2  0  0  0
 26 27  1  0  0  0
 27 31  1  0  0  0
 31 32  1  0  0  0
 27 28  2  0  0  0
 28 33  1  0  0  0
 33 34  1  0  0  0
 28 23  1  0  0  0
 12  1  1  0  0  0
 11  4  1  0  0  0
 19 13  1  0  0  0
 21 22  1  0  0  0
M  END
> <minimizedAffinity>
-7.91548

> <CNNscore>
0.5757138729

> <CNNaffinity>
7.0371642113

> <CNN_VS>
4.0513930321

> <CNNaffinity_variance>
0.2954680622

$$$$
[H]c1c([H])c([H])c(-c2c([H])c([H])c(C3([H])C(C(=O)OC(C([H])([H])[H])(C([H])([H])[H])C([H])([H])[H])=C(C([H])([H])[H])N=C(C([H])([H])[H])C3([H])C(=O)OC([H])([H])[H])c([H])c2[H])c([H])c1[H]


 31 33  0  0  0  0  0  0  0  0999 V2000
    0.8237  -52.5648  -26.5274 C   0  0  0  0  0  0  0  0  0  0  0  0
    0.3947  -52.6158  -25.1357 C   0  0  0  0  0  0  0  0  0  0  0  0
   -0.1498  -53.8874  -24.6023 C   0  0  0  0  0  0  0  0  0  0  0  0
   -0.2066  -54.9431  -25.3546 C   0  0  0  0  0  0  0  0  0  0  0  0
   -0.7464  -56.2179  -24.8319 C   0  0  0  0  0  0  0  0  0  0  0  0
    0.2408  -54.8943  -26.7244 N   0  0  0  0  0  0  0  0  0  0  0  0
    0.6957  -53.8453  -27.2415 C   0  0  0  0  0  0  0  0  0  0  0  0
    1.1339  -53.9264  -28.6922 C   0  0  0  0  0  0  0  0  0  0  0  0
    1.3529  -52.0066  -24.1545 C   0  0  0  0  0  0  0  0  0  0  0  0
    1.1464  -50.7007  -23.7648 C   0  0  0  0  0  0  0  0  0  0  0  0
    2.0262  -50.1501  -22.8596 C   0  0  0  0  0  0  0  0  0  0  0  0
    3.1010  -50.8179  -22.3163 C   0  0  0  0  0  0  0  0  0  0  0  0
    3.2673  -52.1261  -22.7377 C   0  0  0  0  0  0  0  0  0  0  0  0
    2.4153  -52.7211  -23.6403 C   0  0  0  0  0  0  0  0  0  0  0  0
    4.0096  -50.1977  -21.3603 C   0  0  0  0  0  0  0  0  0  0  0  0
    3.5168  -49.8073  -20.1341 C   0  0  0  0  0  0  0  0  0  0  0  0
    4.3098  -49.2156  -19.1786 C   0  0  0  0  0  0  0  0  0  0  0  0
    5.6274  -49.0160  -19.4715 C   0  0  0  0  0  0  0  0  0  0  0  0
    6.1279  -49.4063  -20.7017 C   0  0  0  0  0  0  0  0  0  0  0  0
    5.3327  -50.0012  -21.6637 C   0  0  0  0  0  0  0  0  0  0  0  0
    2.2198  -52.0955  -26.7755 C   0  0  0  0  0  0  0  0  0  0  0  0
    3.1507  -52.9335  -26.6964 O   0  0  0  0  0  0  0  0  0  0  0  0
    3.5282  -50.0550  -26.3612 C   0  0  0  0  0  0  0  0  0  0  0  0
    2.5677  -50.7980  -27.0883 O   0  0  0  0  0  0  0  0  0  0  0  0
   -0.6024  -53.8778  -23.2368 C   0  0  0  0  0  0  0  0  0  0  0  0
   -1.2676  -54.7997  -22.7572 O   0  0  0  0  0  0  0  0  0  0  0  0
   -0.3263  -52.8308  -22.3529 O   0  0  0  0  0  0  0  0  0  0  0  0
   -0.3559  -52.9688  -20.9636 C   0  0  0  0  0  0  0  0  0  0  0  0
   -1.6515  -53.4565  -20.4069 C   0  0  0  0  0  0  0  0  0  0  0  0
    0.7332  -53.9227  -20.4651 C   0  0  0  0  0  0  0  0  0  0  0  0
   -0.0488  -51.6188  -20.3502 C   0  0  0  0  0  0  0  0  0  0  0  0
 23 24  1  0  0  0
 24 21  1  0  0  0
 21 22  2  0  0  0
 21  1  1  0  0  0
  1  2  1  0  0  0
  2  3  1  0  0  0
  3 25  1  0  0  0
 25 26  2  0  0  0
 25 27  1  0  0  0
 27 28  1  0  0  0
 28 29  1  0  0  0
 28 30  1  0  0  0
 28 31  1  0  0  0
  3  4  2  0  0  0
  4  5  1  0  0  0
  4  6  1  0  0  0
  6  7  2  0  0  0
  7  8  1  0  0  0
  2  9  1  0  0  0
  9 10  2  0  0  0
 10 11  1  0  0  0
 11 12  2  0  0  0
 12 13  1  0  0  0
 13 14  2  0  0  0
 12 15  1  0  0  0
 15 16  2  0  0  0
 16 17  1  0  0  0
 17 18  2  0  0  0
 18 19  1  0  0  0
 19 20  2  0  0  0
  7  1  1  0  0  0
 14  9  1  0  0  0
 20 15  1  0  0  0
M  END
> <minimizedAffinity>
-7.19764

> <CNNscore>
0.6114662290

> <CNNaffinity>
6.7487320900

> <CNN_VS>
4.1266217232

> <CNNaffinity_variance>
0.0910091847

$$$$
[H]c1c([H])c([H])c(-c2c([H])c([H])c(C3([H])C(C(=O)OC(C([H])([H])[H])(C([H])([H])[H])C([H])([H])[H])=C(C([H])([H])[H])N=C(C([H])([H])[H])C3([H])C(=O)OC([H])([H])[H])c([H])c2[H])c([H])c1[H]


 31 33  0  0  0  0  0  0  0  0999 V2000
    0.4992  -53.4906  -22.3278 C   0  0  0  0  0  0  0  0  0  0  0  0
    1.4509  -52.3877  -22.3667 C   0  0  0  0  0  0  0  0  0  0  0  0
    1.5309  -51.5564  -23.5917 C   0  0  0  0  0  0  0  0  0  0  0  0
    0.7398  -51.7876  -24.5939 C   0  0  0  0  0  0  0  0  0  0  0  0
    0.8098  -50.9629  -25.8205 C   0  0  0  0  0  0  0  0  0  0  0  0
   -0.2165  -52.8654  -24.5419 N   0  0  0  0  0  0  0  0  0  0  0  0
   -0.3229  -53.6163  -23.5421 C   0  0  0  0  0  0  0  0  0  0  0  0
   -1.3695  -54.7131  -23.6125 C   0  0  0  0  0  0  0  0  0  0  0  0
    1.4625  -51.5174  -21.1442 C   0  0  0  0  0  0  0  0  0  0  0  0
    2.4712  -51.6995  -20.2226 C   0  0  0  0  0  0  0  0  0  0  0  0
    2.4790  -50.8933  -19.1062 C   0  0  0  0  0  0  0  0  0  0  0  0
    1.5447  -49.9152  -18.8478 C   0  0  0  0  0  0  0  0  0  0  0  0
    0.5519  -49.7698  -19.8015 C   0  0  0  0  0  0  0  0  0  0  0  0
    0.5008  -50.5510  -20.9337 C   0  0  0  0  0  0  0  0  0  0  0  0
    1.5890  -49.0827  -17.6522 C   0  0  0  0  0  0  0  0  0  0  0  0
    0.5199  -49.1125  -16.7834 C   0  0  0  0  0  0  0  0  0  0  0  0
    0.4860  -48.3567  -15.6347 C   0  0  0  0  0  0  0  0  0  0  0  0
    1.5561  -47.5557  -15.3614 C   0  0  0  0  0  0  0  0  0  0  0  0
    2.6328  -47.5219  -16.2306 C   0  0  0  0  0  0  0  0  0  0  0  0
    2.6692  -48.2806  -17.3859 C   0  0  0  0  0  0  0  0  0  0  0  0
   -0.4588  -53.5014  -21.1819 C   0  0  0  0  0  0  0  0  0  0  0  0
   -1.6314  -53.1027  -21.3847 O   0  0  0  0  0  0  0  0  0  0  0  0
   -0.5957  -53.2524  -18.7392 C   0  0  0  0  0  0  0  0  0  0  0  0
   -0.1500  -53.9205  -19.9047 O   0  0  0  0  0  0  0  0  0  0  0  0
    2.5158  -50.5079  -23.6015 C   0  0  0  0  0  0  0  0  0  0  0  0
    2.3133  -49.4095  -23.0771 O   0  0  0  0  0  0  0  0  0  0  0  0
    3.7701  -50.6501  -24.2017 O   0  0  0  0  0  0  0  0  0  0  0  0
    4.8937  -51.1367  -23.5302 C   0  0  0  0  0  0  0  0  0  0  0  0
    5.0719  -50.6173  -22.1430 C   0  0  0  0  0  0  0  0  0  0  0  0
    4.8816  -52.6652  -23.4382 C   0  0  0  0  0  0  0  0  0  0  0  0
    6.1202  -50.7715  -24.3398 C   0  0  0  0  0  0  0  0  0  0  0  0
 23 24  1  0  0  0
 24 21  1  0  0  0
 21 22  2  0  0  0
 21  1  1  0  0  0
  1  2  1  0  0  0
  2  3  1  0  0  0
  3 25  1  0  0  0
 25 26  2  0  0  0
 25 27  1  0  0  0
 27 28  1  0  0  0
 28 29  1  0  0  0
 28 30  1  0  0  0
 28 31  1  0  0  0
  3  4  2  0  0  0
  4  5  1  0  0  0
  4  6  1  0  0  0
  6  7  2  0  0  0
  7  8  1  0  0  0
  2  9  1  0  0  0
  9 10  2  0  0  0
 10 11  1  0  0  0
 11 12  2  0  0  0
 12 13  1  0  0  0
 13 14  2  0  0  0
 12 15  1  0  0  0
 15 16  2  0  0  0
 16 17  1  0  0  0
 17 18  2  0  0  0
 18 19  1  0  0  0
 19 20  2  0  0  0
  7  1  1  0  0  0
 14  9  1  0  0  0
 20 15  1  0  0  0
M  END
> <minimizedAffinity>
-6.41033

> <CNNscore>
0.4415876269

> <CNNaffinity>
6.3001980782

> <CNN_VS>
2.7820894718

> <CNNaffinity_variance>
0.0848192126

$$$$
[H]c1c([H])c([H])c(-c2c([H])c([H])c(C3([H])C(C(=O)OC(C([H])([H])[H])(C([H])([H])[H])C([H])([H])[H])=C(C([H])([H])[H])N=C(C([H])([H])[H])C3([H])C(=O)OC([H])([H])[H])c([H])c2[H])c([H])c1[H]


 31 33  0  0  0  0  0  0  0  0999 V2000
   -0.6955  -53.7424  -24.4393 C   0  0  0  0  0  0  0  0  0  0  0  0
   -0.2575  -52.5913  -23.6603 C   0  0  0  0  0  0  0  0  0  0  0  0
   -0.0350  -52.7575  -22.2039 C   0  0  0  0  0  0  0  0  0  0  0  0
   -0.1928  -53.9177  -21.6447 C   0  0  0  0  0  0  0  0  0  0  0  0
    0.0285  -54.0952  -20.1923 C   0  0  0  0  0  0  0  0  0  0  0  0
   -0.6037  -55.0592  -22.4236 N   0  0  0  0  0  0  0  0  0  0  0  0
   -0.8249  -54.9819  -23.6565 C   0  0  0  0  0  0  0  0  0  0  0  0
   -1.2505  -56.2569  -24.3612 C   0  0  0  0  0  0  0  0  0  0  0  0
    0.8620  -51.8011  -24.2720 C   0  0  0  0  0  0  0  0  0  0  0  0
    0.5678  -50.9552  -25.3198 C   0  0  0  0  0  0  0  0  0  0  0  0
    1.5989  -50.2287  -25.8723 C   0  0  0  0  0  0  0  0  0  0  0  0
    2.9074  -50.2905  -25.4476 C   0  0  0  0  0  0  0  0  0  0  0  0
    3.1537  -51.1533  -24.3934 C   0  0  0  0  0  0  0  0  0  0  0  0
    2.1573  -51.9007  -23.8076 C   0  0  0  0  0  0  0  0  0  0  0  0
    3.9704  -49.5040  -26.0607 C   0  0  0  0  0  0  0  0  0  0  0  0
    5.0835  -49.1942  -25.3100 C   0  0  0  0  0  0  0  0  0  0  0  0
    6.1285  -48.4568  -25.8161 C   0  0  0  0  0  0  0  0  0  0  0  0
    6.0435  -48.0253  -27.1076 C   0  0  0  0  0  0  0  0  0  0  0  0
    4.9277  -48.3336  -27.8665 C   0  0  0  0  0  0  0  0  0  0  0  0
    3.8760  -49.0747  -27.3600 C   0  0  0  0  0  0  0  0  0  0  0  0
    0.1359  -54.0946  -25.6291 C   0  0  0  0  0  0  0  0  0  0  0  0
    1.3119  -54.4881  -25.4362 O   0  0  0  0  0  0  0  0  0  0  0  0
    0.5874  -53.9610  -28.0428 C   0  0  0  0  0  0  0  0  0  0  0  0
   -0.2946  -54.0196  -26.9373 O   0  0  0  0  0  0  0  0  0  0  0  0
    0.3529  -51.5836  -21.4684 C   0  0  0  0  0  0  0  0  0  0  0  0
   -0.4234  -50.6458  -21.2681 O   0  0  0  0  0  0  0  0  0  0  0  0
    1.6305  -51.4146  -20.9272 O   0  0  0  0  0  0  0  0  0  0  0  0
    2.1664  -50.1687  -20.5945 C   0  0  0  0  0  0  0  0  0  0  0  0
    1.8765  -49.0778  -21.5703 C   0  0  0  0  0  0  0  0  0  0  0  0
    1.6762  -49.6876  -19.2260 C   0  0  0  0  0  0  0  0  0  0  0  0
    3.6686  -50.3192  -20.4766 C   0  0  0  0  0  0  0  0  0  0  0  0
 23 24  1  0  0  0
 24 21  1  0  0  0
 21 22  2  0  0  0
 21  1  1  0  0  0
  1  2  1  0  0  0
  2  3  1  0  0  0
  3 25  1  0  0  0
 25 26  2  0  0  0
 25 27  1  0  0  0
 27 28  1  0  0  0
 28 29  1  0  0  0
 28 30  1  0  0  0
 28 31  1  0  0  0
  3  4  2  0  0  0
  4  5  1  0  0  0
  4  6  1  0  0  0
  6  7  2  0  0  0
  7  8  1  0  0  0
  2  9  1  0  0  0
  9 10  2  0  0  0
 10 11  1  0  0  0
 11 12  2  0  0  0
 12 13  1  0  0  0
 13 14  2  0  0  0
 12 15  1  0  0  0
 15 16  2  0  0  0
 16 17  1  0  0  0
 17 18  2  0  0  0
 18 19  1  0  0  0
 19 20  2  0  0  0
  7  1  1  0  0  0
 14  9  1  0  0  0
 20 15  1  0  0  0
M  END
> <minimizedAffinity>
-6.47332

> <CNNscore>
0.4139063060

> <CNNaffinity>
6.2430963516

> <CNN_VS>
2.5840568542

> <CNNaffinity_variance>
0.1092044115

$$$$
[H]c1c([H])c([H])c(-c2c([H])c([H])c(C3([H])C(C(=O)OC(C([H])([H])[H])(C([H])([H])[H])C([H])([H])[H])=C(C([H])([H])[H])N=C(C([H])([H])[H])C3([H])C(=O)OC([H])([H])[H])c([H])c2[H])c([H])c1[H]


 31 33  0  0  0  0  0  0  0  0999 V2000
   -0.4774  -52.5326  -22.9981 C   0  0  0  0  0  0  0  0  0  0  0  0
    0.0452  -51.8660  -21.8123 C   0  0  0  0  0  0  0  0  0  0  0  0
    0.3836  -52.6848  -20.6236 C   0  0  0  0  0  0  0  0  0  0  0  0
    0.2502  -53.9751  -20.6566 C   0  0  0  0  0  0  0  0  0  0  0  0
    0.5868  -54.8021  -19.4765 C   0  0  0  0  0  0  0  0  0  0  0  0
   -0.2453  -54.6327  -21.8401 N   0  0  0  0  0  0  0  0  0  0  0  0
   -0.5658  -53.9963  -22.8732 C   0  0  0  0  0  0  0  0  0  0  0  0
   -1.0723  -54.8068  -24.0521 C   0  0  0  0  0  0  0  0  0  0  0  0
    1.1256  -50.8584  -22.0761 C   0  0  0  0  0  0  0  0  0  0  0  0
    0.8379  -49.5252  -21.8767 C   0  0  0  0  0  0  0  0  0  0  0  0
    1.8359  -48.6066  -22.1151 C   0  0  0  0  0  0  0  0  0  0  0  0
    3.1048  -48.9310  -22.5403 C   0  0  0  0  0  0  0  0  0  0  0  0
    3.3461  -50.2814  -22.7264 C   0  0  0  0  0  0  0  0  0  0  0  0
    2.3819  -51.2377  -22.5019 C   0  0  0  0  0  0  0  0  0  0  0  0
    4.1333  -47.9268  -22.7815 C   0  0  0  0  0  0  0  0  0  0  0  0
    5.1110  -47.7368  -21.8293 C   0  0  0  0  0  0  0  0  0  0  0  0
    6.1151  -46.8094  -21.9829 C   0  0  0  0  0  0  0  0  0  0  0  0
    6.1285  -46.0606  -23.1233 C   0  0  0  0  0  0  0  0  0  0  0  0
    5.1489  -46.2472  -24.0833 C   0  0  0  0  0  0  0  0  0  0  0  0
    4.1385  -47.1787  -23.9311 C   0  0  0  0  0  0  0  0  0  0  0  0
    0.2463  -52.2740  -24.2789 C   0  0  0  0  0  0  0  0  0  0  0  0
   -0.1842  -51.3664  -25.0312 O   0  0  0  0  0  0  0  0  0  0  0  0
    2.0593  -52.6563  -25.8958 C   0  0  0  0  0  0  0  0  0  0  0  0
    1.3632  -52.9636  -24.7022 O   0  0  0  0  0  0  0  0  0  0  0  0
    0.8533  -51.9790  -19.4614 C   0  0  0  0  0  0  0  0  0  0  0  0
    0.0839  -51.4215  -18.6742 O   0  0  0  0  0  0  0  0  0  0  0  0
    2.2081  -51.8698  -19.1355 O   0  0  0  0  0  0  0  0  0  0  0  0
    2.7697  -50.7322  -18.5517 C   0  0  0  0  0  0  0  0  0  0  0  0
    4.0390  -50.2635  -19.1803 C   0  0  0  0  0  0  0  0  0  0  0  0
    1.7984  -49.5486  -18.5670 C   0  0  0  0  0  0  0  0  0  0  0  0
    3.0414  -51.0374  -17.0935 C   0  0  0  0  0  0  0  0  0  0  0  0
 23 24  1  0  0  0
 24 21  1  0  0  0
 21 22  2  0  0  0
 21  1  1  0  0  0
  1  2  1  0  0  0
  2  3  1  0  0  0
  3 25  1  0  0  0
 25 26  2  0  0  0
 25 27  1  0  0  0
 27 28  1  0  0  0
 28 29  1  0  0  0
 28 30  1  0  0  0
 28 31  1  0  0  0
  3  4  2  0  0  0
  4  5  1  0  0  0
  4  6  1  0  0  0
  6  7  2  0  0  0
  7  8  1  0  0  0
  2  9  1  0  0  0
  9 10  2  0  0  0
 10 11  1  0  0  0
 11 12  2  0  0  0
 12 13  1  0  0  0
 13 14  2  0  0  0
 12 15  1  0  0  0
 15 16  2  0  0  0
 16 17  1  0  0  0
 17 18  2  0  0  0
 18 19  1  0  0  0
 19 20  2  0  0  0
  7  1  1  0  0  0
 14  9  1  0  0  0
 20 15  1  0  0  0
M  END
> <minimizedAffinity>
-5.24891

> <CNNscore>
0.3640281260

> <CNNaffinity>
6.0701055527

> <CNN_VS>
2.2096891403

> <CNNaffinity_variance>
0.1861669719

$$$$
[H]c1c([H])c([H])c(-c2c([H])c([H])c(C3([H])C(C(=O)OC(C([H])([H])[H])(C([H])([H])[H])C([H])([H])[H])=C(C([H])([H])[H])N=C(C([H])([H])[H])C3([H])C(=O)OC([H])([H])[H])c([H])c2[H])c([H])c1[H]


 31 33  0  0  0  0  0  0  0  0999 V2000
   -0.9883  -52.6181  -20.5666 C   0  0  0  0  0  0  0  0  0  0  0  0
   -0.2815  -51.5625  -21.2806 C   0  0  0  0  0  0  0  0  0  0  0  0
    0.7841  -50.8122  -20.5740 C   0  0  0  0  0  0  0  0  0  0  0  0
    1.1033  -51.1186  -19.3542 C   0  0  0  0  0  0  0  0  0  0  0  0
    2.1666  -50.3775  -18.6401 C   0  0  0  0  0  0  0  0  0  0  0  0
    0.4171  -52.1794  -18.6594 N   0  0  0  0  0  0  0  0  0  0  0  0
   -0.5052  -52.8411  -19.1945 C   0  0  0  0  0  0  0  0  0  0  0  0
   -1.1459  -53.9321  -18.3564 C   0  0  0  0  0  0  0  0  0  0  0  0
    0.1671  -51.9252  -22.6660 C   0  0  0  0  0  0  0  0  0  0  0  0
   -0.7530  -51.8539  -23.6900 C   0  0  0  0  0  0  0  0  0  0  0  0
   -0.3328  -52.1825  -24.9596 C   0  0  0  0  0  0  0  0  0  0  0  0
    0.9477  -52.5784  -25.2759 C   0  0  0  0  0  0  0  0  0  0  0  0
    1.8354  -52.6347  -24.2151 C   0  0  0  0  0  0  0  0  0  0  0  0
    1.4638  -52.3163  -22.9286 C   0  0  0  0  0  0  0  0  0  0  0  0
    1.3519  -52.9181  -26.6344 C   0  0  0  0  0  0  0  0  0  0  0  0
    0.4752  -52.6716  -27.6685 C   0  0  0  0  0  0  0  0  0  0  0  0
    0.7824  -52.9637  -28.9770 C   0  0  0  0  0  0  0  0  0  0  0  0
    2.0014  -53.5160  -29.2424 C   0  0  0  0  0  0  0  0  0  0  0  0
    2.8861  -53.7659  -28.2075 C   0  0  0  0  0  0  0  0  0  0  0  0
    2.5796  -53.4731  -26.8914 C   0  0  0  0  0  0  0  0  0  0  0  0
   -1.0078  -53.9624  -21.2173 C   0  0  0  0  0  0  0  0  0  0  0  0
   -0.0783  -54.7632  -20.9534 O   0  0  0  0  0  0  0  0  0  0  0  0
   -1.8251  -55.5309  -22.9260 C   0  0  0  0  0  0  0  0  0  0  0  0
   -1.9796  -54.3954  -22.0952 O   0  0  0  0  0  0  0  0  0  0  0  0
    1.4229  -49.7496  -21.3036 C   0  0  0  0  0  0  0  0  0  0  0  0
    0.9152  -48.6308  -21.4168 O   0  0  0  0  0  0  0  0  0  0  0  0
    2.6597  -49.9004  -21.9372 O   0  0  0  0  0  0  0  0  0  0  0  0
    3.1857  -48.9646  -22.8304 C   0  0  0  0  0  0  0  0  0  0  0  0
    2.3041  -48.6347  -23.9880 C   0  0  0  0  0  0  0  0  0  0  0  0
    3.5238  -47.6435  -22.1340 C   0  0  0  0  0  0  0  0  0  0  0  0
    4.4943  -49.5081  -23.3644 C   0  0  0  0  0  0  0  0  0  0  0  0
 23 24  1  0  0  0
 24 21  1  0  0  0
 21 22  2  0  0  0
 21  1  1  0  0  0
  1  2  1  0  0  0
  2  3  1  0  0  0
  3 25  1  0  0  0
 25 26  2  0  0  0
 25 27  1  0  0  0
 27 28  1  0  0  0
 28 29  1  0  0  0
 28 30  1  0  0  0
 28 31  1  0  0  0
  3  4  2  0  0  0
  4  5  1  0  0  0
  4  6  1  0  0  0
  6  7  2  0  0  0
  7  8  1  0  0  0
  2  9  1  0  0  0
  9 10  2  0  0  0
 10 11  1  0  0  0
 11 12  2  0  0  0
 12 13  1  0  0  0
 13 14  2  0  0  0
 12 15  1  0  0  0
 15 16  2  0  0  0
 16 17  1  0  0  0
 17 18  2  0  0  0
 18 19  1  0  0  0
 19 20  2  0  0  0
  7  1  1  0  0  0
 14  9  1  0  0  0
 20 15  1  0  0  0
M  END
> <minimizedAffinity>
-3.68851

> <CNNscore>
0.3367090821

> <CNNaffinity>
5.9765062332

> <CNN_VS>
2.0123438835

> <CNNaffinity_variance>
0.1183912754

$$$$
[H]c1c([H])c([H])c(-c2c([H])c([H])c(C3([H])C(C(=O)OC(C([H])([H])[H])(C([H])([H])[H])C([H])([H])[H])=C(C([H])([H])[H])N=C(C([H])([H])[H])C3([H])C(=O)OC([H])([H])[H])c([H])c2[H])c([H])c1[H]


 31 33  0  0  0  0  0  0  0  0999 V2000
    3.1701  -49.4548  -23.5255 C   0  0  0  0  0  0  0  0  0  0  0  0
    2.0159  -50.2960  -23.2362 C   0  0  0  0  0  0  0  0  0  0  0  0
    1.8546  -51.5679  -23.9808 C   0  0  0  0  0  0  0  0  0  0  0  0
    2.7473  -51.9387  -24.8465 C   0  0  0  0  0  0  0  0  0  0  0  0
    2.5973  -53.2070  -25.5938 C   0  0  0  0  0  0  0  0  0  0  0  0
    3.8998  -51.1143  -25.1127 N   0  0  0  0  0  0  0  0  0  0  0  0
    4.0865  -50.0188  -24.5296 C   0  0  0  0  0  0  0  0  0  0  0  0
    5.3400  -49.2469  -24.8985 C   0  0  0  0  0  0  0  0  0  0  0  0
    1.7351  -50.5068  -21.7772 C   0  0  0  0  0  0  0  0  0  0  0  0
    0.7787  -49.7173  -21.1756 C   0  0  0  0  0  0  0  0  0  0  0  0
    0.5221  -49.9202  -19.8379 C   0  0  0  0  0  0  0  0  0  0  0  0
    1.1581  -50.8609  -19.0589 C   0  0  0  0  0  0  0  0  0  0  0  0
    2.1099  -51.6293  -19.7070 C   0  0  0  0  0  0  0  0  0  0  0  0
    2.4023  -51.4646  -21.0419 C   0  0  0  0  0  0  0  0  0  0  0  0
    0.8568  -51.0435  -17.6446 C   0  0  0  0  0  0  0  0  0  0  0  0
   -0.3552  -51.5954  -17.2906 C   0  0  0  0  0  0  0  0  0  0  0  0
   -0.7136  -51.8000  -15.9785 C   0  0  0  0  0  0  0  0  0  0  0  0
    0.1734  -51.4385  -15.0069 C   0  0  0  0  0  0  0  0  0  0  0  0
    1.3923  -50.8837  -15.3567 C   0  0  0  0  0  0  0  0  0  0  0  0
    1.7548  -50.6770  -16.6749 C   0  0  0  0  0  0  0  0  0  0  0  0
    4.0235  -49.0741  -22.3603 C   0  0  0  0  0  0  0  0  0  0  0  0
    3.8360  -47.9531  -21.8282 O   0  0  0  0  0  0  0  0  0  0  0  0
    5.6338  -49.5967  -20.5766 C   0  0  0  0  0  0  0  0  0  0  0  0
    5.0121  -49.8689  -21.8188 O   0  0  0  0  0  0  0  0  0  0  0  0
    0.6772  -52.3431  -23.6943 C   0  0  0  0  0  0  0  0  0  0  0  0
   -0.4172  -52.0915  -24.2055 O   0  0  0  0  0  0  0  0  0  0  0  0
    0.6805  -53.4339  -22.8203 O   0  0  0  0  0  0  0  0  0  0  0  0
   -0.4034  -53.7713  -22.0069 C   0  0  0  0  0  0  0  0  0  0  0  0
   -1.2929  -52.6315  -21.6387 C   0  0  0  0  0  0  0  0  0  0  0  0
   -1.2886  -54.8391  -22.6557 C   0  0  0  0  0  0  0  0  0  0  0  0
    0.1379  -54.3873  -20.7338 C   0  0  0  0  0  0  0  0  0  0  0  0
 23 24  1  0  0  0
 24 21  1  0  0  0
 21 22  2  0  0  0
 21  1  1  0  0  0
  1  2  1  0  0  0
  2  3  1  0  0  0
  3 25  1  0  0  0
 25 26  2  0  0  0
 25 27  1  0  0  0
 27 28  1  0  0  0
 28 29  1  0  0  0
 28 30  1  0  0  0
 28 31  1  0  0  0
  3  4  2  0  0  0
  4  5  1  0  0  0
  4  6  1  0  0  0
  6  7  2  0  0  0
  7  8  1  0  0  0
  2  9  1  0  0  0
  9 10  2  0  0  0
 10 11  1  0  0  0
 11 12  2  0  0  0
 12 13  1  0  0  0
 13 14  2  0  0  0
 12 15  1  0  0  0
 15 16  2  0  0  0
 16 17  1  0  0  0
 17 18  2  0  0  0
 18 19  1  0  0  0
 19 20  2  0  0  0
  7  1  1  0  0  0
 14  9  1  0  0  0
 20 15  1  0  0  0
M  END
> <minimizedAffinity>
-7.03483

> <CNNscore>
0.2705279887

> <CNNaffinity>
5.9498252869

> <CNN_VS>
1.6095942259

> <CNNaffinity_variance>
0.2532911897

$$$$
[H]c1c([H])c([H])c(-c2c([H])c([H])c(C3([H])C(C(=O)OC(C([H])([H])[H])(C([H])([H])[H])C([H])([H])[H])=C(C([H])([H])[H])N=C(C([H])([H])[H])C3([H])C(=O)OC([H])([H])[H])c([H])c2[H])c([H])c1[H]


 31 33  0  0  0  0  0  0  0  0999 V2000
   -0.5845  -51.4719  -18.4385 C   0  0  0  0  0  0  0  0  0  0  0  0
    0.5860  -50.6194  -18.2750 C   0  0  0  0  0  0  0  0  0  0  0  0
    1.2954  -50.6223  -16.9732 C   0  0  0  0  0  0  0  0  0  0  0  0
    0.8995  -51.3993  -16.0124 C   0  0  0  0  0  0  0  0  0  0  0  0
    1.6014  -51.4116  -14.7097 C   0  0  0  0  0  0  0  0  0  0  0  0
   -0.2452  -52.2585  -16.1865 N   0  0  0  0  0  0  0  0  0  0  0  0
   -0.8995  -52.2908  -17.2568 C   0  0  0  0  0  0  0  0  0  0  0  0
   -2.0828  -53.2395  -17.3125 C   0  0  0  0  0  0  0  0  0  0  0  0
    1.5711  -50.6720  -19.4058 C   0  0  0  0  0  0  0  0  0  0  0  0
    1.4957  -49.7030  -20.3833 C   0  0  0  0  0  0  0  0  0  0  0  0
    2.4067  -49.7541  -21.4148 C   0  0  0  0  0  0  0  0  0  0  0  0
    3.3902  -50.7103  -21.5359 C   0  0  0  0  0  0  0  0  0  0  0  0
    3.4263  -51.6616  -20.5308 C   0  0  0  0  0  0  0  0  0  0  0  0
    2.5380  -51.6534  -19.4793 C   0  0  0  0  0  0  0  0  0  0  0  0
    4.3356  -50.7288  -22.6450 C   0  0  0  0  0  0  0  0  0  0  0  0
    4.8230  -51.9417  -23.0809 C   0  0  0  0  0  0  0  0  0  0  0  0
    5.7174  -52.0427  -24.1209 C   0  0  0  0  0  0  0  0  0  0  0  0
    6.1255  -50.8925  -24.7308 C   0  0  0  0  0  0  0  0  0  0  0  0
    5.6391  -49.6712  -24.2971 C   0  0  0  0  0  0  0  0  0  0  0  0
    4.7400  -49.5671  -23.2519 C   0  0  0  0  0  0  0  0  0  0  0  0
   -0.5629  -52.4152  -19.5963 C   0  0  0  0  0  0  0  0  0  0  0  0
   -0.0665  -53.5549  -19.4244 O   0  0  0  0  0  0  0  0  0  0  0  0
   -0.4128  -52.5350  -22.0480 C   0  0  0  0  0  0  0  0  0  0  0  0
   -1.0521  -52.1264  -20.8531 O   0  0  0  0  0  0  0  0  0  0  0  0
    2.4176  -49.7317  -16.8435 C   0  0  0  0  0  0  0  0  0  0  0  0
    3.5835  -50.1355  -16.8562 O   0  0  0  0  0  0  0  0  0  0  0  0
    2.2764  -48.3492  -16.6936 O   0  0  0  0  0  0  0  0  0  0  0  0
    2.9007  -47.6172  -15.6814 C   0  0  0  0  0  0  0  0  0  0  0  0
    3.0773  -48.3486  -14.3930 C   0  0  0  0  0  0  0  0  0  0  0  0
    4.2855  -47.1239  -16.1099 C   0  0  0  0  0  0  0  0  0  0  0  0
    2.0726  -46.3769  -15.4186 C   0  0  0  0  0  0  0  0  0  0  0  0
 23 24  1  0  0  0
 24 21  1  0  0  0
 21 22  2  0  0  0
 21  1  1  0  0  0
  1  2  1  0  0  0
  2  3  1  0  0  0
  3 25  1  0  0  0
 25 26  2  0  0  0
 25 27  1  0  0  0
 27 28  1  0  0  0
 28 29  1  0  0  0
 28 30  1  0  0  0
 28 31  1  0  0  0
  3  4  2  0  0  0
  4  5  1  0  0  0
  4  6  1  0  0  0
  6  7  2  0  0  0
  7  8  1  0  0  0
  2  9  1  0  0  0
  9 10  2  0  0  0
 10 11  1  0  0  0
 11 12  2  0  0  0
 12 13  1  0  0  0
 13 14  2  0  0  0
 12 15  1  0  0  0
 15 16  2  0  0  0
 16 17  1  0  0  0
 17 18  2  0  0  0
 18 19  1  0  0  0
 19 20  2  0  0  0
  7  1  1  0  0  0
 14  9  1  0  0  0
 20 15  1  0  0  0
M  END
> <minimizedAffinity>
-5.00764

> <CNNscore>
0.2696534693

> <CNNaffinity>
5.5016412735

> <CNN_VS>
1.4835366011

> <CNNaffinity_variance>
0.1276410520

$$$$
[H]c1c([H])c([H])c(-c2c([H])c([H])c(C3([H])C(C(=O)OC(C([H])([H])[H])(C([H])([H])[H])C([H])([H])[H])=C(C([H])([H])[H])N=C(C([H])([H])[H])C3([H])C(=O)OC([H])([H])[H])c([H])c2[H])c([H])c1[H]


 31 33  0  0  0  0  0  0  0  0999 V2000
    1.0056  -52.1898  -25.2896 C   0  0  0  0  0  0  0  0  0  0  0  0
    0.4673  -51.7561  -24.0067 C   0  0  0  0  0  0  0  0  0  0  0  0
   -0.4183  -52.6778  -23.2555 C   0  0  0  0  0  0  0  0  0  0  0  0
   -0.6762  -53.8622  -23.7186 C   0  0  0  0  0  0  0  0  0  0  0  0
   -1.5572  -54.7908  -22.9761 C   0  0  0  0  0  0  0  0  0  0  0  0
   -0.1225  -54.2958  -24.9772 N   0  0  0  0  0  0  0  0  0  0  0  0
    0.6197  -53.5582  -25.6699 C   0  0  0  0  0  0  0  0  0  0  0  0
    1.1387  -54.1338  -26.9747 C   0  0  0  0  0  0  0  0  0  0  0  0
    1.4654  -51.1229  -23.0821 C   0  0  0  0  0  0  0  0  0  0  0  0
    1.4126  -49.7575  -22.9004 C   0  0  0  0  0  0  0  0  0  0  0  0
    2.3278  -49.1840  -22.0460 C   0  0  0  0  0  0  0  0  0  0  0  0
    3.2945  -49.8843  -21.3594 C   0  0  0  0  0  0  0  0  0  0  0  0
    3.3081  -51.2519  -21.5740 C   0  0  0  0  0  0  0  0  0  0  0  0
    2.4148  -51.8719  -22.4180 C   0  0  0  0  0  0  0  0  0  0  0  0
    4.2456  -49.2381  -20.4636 C   0  0  0  0  0  0  0  0  0  0  0  0
    5.1727  -48.3689  -20.9960 C   0  0  0  0  0  0  0  0  0  0  0  0
    6.1028  -47.7202  -20.2175 C   0  0  0  0  0  0  0  0  0  0  0  0
    6.0928  -47.9570  -18.8739 C   0  0  0  0  0  0  0  0  0  0  0  0
    5.1636  -48.8292  -18.3336 C   0  0  0  0  0  0  0  0  0  0  0  0
    4.2277  -49.4825  -19.1141 C   0  0  0  0  0  0  0  0  0  0  0  0
    2.4899  -52.1254  -25.4432 C   0  0  0  0  0  0  0  0  0  0  0  0
    2.9799  -51.1582  -26.0753 O   0  0  0  0  0  0  0  0  0  0  0  0
    4.5645  -52.7095  -24.2591 C   0  0  0  0  0  0  0  0  0  0  0  0
    3.3724  -53.0573  -24.9382 O   0  0  0  0  0  0  0  0  0  0  0  0
   -0.9620  -52.1896  -22.0164 C   0  0  0  0  0  0  0  0  0  0  0  0
   -2.1722  -52.0130  -21.8527 O   0  0  0  0  0  0  0  0  0  0  0  0
   -0.1679  -51.8790  -20.9088 O   0  0  0  0  0  0  0  0  0  0  0  0
   -0.1967  -52.6020  -19.7144 C   0  0  0  0  0  0  0  0  0  0  0  0
    0.2048  -51.8308  -18.5020 C   0  0  0  0  0  0  0  0  0  0  0  0
   -1.5861  -53.1826  -19.4363 C   0  0  0  0  0  0  0  0  0  0  0  0
    0.7354  -53.7866  -19.8591 C   0  0  0  0  0  0  0  0  0  0  0  0
 23 24  1  0  0  0
 24 21  1  0  0  0
 21 22  2  0  0  0
 21  1  1  0  0  0
  1  2  1  0  0  0
  2  3  1  0  0  0
  3 25  1  0  0  0
 25 26  2  0  0  0
 25 27  1  0  0  0
 27 28  1  0  0  0
 28 29  1  0  0  0
 28 30  1  0  0  0
 28 31  1  0  0  0
  3  4  2  0  0  0
  4  5  1  0  0  0
  4  6  1  0  0  0
  6  7  2  0  0  0
  7  8  1  0  0  0
  2  9  1  0  0  0
  9 10  2  0  0  0
 10 11  1  0  0  0
 11 12  2  0  0  0
 12 13  1  0  0  0
 13 14  2  0  0  0
 12 15  1  0  0  0
 15 16  2  0  0  0
 16 17  1  0  0  0
 17 18  2  0  0  0
 18 19  1  0  0  0
 19 20  2  0  0  0
  7  1  1  0  0  0
 14  9  1  0  0  0
 20 15  1  0  0  0
M  END
> <minimizedAffinity>
-5.42681

> <CNNscore>
0.2589634061

> <CNNaffinity>
6.1461353302

> <CNN_VS>
1.5916241407

> <CNNaffinity_variance>
0.2368563712

$$$$
[H]c1c([H])c([H])c(-c2c([H])c([H])c(C3([H])C(C(=O)OC(C([H])([H])[H])(C([H])([H])[H])C([H])([H])[H])=C(C([H])([H])[H])N=C(C([H])([H])[H])C3([H])C(=O)OC([H])([H])[H])c([H])c2[H])c([H])c1[H]


 31 33  0  0  0  0  0  0  0  0999 V2000
    0.7463  -53.2515  -24.3910 C   0  0  0  0  0  0  0  0  0  0  0  0
    1.6370  -52.3031  -23.7345 C   0  0  0  0  0  0  0  0  0  0  0  0
    2.0481  -51.0830  -24.4697 C   0  0  0  0  0  0  0  0  0  0  0  0
    1.5907  -50.8502  -25.6615 C   0  0  0  0  0  0  0  0  0  0  0  0
    1.9930  -49.6347  -26.4034 C   0  0  0  0  0  0  0  0  0  0  0  0
    0.6912  -51.7799  -26.2980 N   0  0  0  0  0  0  0  0  0  0  0  0
    0.3184  -52.8389  -25.7373 C   0  0  0  0  0  0  0  0  0  0  0  0
   -0.6313  -53.7322  -26.5141 C   0  0  0  0  0  0  0  0  0  0  0  0
    1.2672  -51.9604  -22.3211 C   0  0  0  0  0  0  0  0  0  0  0  0
    1.9277  -52.6066  -21.2983 C   0  0  0  0  0  0  0  0  0  0  0  0
    1.5874  -52.2829  -20.0038 C   0  0  0  0  0  0  0  0  0  0  0  0
    0.6293  -51.3549  -19.6614 C   0  0  0  0  0  0  0  0  0  0  0  0
   -0.0064  -50.7326  -20.7221 C   0  0  0  0  0  0  0  0  0  0  0  0
    0.2982  -51.0216  -22.0330 C   0  0  0  0  0  0  0  0  0  0  0  0
    0.2985  -51.0413  -18.2770 C   0  0  0  0  0  0  0  0  0  0  0  0
    1.0503  -50.0965  -17.6131 C   0  0  0  0  0  0  0  0  0  0  0  0
    0.8013  -49.7454  -16.3067 C   0  0  0  0  0  0  0  0  0  0  0  0
   -0.2293  -50.3637  -15.6611 C   0  0  0  0  0  0  0  0  0  0  0  0
   -0.9880  -51.3136  -16.3230 C   0  0  0  0  0  0  0  0  0  0  0  0
   -0.7396  -51.6682  -17.6362 C   0  0  0  0  0  0  0  0  0  0  0  0
   -0.5038  -53.6076  -23.6552 C   0  0  0  0  0  0  0  0  0  0  0  0
   -1.4015  -52.7365  -23.5538 O   0  0  0  0  0  0  0  0  0  0  0  0
   -1.0863  -54.9906  -21.7070 C   0  0  0  0  0  0  0  0  0  0  0  0
   -0.7495  -54.8334  -23.0728 O   0  0  0  0  0  0  0  0  0  0  0  0
    2.9636  -50.1987  -23.7993 C   0  0  0  0  0  0  0  0  0  0  0  0
    2.5800  -49.2167  -23.1582 O   0  0  0  0  0  0  0  0  0  0  0  0
    4.3492  -50.3810  -23.8218 O   0  0  0  0  0  0  0  0  0  0  0  0
    5.2486  -49.3936  -24.2297 C   0  0  0  0  0  0  0  0  0  0  0  0
    6.1278  -49.7764  -25.3727 C   0  0  0  0  0  0  0  0  0  0  0  0
    4.5298  -48.1023  -24.6302 C   0  0  0  0  0  0  0  0  0  0  0  0
    6.1264  -49.0398  -23.0476 C   0  0  0  0  0  0  0  0  0  0  0  0
 23 24  1  0  0  0
 24 21  1  0  0  0
 21 22  2  0  0  0
 21  1  1  0  0  0
  1  2  1  0  0  0
  2  3  1  0  0  0
  3 25  1  0  0  0
 25 26  2  0  0  0
 25 27  1  0  0  0
 27 28  1  0  0  0
 28 29  1  0  0  0
 28 30  1  0  0  0
 28 31  1  0  0  0
  3  4  2  0  0  0
  4  5  1  0  0  0
  4  6  1  0  0  0
  6  7  2  0  0  0
  7  8  1  0  0  0
  2  9  1  0  0  0
  9 10  2  0  0  0
 10 11  1  0  0  0
 11 12  2  0  0  0
 12 13  1  0  0  0
 13 14  2  0  0  0
 12 15  1  0  0  0
 15 16  2  0  0  0
 16 17  1  0  0  0
 17 18  2  0  0  0
 18 19  1  0  0  0
 19 20  2  0  0  0
  7  1  1  0  0  0
 14  9  1  0  0  0
 20 15  1  0  0  0
M  END
> <minimizedAffinity>
-4.94298

> <CNNscore>
0.2492766529

> <CNNaffinity>
6.0245156288

> <CNN_VS>
1.5017710924

> <CNNaffinity_variance>
0.1831280291

$$$$
[H]N=C(N([H])[H])N([H])C([H])([H])C([H])([H])C([H])([H])[C@@]([H])(C([H])=O)N([H])C(=O)[C@@]1([H])N(C(=O)[C@]([H])(N([H])C(=O)OC([H])([H])c2c([H])c([H])c([H])c([H])c2[H])C([H])([H])c2c([H])c([H])c([H])c([H])c2[H])C([H])([H])C([H])([H])C1([H])[H]


 45 47  0  0  0  0  0  0  0  0999 V2000
    4.2592  -51.1041  -23.2943 C   0  0  0  0  0  0  0  0  0  0  0  0
    4.6846  -52.2893  -24.0935 C   0  0  0  0  0  0  0  0  0  0  0  0
    3.4038  -52.7287  -24.7716 C   0  0  0  0  0  0  0  0  0  0  0  0
    2.3011  -52.0897  -23.9394 C   0  0  0  0  0  0  0  0  0  0  0  0
    2.9811  -51.5559  -22.7635 N   0  0  0  0  0  0  0  0  0  0  0  0
    2.5622  -51.4415  -21.4259 C   0  0  0  0  0  0  0  0  0  0  0  0
    3.3621  -50.8369  -20.6219 O   0  0  0  0  0  0  0  0  0  0  0  0
    4.8182  -49.4966  -25.2266 N   0  0  0  0  0  0  0  0  0  0  0  0
    4.2204  -49.8369  -24.0015 C   0  0  0  0  0  0  0  0  0  0  0  0
    3.5458  -48.9050  -23.4263 O   0  0  0  0  0  0  0  0  0  0  0  0
    5.3606  -50.2187  -25.7346 H   0  0  0  0  0  0  0  0  0  0  0  0
    4.7135  -48.1869  -25.8312 C   0  0  0  0  0  0  0  0  0  0  0  0
    3.7206  -48.0983  -26.9169 C   0  0  0  0  0  0  0  0  0  0  0  0
    3.5226  -49.0120  -27.6945 O   0  0  0  0  0  0  0  0  0  0  0  0
    6.0321  -47.5976  -26.1770 C   0  0  0  0  0  0  0  0  0  0  0  0
    6.8779  -48.3334  -27.1465 C   0  0  0  0  0  0  0  0  0  0  0  0
    6.7457  -47.9372  -28.5791 C   0  0  0  0  0  0  0  0  0  0  0  0
    6.3221  -49.0460  -29.4064 N   0  0  0  0  0  0  0  0  0  0  0  0
    6.6646  -49.9969  -29.1637 H   0  0  0  0  0  0  0  0  0  0  0  0
    5.6486  -49.5677  -31.7632 N   0  0  0  0  0  0  0  0  0  0  0  0
    5.4658  -48.8841  -30.5150 C   0  0  0  0  0  0  0  0  0  0  0  0
    4.4387  -48.0745  -30.4324 N   0  0  0  0  0  0  0  0  0  0  0  0
    6.3065  -49.1617  -32.4591 H   0  0  0  0  0  0  0  0  0  0  0  0
    5.1329  -50.4544  -31.9780 H   0  0  0  0  0  0  0  0  0  0  0  0
    4.3062  -47.5752  -29.5190 H   0  0  0  0  0  0  0  0  0  0  0  0
    1.2834  -51.9602  -20.8812 C   0  0  0  0  0  0  0  0  0  0  0  0
    0.3852  -52.3650  -21.9774 N   0  0  0  0  0  0  0  0  0  0  0  0
   -0.2853  -53.6096  -21.9618 C   0  0  0  0  0  0  0  0  0  0  0  0
   -0.1075  -54.4085  -20.9687 O   0  0  0  0  0  0  0  0  0  0  0  0
    0.2574  -51.7197  -22.7685 H   0  0  0  0  0  0  0  0  0  0  0  0
   -1.1424  -54.0573  -22.9497 O   0  0  0  0  0  0  0  0  0  0  0  0
   -0.6766  -54.9109  -23.9543 C   0  0  0  0  0  0  0  0  0  0  0  0
   -0.4667  -54.1149  -25.1895 C   0  0  0  0  0  0  0  0  0  0  0  0
   -0.9223  -52.7971  -25.2993 C   0  0  0  0  0  0  0  0  0  0  0  0
   -0.7484  -52.0364  -26.4304 C   0  0  0  0  0  0  0  0  0  0  0  0
   -0.1015  -52.5463  -27.5297 C   0  0  0  0  0  0  0  0  0  0  0  0
    0.3524  -53.8549  -27.4184 C   0  0  0  0  0  0  0  0  0  0  0  0
    0.1756  -54.6083  -26.2940 C   0  0  0  0  0  0  0  0  0  0  0  0
    0.4892  -50.8967  -20.1401 C   0  0  0  0  0  0  0  0  0  0  0  0
    0.2167  -51.1615  -18.7466 C   0  0  0  0  0  0  0  0  0  0  0  0
    0.7708  -50.4390  -17.7228 C   0  0  0  0  0  0  0  0  0  0  0  0
    0.4862  -50.7416  -16.3887 C   0  0  0  0  0  0  0  0  0  0  0  0
   -0.3792  -51.7983  -16.1354 C   0  0  0  0  0  0  0  0  0  0  0  0
   -0.9555  -52.5446  -17.1533 C   0  0  0  0  0  0  0  0  0  0  0  0
   -0.6510  -52.2185  -18.4464 C   0  0  0  0  0  0  0  0  0  0  0  0
 20 21  1  0  0  0
 21 22  2  0  0  0
 21 18  1  0  0  0
 18 17  1  0  0  0
 17 16  1  0  0  0
 16 15  1  0  0  0
 15 12  1  0  0  0
 12  8  1  0  0  0
  8  9  1  0  0  0
  9 10  2  0  0  0
  9  1  1  0  0  0
  1  2  1  0  0  0
  2  3  1  0  0  0
  3  4  1  0  0  0
  4  5  1  0  0  0
  5  6  1  0  0  0
  6  7  2  0  0  0
  6 26  1  0  0  0
 26 39  1  0  0  0
 39 40  1  0  0  0
 40 41  2  0  0  0
 41 42  1  0  0  0
 42 43  2  0  0  0
 43 44  1  0  0  0
 44 45  2  0  0  0
 26 27  1  0  0  0
 27 28  1  0  0  0
 28 29  2  0  0  0
 28 31  1  0  0  0
 31 32  1  0  0  0
 32 33  1  0  0  0
 33 34  2  0  0  0
 34 35  1  0  0  0
 35 36  2  0  0  0
 36 37  1  0  0  0
 37 38  2  0  0  0
 12 13  1  0  0  0
 13 14  2  0  0  0
  5  1  1  0  0  0
 45 40  1  0  0  0
 38 33  1  0  0  0
 20 23  1  0  0  0
 20 24  1  0  0  0
 22 25  1  0  0  0
 18 19  1  0  0  0
  8 11  1  0  0  0
 27 30  1  0  0  0
M  END
> <minimizedAffinity>
-7.33853

> <CNNscore>
0.3690252304

> <CNNaffinity>
6.9099187851

> <CNN_VS>
2.5499343872

> <CNNaffinity_variance>
0.0803655535

$$$$
[H]N=C(N([H])[H])N([H])C([H])([H])C([H])([H])C([H])([H])[C@@]([H])(C([H])=O)N([H])C(=O)[C@@]1([H])N(C(=O)[C@]([H])(N([H])C(=O)OC([H])([H])c2c([H])c([H])c([H])c([H])c2[H])C([H])([H])c2c([H])c([H])c([H])c([H])c2[H])C([H])([H])C([H])([H])C1([H])[H]


 45 47  0  0  0  0  0  0  0  0999 V2000
    4.6624  -47.3723  -23.6039 C   0  0  0  0  0  0  0  0  0  0  0  0
    6.0497  -47.5961  -23.1045 C   0  0  0  0  0  0  0  0  0  0  0  0
    6.4244  -48.9336  -23.7078 C   0  0  0  0  0  0  0  0  0  0  0  0
    5.0893  -49.5682  -24.0705 C   0  0  0  0  0  0  0  0  0  0  0  0
    4.0851  -48.7012  -23.4620 N   0  0  0  0  0  0  0  0  0  0  0  0
    2.8349  -48.9952  -22.8892 C   0  0  0  0  0  0  0  0  0  0  0  0
    2.1255  -47.9928  -22.5097 O   0  0  0  0  0  0  0  0  0  0  0  0
    5.1901  -47.1701  -26.1161 N   0  0  0  0  0  0  0  0  0  0  0  0
    4.5462  -46.7873  -24.9275 C   0  0  0  0  0  0  0  0  0  0  0  0
    3.7442  -45.7859  -25.0192 O   0  0  0  0  0  0  0  0  0  0  0  0
    5.8354  -47.9805  -26.0952 H   0  0  0  0  0  0  0  0  0  0  0  0
    4.9972  -46.4984  -27.3825 C   0  0  0  0  0  0  0  0  0  0  0  0
    3.8864  -47.0342  -28.1896 C   0  0  0  0  0  0  0  0  0  0  0  0
    3.7600  -48.2222  -28.4164 O   0  0  0  0  0  0  0  0  0  0  0  0
    6.2588  -46.3195  -28.1453 C   0  0  0  0  0  0  0  0  0  0  0  0
    6.1475  -46.0281  -29.5942 C   0  0  0  0  0  0  0  0  0  0  0  0
    6.7685  -47.0188  -30.5213 C   0  0  0  0  0  0  0  0  0  0  0  0
    6.4651  -48.3798  -30.1352 N   0  0  0  0  0  0  0  0  0  0  0  0
    6.8157  -48.7181  -29.2171 H   0  0  0  0  0  0  0  0  0  0  0  0
    5.6736  -49.1609  -32.3810 N   0  0  0  0  0  0  0  0  0  0  0  0
    5.7136  -49.2519  -30.9497 C   0  0  0  0  0  0  0  0  0  0  0  0
    5.0046  -50.2075  -30.4007 N   0  0  0  0  0  0  0  0  0  0  0  0
    5.0061  -48.4927  -32.8169 H   0  0  0  0  0  0  0  0  0  0  0  0
    6.2969  -49.7524  -32.9809 H   0  0  0  0  0  0  0  0  0  0  0  0
    5.0348  -50.2729  -29.3538 H   0  0  0  0  0  0  0  0  0  0  0  0
    2.2815  -50.3576  -22.6927 C   0  0  0  0  0  0  0  0  0  0  0  0
    1.7839  -50.8987  -23.9701 N   0  0  0  0  0  0  0  0  0  0  0  0
    2.3480  -52.0574  -24.5515 C   0  0  0  0  0  0  0  0  0  0  0  0
    3.3187  -52.6538  -23.9531 O   0  0  0  0  0  0  0  0  0  0  0  0
    1.0119  -50.4082  -24.4414 H   0  0  0  0  0  0  0  0  0  0  0  0
    1.9350  -52.6242  -25.7428 O   0  0  0  0  0  0  0  0  0  0  0  0
    0.9544  -53.6209  -25.7474 C   0  0  0  0  0  0  0  0  0  0  0  0
   -0.1976  -53.1450  -26.5534 C   0  0  0  0  0  0  0  0  0  0  0  0
   -0.2348  -53.2999  -27.9430 C   0  0  0  0  0  0  0  0  0  0  0  0
   -1.2837  -52.8656  -28.7172 C   0  0  0  0  0  0  0  0  0  0  0  0
   -2.3705  -52.2474  -28.1482 C   0  0  0  0  0  0  0  0  0  0  0  0
   -2.3332  -52.0961  -26.7674 C   0  0  0  0  0  0  0  0  0  0  0  0
   -1.2883  -52.5267  -26.0020 C   0  0  0  0  0  0  0  0  0  0  0  0
    1.0539  -50.3665  -21.7961 C   0  0  0  0  0  0  0  0  0  0  0  0
    0.5551  -51.6667  -21.4130 C   0  0  0  0  0  0  0  0  0  0  0  0
    1.1060  -52.4155  -20.4065 C   0  0  0  0  0  0  0  0  0  0  0  0
    0.5955  -53.6747  -20.0807 C   0  0  0  0  0  0  0  0  0  0  0  0
   -0.4909  -54.1408  -20.8101 C   0  0  0  0  0  0  0  0  0  0  0  0
   -1.0691  -53.4022  -21.8326 C   0  0  0  0  0  0  0  0  0  0  0  0
   -0.5398  -52.1747  -22.1226 C   0  0  0  0  0  0  0  0  0  0  0  0
 20 21  1  0  0  0
 21 22  2  0  0  0
 21 18  1  0  0  0
 18 17  1  0  0  0
 17 16  1  0  0  0
 16 15  1  0  0  0
 15 12  1  0  0  0
 12  8  1  0  0  0
  8  9  1  0  0  0
  9 10  2  0  0  0
  9  1  1  0  0  0
  1  2  1  0  0  0
  2  3  1  0  0  0
  3  4  1  0  0  0
  4  5  1  0  0  0
  5  6  1  0  0  0
  6  7  2  0  0  0
  6 26  1  0  0  0
 26 39  1  0  0  0
 39 40  1  0  0  0
 40 41  2  0  0  0
 41 42  1  0  0  0
 42 43  2  0  0  0
 43 44  1  0  0  0
 44 45  2  0  0  0
 26 27  1  0  0  0
 27 28  1  0  0  0
 28 29  2  0  0  0
 28 31  1  0  0  0
 31 32  1  0  0  0
 32 33  1  0  0  0
 33 34  2  0  0  0
 34 35  1  0  0  0
 35 36  2  0  0  0
 36 37  1  0  0  0
 37 38  2  0  0  0
 12 13  1  0  0  0
 13 14  2  0  0  0
  5  1  1  0  0  0
 45 40  1  0  0  0
 38 33  1  0  0  0
 20 23  1  0  0  0
 20 24  1  0  0  0
 22 25  1  0  0  0
 18 19  1  0  0  0
  8 11  1  0  0  0
 27 30  1  0  0  0
M  END
> <minimizedAffinity>
-7.19670

> <CNNscore>
0.2423954606

> <CNNaffinity>
6.3973512650

> <CNN_VS>
1.5506888628

> <CNNaffinity_variance>
0.4457775950

$$$$
[H]N=C(N([H])[H])N([H])C([H])([H])C([H])([H])C([H])([H])[C@@]([H])(C([H])=O)N([H])C(=O)[C@@]1([H])N(C(=O)[C@]([H])(N([H])C(=O)OC([H])([H])c2c([H])c([H])c([H])c([H])c2[H])C([H])([H])c2c([H])c([H])c([H])c([H])c2[H])C([H])([H])C([H])([H])C1([H])[H]


 45 47  0  0  0  0  0  0  0  0999 V2000
    0.6823  -53.0852  -22.4940 C   0  0  0  0  0  0  0  0  0  0  0  0
   -0.2330  -54.1181  -21.9287 C   0  0  0  0  0  0  0  0  0  0  0  0
   -1.3821  -53.2998  -21.3779 C   0  0  0  0  0  0  0  0  0  0  0  0
   -0.8075  -51.8979  -21.2319 C   0  0  0  0  0  0  0  0  0  0  0  0
    0.6243  -52.0537  -21.4683 N   0  0  0  0  0  0  0  0  0  0  0  0
    1.7310  -51.3899  -20.9095 C   0  0  0  0  0  0  0  0  0  0  0  0
    2.8848  -51.6891  -21.3904 O   0  0  0  0  0  0  0  0  0  0  0  0
   -0.5696  -53.1364  -24.7436 N   0  0  0  0  0  0  0  0  0  0  0  0
    0.3822  -52.6337  -23.8407 C   0  0  0  0  0  0  0  0  0  0  0  0
    1.0832  -51.6391  -24.2577 O   0  0  0  0  0  0  0  0  0  0  0  0
   -1.1681  -53.9288  -24.4477 H   0  0  0  0  0  0  0  0  0  0  0  0
   -0.7717  -52.6026  -26.0726 C   0  0  0  0  0  0  0  0  0  0  0  0
   -2.0643  -51.9201  -26.2613 C   0  0  0  0  0  0  0  0  0  0  0  0
   -2.8821  -52.2893  -27.0821 O   0  0  0  0  0  0  0  0  0  0  0  0
   -0.4463  -53.5750  -27.1468 C   0  0  0  0  0  0  0  0  0  0  0  0
    0.3249  -53.0772  -28.3105 C   0  0  0  0  0  0  0  0  0  0  0  0
    1.5388  -53.8588  -28.6873 C   0  0  0  0  0  0  0  0  0  0  0  0
    2.7531  -53.1018  -28.4736 N   0  0  0  0  0  0  0  0  0  0  0  0
    3.4499  -53.0659  -29.2440 H   0  0  0  0  0  0  0  0  0  0  0  0
    3.1260  -53.0613  -25.9957 N   0  0  0  0  0  0  0  0  0  0  0  0
    3.0189  -52.4138  -27.2716 C   0  0  0  0  0  0  0  0  0  0  0  0
    3.1831  -51.1138  -27.2875 N   0  0  0  0  0  0  0  0  0  0  0  0
    2.2535  -53.2558  -25.4637 H   0  0  0  0  0  0  0  0  0  0  0  0
    4.0578  -53.3326  -25.6004 H   0  0  0  0  0  0  0  0  0  0  0  0
    3.1045  -50.6415  -28.2213 H   0  0  0  0  0  0  0  0  0  0  0  0
    1.6668  -50.3842  -19.8208 C   0  0  0  0  0  0  0  0  0  0  0  0
    0.7144  -50.8134  -18.7811 N   0  0  0  0  0  0  0  0  0  0  0  0
    1.0610  -50.7998  -17.4106 C   0  0  0  0  0  0  0  0  0  0  0  0
    2.2349  -50.4046  -17.0615 O   0  0  0  0  0  0  0  0  0  0  0  0
   -0.2185  -51.1334  -19.0745 H   0  0  0  0  0  0  0  0  0  0  0  0
    0.2234  -51.1846  -16.3803 O   0  0  0  0  0  0  0  0  0  0  0  0
   -0.6693  -52.2464  -16.5558 C   0  0  0  0  0  0  0  0  0  0  0  0
   -2.0296  -51.7853  -16.1814 C   0  0  0  0  0  0  0  0  0  0  0  0
   -2.2290  -50.6258  -15.4251 C   0  0  0  0  0  0  0  0  0  0  0  0
   -3.4745  -50.1760  -15.0581 C   0  0  0  0  0  0  0  0  0  0  0  0
   -4.6075  -50.8590  -15.4281 C   0  0  0  0  0  0  0  0  0  0  0  0
   -4.4079  -52.0097  -16.1812 C   0  0  0  0  0  0  0  0  0  0  0  0
   -3.1690  -52.4547  -16.5418 C   0  0  0  0  0  0  0  0  0  0  0  0
    1.1099  -49.0496  -20.2895 C   0  0  0  0  0  0  0  0  0  0  0  0
    2.0809  -48.0700  -20.7181 C   0  0  0  0  0  0  0  0  0  0  0  0
    2.9336  -47.4314  -19.8566 C   0  0  0  0  0  0  0  0  0  0  0  0
    3.8481  -46.4809  -20.3178 C   0  0  0  0  0  0  0  0  0  0  0  0
    3.8652  -46.2070  -21.6795 C   0  0  0  0  0  0  0  0  0  0  0  0
    3.0142  -46.8408  -22.5738 C   0  0  0  0  0  0  0  0  0  0  0  0
    2.1321  -47.7640  -22.0834 C   0  0  0  0  0  0  0  0  0  0  0  0
 20 21  1  0  0  0
 21 22  2  0  0  0
 21 18  1  0  0  0
 18 17  1  0  0  0
 17 16  1  0  0  0
 16 15  1  0  0  0
 15 12  1  0  0  0
 12  8  1  0  0  0
  8  9  1  0  0  0
  9 10  2  0  0  0
  9  1  1  0  0  0
  1  2  1  0  0  0
  2  3  1  0  0  0
  3  4  1  0  0  0
  4  5  1  0  0  0
  5  6  1  0  0  0
  6  7  2  0  0  0
  6 26  1  0  0  0
 26 39  1  0  0  0
 39 40  1  0  0  0
 40 41  2  0  0  0
 41 42  1  0  0  0
 42 43  2  0  0  0
 43 44  1  0  0  0
 44 45  2  0  0  0
 26 27  1  0  0  0
 27 28  1  0  0  0
 28 29  2  0  0  0
 28 31  1  0  0  0
 31 32  1  0  0  0
 32 33  1  0  0  0
 33 34  2  0  0  0
 34 35  1  0  0  0
 35 36  2  0  0  0
 36 37  1  0  0  0
 37 38  2  0  0  0
 12 13  1  0  0  0
 13 14  2  0  0  0
  5  1  1  0  0  0
 45 40  1  0  0  0
 38 33  1  0  0  0
 20 23  1  0  0  0
 20 24  1  0  0  0
 22 25  1  0  0  0
 18 19  1  0  0  0
  8 11  1  0  0  0
 27 30  1  0  0  0
M  END
> <minimizedAffinity>
-8.02284

> <CNNscore>
0.2279369384

> <CNNaffinity>
6.5186476707

> <CNN_VS>
1.4858405590

> <CNNaffinity_variance>
0.6000638604

$$$$
[H]N=C(N([H])[H])N([H])C([H])([H])C([H])([H])C([H])([H])[C@@]([H])(C([H])=O)N([H])C(=O)[C@@]1([H])N(C(=O)[C@]([H])(N([H])C(=O)OC([H])([H])c2c([H])c([H])c([H])c([H])c2[H])C([H])([H])c2c([H])c([H])c([H])c([H])c2[H])C([H])([H])C([H])([H])C1([H])[H]


 45 47  0  0  0  0  0  0  0  0999 V2000
    0.9073  -53.1847  -21.6486 C   0  0  0  0  0  0  0  0  0  0  0  0
   -0.3633  -53.9263  -21.4038 C   0  0  0  0  0  0  0  0  0  0  0  0
   -1.3924  -52.8218  -21.2837 C   0  0  0  0  0  0  0  0  0  0  0  0
   -0.5718  -51.5767  -20.9788 C   0  0  0  0  0  0  0  0  0  0  0  0
    0.7767  -52.0713  -20.7198 N   0  0  0  0  0  0  0  0  0  0  0  0
    1.7724  -51.6206  -19.8349 C   0  0  0  0  0  0  0  0  0  0  0  0
    2.9099  -52.2159  -19.8968 O   0  0  0  0  0  0  0  0  0  0  0  0
    2.1668  -51.9520  -23.5259 N   0  0  0  0  0  0  0  0  0  0  0  0
    1.1741  -52.8113  -23.0259 C   0  0  0  0  0  0  0  0  0  0  0  0
    0.3958  -53.3421  -23.9016 O   0  0  0  0  0  0  0  0  0  0  0  0
    2.8269  -51.5113  -22.8598 H   0  0  0  0  0  0  0  0  0  0  0  0
    2.3293  -51.6495  -24.9310 C   0  0  0  0  0  0  0  0  0  0  0  0
    3.1947  -52.5953  -25.6583 C   0  0  0  0  0  0  0  0  0  0  0  0
    2.7642  -53.3494  -26.5097 O   0  0  0  0  0  0  0  0  0  0  0  0
    2.6550  -50.2232  -25.1861 C   0  0  0  0  0  0  0  0  0  0  0  0
    3.9500  -49.9231  -25.8414 C   0  0  0  0  0  0  0  0  0  0  0  0
    5.0919  -49.5950  -24.9386 C   0  0  0  0  0  0  0  0  0  0  0  0
    4.7086  -49.6529  -23.5447 N   0  0  0  0  0  0  0  0  0  0  0  0
    3.8944  -49.0850  -23.2366 H   0  0  0  0  0  0  0  0  0  0  0  0
    5.0183  -50.5299  -21.2175 N   0  0  0  0  0  0  0  0  0  0  0  0
    5.3904  -50.4486  -22.6008 C   0  0  0  0  0  0  0  0  0  0  0  0
    6.4219  -51.1645  -22.9759 N   0  0  0  0  0  0  0  0  0  0  0  0
    5.3700  -49.7994  -20.5657 H   0  0  0  0  0  0  0  0  0  0  0  0
    4.4090  -51.3054  -20.8632 H   0  0  0  0  0  0  0  0  0  0  0  0
    6.6929  -51.1042  -23.9878 H   0  0  0  0  0  0  0  0  0  0  0  0
    1.6097  -50.5246  -18.8483 C   0  0  0  0  0  0  0  0  0  0  0  0
    0.6316  -50.9061  -17.8140 N   0  0  0  0  0  0  0  0  0  0  0  0
    0.9501  -50.8463  -16.4379 C   0  0  0  0  0  0  0  0  0  0  0  0
    2.1210  -50.4507  -16.0789 O   0  0  0  0  0  0  0  0  0  0  0  0
   -0.2985  -51.2271  -18.1151 H   0  0  0  0  0  0  0  0  0  0  0  0
    0.0876  -51.1851  -15.4121 O   0  0  0  0  0  0  0  0  0  0  0  0
   -1.0888  -51.8906  -15.6834 C   0  0  0  0  0  0  0  0  0  0  0  0
   -2.2437  -50.9856  -15.4589 C   0  0  0  0  0  0  0  0  0  0  0  0
   -3.5617  -51.4224  -15.6269 C   0  0  0  0  0  0  0  0  0  0  0  0
   -4.6512  -50.6080  -15.4321 C   0  0  0  0  0  0  0  0  0  0  0  0
   -4.4921  -49.2976  -15.0518 C   0  0  0  0  0  0  0  0  0  0  0  0
   -3.1823  -48.8656  -14.8833 C   0  0  0  0  0  0  0  0  0  0  0  0
   -2.1024  -49.6769  -15.0801 C   0  0  0  0  0  0  0  0  0  0  0  0
    1.0120  -49.2689  -19.4624 C   0  0  0  0  0  0  0  0  0  0  0  0
    1.9240  -48.4238  -20.1974 C   0  0  0  0  0  0  0  0  0  0  0  0
    3.0151  -47.8223  -19.6272 C   0  0  0  0  0  0  0  0  0  0  0  0
    3.8620  -47.0024  -20.3774 C   0  0  0  0  0  0  0  0  0  0  0  0
    3.5618  -46.8194  -21.7213 C   0  0  0  0  0  0  0  0  0  0  0  0
    2.4647  -47.4182  -22.3239 C   0  0  0  0  0  0  0  0  0  0  0  0
    1.6586  -48.2127  -21.5558 C   0  0  0  0  0  0  0  0  0  0  0  0
 20 21  1  0  0  0
 21 22  2  0  0  0
 21 18  1  0  0  0
 18 17  1  0  0  0
 17 16  1  0  0  0
 16 15  1  0  0  0
 15 12  1  0  0  0
 12  8  1  0  0  0
  8  9  1  0  0  0
  9 10  2  0  0  0
  9  1  1  0  0  0
  1  2  1  0  0  0
  2  3  1  0  0  0
  3  4  1  0  0  0
  4  5  1  0  0  0
  5  6  1  0  0  0
  6  7  2  0  0  0
  6 26  1  0  0  0
 26 39  1  0  0  0
 39 40  1  0  0  0
 40 41  2  0  0  0
 41 42  1  0  0  0
 42 43  2  0  0  0
 43 44  1  0  0  0
 44 45  2  0  0  0
 26 27  1  0  0  0
 27 28  1  0  0  0
 28 29  2  0  0  0
 28 31  1  0  0  0
 31 32  1  0  0  0
 32 33  1  0  0  0
 33 34  2  0  0  0
 34 35  1  0  0  0
 35 36  2  0  0  0
 36 37  1  0  0  0
 37 38  2  0  0  0
 12 13  1  0  0  0
 13 14  2  0  0  0
  5  1  1  0  0  0
 45 40  1  0  0  0
 38 33  1  0  0  0
 20 23  1  0  0  0
 20 24  1  0  0  0
 22 25  1  0  0  0
 18 19  1  0  0  0
  8 11  1  0  0  0
 27 30  1  0  0  0
M  END
> <minimizedAffinity>
-6.66715

> <CNNscore>
0.1656154245

> <CNNaffinity>
6.1852498055

> <CNN_VS>
1.0243728161

> <CNNaffinity_variance>
0.2473873198

$$$$
[H]N=C(N([H])[H])N([H])C([H])([H])C([H])([H])C([H])([H])[C@@]([H])(C([H])=O)N([H])C(=O)[C@@]1([H])N(C(=O)[C@]([H])(N([H])C(=O)OC([H])([H])c2c([H])c([H])c([H])c([H])c2[H])C([H])([H])c2c([H])c([H])c([H])c([H])c2[H])C([H])([H])C([H])([H])C1([H])[H]


 45 47  0  0  0  0  0  0  0  0999 V2000
    0.6498  -51.6472  -17.0623 C   0  0  0  0  0  0  0  0  0  0  0  0
   -0.1808  -51.3471  -15.8604 C   0  0  0  0  0  0  0  0  0  0  0  0
   -0.6550  -49.9309  -16.1109 C   0  0  0  0  0  0  0  0  0  0  0  0
    0.3180  -49.3880  -17.1479 C   0  0  0  0  0  0  0  0  0  0  0  0
    1.3710  -50.3947  -17.2365 N   0  0  0  0  0  0  0  0  0  0  0  0
    2.7532  -50.2691  -17.4632 C   0  0  0  0  0  0  0  0  0  0  0  0
    3.4195  -51.3622  -17.5776 O   0  0  0  0  0  0  0  0  0  0  0  0
    0.3111  -52.0352  -19.5852 N   0  0  0  0  0  0  0  0  0  0  0  0
   -0.0679  -52.1143  -18.2347 C   0  0  0  0  0  0  0  0  0  0  0  0
   -1.2007  -52.6763  -17.9999 O   0  0  0  0  0  0  0  0  0  0  0  0
    1.2223  -51.6031  -19.8232 H   0  0  0  0  0  0  0  0  0  0  0  0
   -0.4999  -52.5339  -20.6741 C   0  0  0  0  0  0  0  0  0  0  0  0
   -0.5238  -54.0032  -20.7882 C   0  0  0  0  0  0  0  0  0  0  0  0
    0.4478  -54.6916  -20.5412 O   0  0  0  0  0  0  0  0  0  0  0  0
   -0.2401  -51.8383  -21.9602 C   0  0  0  0  0  0  0  0  0  0  0  0
   -0.3340  -52.6397  -23.2034 C   0  0  0  0  0  0  0  0  0  0  0  0
    0.3900  -52.1068  -24.3944 C   0  0  0  0  0  0  0  0  0  0  0  0
    0.8352  -53.1678  -25.2717 N   0  0  0  0  0  0  0  0  0  0  0  0
    1.8521  -53.3798  -25.3068 H   0  0  0  0  0  0  0  0  0  0  0  0
   -1.0844  -53.3321  -26.8743 N   0  0  0  0  0  0  0  0  0  0  0  0
   -0.0534  -53.9196  -26.0679 C   0  0  0  0  0  0  0  0  0  0  0  0
    0.0426  -55.2262  -26.0952 N   0  0  0  0  0  0  0  0  0  0  0  0
   -1.9929  -53.0986  -26.4248 H   0  0  0  0  0  0  0  0  0  0  0  0
   -0.9349  -53.1420  -27.8940 H   0  0  0  0  0  0  0  0  0  0  0  0
    0.7971  -55.6546  -25.5050 H   0  0  0  0  0  0  0  0  0  0  0  0
    3.4895  -48.9863  -17.5780 C   0  0  0  0  0  0  0  0  0  0  0  0
    4.6268  -49.1285  -18.5046 N   0  0  0  0  0  0  0  0  0  0  0  0
    4.5751  -48.6173  -19.8217 C   0  0  0  0  0  0  0  0  0  0  0  0
    3.5109  -48.0146  -20.2223 O   0  0  0  0  0  0  0  0  0  0  0  0
    5.4689  -49.6185  -18.1738 H   0  0  0  0  0  0  0  0  0  0  0  0
    5.5993  -48.7100  -20.7456 O   0  0  0  0  0  0  0  0  0  0  0  0
    5.3364  -48.5470  -22.1092 C   0  0  0  0  0  0  0  0  0  0  0  0
    5.1714  -49.8892  -22.7212 C   0  0  0  0  0  0  0  0  0  0  0  0
    3.9568  -50.5799  -22.6587 C   0  0  0  0  0  0  0  0  0  0  0  0
    3.7740  -51.8251  -23.2102 C   0  0  0  0  0  0  0  0  0  0  0  0
    4.7991  -52.4624  -23.8661 C   0  0  0  0  0  0  0  0  0  0  0  0
    6.0046  -51.7742  -23.9292 C   0  0  0  0  0  0  0  0  0  0  0  0
    6.1830  -50.5383  -23.3780 C   0  0  0  0  0  0  0  0  0  0  0  0
    4.1417  -48.5671  -16.2703 C   0  0  0  0  0  0  0  0  0  0  0  0
    3.3565  -48.7674  -15.0747 C   0  0  0  0  0  0  0  0  0  0  0  0
    2.3764  -47.9014  -14.6664 C   0  0  0  0  0  0  0  0  0  0  0  0
    1.6515  -48.1319  -13.4943 C   0  0  0  0  0  0  0  0  0  0  0  0
    1.9564  -49.2697  -12.7582 C   0  0  0  0  0  0  0  0  0  0  0  0
    2.9423  -50.1640  -13.1502 C   0  0  0  0  0  0  0  0  0  0  0  0
    3.6310  -49.9028  -14.3028 C   0  0  0  0  0  0  0  0  0  0  0  0
 20 21  1  0  0  0
 21 22  2  0  0  0
 21 18  1  0  0  0
 18 17  1  0  0  0
 17 16  1  0  0  0
 16 15  1  0  0  0
 15 12  1  0  0  0
 12  8  1  0  0  0
  8  9  1  0  0  0
  9 10  2  0  0  0
  9  1  1  0  0  0
  1  2  1  0  0  0
  2  3  1  0  0  0
  3  4  1  0  0  0
  4  5  1  0  0  0
  5  6  1  0  0  0
  6  7  2  0  0  0
  6 26  1  0  0  0
 26 39  1  0  0  0
 39 40  1  0  0  0
 40 41  2  0  0  0
 41 42  1  0  0  0
 42 43  2  0  0  0
 43 44  1  0  0  0
 44 45  2  0  0  0
 26 27  1  0  0  0
 27 28  1  0  0  0
 28 29  2  0  0  0
 28 31  1  0  0  0
 31 32  1  0  0  0
 32 33  1  0  0  0
 33 34  2  0  0  0
 34 35  1  0  0  0
 35 36  2  0  0  0
 36 37  1  0  0  0
 37 38  2  0  0  0
 12 13  1  0  0  0
 13 14  2  0  0  0
  5  1  1  0  0  0
 45 40  1  0  0  0
 38 33  1  0  0  0
 20 23  1  0  0  0
 20 24  1  0  0  0
 22 25  1  0  0  0
 18 19  1  0  0  0
  8 11  1  0  0  0
 27 30  1  0  0  0
M  END
> <minimizedAffinity>
-5.78857

> <CNNscore>
0.1635828912

> <CNNaffinity>
6.0770826340

> <CNN_VS>
0.9941067696

> <CNNaffinity_variance>
0.0990782082

$$$$
[H]N=C(N([H])[H])N([H])C([H])([H])C([H])([H])C([H])([H])[C@@]([H])(C([H])=O)N([H])C(=O)[C@@]1([H])N(C(=O)[C@]([H])(N([H])C(=O)OC([H])([H])c2c([H])c([H])c([H])c([H])c2[H])C([H])([H])c2c([H])c([H])c([H])c([H])c2[H])C([H])([H])C([H])([H])C1([H])[H]


 45 47  0  0  0  0  0  0  0  0999 V2000
    0.9734  -52.9352  -22.0621 C   0  0  0  0  0  0  0  0  0  0  0  0
   -0.0622  -53.9364  -21.6754 C   0  0  0  0  0  0  0  0  0  0  0  0
   -1.2101  -53.0777  -21.1872 C   0  0  0  0  0  0  0  0  0  0  0  0
   -0.5668  -51.7338  -20.8763 C   0  0  0  0  0  0  0  0  0  0  0  0
    0.8694  -51.9749  -20.9730 N   0  0  0  0  0  0  0  0  0  0  0  0
    1.9484  -51.4317  -20.2530 C   0  0  0  0  0  0  0  0  0  0  0  0
    3.1264  -51.7789  -20.6321 O   0  0  0  0  0  0  0  0  0  0  0  0
    0.0784  -52.8309  -24.4743 N   0  0  0  0  0  0  0  0  0  0  0  0
    0.8518  -52.3722  -23.3948 C   0  0  0  0  0  0  0  0  0  0  0  0
    1.5455  -51.3108  -23.6102 O   0  0  0  0  0  0  0  0  0  0  0  0
   -0.5083  -53.6751  -24.3446 H   0  0  0  0  0  0  0  0  0  0  0  0
    0.0458  -52.1832  -25.7672 C   0  0  0  0  0  0  0  0  0  0  0  0
   -1.3089  -51.8567  -26.2473 C   0  0  0  0  0  0  0  0  0  0  0  0
   -2.0754  -52.7052  -26.6613 O   0  0  0  0  0  0  0  0  0  0  0  0
    0.8920  -52.8627  -26.7809 C   0  0  0  0  0  0  0  0  0  0  0  0
    2.2142  -52.2643  -27.0814 C   0  0  0  0  0  0  0  0  0  0  0  0
    3.3757  -52.7965  -26.3103 C   0  0  0  0  0  0  0  0  0  0  0  0
    3.9859  -51.7762  -25.4856 N   0  0  0  0  0  0  0  0  0  0  0  0
    3.7357  -50.7842  -25.6685 H   0  0  0  0  0  0  0  0  0  0  0  0
    4.5519  -52.0297  -23.0574 N   0  0  0  0  0  0  0  0  0  0  0  0
    4.8943  -52.0781  -24.4499 C   0  0  0  0  0  0  0  0  0  0  0  0
    6.1235  -52.4258  -24.7421 N   0  0  0  0  0  0  0  0  0  0  0  0
    4.5985  -51.1136  -22.5669 H   0  0  0  0  0  0  0  0  0  0  0  0
    4.2634  -52.8931  -22.5383 H   0  0  0  0  0  0  0  0  0  0  0  0
    6.3725  -52.4608  -25.7609 H   0  0  0  0  0  0  0  0  0  0  0  0
    1.8298  -50.5009  -19.1038 C   0  0  0  0  0  0  0  0  0  0  0  0
    0.9220  -51.0570  -18.0845 N   0  0  0  0  0  0  0  0  0  0  0  0
    1.1020  -50.7867  -16.7086 C   0  0  0  0  0  0  0  0  0  0  0  0
    2.0808  -50.0388  -16.3361 O   0  0  0  0  0  0  0  0  0  0  0  0
    0.1476  -51.6588  -18.3954 H   0  0  0  0  0  0  0  0  0  0  0  0
    0.2932  -51.2693  -15.6966 O   0  0  0  0  0  0  0  0  0  0  0  0
   -0.6423  -50.4320  -15.0811 C   0  0  0  0  0  0  0  0  0  0  0  0
   -2.0037  -50.8997  -15.4432 C   0  0  0  0  0  0  0  0  0  0  0  0
   -2.2050  -52.0696  -16.1828 C   0  0  0  0  0  0  0  0  0  0  0  0
   -3.4515  -52.5259  -16.5381 C   0  0  0  0  0  0  0  0  0  0  0  0
   -4.5837  -51.8392  -16.1723 C   0  0  0  0  0  0  0  0  0  0  0  0
   -4.3822  -50.6782  -15.4359 C   0  0  0  0  0  0  0  0  0  0  0  0
   -3.1423  -50.2269  -15.0868 C   0  0  0  0  0  0  0  0  0  0  0  0
    1.1774  -49.1816  -19.4847 C   0  0  0  0  0  0  0  0  0  0  0  0
    1.9568  -48.3066  -20.3291 C   0  0  0  0  0  0  0  0  0  0  0  0
    1.7124  -48.1408  -21.6670 C   0  0  0  0  0  0  0  0  0  0  0  0
    2.5029  -47.2917  -22.4458 C   0  0  0  0  0  0  0  0  0  0  0  0
    3.5435  -46.6196  -21.8173 C   0  0  0  0  0  0  0  0  0  0  0  0
    3.8114  -46.7678  -20.4639 C   0  0  0  0  0  0  0  0  0  0  0  0
    3.0160  -47.6093  -19.7357 C   0  0  0  0  0  0  0  0  0  0  0  0
 20 21  1  0  0  0
 21 22  2  0  0  0
 21 18  1  0  0  0
 18 17  1  0  0  0
 17 16  1  0  0  0
 16 15  1  0  0  0
 15 12  1  0  0  0
 12  8  1  0  0  0
  8  9  1  0  0  0
  9 10  2  0  0  0
  9  1  1  0  0  0
  1  2  1  0  0  0
  2  3  1  0  0  0
  3  4  1  0  0  0
  4  5  1  0  0  0
  5  6  1  0  0  0
  6  7  2  0  0  0
  6 26  1  0  0  0
 26 39  1  0  0  0
 39 40  1  0  0  0
 40 41  2  0  0  0
 41 42  1  0  0  0
 42 43  2  0  0  0
 43 44  1  0  0  0
 44 45  2  0  0  0
 26 27  1  0  0  0
 27 28  1  0  0  0
 28 29  2  0  0  0
 28 31  1  0  0  0
 31 32  1  0  0  0
 32 33  1  0  0  0
 33 34  2  0  0  0
 34 35  1  0  0  0
 35 36  2  0  0  0
 36 37  1  0  0  0
 37 38  2  0  0  0
 12 13  1  0  0  0
 13 14  2  0  0  0
  5  1  1  0  0  0
 45 40  1  0  0  0
 38 33  1  0  0  0
 20 23  1  0  0  0
 20 24  1  0  0  0
 22 25  1  0  0  0
 18 19  1  0  0  0
  8 11  1  0  0  0
 27 30  1  0  0  0
M  END
> <minimizedAffinity>
-7.38808

> <CNNscore>
0.1564046144

> <CNNaffinity>
6.4166741371

> <CNN_VS>
1.0035974979

> <CNNaffinity_variance>
0.3006287515

$$$$
[H]N=C(N([H])[H])N([H])C([H])([H])C([H])([H])C([H])([H])[C@@]([H])(C([H])=O)N([H])C(=O)[C@@]1([H])N(C(=O)[C@]([H])(N([H])C(=O)OC([H])([H])c2c([H])c([H])c([H])c([H])c2[H])C([H])([H])c2c([H])c([H])c([H])c([H])c2[H])C([H])([H])C([H])([H])C1([H])[H]


 45 47  0  0  0  0  0  0  0  0999 V2000
    0.1526  -53.6500  -23.1048 C   0  0  0  0  0  0  0  0  0  0  0  0
   -0.5807  -54.5839  -22.2023 C   0  0  0  0  0  0  0  0  0  0  0  0
   -1.6237  -53.6957  -21.5567 C   0  0  0  0  0  0  0  0  0  0  0  0
   -1.0910  -52.2843  -21.7592 C   0  0  0  0  0  0  0  0  0  0  0  0
    0.2656  -52.4653  -22.2662 N   0  0  0  0  0  0  0  0  0  0  0  0
    1.4353  -51.7105  -22.0669 C   0  0  0  0  0  0  0  0  0  0  0  0
    2.4754  -52.0750  -22.7281 O   0  0  0  0  0  0  0  0  0  0  0  0
   -0.2927  -52.3204  -25.2645 N   0  0  0  0  0  0  0  0  0  0  0  0
   -0.4398  -53.4269  -24.4113 C   0  0  0  0  0  0  0  0  0  0  0  0
   -1.1985  -54.3723  -24.8413 O   0  0  0  0  0  0  0  0  0  0  0  0
    0.3199  -51.5393  -24.9675 H   0  0  0  0  0  0  0  0  0  0  0  0
   -0.9459  -52.2093  -26.5502 C   0  0  0  0  0  0  0  0  0  0  0  0
   -2.3807  -51.8806  -26.4745 C   0  0  0  0  0  0  0  0  0  0  0  0
   -3.1660  -52.1862  -27.3513 O   0  0  0  0  0  0  0  0  0  0  0  0
   -0.6391  -53.3426  -27.4596 C   0  0  0  0  0  0  0  0  0  0  0  0
    0.3565  -53.1095  -28.5324 C   0  0  0  0  0  0  0  0  0  0  0  0
    1.5894  -53.9489  -28.4894 C   0  0  0  0  0  0  0  0  0  0  0  0
    2.7632  -53.1640  -28.1740 N   0  0  0  0  0  0  0  0  0  0  0  0
    3.4894  -53.0518  -28.9091 H   0  0  0  0  0  0  0  0  0  0  0  0
    3.3772  -51.1867  -26.7619 N   0  0  0  0  0  0  0  0  0  0  0  0
    2.9517  -52.5479  -26.9196 C   0  0  0  0  0  0  0  0  0  0  0  0
    2.7338  -53.2275  -25.8205 N   0  0  0  0  0  0  0  0  0  0  0  0
    4.3956  -50.9781  -26.7991 H   0  0  0  0  0  0  0  0  0  0  0  0
    2.6848  -50.4150  -26.6095 H   0  0  0  0  0  0  0  0  0  0  0  0
    2.4226  -54.2228  -25.9373 H   0  0  0  0  0  0  0  0  0  0  0  0
    1.5565  -50.5409  -21.1621 C   0  0  0  0  0  0  0  0  0  0  0  0
    2.5581  -49.5924  -21.6810 N   0  0  0  0  0  0  0  0  0  0  0  0
    2.3158  -48.1997  -21.7015 C   0  0  0  0  0  0  0  0  0  0  0  0
    1.1950  -47.7486  -21.2580 O   0  0  0  0  0  0  0  0  0  0  0  0
    3.4471  -49.9669  -22.0387 H   0  0  0  0  0  0  0  0  0  0  0  0
    3.2048  -47.2502  -22.1695 O   0  0  0  0  0  0  0  0  0  0  0  0
    4.0701  -47.5535  -23.2251 C   0  0  0  0  0  0  0  0  0  0  0  0
    3.4870  -47.0191  -24.4811 C   0  0  0  0  0  0  0  0  0  0  0  0
    3.5674  -47.7249  -25.6859 C   0  0  0  0  0  0  0  0  0  0  0  0
    3.0427  -47.2549  -26.8658 C   0  0  0  0  0  0  0  0  0  0  0  0
    2.3975  -46.0432  -26.9166 C   0  0  0  0  0  0  0  0  0  0  0  0
    2.3166  -45.3441  -25.7185 C   0  0  0  0  0  0  0  0  0  0  0  0
    2.8411  -45.8131  -24.5489 C   0  0  0  0  0  0  0  0  0  0  0  0
    2.0934  -50.9159  -19.7902 C   0  0  0  0  0  0  0  0  0  0  0  0
    1.1927  -50.7184  -18.6786 C   0  0  0  0  0  0  0  0  0  0  0  0
    1.1980  -49.5917  -17.8991 C   0  0  0  0  0  0  0  0  0  0  0  0
    0.3146  -49.4520  -16.8256 C   0  0  0  0  0  0  0  0  0  0  0  0
   -0.5708  -50.4930  -16.5766 C   0  0  0  0  0  0  0  0  0  0  0  0
   -0.5985  -51.6438  -17.3515 C   0  0  0  0  0  0  0  0  0  0  0  0
    0.2831  -51.7436  -18.3926 C   0  0  0  0  0  0  0  0  0  0  0  0
 20 21  1  0  0  0
 21 22  2  0  0  0
 21 18  1  0  0  0
 18 17  1  0  0  0
 17 16  1  0  0  0
 16 15  1  0  0  0
 15 12  1  0  0  0
 12  8  1  0  0  0
  8  9  1  0  0  0
  9 10  2  0  0  0
  9  1  1  0  0  0
  1  2  1  0  0  0
  2  3  1  0  0  0
  3  4  1  0  0  0
  4  5  1  0  0  0
  5  6  1  0  0  0
  6  7  2  0  0  0
  6 26  1  0  0  0
 26 39  1  0  0  0
 39 40  1  0  0  0
 40 41  2  0  0  0
 41 42  1  0  0  0
 42 43  2  0  0  0
 43 44  1  0  0  0
 44 45  2  0  0  0
 26 27  1  0  0  0
 27 28  1  0  0  0
 28 29  2  0  0  0
 28 31  1  0  0  0
 31 32  1  0  0  0
 32 33  1  0  0  0
 33 34  2  0  0  0
 34 35  1  0  0  0
 35 36  2  0  0  0
 36 37  1  0  0  0
 37 38  2  0  0  0
 12 13  1  0  0  0
 13 14  2  0  0  0
  5  1  1  0  0  0
 45 40  1  0  0  0
 38 33  1  0  0  0
 20 23  1  0  0  0
 20 24  1  0  0  0
 22 25  1  0  0  0
 18 19  1  0  0  0
  8 11  1  0  0  0
 27 30  1  0  0  0
M  END
> <minimizedAffinity>
-7.89236

> <CNNscore>
0.1444568336

> <CNNaffinity>
6.3758125305

> <CNN_VS>
0.9210296869

> <CNNaffinity_variance>
0.8933058977

$$$$
[H]N=C(N([H])[H])N([H])C([H])([H])C([H])([H])C([H])([H])[C@@]([H])(C([H])=O)N([H])C(=O)[C@@]1([H])N(C(=O)[C@]([H])(N([H])C(=O)OC([H])([H])c2c([H])c([H])c([H])c([H])c2[H])C([H])([H])c2c([H])c([H])c([H])c([H])c2[H])C([H])([H])C([H])([H])C1([H])[H]


 45 47  0  0  0  0  0  0  0  0999 V2000
    1.1856  -50.9221  -20.6596 C   0  0  0  0  0  0  0  0  0  0  0  0
    0.7487  -49.8052  -21.5461 C   0  0  0  0  0  0  0  0  0  0  0  0
    1.2238  -48.5706  -20.8090 C   0  0  0  0  0  0  0  0  0  0  0  0
    1.4346  -49.0462  -19.3786 C   0  0  0  0  0  0  0  0  0  0  0  0
    0.8653  -50.3897  -19.3431 N   0  0  0  0  0  0  0  0  0  0  0  0
    0.1901  -51.0807  -18.3212 C   0  0  0  0  0  0  0  0  0  0  0  0
   -0.1196  -52.3048  -18.5613 O   0  0  0  0  0  0  0  0  0  0  0  0
    3.4552  -51.0800  -21.8656 N   0  0  0  0  0  0  0  0  0  0  0  0
    2.5557  -51.3721  -20.8266 C   0  0  0  0  0  0  0  0  0  0  0  0
    3.0015  -52.1391  -19.8952 O   0  0  0  0  0  0  0  0  0  0  0  0
    3.1462  -50.4548  -22.6319 H   0  0  0  0  0  0  0  0  0  0  0  0
    4.8040  -51.5989  -21.9255 C   0  0  0  0  0  0  0  0  0  0  0  0
    5.8225  -50.7077  -21.3419 C   0  0  0  0  0  0  0  0  0  0  0  0
    5.5349  -49.6615  -20.7925 O   0  0  0  0  0  0  0  0  0  0  0  0
    5.1669  -52.1250  -23.2660 C   0  0  0  0  0  0  0  0  0  0  0  0
    4.0931  -52.7601  -24.0661 C   0  0  0  0  0  0  0  0  0  0  0  0
    3.8999  -52.2402  -25.4514 C   0  0  0  0  0  0  0  0  0  0  0  0
    2.9697  -53.0524  -26.2053 N   0  0  0  0  0  0  0  0  0  0  0  0
    2.6746  -53.9629  -25.8002 H   0  0  0  0  0  0  0  0  0  0  0  0
    1.0582  -52.7248  -27.7926 N   0  0  0  0  0  0  0  0  0  0  0  0
    2.4508  -52.6535  -27.4545 C   0  0  0  0  0  0  0  0  0  0  0  0
    3.2572  -52.1874  -28.3762 N   0  0  0  0  0  0  0  0  0  0  0  0
    0.6786  -53.6278  -28.1425 H   0  0  0  0  0  0  0  0  0  0  0  0
    0.4318  -51.8904  -27.6951 H   0  0  0  0  0  0  0  0  0  0  0  0
    4.2753  -52.1357  -28.1276 H   0  0  0  0  0  0  0  0  0  0  0  0
   -0.1866  -50.5096  -17.0047 C   0  0  0  0  0  0  0  0  0  0  0  0
    1.0185  -50.1254  -16.2482 N   0  0  0  0  0  0  0  0  0  0  0  0
    1.1244  -48.8643  -15.6180 C   0  0  0  0  0  0  0  0  0  0  0  0
    0.1473  -48.0315  -15.7070 O   0  0  0  0  0  0  0  0  0  0  0  0
    1.7950  -50.7980  -16.1907 H   0  0  0  0  0  0  0  0  0  0  0  0
    2.2188  -48.4340  -14.8913 O   0  0  0  0  0  0  0  0  0  0  0  0
    3.5070  -48.8482  -15.2437 C   0  0  0  0  0  0  0  0  0  0  0  0
    3.7604  -50.1749  -14.6281 C   0  0  0  0  0  0  0  0  0  0  0  0
    3.9999  -51.3116  -15.4071 C   0  0  0  0  0  0  0  0  0  0  0  0
    4.2324  -52.5538  -14.8676 C   0  0  0  0  0  0  0  0  0  0  0  0
    4.2432  -52.7400  -13.5066 C   0  0  0  0  0  0  0  0  0  0  0  0
    4.0072  -51.6095  -12.7340 C   0  0  0  0  0  0  0  0  0  0  0  0
    3.7743  -50.3775  -13.2735 C   0  0  0  0  0  0  0  0  0  0  0  0
   -0.8700  -51.5234  -16.1013 C   0  0  0  0  0  0  0  0  0  0  0  0
   -2.2393  -51.2356  -15.7433 C   0  0  0  0  0  0  0  0  0  0  0  0
   -2.6093  -50.1364  -15.0137 C   0  0  0  0  0  0  0  0  0  0  0  0
   -3.9469  -49.9073  -14.6810 C   0  0  0  0  0  0  0  0  0  0  0  0
   -4.8892  -50.8301  -15.1168 C   0  0  0  0  0  0  0  0  0  0  0  0
   -4.5419  -51.9502  -15.8586 C   0  0  0  0  0  0  0  0  0  0  0  0
   -3.2219  -52.1404  -16.1629 C   0  0  0  0  0  0  0  0  0  0  0  0
 20 21  1  0  0  0
 21 22  2  0  0  0
 21 18  1  0  0  0
 18 17  1  0  0  0
 17 16  1  0  0  0
 16 15  1  0  0  0
 15 12  1  0  0  0
 12  8  1  0  0  0
  8  9  1  0  0  0
  9 10  2  0  0  0
  9  1  1  0  0  0
  1  2  1  0  0  0
  2  3  1  0  0  0
  3  4  1  0  0  0
  4  5  1  0  0  0
  5  6  1  0  0  0
  6  7  2  0  0  0
  6 26  1  0  0  0
 26 39  1  0  0  0
 39 40  1  0  0  0
 40 41  2  0  0  0
 41 42  1  0  0  0
 42 43  2  0  0  0
 43 44  1  0  0  0
 44 45  2  0  0  0
 26 27  1  0  0  0
 27 28  1  0  0  0
 28 29  2  0  0  0
 28 31  1  0  0  0
 31 32  1  0  0  0
 32 33  1  0  0  0
 33 34  2  0  0  0
 34 35  1  0  0  0
 35 36  2  0  0  0
 36 37  1  0  0  0
 37 38  2  0  0  0
 12 13  1  0  0  0
 13 14  2  0  0  0
  5  1  1  0  0  0
 45 40  1  0  0  0
 38 33  1  0  0  0
 20 23  1  0  0  0
 20 24  1  0  0  0
 22 25  1  0  0  0
 18 19  1  0  0  0
  8 11  1  0  0  0
 27 30  1  0  0  0
M  END
> <minimizedAffinity>
-7.03387

> <CNNscore>
0.1432710141

> <CNNaffinity>
5.9307670593

> <CNN_VS>
0.8497070074

> <CNNaffinity_variance>
0.1373500228

$$$$
[H]N=C(N([H])[H])N([H])C([H])([H])C([H])([H])C([H])([H])[C@@]([H])(C([H])=O)N([H])C(=O)[C@@]1([H])N(C(=O)[C@]([H])(N([H])C(=O)OC([H])([H])c2c([H])c([H])c([H])c([H])c2[H])C([H])([H])c2c([H])c([H])c([H])c([H])c2[H])C([H])([H])C([H])([H])C1([H])[H]


 45 47  0  0  0  0  0  0  0  0999 V2000
    3.0371  -51.5822  -20.9065 C   0  0  0  0  0  0  0  0  0  0  0  0
    4.4829  -51.9462  -20.8704 C   0  0  0  0  0  0  0  0  0  0  0  0
    5.1072  -50.9874  -21.8625 C   0  0  0  0  0  0  0  0  0  0  0  0
    3.9383  -50.5193  -22.7175 C   0  0  0  0  0  0  0  0  0  0  0  0
    2.8244  -51.3802  -22.3324 N   0  0  0  0  0  0  0  0  0  0  0  0
    1.7558  -51.9008  -23.0839 C   0  0  0  0  0  0  0  0  0  0  0  0
    0.8673  -52.5667  -22.4364 O   0  0  0  0  0  0  0  0  0  0  0  0
    3.3573  -49.8520  -19.0266 N   0  0  0  0  0  0  0  0  0  0  0  0
    2.6358  -50.4734  -20.0596 C   0  0  0  0  0  0  0  0  0  0  0  0
    1.4629  -49.9992  -20.2913 O   0  0  0  0  0  0  0  0  0  0  0  0
    4.3129  -50.1901  -18.8120 H   0  0  0  0  0  0  0  0  0  0  0  0
    2.8432  -48.7510  -18.2420 C   0  0  0  0  0  0  0  0  0  0  0  0
    3.2945  -47.4225  -18.6933 C   0  0  0  0  0  0  0  0  0  0  0  0
    3.3846  -46.4738  -17.9378 O   0  0  0  0  0  0  0  0  0  0  0  0
    2.9806  -48.9641  -16.7787 C   0  0  0  0  0  0  0  0  0  0  0  0
    1.8185  -49.5354  -16.0578 C   0  0  0  0  0  0  0  0  0  0  0  0
    2.0363  -50.8460  -15.3783 C   0  0  0  0  0  0  0  0  0  0  0  0
    3.4435  -51.1543  -15.2438 N   0  0  0  0  0  0  0  0  0  0  0  0
    4.1083  -50.7072  -15.9060 H   0  0  0  0  0  0  0  0  0  0  0  0
    3.9656  -51.7036  -12.8550 N   0  0  0  0  0  0  0  0  0  0  0  0
    3.9398  -52.0263  -14.2528 C   0  0  0  0  0  0  0  0  0  0  0  0
    4.4080  -53.2016  -14.5943 N   0  0  0  0  0  0  0  0  0  0  0  0
    4.7648  -51.1472  -12.4893 H   0  0  0  0  0  0  0  0  0  0  0  0
    3.2026  -52.0197  -12.2100 H   0  0  0  0  0  0  0  0  0  0  0  0
    4.3885  -53.4363  -15.6169 H   0  0  0  0  0  0  0  0  0  0  0  0
    1.5803  -51.7413  -24.5484 C   0  0  0  0  0  0  0  0  0  0  0  0
    1.7332  -50.3266  -24.9325 N   0  0  0  0  0  0  0  0  0  0  0  0
    2.7503  -49.9080  -25.8208 C   0  0  0  0  0  0  0  0  0  0  0  0
    3.5623  -50.7810  -26.3051 O   0  0  0  0  0  0  0  0  0  0  0  0
    1.0815  -49.6381  -24.5327 H   0  0  0  0  0  0  0  0  0  0  0  0
    2.9550  -48.6030  -26.2283 O   0  0  0  0  0  0  0  0  0  0  0  0
    4.0425  -48.2815  -27.0463 C   0  0  0  0  0  0  0  0  0  0  0  0
    3.5711  -47.3735  -28.1218 C   0  0  0  0  0  0  0  0  0  0  0  0
    2.5956  -46.3996  -27.8847 C   0  0  0  0  0  0  0  0  0  0  0  0
    2.1349  -45.5481  -28.8598 C   0  0  0  0  0  0  0  0  0  0  0  0
    2.6248  -45.6141  -30.1415 C   0  0  0  0  0  0  0  0  0  0  0  0
    3.5954  -46.5806  -30.3751 C   0  0  0  0  0  0  0  0  0  0  0  0
    4.0488  -47.4263  -29.4044 C   0  0  0  0  0  0  0  0  0  0  0  0
    0.1744  -52.0891  -25.0103 C   0  0  0  0  0  0  0  0  0  0  0  0
    0.0332  -52.4532  -26.4009 C   0  0  0  0  0  0  0  0  0  0  0  0
    1.0671  -52.9365  -27.1590 C   0  0  0  0  0  0  0  0  0  0  0  0
    0.8842  -53.2634  -28.5052 C   0  0  0  0  0  0  0  0  0  0  0  0
   -0.3816  -53.0840  -29.0483 C   0  0  0  0  0  0  0  0  0  0  0  0
   -1.4462  -52.5983  -28.3025 C   0  0  0  0  0  0  0  0  0  0  0  0
   -1.2269  -52.2883  -26.9884 C   0  0  0  0  0  0  0  0  0  0  0  0
 20 21  1  0  0  0
 21 22  2  0  0  0
 21 18  1  0  0  0
 18 17  1  0  0  0
 17 16  1  0  0  0
 16 15  1  0  0  0
 15 12  1  0  0  0
 12  8  1  0  0  0
  8  9  1  0  0  0
  9 10  2  0  0  0
  9  1  1  0  0  0
  1  2  1  0  0  0
  2  3  1  0  0  0
  3  4  1  0  0  0
  4  5  1  0  0  0
  5  6  1  0  0  0
  6  7  2  0  0  0
  6 26  1  0  0  0
 26 39  1  0  0  0
 39 40  1  0  0  0
 40 41  2  0  0  0
 41 42  1  0  0  0
 42 43  2  0  0  0
 43 44  1  0  0  0
 44 45  2  0  0  0
 26 27  1  0  0  0
 27 28  1  0  0  0
 28 29  2  0  0  0
 28 31  1  0  0  0
 31 32  1  0  0  0
 32 33  1  0  0  0
 33 34  2  0  0  0
 34 35  1  0  0  0
 35 36  2  0  0  0
 36 37  1  0  0  0
 37 38  2  0  0  0
 12 13  1  0  0  0
 13 14  2  0  0  0
  5  1  1  0  0  0
 45 40  1  0  0  0
 38 33  1  0  0  0
 20 23  1  0  0  0
 20 24  1  0  0  0
 22 25  1  0  0  0
 18 19  1  0  0  0
  8 11  1  0  0  0
 27 30  1  0  0  0
M  END
> <minimizedAffinity>
-6.52783

> <CNNscore>
0.1403128952

> <CNNaffinity>
6.0257296562

> <CNN_VS>
0.8454875946

> <CNNaffinity_variance>
0.0413138755

$$$$
[H]c1c([N+](=O)[O-])c([H])c2oc(C(=O)N([H])[C@@]3([H])C([H])([H])N4C([H])([H])C([H])([H])C3([H])C([H])([H])C4([H])[H])c([H])c(=O)c2c1[H]


 26 29  0  0  0  0  0  0  0  0999 V2000
    0.3429  -53.7586  -25.3449 C   0  0  0  0  0  0  0  0  0  0  0  0
   -0.5872  -54.6685  -24.8922 C   0  0  0  0  0  0  0  0  0  0  0  0
   -1.0432  -54.6781  -23.5900 C   0  0  0  0  0  0  0  0  0  0  0  0
   -0.5559  -53.7452  -22.6982 C   0  0  0  0  0  0  0  0  0  0  0  0
    0.3752  -52.8225  -23.1224 C   0  0  0  0  0  0  0  0  0  0  0  0
    0.8251  -52.8309  -24.4511 C   0  0  0  0  0  0  0  0  0  0  0  0
    0.8364  -51.9377  -22.2735 O   0  0  0  0  0  0  0  0  0  0  0  0
    0.4852  -51.8425  -21.0170 C   0  0  0  0  0  0  0  0  0  0  0  0
   -0.4444  -52.7506  -20.5609 C   0  0  0  0  0  0  0  0  0  0  0  0
   -0.9817  -53.7166  -21.3897 C   0  0  0  0  0  0  0  0  0  0  0  0
   -1.8319  -54.5535  -20.9885 O   0  0  0  0  0  0  0  0  0  0  0  0
    1.0676  -50.8045  -20.1414 C   0  0  0  0  0  0  0  0  0  0  0  0
    0.4269  -50.5049  -19.1054 O   0  0  0  0  0  0  0  0  0  0  0  0
    2.2859  -50.1511  -20.4150 N   0  0  0  0  0  0  0  0  0  0  0  0
    2.8099  -50.4092  -21.2804 H   0  0  0  0  0  0  0  0  0  0  0  0
    2.7676  -49.1489  -19.4914 C   0  0  0  0  0  0  0  0  0  0  0  0
    3.8339  -49.6888  -18.5587 C   0  0  0  0  0  0  0  0  0  0  0  0
    4.5473  -48.5200  -18.0386 N   0  0  0  0  0  0  0  0  0  0  0  0
    5.5627  -48.1344  -19.0293 C   0  0  0  0  0  0  0  0  0  0  0  0
    4.9015  -48.1727  -20.3820 C   0  0  0  0  0  0  0  0  0  0  0  0
    3.3901  -47.9619  -20.2138 C   0  0  0  0  0  0  0  0  0  0  0  0
    3.2723  -46.7862  -19.2324 C   0  0  0  0  0  0  0  0  0  0  0  0
    3.6565  -47.3855  -17.8721 C   0  0  0  0  0  0  0  0  0  0  0  0
    2.1073  -53.6115  -26.9947 O   0  0  0  0  0  0  0  0  0  0  0  0
    0.7945  -53.7814  -26.7144 N   0  0  0  0  0  0  0  0  0  0  0  0
   -0.0049  -53.9556  -27.6529 O   0  0  0  0  0  0  0  0  0  0  0  0
 24 25  1  0  0  0
 25 26  2  0  0  0
 25  1  1  0  0  0
  1  2  2  0  0  0
  2  3  1  0  0  0
  3  4  2  0  0  0
  4  5  1  0  0  0
  5  6  2  0  0  0
  5  7  1  0  0  0
  7  8  1  0  0  0
  8  9  2  0  0  0
  9 10  1  0  0  0
 10 11  2  0  0  0
  8 12  1  0  0  0
 12 13  2  0  0  0
 12 14  1  0  0  0
 14 16  1  0  0  0
 16 17  1  0  0  0
 17 18  1  0  0  0
 18 19  1  0  0  0
 19 20  1  0  0  0
 20 21  1  0  0  0
 21 22  1  0  0  0
 22 23  1  0  0  0
  6  1  1  0  0  0
 21 16  1  0  0  0
 10  4  1  0  0  0
 23 18  1  0  0  0
 14 15  1  0  0  0
M  CHG 1  24  -1
M  CHG 1  25   1
M  END
> <minimizedAffinity>
-7.05148

> <CNNscore>
0.6547926664

> <CNNaffinity>
5.9852437973

> <CNN_VS>
3.9190938473

> <CNNaffinity_variance>
0.3094640374

$$$$
[H]c1c([N+](=O)[O-])c([H])c2oc(C(=O)N([H])[C@@]3([H])C([H])([H])N4C([H])([H])C([H])([H])C3([H])C([H])([H])C4([H])[H])c([H])c(=O)c2c1[H]


 26 29  0  0  0  0  0  0  0  0999 V2000
    1.1969  -53.2556  -25.6966 C   0  0  0  0  0  0  0  0  0  0  0  0
    0.1122  -54.1049  -25.7144 C   0  0  0  0  0  0  0  0  0  0  0  0
   -0.5890  -54.4371  -24.5735 C   0  0  0  0  0  0  0  0  0  0  0  0
   -0.1979  -53.9042  -23.3627 C   0  0  0  0  0  0  0  0  0  0  0  0
    0.8834  -53.0517  -23.3139 C   0  0  0  0  0  0  0  0  0  0  0  0
    1.5821  -52.7275  -24.4864 C   0  0  0  0  0  0  0  0  0  0  0  0
    1.2528  -52.5471  -22.1628 O   0  0  0  0  0  0  0  0  0  0  0  0
    0.6729  -52.7831  -21.0142 C   0  0  0  0  0  0  0  0  0  0  0  0
   -0.4117  -53.6318  -21.0283 C   0  0  0  0  0  0  0  0  0  0  0  0
   -0.8672  -54.2071  -22.1988 C   0  0  0  0  0  0  0  0  0  0  0  0
   -1.8567  -54.9844  -22.2285 O   0  0  0  0  0  0  0  0  0  0  0  0
    1.1702  -52.1612  -19.7696 C   0  0  0  0  0  0  0  0  0  0  0  0
    2.4023  -52.2359  -19.5457 O   0  0  0  0  0  0  0  0  0  0  0  0
    0.3372  -51.5020  -18.8436 N   0  0  0  0  0  0  0  0  0  0  0  0
   -0.6866  -51.4464  -19.0411 H   0  0  0  0  0  0  0  0  0  0  0  0
    0.9260  -50.9267  -17.6553 C   0  0  0  0  0  0  0  0  0  0  0  0
    1.0151  -49.4151  -17.7294 C   0  0  0  0  0  0  0  0  0  0  0  0
    1.1622  -48.9494  -16.3484 N   0  0  0  0  0  0  0  0  0  0  0  0
   -0.1799  -48.8739  -15.7532 C   0  0  0  0  0  0  0  0  0  0  0  0
   -0.9068  -50.1371  -16.1332 C   0  0  0  0  0  0  0  0  0  0  0  0
    0.1166  -51.2484  -16.4065 C   0  0  0  0  0  0  0  0  0  0  0  0
    1.1142  -51.1476  -15.2429 C   0  0  0  0  0  0  0  0  0  0  0  0
    1.9337  -49.8867  -15.5519 C   0  0  0  0  0  0  0  0  0  0  0  0
    3.1604  -53.3964  -27.1042 O   0  0  0  0  0  0  0  0  0  0  0  0
    1.9038  -52.9328  -26.9115 N   0  0  0  0  0  0  0  0  0  0  0  0
    1.3780  -52.2305  -27.7949 O   0  0  0  0  0  0  0  0  0  0  0  0
 24 25  1  0  0  0
 25 26  2  0  0  0
 25  1  1  0  0  0
  1  2  2  0  0  0
  2  3  1  0  0  0
  3  4  2  0  0  0
  4  5  1  0  0  0
  5  6  2  0  0  0
  5  7  1  0  0  0
  7  8  1  0  0  0
  8  9  2  0  0  0
  9 10  1  0  0  0
 10 11  2  0  0  0
  8 12  1  0  0  0
 12 13  2  0  0  0
 12 14  1  0  0  0
 14 16  1  0  0  0
 16 17  1  0  0  0
 17 18  1  0  0  0
 18 19  1  0  0  0
 19 20  1  0  0  0
 20 21  1  0  0  0
 21 22  1  0  0  0
 22 23  1  0  0  0
  6  1  1  0  0  0
 21 16  1  0  0  0
 10  4  1  0  0  0
 23 18  1  0  0  0
 14 15  1  0  0  0
M  CHG 1  24  -1
M  CHG 1  25   1
M  END
> <minimizedAffinity>
-8.20569

> <CNNscore>
0.6443932056

> <CNNaffinity>
5.9615831375

> <CNN_VS>
3.8416037560

> <CNNaffinity_variance>
0.3292471766

$$$$
[H]c1c([N+](=O)[O-])c([H])c2oc(C(=O)N([H])[C@@]3([H])C([H])([H])N4C([H])([H])C([H])([H])C3([H])C([H])([H])C4([H])[H])c([H])c(=O)c2c1[H]


 26 29  0  0  0  0  0  0  0  0999 V2000
   -1.5371  -51.5712  -16.0364 C   0  0  0  0  0  0  0  0  0  0  0  0
   -2.4675  -52.4312  -16.5776 C   0  0  0  0  0  0  0  0  0  0  0  0
   -2.2876  -53.0455  -17.7999 C   0  0  0  0  0  0  0  0  0  0  0  0
   -1.1355  -52.7964  -18.5165 C   0  0  0  0  0  0  0  0  0  0  0  0
   -0.1869  -51.9407  -18.0005 C   0  0  0  0  0  0  0  0  0  0  0  0
   -0.3904  -51.3268  -16.7557 C   0  0  0  0  0  0  0  0  0  0  0  0
    0.9063  -51.7058  -18.6831 O   0  0  0  0  0  0  0  0  0  0  0  0
    1.1942  -52.2242  -19.8492 C   0  0  0  0  0  0  0  0  0  0  0  0
    0.2663  -53.0843  -20.3932 C   0  0  0  0  0  0  0  0  0  0  0  0
   -0.9130  -53.3866  -19.7399 C   0  0  0  0  0  0  0  0  0  0  0  0
   -1.7709  -54.1703  -20.2233 O   0  0  0  0  0  0  0  0  0  0  0  0
    2.4590  -51.8925  -20.5371 C   0  0  0  0  0  0  0  0  0  0  0  0
    3.5080  -51.9201  -19.8498 O   0  0  0  0  0  0  0  0  0  0  0  0
    2.5351  -51.5539  -21.9029 N   0  0  0  0  0  0  0  0  0  0  0  0
    1.6550  -51.5344  -22.4645 H   0  0  0  0  0  0  0  0  0  0  0  0
    3.8247  -51.2460  -22.4789 C   0  0  0  0  0  0  0  0  0  0  0  0
    4.0174  -51.8881  -23.8387 C   0  0  0  0  0  0  0  0  0  0  0  0
    5.0949  -51.1405  -24.4912 N   0  0  0  0  0  0  0  0  0  0  0  0
    4.5042  -49.9420  -25.1044 C   0  0  0  0  0  0  0  0  0  0  0  0
    3.5675  -49.3392  -24.0907 C   0  0  0  0  0  0  0  0  0  0  0  0
    4.0149  -49.7488  -22.6803 C   0  0  0  0  0  0  0  0  0  0  0  0
    5.5356  -49.5326  -22.6809 C   0  0  0  0  0  0  0  0  0  0  0  0
    6.0844  -50.6882  -23.5297 C   0  0  0  0  0  0  0  0  0  0  0  0
   -1.3190  -51.5489  -13.6263 O   0  0  0  0  0  0  0  0  0  0  0  0
   -1.7622  -50.9486  -14.7552 N   0  0  0  0  0  0  0  0  0  0  0  0
   -2.3609  -49.8608  -14.6645 O   0  0  0  0  0  0  0  0  0  0  0  0
 24 25  1  0  0  0
 25 26  2  0  0  0
 25  1  1  0  0  0
  1  2  2  0  0  0
  2  3  1  0  0  0
  3  4  2  0  0  0
  4  5  1  0  0  0
  5  6  2  0  0  0
  5  7  1  0  0  0
  7  8  1  0  0  0
  8  9  2  0  0  0
  9 10  1  0  0  0
 10 11  2  0  0  0
  8 12  1  0  0  0
 12 13  2  0  0  0
 12 14  1  0  0  0
 14 16  1  0  0  0
 16 17  1  0  0  0
 17 18  1  0  0  0
 18 19  1  0  0  0
 19 20  1  0  0  0
 20 21  1  0  0  0
 21 22  1  0  0  0
 22 23  1  0  0  0
  6  1  1  0  0  0
 21 16  1  0  0  0
 10  4  1  0  0  0
 23 18  1  0  0  0
 14 15  1  0  0  0
M  CHG 1  24  -1
M  CHG 1  25   1
M  END
> <minimizedAffinity>
-6.28855

> <CNNscore>
0.6187657714

> <CNNaffinity>
5.5979814529

> <CNN_VS>
3.4638392925

> <CNNaffinity_variance>
0.1721867621

$$$$
[H]c1c([N+](=O)[O-])c([H])c2oc(C(=O)N([H])[C@@]3([H])C([H])([H])N4C([H])([H])C([H])([H])C3([H])C([H])([H])C4([H])[H])c([H])c(=O)c2c1[H]


 26 29  0  0  0  0  0  0  0  0999 V2000
   -0.7903  -51.8603  -17.1831 C   0  0  0  0  0  0  0  0  0  0  0  0
   -1.7282  -52.8157  -17.5082 C   0  0  0  0  0  0  0  0  0  0  0  0
   -1.7669  -53.4271  -18.7445 C   0  0  0  0  0  0  0  0  0  0  0  0
   -0.8354  -53.0762  -19.6995 C   0  0  0  0  0  0  0  0  0  0  0  0
    0.1149  -52.1237  -19.4031 C   0  0  0  0  0  0  0  0  0  0  0  0
    0.1358  -51.5146  -18.1395 C   0  0  0  0  0  0  0  0  0  0  0  0
    0.9983  -51.7922  -20.3119 O   0  0  0  0  0  0  0  0  0  0  0  0
    1.0674  -52.2967  -21.5169 C   0  0  0  0  0  0  0  0  0  0  0  0
    0.1312  -53.2520  -21.8453 C   0  0  0  0  0  0  0  0  0  0  0  0
   -0.8354  -53.6594  -20.9463 C   0  0  0  0  0  0  0  0  0  0  0  0
   -1.6977  -54.5310  -21.2309 O   0  0  0  0  0  0  0  0  0  0  0  0
    2.1063  -51.8521  -22.4687 C   0  0  0  0  0  0  0  0  0  0  0  0
    2.1823  -52.4659  -23.5601 O   0  0  0  0  0  0  0  0  0  0  0  0
    2.9960  -50.7908  -22.2081 N   0  0  0  0  0  0  0  0  0  0  0  0
    2.9229  -50.2876  -21.2960 H   0  0  0  0  0  0  0  0  0  0  0  0
    3.9769  -50.4354  -23.2086 C   0  0  0  0  0  0  0  0  0  0  0  0
    4.1618  -48.9354  -23.3281 C   0  0  0  0  0  0  0  0  0  0  0  0
    5.4576  -48.7373  -23.9819 N   0  0  0  0  0  0  0  0  0  0  0  0
    6.5002  -48.8165  -22.9485 C   0  0  0  0  0  0  0  0  0  0  0  0
    6.1778  -50.0051  -22.0813 C   0  0  0  0  0  0  0  0  0  0  0  0
    5.3492  -51.0131  -22.8904 C   0  0  0  0  0  0  0  0  0  0  0  0
    6.0705  -51.1064  -24.2433 C   0  0  0  0  0  0  0  0  0  0  0  0
    5.7298  -49.7859  -24.9485 C   0  0  0  0  0  0  0  0  0  0  0  0
   -1.2902  -50.0001  -15.7180 O   0  0  0  0  0  0  0  0  0  0  0  0
   -0.7830  -51.2442  -15.8791 N   0  0  0  0  0  0  0  0  0  0  0  0
   -0.3160  -51.8379  -14.8893 O   0  0  0  0  0  0  0  0  0  0  0  0
 24 25  1  0  0  0
 25 26  2  0  0  0
 25  1  1  0  0  0
  1  2  2  0  0  0
  2  3  1  0  0  0
  3  4  2  0  0  0
  4  5  1  0  0  0
  5  6  2  0  0  0
  5  7  1  0  0  0
  7  8  1  0  0  0
  8  9  2  0  0  0
  9 10  1  0  0  0
 10 11  2  0  0  0
  8 12  1  0  0  0
 12 13  2  0  0  0
 12 14  1  0  0  0
 14 16  1  0  0  0
 16 17  1  0  0  0
 17 18  1  0  0  0
 18 19  1  0  0  0
 19 20  1  0  0  0
 20 21  1  0  0  0
 21 22  1  0  0  0
 22 23  1  0  0  0
  6  1  1  0  0  0
 21 16  1  0  0  0
 10  4  1  0  0  0
 23 18  1  0  0  0
 14 15  1  0  0  0
M  CHG 1  24  -1
M  CHG 1  25   1
M  END
> <minimizedAffinity>
-6.35438

> <CNNscore>
0.5926987529

> <CNNaffinity>
5.7590880394

> <CNN_VS>
3.4134042263

> <CNNaffinity_variance>
0.2585046291

$$$$
[H]c1c([N+](=O)[O-])c([H])c2oc(C(=O)N([H])[C@@]3([H])C([H])([H])N4C([H])([H])C([H])([H])C3([H])C([H])([H])C4([H])[H])c([H])c(=O)c2c1[H]


 26 29  0  0  0  0  0  0  0  0999 V2000
    0.8512  -50.8622  -17.7570 C   0  0  0  0  0  0  0  0  0  0  0  0
   -0.2294  -51.5986  -17.3234 C   0  0  0  0  0  0  0  0  0  0  0  0
   -0.9033  -52.4806  -18.1431 C   0  0  0  0  0  0  0  0  0  0  0  0
   -0.4878  -52.6391  -19.4489 C   0  0  0  0  0  0  0  0  0  0  0  0
    0.5901  -51.9159  -19.9107 C   0  0  0  0  0  0  0  0  0  0  0  0
    1.2607  -51.0246  -19.0600 C   0  0  0  0  0  0  0  0  0  0  0  0
    0.9826  -52.0684  -21.1512 O   0  0  0  0  0  0  0  0  0  0  0  0
    0.4298  -52.8700  -22.0248 C   0  0  0  0  0  0  0  0  0  0  0  0
   -0.6508  -53.6076  -21.5948 C   0  0  0  0  0  0  0  0  0  0  0  0
   -1.1294  -53.5074  -20.3027 C   0  0  0  0  0  0  0  0  0  0  0  0
   -2.1155  -54.1744  -19.8943 O   0  0  0  0  0  0  0  0  0  0  0  0
    0.9517  -52.9677  -23.4037 C   0  0  0  0  0  0  0  0  0  0  0  0
    2.1353  -52.5986  -23.5946 O   0  0  0  0  0  0  0  0  0  0  0  0
    0.1926  -53.4476  -24.4897 N   0  0  0  0  0  0  0  0  0  0  0  0
   -0.7914  -53.7518  -24.3181 H   0  0  0  0  0  0  0  0  0  0  0  0
    0.7995  -53.5024  -25.8005 C   0  0  0  0  0  0  0  0  0  0  0  0
    0.1858  -54.5773  -26.6760 C   0  0  0  0  0  0  0  0  0  0  0  0
    0.5273  -54.2209  -28.0551 N   0  0  0  0  0  0  0  0  0  0  0  0
   -0.4564  -53.2331  -28.5218 C   0  0  0  0  0  0  0  0  0  0  0  0
   -0.6294  -52.2222  -27.4188 C   0  0  0  0  0  0  0  0  0  0  0  0
    0.6404  -52.1903  -26.5564 C   0  0  0  0  0  0  0  0  0  0  0  0
    1.7939  -52.1672  -27.5704 C   0  0  0  0  0  0  0  0  0  0  0  0
    1.8352  -53.5951  -28.1329 C   0  0  0  0  0  0  0  0  0  0  0  0
    1.6753  -50.2655  -15.5612 O   0  0  0  0  0  0  0  0  0  0  0  0
    1.5293  -49.9502  -16.8690 N   0  0  0  0  0  0  0  0  0  0  0  0
    1.9875  -48.8693  -17.2836 O   0  0  0  0  0  0  0  0  0  0  0  0
 24 25  1  0  0  0
 25 26  2  0  0  0
 25  1  1  0  0  0
  1  2  2  0  0  0
  2  3  1  0  0  0
  3  4  2  0  0  0
  4  5  1  0  0  0
  5  6  2  0  0  0
  5  7  1  0  0  0
  7  8  1  0  0  0
  8  9  2  0  0  0
  9 10  1  0  0  0
 10 11  2  0  0  0
  8 12  1  0  0  0
 12 13  2  0  0  0
 12 14  1  0  0  0
 14 16  1  0  0  0
 16 17  1  0  0  0
 17 18  1  0  0  0
 18 19  1  0  0  0
 19 20  1  0  0  0
 20 21  1  0  0  0
 21 22  1  0  0  0
 22 23  1  0  0  0
  6  1  1  0  0  0
 21 16  1  0  0  0
 10  4  1  0  0  0
 23 18  1  0  0  0
 14 15  1  0  0  0
M  CHG 1  24  -1
M  CHG 1  25   1
M  END
> <minimizedAffinity>
-7.64676

> <CNNscore>
0.5843592882

> <CNNaffinity>
6.2853746414

> <CNN_VS>
3.6729171276

> <CNNaffinity_variance>
0.1470940858

$$$$
[H]c1c([N+](=O)[O-])c([H])c2oc(C(=O)N([H])[C@@]3([H])C([H])([H])N4C([H])([H])C([H])([H])C3([H])C([H])([H])C4([H])[H])c([H])c(=O)c2c1[H]


 26 29  0  0  0  0  0  0  0  0999 V2000
   -0.6347  -53.5913  -22.3574 C   0  0  0  0  0  0  0  0  0  0  0  0
   -0.8561  -53.5583  -20.9979 C   0  0  0  0  0  0  0  0  0  0  0  0
   -0.3941  -52.5354  -20.1954 C   0  0  0  0  0  0  0  0  0  0  0  0
    0.3181  -51.5006  -20.7654 C   0  0  0  0  0  0  0  0  0  0  0  0
    0.5550  -51.5065  -22.1226 C   0  0  0  0  0  0  0  0  0  0  0  0
    0.0760  -52.5567  -22.9198 C   0  0  0  0  0  0  0  0  0  0  0  0
    1.2317  -50.5226  -22.6614 O   0  0  0  0  0  0  0  0  0  0  0  0
    1.7214  -49.4984  -22.0114 C   0  0  0  0  0  0  0  0  0  0  0  0
    1.5021  -49.4622  -20.6522 C   0  0  0  0  0  0  0  0  0  0  0  0
    0.7984  -50.4591  -20.0044 C   0  0  0  0  0  0  0  0  0  0  0  0
    0.5894  -50.4408  -18.7634 O   0  0  0  0  0  0  0  0  0  0  0  0
    2.4722  -48.4389  -22.7165 C   0  0  0  0  0  0  0  0  0  0  0  0
    2.3726  -47.2719  -22.2673 O   0  0  0  0  0  0  0  0  0  0  0  0
    3.2778  -48.6788  -23.8475 N   0  0  0  0  0  0  0  0  0  0  0  0
    3.3527  -49.6545  -24.2120 H   0  0  0  0  0  0  0  0  0  0  0  0
    3.9713  -47.5700  -24.4632 C   0  0  0  0  0  0  0  0  0  0  0  0
    5.3700  -47.9428  -24.9138 C   0  0  0  0  0  0  0  0  0  0  0  0
    5.7586  -46.9364  -25.9047 N   0  0  0  0  0  0  0  0  0  0  0  0
    5.1974  -47.3413  -27.2018 C   0  0  0  0  0  0  0  0  0  0  0  0
    3.7723  -47.7631  -26.9578 C   0  0  0  0  0  0  0  0  0  0  0  0
    3.2436  -47.0599  -25.6996 C   0  0  0  0  0  0  0  0  0  0  0  0
    3.6929  -45.5995  -25.8574 C   0  0  0  0  0  0  0  0  0  0  0  0
    5.2032  -45.6339  -25.5837 C   0  0  0  0  0  0  0  0  0  0  0  0
   -0.9305  -54.6769  -24.4999 O   0  0  0  0  0  0  0  0  0  0  0  0
   -1.1345  -54.6787  -23.1622 N   0  0  0  0  0  0  0  0  0  0  0  0
   -1.7551  -55.6277  -22.6480 O   0  0  0  0  0  0  0  0  0  0  0  0
 24 25  1  0  0  0
 25 26  2  0  0  0
 25  1  1  0  0  0
  1  2  2  0  0  0
  2  3  1  0  0  0
  3  4  2  0  0  0
  4  5  1  0  0  0
  5  6  2  0  0  0
  5  7  1  0  0  0
  7  8  1  0  0  0
  8  9  2  0  0  0
  9 10  1  0  0  0
 10 11  2  0  0  0
  8 12  1  0  0  0
 12 13  2  0  0  0
 12 14  1  0  0  0
 14 16  1  0  0  0
 16 17  1  0  0  0
 17 18  1  0  0  0
 18 19  1  0  0  0
 19 20  1  0  0  0
 20 21  1  0  0  0
 21 22  1  0  0  0
 22 23  1  0  0  0
  6  1  1  0  0  0
 21 16  1  0  0  0
 10  4  1  0  0  0
 23 18  1  0  0  0
 14 15  1  0  0  0
M  CHG 1  24  -1
M  CHG 1  25   1
M  END
> <minimizedAffinity>
-6.63910

> <CNNscore>
0.5365140438

> <CNNaffinity>
5.6642150879

> <CNN_VS>
3.0389308929

> <CNNaffinity_variance>
0.2052794397

$$$$
[H]c1c([N+](=O)[O-])c([H])c2oc(C(=O)N([H])[C@@]3([H])C([H])([H])N4C([H])([H])C([H])([H])C3([H])C([H])([H])C4([H])[H])c([H])c(=O)c2c1[H]


 26 29  0  0  0  0  0  0  0  0999 V2000
    1.2244  -53.2750  -25.7259 C   0  0  0  0  0  0  0  0  0  0  0  0
    0.2096  -54.2001  -25.8375 C   0  0  0  0  0  0  0  0  0  0  0  0
   -0.5560  -54.5954  -24.7599 C   0  0  0  0  0  0  0  0  0  0  0  0
   -0.3045  -54.0500  -23.5180 C   0  0  0  0  0  0  0  0  0  0  0  0
    0.7041  -53.1223  -23.3758 C   0  0  0  0  0  0  0  0  0  0  0  0
    1.4704  -52.7347  -24.4852 C   0  0  0  0  0  0  0  0  0  0  0  0
    0.9409  -52.6058  -22.1954 O   0  0  0  0  0  0  0  0  0  0  0  0
    0.2883  -52.8966  -21.0995 C   0  0  0  0  0  0  0  0  0  0  0  0
   -0.7268  -53.8211  -21.2074 C   0  0  0  0  0  0  0  0  0  0  0  0
   -1.0424  -54.4141  -22.4147 C   0  0  0  0  0  0  0  0  0  0  0  0
   -1.9668  -55.2604  -22.5299 O   0  0  0  0  0  0  0  0  0  0  0  0
    0.6360  -52.2551  -19.8148 C   0  0  0  0  0  0  0  0  0  0  0  0
   -0.0795  -52.5357  -18.8234 O   0  0  0  0  0  0  0  0  0  0  0  0
    1.7140  -51.3608  -19.6594 N   0  0  0  0  0  0  0  0  0  0  0  0
    2.3022  -51.1351  -20.4921 H   0  0  0  0  0  0  0  0  0  0  0  0
    1.9684  -50.7878  -18.3569 C   0  0  0  0  0  0  0  0  0  0  0  0
    3.4468  -50.7474  -18.0232 C   0  0  0  0  0  0  0  0  0  0  0  0
    3.5949  -49.7538  -16.9572 N   0  0  0  0  0  0  0  0  0  0  0  0
    3.6669  -48.4266  -17.5854 C   0  0  0  0  0  0  0  0  0  0  0  0
    2.5853  -48.3704  -18.6320 C   0  0  0  0  0  0  0  0  0  0  0  0
    1.4668  -49.3536  -18.2585 C   0  0  0  0  0  0  0  0  0  0  0  0
    1.2269  -49.1128  -16.7606 C   0  0  0  0  0  0  0  0  0  0  0  0
    2.4433  -49.7489  -16.0729 C   0  0  0  0  0  0  0  0  0  0  0  0
    3.2702  -53.3395  -27.0172 O   0  0  0  0  0  0  0  0  0  0  0  0
    2.0024  -52.8877  -26.8769 N   0  0  0  0  0  0  0  0  0  0  0  0
    1.5284  -52.1399  -27.7522 O   0  0  0  0  0  0  0  0  0  0  0  0
 24 25  1  0  0  0
 25 26  2  0  0  0
 25  1  1  0  0  0
  1  2  2  0  0  0
  2  3  1  0  0  0
  3  4  2  0  0  0
  4  5  1  0  0  0
  5  6  2  0  0  0
  5  7  1  0  0  0
  7  8  1  0  0  0
  8  9  2  0  0  0
  9 10  1  0  0  0
 10 11  2  0  0  0
  8 12  1  0  0  0
 12 13  2  0  0  0
 12 14  1  0  0  0
 14 16  1  0  0  0
 16 17  1  0  0  0
 17 18  1  0  0  0
 18 19  1  0  0  0
 19 20  1  0  0  0
 20 21  1  0  0  0
 21 22  1  0  0  0
 22 23  1  0  0  0
  6  1  1  0  0  0
 21 16  1  0  0  0
 10  4  1  0  0  0
 23 18  1  0  0  0
 14 15  1  0  0  0
M  CHG 1  24  -1
M  CHG 1  25   1
M  END
> <minimizedAffinity>
-7.83258

> <CNNscore>
0.4783892930

> <CNNaffinity>
6.0463294983

> <CNN_VS>
2.8924992085

> <CNNaffinity_variance>
0.4933174253

$$$$
[H]c1c([N+](=O)[O-])c([H])c2oc(C(=O)N([H])[C@@]3([H])C([H])([H])N4C([H])([H])C([H])([H])C3([H])C([H])([H])C4([H])[H])c([H])c(=O)c2c1[H]


 26 29  0  0  0  0  0  0  0  0999 V2000
    0.7999  -53.6238  -26.6962 C   0  0  0  0  0  0  0  0  0  0  0  0
   -0.0318  -54.6760  -26.3813 C   0  0  0  0  0  0  0  0  0  0  0  0
   -0.5315  -54.8723  -25.1103 C   0  0  0  0  0  0  0  0  0  0  0  0
   -0.1917  -53.9871  -24.1083 C   0  0  0  0  0  0  0  0  0  0  0  0
    0.6384  -52.9251  -24.3935 C   0  0  0  0  0  0  0  0  0  0  0  0
    1.1351  -52.7446  -25.6929 C   0  0  0  0  0  0  0  0  0  0  0  0
    0.9595  -52.0860  -23.4401 O   0  0  0  0  0  0  0  0  0  0  0  0
    0.5531  -52.1621  -22.1990 C   0  0  0  0  0  0  0  0  0  0  0  0
   -0.2784  -53.2128  -21.8806 C   0  0  0  0  0  0  0  0  0  0  0  0
   -0.6662  -54.1430  -22.8257 C   0  0  0  0  0  0  0  0  0  0  0  0
   -1.4253  -55.1085  -22.5509 O   0  0  0  0  0  0  0  0  0  0  0  0
    0.9753  -51.1606  -21.1980 C   0  0  0  0  0  0  0  0  0  0  0  0
    0.0796  -50.4372  -20.7000 O   0  0  0  0  0  0  0  0  0  0  0  0
    2.3124  -50.9874  -20.7882 N   0  0  0  0  0  0  0  0  0  0  0  0
    3.0489  -51.5956  -21.2100 H   0  0  0  0  0  0  0  0  0  0  0  0
    2.6186  -49.9770  -19.8008 C   0  0  0  0  0  0  0  0  0  0  0  0
    3.6269  -50.4586  -18.7761 C   0  0  0  0  0  0  0  0  0  0  0  0
    4.1896  -49.2530  -18.1633 N   0  0  0  0  0  0  0  0  0  0  0  0
    5.2642  -48.7625  -19.0384 C   0  0  0  0  0  0  0  0  0  0  0  0
    4.7456  -48.8141  -20.4515 C   0  0  0  0  0  0  0  0  0  0  0  0
    3.2130  -48.7258  -20.4327 C   0  0  0  0  0  0  0  0  0  0  0  0
    2.9049  -47.5905  -19.4449 C   0  0  0  0  0  0  0  0  0  0  0  0
    3.1990  -48.1960  -18.0651 C   0  0  0  0  0  0  0  0  0  0  0  0
    2.3749  -54.1650  -28.4522 O   0  0  0  0  0  0  0  0  0  0  0  0
    1.3015  -53.4530  -28.0376 N   0  0  0  0  0  0  0  0  0  0  0  0
    0.7632  -52.6573  -28.8296 O   0  0  0  0  0  0  0  0  0  0  0  0
 24 25  1  0  0  0
 25 26  2  0  0  0
 25  1  1  0  0  0
  1  2  2  0  0  0
  2  3  1  0  0  0
  3  4  2  0  0  0
  4  5  1  0  0  0
  5  6  2  0  0  0
  5  7  1  0  0  0
  7  8  1  0  0  0
  8  9  2  0  0  0
  9 10  1  0  0  0
 10 11  2  0  0  0
  8 12  1  0  0  0
 12 13  2  0  0  0
 12 14  1  0  0  0
 14 16  1  0  0  0
 16 17  1  0  0  0
 17 18  1  0  0  0
 18 19  1  0  0  0
 19 20  1  0  0  0
 20 21  1  0  0  0
 21 22  1  0  0  0
 22 23  1  0  0  0
  6  1  1  0  0  0
 21 16  1  0  0  0
 10  4  1  0  0  0
 23 18  1  0  0  0
 14 15  1  0  0  0
M  CHG 1  24  -1
M  CHG 1  25   1
M  END
> <minimizedAffinity>
-7.40332

> <CNNscore>
0.4681865275

> <CNNaffinity>
6.0643463135

> <CNN_VS>
2.8392453194

> <CNNaffinity_variance>
0.3517688811

$$$$
[H]c1c([N+](=O)[O-])c([H])c2oc(C(=O)N([H])[C@@]3([H])C([H])([H])N4C([H])([H])C([H])([H])C3([H])C([H])([H])C4([H])[H])c([H])c(=O)c2c1[H]


 26 29  0  0  0  0  0  0  0  0999 V2000
    0.9409  -53.4295  -26.2149 C   0  0  0  0  0  0  0  0  0  0  0  0
    0.1323  -54.5327  -26.0496 C   0  0  0  0  0  0  0  0  0  0  0  0
   -0.5124  -54.8089  -24.8614 C   0  0  0  0  0  0  0  0  0  0  0  0
   -0.3484  -53.9543  -23.7910 C   0  0  0  0  0  0  0  0  0  0  0  0
    0.4543  -52.8428  -23.9267 C   0  0  0  0  0  0  0  0  0  0  0  0
    1.1005  -52.5813  -25.1440 C   0  0  0  0  0  0  0  0  0  0  0  0
    0.6084  -52.0329  -22.9086 O   0  0  0  0  0  0  0  0  0  0  0  0
    0.0535  -52.1834  -21.7335 C   0  0  0  0  0  0  0  0  0  0  0  0
   -0.7553  -53.2852  -21.5647 C   0  0  0  0  0  0  0  0  0  0  0  0
   -0.9718  -54.1895  -22.5866 C   0  0  0  0  0  0  0  0  0  0  0  0
   -1.7079  -55.2010  -22.4484 O   0  0  0  0  0  0  0  0  0  0  0  0
    0.2933  -51.2088  -20.6492 C   0  0  0  0  0  0  0  0  0  0  0  0
    0.2777  -49.9934  -20.9590 O   0  0  0  0  0  0  0  0  0  0  0  0
    0.5336  -51.5789  -19.3108 N   0  0  0  0  0  0  0  0  0  0  0  0
    0.5441  -52.5937  -19.0654 H   0  0  0  0  0  0  0  0  0  0  0  0
    0.7566  -50.5446  -18.3259 C   0  0  0  0  0  0  0  0  0  0  0  0
    0.3408  -50.9751  -16.9329 C   0  0  0  0  0  0  0  0  0  0  0  0
    1.0351  -50.0774  -16.0068 N   0  0  0  0  0  0  0  0  0  0  0  0
    2.3918  -50.6047  -15.8004 C   0  0  0  0  0  0  0  0  0  0  0  0
    2.9319  -50.9853  -17.1539 C   0  0  0  0  0  0  0  0  0  0  0  0
    2.2253  -50.1538  -18.2339 C   0  0  0  0  0  0  0  0  0  0  0  0
    2.2269  -48.7214  -17.6794 C   0  0  0  0  0  0  0  0  0  0  0  0
    1.1724  -48.7436  -16.5638 C   0  0  0  0  0  0  0  0  0  0  0  0
    0.9087  -52.6112  -28.4922 O   0  0  0  0  0  0  0  0  0  0  0  0
    1.5978  -53.1756  -27.4735 N   0  0  0  0  0  0  0  0  0  0  0  0
    2.7961  -53.4670  -27.6444 O   0  0  0  0  0  0  0  0  0  0  0  0
 24 25  1  0  0  0
 25 26  2  0  0  0
 25  1  1  0  0  0
  1  2  2  0  0  0
  2  3  1  0  0  0
  3  4  2  0  0  0
  4  5  1  0  0  0
  5  6  2  0  0  0
  5  7  1  0  0  0
  7  8  1  0  0  0
  8  9  2  0  0  0
  9 10  1  0  0  0
 10 11  2  0  0  0
  8 12  1  0  0  0
 12 13  2  0  0  0
 12 14  1  0  0  0
 14 16  1  0  0  0
 16 17  1  0  0  0
 17 18  1  0  0  0
 18 19  1  0  0  0
 19 20  1  0  0  0
 20 21  1  0  0  0
 21 22  1  0  0  0
 22 23  1  0  0  0
  6  1  1  0  0  0
 21 16  1  0  0  0
 10  4  1  0  0  0
 23 18  1  0  0  0
 14 15  1  0  0  0
M  CHG 1  24  -1
M  CHG 1  25   1
M  END
> <minimizedAffinity>
-7.74474

> <CNNscore>
0.4478305280

> <CNNaffinity>
5.9622273445

> <CNN_VS>
2.6700673103

> <CNNaffinity_variance>
0.3315036297

$$$$
[H]OC(=O)[C@@]([H])(N([H])C(=O)[C@]([H])(N([H])[H])C([H])([H])S[H])C([H])([H])c1c([H])c([H])c([H])c([H])c1[H]


 23 23  0  0  0  0  0  0  0  0999 V2000
   -0.6076  -53.7191  -24.4722 C   0  0  0  0  0  0  0  0  0  0  0  0
   -0.7686  -54.1812  -22.0053 C   0  0  0  0  0  0  0  0  0  0  0  0
   -1.8226  -54.8335  -22.1973 O   0  0  0  0  0  0  0  0  0  0  0  0
   -0.1233  -53.6014  -23.1305 N   0  0  0  0  0  0  0  0  0  0  0  0
    0.7543  -53.0611  -22.9523 H   0  0  0  0  0  0  0  0  0  0  0  0
   -1.3182  -53.8401  -19.7133 N   0  0  0  0  0  0  0  0  0  0  0  0
   -0.2475  -54.0445  -20.6312 C   0  0  0  0  0  0  0  0  0  0  0  0
   -1.3896  -54.5316  -18.9521 H   0  0  0  0  0  0  0  0  0  0  0  0
   -2.2265  -53.5921  -20.1505 H   0  0  0  0  0  0  0  0  0  0  0  0
    0.6714  -52.8448  -20.5704 C   0  0  0  0  0  0  0  0  0  0  0  0
    0.3387  -51.8317  -19.1113 S   0  0  0  0  0  0  0  0  0  0  0  0
    0.6012  -50.4671  -19.3490 H   0  0  0  0  0  0  0  0  0  0  0  0
   -0.3215  -55.0498  -25.0706 C   0  0  0  0  0  0  0  0  0  0  0  0
   -1.1136  -56.1327  -24.7167 O   0  0  0  0  0  0  0  0  0  0  0  0
    0.6035  -55.2672  -25.8886 O   0  0  0  0  0  0  0  0  0  0  0  0
   -1.2283  -56.4575  -23.7854 H   0  0  0  0  0  0  0  0  0  0  0  0
   -0.2214  -52.5702  -25.3574 C   0  0  0  0  0  0  0  0  0  0  0  0
   -0.8494  -52.5569  -26.6710 C   0  0  0  0  0  0  0  0  0  0  0  0
   -0.0792  -52.6594  -27.8126 C   0  0  0  0  0  0  0  0  0  0  0  0
   -0.6653  -52.6474  -29.0837 C   0  0  0  0  0  0  0  0  0  0  0  0
   -2.0224  -52.5332  -29.2237 C   0  0  0  0  0  0  0  0  0  0  0  0
   -2.8067  -52.4297  -28.0881 C   0  0  0  0  0  0  0  0  0  0  0  0
   -2.2113  -52.4433  -26.8427 C   0  0  0  0  0  0  0  0  0  0  0  0
  6  7  1  0  0  0
  7 10  1  0  0  0
 10 11  1  0  0  0
  7  2  1  0  0  0
  2  3  2  0  0  0
  2  4  1  0  0  0
  4  1  1  0  0  0
  1 17  1  0  0  0
 17 18  1  0  0  0
 18 19  2  0  0  0
 19 20  1  0  0  0
 20 21  2  0  0  0
 21 22  1  0  0  0
 22 23  2  0  0  0
  1 13  1  0  0  0
 13 14  1  0  0  0
 13 15  2  0  0  0
 23 18  1  0  0  0
  6  8  1  0  0  0
  6  9  1  0  0  0
 11 12  1  0  0  0
  4  5  1  0  0  0
 14 16  1  0  0  0
M  END
> <minimizedAffinity>
-6.75581

> <CNNscore>
0.6359468699

> <CNNaffinity>
5.1523771286

> <CNN_VS>
3.2766380310

> <CNNaffinity_variance>
0.0820595920

$$$$
[H]OC(=O)[C@@]([H])(N([H])C(=O)[C@]([H])(N([H])[H])C([H])([H])S[H])C([H])([H])c1c([H])c([H])c([H])c([H])c1[H]


 23 23  0  0  0  0  0  0  0  0999 V2000
    1.2186  -52.9861  -25.2188 C   0  0  0  0  0  0  0  0  0  0  0  0
   -0.3229  -54.1724  -23.6246 C   0  0  0  0  0  0  0  0  0  0  0  0
   -0.8746  -54.7516  -24.5907 O   0  0  0  0  0  0  0  0  0  0  0  0
    0.7404  -53.2711  -23.9003 N   0  0  0  0  0  0  0  0  0  0  0  0
    1.1890  -52.7970  -23.0830 H   0  0  0  0  0  0  0  0  0  0  0  0
   -2.0203  -55.1786  -22.2910 N   0  0  0  0  0  0  0  0  0  0  0  0
   -0.7970  -54.4486  -22.2544 C   0  0  0  0  0  0  0  0  0  0  0  0
   -2.0109  -56.0868  -21.8037 H   0  0  0  0  0  0  0  0  0  0  0  0
   -2.4905  -55.1961  -23.2165 H   0  0  0  0  0  0  0  0  0  0  0  0
   -1.0433  -53.1359  -21.5449 C   0  0  0  0  0  0  0  0  0  0  0  0
   -0.0158  -52.9816  -20.0663 S   0  0  0  0  0  0  0  0  0  0  0  0
   -0.6520  -52.2241  -19.0619 H   0  0  0  0  0  0  0  0  0  0  0  0
    2.7030  -52.9522  -25.2957 C   0  0  0  0  0  0  0  0  0  0  0  0
    3.3197  -53.1599  -26.5212 O   0  0  0  0  0  0  0  0  0  0  0  0
    3.4522  -52.7453  -24.3119 O   0  0  0  0  0  0  0  0  0  0  0  0
    3.2035  -53.9786  -27.0710 H   0  0  0  0  0  0  0  0  0  0  0  0
    0.5598  -51.7982  -25.8573 C   0  0  0  0  0  0  0  0  0  0  0  0
   -0.4449  -52.1091  -26.8644 C   0  0  0  0  0  0  0  0  0  0  0  0
   -1.7886  -52.0040  -26.5638 C   0  0  0  0  0  0  0  0  0  0  0  0
   -2.7683  -52.2996  -27.5189 C   0  0  0  0  0  0  0  0  0  0  0  0
   -2.4138  -52.7015  -28.7787 C   0  0  0  0  0  0  0  0  0  0  0  0
   -1.0707  -52.8112  -29.0940 C   0  0  0  0  0  0  0  0  0  0  0  0
   -0.1184  -52.5155  -28.1393 C   0  0  0  0  0  0  0  0  0  0  0  0
  6  7  1  0  0  0
  7 10  1  0  0  0
 10 11  1  0  0  0
  7  2  1  0  0  0
  2  3  2  0  0  0
  2  4  1  0  0  0
  4  1  1  0  0  0
  1 17  1  0  0  0
 17 18  1  0  0  0
 18 19  2  0  0  0
 19 20  1  0  0  0
 20 21  2  0  0  0
 21 22  1  0  0  0
 22 23  2  0  0  0
  1 13  1  0  0  0
 13 14  1  0  0  0
 13 15  2  0  0  0
 23 18  1  0  0  0
  6  8  1  0  0  0
  6  9  1  0  0  0
 11 12  1  0  0  0
  4  5  1  0  0  0
 14 16  1  0  0  0
M  END
> <minimizedAffinity>
-6.70795

> <CNNscore>
0.6010774970

> <CNNaffinity>
5.2326927185

> <CNN_VS>
3.1452538967

> <CNNaffinity_variance>
0.1166710630

$$$$
[H]OC(=O)[C@@]([H])(N([H])C(=O)[C@]([H])(N([H])[H])C([H])([H])S[H])C([H])([H])c1c([H])c([H])c([H])c([H])c1[H]


 23 23  0  0  0  0  0  0  0  0999 V2000
   -0.3637  -54.0659  -24.3255 C   0  0  0  0  0  0  0  0  0  0  0  0
    0.8127  -53.9423  -26.5449 C   0  0  0  0  0  0  0  0  0  0  0  0
    1.8963  -53.7122  -25.9566 O   0  0  0  0  0  0  0  0  0  0  0  0
   -0.3540  -54.1272  -25.7554 N   0  0  0  0  0  0  0  0  0  0  0  0
   -1.2488  -54.3182  -26.2623 H   0  0  0  0  0  0  0  0  0  0  0  0
    2.1086  -54.2433  -28.5202 N   0  0  0  0  0  0  0  0  0  0  0  0
    0.7950  -54.0107  -28.0192 C   0  0  0  0  0  0  0  0  0  0  0  0
    2.2197  -55.0866  -29.1025 H   0  0  0  0  0  0  0  0  0  0  0  0
    2.8708  -54.0980  -27.8305 H   0  0  0  0  0  0  0  0  0  0  0  0
    0.2998  -52.6910  -28.5672 C   0  0  0  0  0  0  0  0  0  0  0  0
   -1.4593  -52.7636  -28.9746 S   0  0  0  0  0  0  0  0  0  0  0  0
   -1.7819  -51.9228  -30.0593 H   0  0  0  0  0  0  0  0  0  0  0  0
   -1.1129  -55.1920  -23.7082 C   0  0  0  0  0  0  0  0  0  0  0  0
   -1.3032  -56.3563  -24.4386 O   0  0  0  0  0  0  0  0  0  0  0  0
   -1.5948  -55.1636  -22.5510 O   0  0  0  0  0  0  0  0  0  0  0  0
   -1.7628  -56.3924  -25.3181 H   0  0  0  0  0  0  0  0  0  0  0  0
   -0.7491  -52.7216  -23.7805 C   0  0  0  0  0  0  0  0  0  0  0  0
    0.0971  -52.2177  -22.7081 C   0  0  0  0  0  0  0  0  0  0  0  0
   -0.4579  -51.8408  -21.5011 C   0  0  0  0  0  0  0  0  0  0  0  0
    0.3398  -51.3534  -20.4593 C   0  0  0  0  0  0  0  0  0  0  0  0
    1.6951  -51.2391  -20.6150 C   0  0  0  0  0  0  0  0  0  0  0  0
    2.2652  -51.6132  -21.8194 C   0  0  0  0  0  0  0  0  0  0  0  0
    1.4628  -52.0917  -22.8357 C   0  0  0  0  0  0  0  0  0  0  0  0
  6  7  1  0  0  0
  7 10  1  0  0  0
 10 11  1  0  0  0
  7  2  1  0  0  0
  2  3  2  0  0  0
  2  4  1  0  0  0
  4  1  1  0  0  0
  1 17  1  0  0  0
 17 18  1  0  0  0
 18 19  2  0  0  0
 19 20  1  0  0  0
 20 21  2  0  0  0
 21 22  1  0  0  0
 22 23  2  0  0  0
  1 13  1  0  0  0
 13 14  1  0  0  0
 13 15  2  0  0  0
 23 18  1  0  0  0
  6  8  1  0  0  0
  6  9  1  0  0  0
 11 12  1  0  0  0
  4  5  1  0  0  0
 14 16  1  0  0  0
M  END
> <minimizedAffinity>
-6.66228

> <CNNscore>
0.5168184042

> <CNNaffinity>
5.3293008804

> <CNN_VS>
2.7542808056

> <CNNaffinity_variance>
0.1037419438

$$$$
[H]OC(=O)[C@@]([H])(N([H])C(=O)[C@]([H])(N([H])[H])C([H])([H])S[H])C([H])([H])c1c([H])c([H])c([H])c([H])c1[H]


 23 23  0  0  0  0  0  0  0  0999 V2000
   -0.3765  -53.8424  -23.8448 C   0  0  0  0  0  0  0  0  0  0  0  0
    0.8465  -51.9475  -22.7320 C   0  0  0  0  0  0  0  0  0  0  0  0
    0.6460  -51.2278  -23.7396 O   0  0  0  0  0  0  0  0  0  0  0  0
    0.3451  -53.2768  -22.7459 N   0  0  0  0  0  0  0  0  0  0  0  0
    0.5213  -53.8629  -21.8976 H   0  0  0  0  0  0  0  0  0  0  0  0
    0.7447  -51.3139  -20.4386 N   0  0  0  0  0  0  0  0  0  0  0  0
    1.5880  -51.3885  -21.5848 C   0  0  0  0  0  0  0  0  0  0  0  0
    1.0774  -51.8252  -19.6076 H   0  0  0  0  0  0  0  0  0  0  0  0
   -0.2683  -51.4307  -20.6337 H   0  0  0  0  0  0  0  0  0  0  0  0
    2.0502  -49.9908  -21.9314 C   0  0  0  0  0  0  0  0  0  0  0  0
    1.1468  -48.7433  -20.9861 S   0  0  0  0  0  0  0  0  0  0  0  0
    1.0022  -47.5410  -21.7078 H   0  0  0  0  0  0  0  0  0  0  0  0
   -1.1637  -55.0427  -23.4572 C   0  0  0  0  0  0  0  0  0  0  0  0
   -1.2646  -56.1002  -24.3499 O   0  0  0  0  0  0  0  0  0  0  0  0
   -1.7549  -55.1696  -22.3588 O   0  0  0  0  0  0  0  0  0  0  0  0
   -1.6369  -56.0206  -25.2670 H   0  0  0  0  0  0  0  0  0  0  0  0
    0.4584  -54.0470  -25.0752 C   0  0  0  0  0  0  0  0  0  0  0  0
   -0.1223  -53.5460  -26.3130 C   0  0  0  0  0  0  0  0  0  0  0  0
   -1.2401  -52.7358  -26.2803 C   0  0  0  0  0  0  0  0  0  0  0  0
   -1.8125  -52.2457  -27.4600 C   0  0  0  0  0  0  0  0  0  0  0  0
   -1.2737  -52.5606  -28.6785 C   0  0  0  0  0  0  0  0  0  0  0  0
   -0.1532  -53.3716  -28.7263 C   0  0  0  0  0  0  0  0  0  0  0  0
    0.3977  -53.8458  -27.5527 C   0  0  0  0  0  0  0  0  0  0  0  0
  6  7  1  0  0  0
  7 10  1  0  0  0
 10 11  1  0  0  0
  7  2  1  0  0  0
  2  3  2  0  0  0
  2  4  1  0  0  0
  4  1  1  0  0  0
  1 17  1  0  0  0
 17 18  1  0  0  0
 18 19  2  0  0  0
 19 20  1  0  0  0
 20 21  2  0  0  0
 21 22  1  0  0  0
 22 23  2  0  0  0
  1 13  1  0  0  0
 13 14  1  0  0  0
 13 15  2  0  0  0
 23 18  1  0  0  0
  6  8  1  0  0  0
  6  9  1  0  0  0
 11 12  1  0  0  0
  4  5  1  0  0  0
 14 16  1  0  0  0
M  END
> <minimizedAffinity>
-6.07135

> <CNNscore>
0.4693419039

> <CNNaffinity>
4.9544987679

> <CNN_VS>
2.3253538609

> <CNNaffinity_variance>
0.0241495930

$$$$
[H]OC(=O)[C@@]([H])(N([H])C(=O)[C@]([H])(N([H])[H])C([H])([H])S[H])C([H])([H])c1c([H])c([H])c([H])c([H])c1[H]


 23 23  0  0  0  0  0  0  0  0999 V2000
    1.7741  -53.1986  -25.1800 C   0  0  0  0  0  0  0  0  0  0  0  0
    0.4974  -52.7003  -23.0713 C   0  0  0  0  0  0  0  0  0  0  0  0
    0.1485  -53.9030  -22.9996 O   0  0  0  0  0  0  0  0  0  0  0  0
    1.3201  -52.3035  -24.1597 N   0  0  0  0  0  0  0  0  0  0  0  0
    1.6016  -51.2972  -24.2039 H   0  0  0  0  0  0  0  0  0  0  0  0
    0.8716  -50.5971  -22.0186 N   0  0  0  0  0  0  0  0  0  0  0  0
    0.0429  -51.7563  -22.0317 C   0  0  0  0  0  0  0  0  0  0  0  0
    0.3847  -49.7006  -22.1662 H   0  0  0  0  0  0  0  0  0  0  0  0
    1.7614  -50.6907  -22.5454 H   0  0  0  0  0  0  0  0  0  0  0  0
    0.1385  -52.4289  -20.6805 C   0  0  0  0  0  0  0  0  0  0  0  0
    0.4796  -51.2321  -19.3700 S   0  0  0  0  0  0  0  0  0  0  0  0
    1.2394  -51.7989  -18.3265 H   0  0  0  0  0  0  0  0  0  0  0  0
    2.5622  -52.5113  -26.2368 C   0  0  0  0  0  0  0  0  0  0  0  0
    3.5051  -53.2348  -26.9530 O   0  0  0  0  0  0  0  0  0  0  0  0
    2.4329  -51.2997  -26.5327 O   0  0  0  0  0  0  0  0  0  0  0  0
    4.2730  -53.7100  -26.5400 H   0  0  0  0  0  0  0  0  0  0  0  0
    0.6975  -54.0922  -25.7233 C   0  0  0  0  0  0  0  0  0  0  0  0
   -0.1149  -53.5151  -26.7849 C   0  0  0  0  0  0  0  0  0  0  0  0
    0.1800  -53.7765  -28.1084 C   0  0  0  0  0  0  0  0  0  0  0  0
   -0.5893  -53.2297  -29.1421 C   0  0  0  0  0  0  0  0  0  0  0  0
   -1.6567  -52.4194  -28.8621 C   0  0  0  0  0  0  0  0  0  0  0  0
   -1.9639  -52.1489  -27.5401 C   0  0  0  0  0  0  0  0  0  0  0  0
   -1.1941  -52.6969  -26.5337 C   0  0  0  0  0  0  0  0  0  0  0  0
  6  7  1  0  0  0
  7 10  1  0  0  0
 10 11  1  0  0  0
  7  2  1  0  0  0
  2  3  2  0  0  0
  2  4  1  0  0  0
  4  1  1  0  0  0
  1 17  1  0  0  0
 17 18  1  0  0  0
 18 19  2  0  0  0
 19 20  1  0  0  0
 20 21  2  0  0  0
 21 22  1  0  0  0
 22 23  2  0  0  0
  1 13  1  0  0  0
 13 14  1  0  0  0
 13 15  2  0  0  0
 23 18  1  0  0  0
  6  8  1  0  0  0
  6  9  1  0  0  0
 11 12  1  0  0  0
  4  5  1  0  0  0
 14 16  1  0  0  0
M  END
> <minimizedAffinity>
-5.59570

> <CNNscore>
0.4666003883

> <CNNaffinity>
4.8484182358

> <CNN_VS>
2.2622737885

> <CNNaffinity_variance>
0.0619727857

$$$$
[H]OC(=O)[C@@]([H])(N([H])C(=O)[C@]([H])(N([H])[H])C([H])([H])S[H])C([H])([H])c1c([H])c([H])c([H])c([H])c1[H]


 23 23  0  0  0  0  0  0  0  0999 V2000
    2.0120  -52.7362  -25.6973 C   0  0  0  0  0  0  0  0  0  0  0  0
    2.3439  -51.2431  -23.7010 C   0  0  0  0  0  0  0  0  0  0  0  0
    3.2484  -52.0048  -23.2830 O   0  0  0  0  0  0  0  0  0  0  0  0
    1.6936  -51.5781  -24.9191 N   0  0  0  0  0  0  0  0  0  0  0  0
    0.9419  -50.9319  -25.2530 H   0  0  0  0  0  0  0  0  0  0  0  0
    2.9624  -49.0158  -23.1279 N   0  0  0  0  0  0  0  0  0  0  0  0
    1.9960  -50.0416  -22.9174 C   0  0  0  0  0  0  0  0  0  0  0  0
    2.5931  -48.1247  -23.4914 H   0  0  0  0  0  0  0  0  0  0  0  0
    3.8408  -49.3305  -23.5829 H   0  0  0  0  0  0  0  0  0  0  0  0
    1.9879  -50.3980  -21.4476 C   0  0  0  0  0  0  0  0  0  0  0  0
    0.3115  -50.7239  -20.8565 S   0  0  0  0  0  0  0  0  0  0  0  0
    0.1537  -50.3652  -19.5023 H   0  0  0  0  0  0  0  0  0  0  0  0
    2.6842  -52.3986  -26.9797 C   0  0  0  0  0  0  0  0  0  0  0  0
    3.2019  -53.4226  -27.7599 O   0  0  0  0  0  0  0  0  0  0  0  0
    2.8195  -51.2305  -27.4149 O   0  0  0  0  0  0  0  0  0  0  0  0
    3.8885  -54.0681  -27.4467 H   0  0  0  0  0  0  0  0  0  0  0  0
    0.8652  -53.6913  -25.8570 C   0  0  0  0  0  0  0  0  0  0  0  0
   -0.2518  -53.1973  -26.6498 C   0  0  0  0  0  0  0  0  0  0  0  0
   -1.2889  -52.5161  -26.0438 C   0  0  0  0  0  0  0  0  0  0  0  0
   -2.3712  -52.0348  -26.7896 C   0  0  0  0  0  0  0  0  0  0  0  0
   -2.4255  -52.2300  -28.1436 C   0  0  0  0  0  0  0  0  0  0  0  0
   -1.3929  -52.9111  -28.7643 C   0  0  0  0  0  0  0  0  0  0  0  0
   -0.3336  -53.3786  -28.0127 C   0  0  0  0  0  0  0  0  0  0  0  0
  6  7  1  0  0  0
  7 10  1  0  0  0
 10 11  1  0  0  0
  7  2  1  0  0  0
  2  3  2  0  0  0
  2  4  1  0  0  0
  4  1  1  0  0  0
  1 17  1  0  0  0
 17 18  1  0  0  0
 18 19  2  0  0  0
 19 20  1  0  0  0
 20 21  2  0  0  0
 21 22  1  0  0  0
 22 23  2  0  0  0
  1 13  1  0  0  0
 13 14  1  0  0  0
 13 15  2  0  0  0
 23 18  1  0  0  0
  6  8  1  0  0  0
  6  9  1  0  0  0
 11 12  1  0  0  0
  4  5  1  0  0  0
 14 16  1  0  0  0
M  END
> <minimizedAffinity>
-5.56025

> <CNNscore>
0.4611379504

> <CNNaffinity>
4.8788003922

> <CNN_VS>
2.2497999668

> <CNNaffinity_variance>
0.0746445060

$$$$
[H]OC(=O)[C@@]([H])(N([H])C(=O)[C@]([H])(N([H])[H])C([H])([H])S[H])C([H])([H])c1c([H])c([H])c([H])c([H])c1[H]


 23 23  0  0  0  0  0  0  0  0999 V2000
   -0.4324  -53.4552  -22.5184 C   0  0  0  0  0  0  0  0  0  0  0  0
    0.9007  -53.2705  -24.6429 C   0  0  0  0  0  0  0  0  0  0  0  0
    1.9070  -52.9226  -23.9799 O   0  0  0  0  0  0  0  0  0  0  0  0
   -0.3026  -53.5490  -23.9406 N   0  0  0  0  0  0  0  0  0  0  0  0
   -1.1318  -53.8379  -24.5090 H   0  0  0  0  0  0  0  0  0  0  0  0
    2.3713  -53.2912  -26.5160 N   0  0  0  0  0  0  0  0  0  0  0  0
    1.0076  -53.3752  -26.1112 C   0  0  0  0  0  0  0  0  0  0  0  0
    2.7254  -54.0951  -27.0555 H   0  0  0  0  0  0  0  0  0  0  0  0
    3.0234  -52.9483  -25.7845 H   0  0  0  0  0  0  0  0  0  0  0  0
    0.2490  -52.2294  -26.7428 C   0  0  0  0  0  0  0  0  0  0  0  0
   -0.5685  -52.7415  -28.2710 S   0  0  0  0  0  0  0  0  0  0  0  0
   -0.6554  -51.6841  -29.1994 H   0  0  0  0  0  0  0  0  0  0  0  0
   -1.3635  -54.4706  -21.9591 C   0  0  0  0  0  0  0  0  0  0  0  0
   -1.8314  -55.4835  -22.7840 O   0  0  0  0  0  0  0  0  0  0  0  0
   -1.7640  -54.4765  -20.7710 O   0  0  0  0  0  0  0  0  0  0  0  0
   -2.3365  -55.3277  -23.6246 H   0  0  0  0  0  0  0  0  0  0  0  0
   -0.7008  -52.0629  -22.0262 C   0  0  0  0  0  0  0  0  0  0  0  0
    0.2977  -51.5202  -21.1159 C   0  0  0  0  0  0  0  0  0  0  0  0
    0.3523  -50.1623  -20.8708 C   0  0  0  0  0  0  0  0  0  0  0  0
    1.3058  -49.6227  -19.9996 C   0  0  0  0  0  0  0  0  0  0  0  0
    2.2100  -50.4338  -19.3680 C   0  0  0  0  0  0  0  0  0  0  0  0
    2.1669  -51.7968  -19.6043 C   0  0  0  0  0  0  0  0  0  0  0  0
    1.2196  -52.3112  -20.4667 C   0  0  0  0  0  0  0  0  0  0  0  0
  6  7  1  0  0  0
  7 10  1  0  0  0
 10 11  1  0  0  0
  7  2  1  0  0  0
  2  3  2  0  0  0
  2  4  1  0  0  0
  4  1  1  0  0  0
  1 17  1  0  0  0
 17 18  1  0  0  0
 18 19  2  0  0  0
 19 20  1  0  0  0
 20 21  2  0  0  0
 21 22  1  0  0  0
 22 23  2  0  0  0
  1 13  1  0  0  0
 13 14  1  0  0  0
 13 15  2  0  0  0
 23 18  1  0  0  0
  6  8  1  0  0  0
  6  9  1  0  0  0
 11 12  1  0  0  0
  4  5  1  0  0  0
 14 16  1  0  0  0
M  END
> <minimizedAffinity>
-6.03259

> <CNNscore>
0.4348917902

> <CNNaffinity>
4.7716479301

> <CNN_VS>
2.0751504898

> <CNNaffinity_variance>
0.1621855795

$$$$
[H]OC(=O)[C@@]([H])(N([H])C(=O)[C@]([H])(N([H])[H])C([H])([H])S[H])C([H])([H])c1c([H])c([H])c([H])c([H])c1[H]


 23 23  0  0  0  0  0  0  0  0999 V2000
    0.6655  -52.2739  -24.6409 C   0  0  0  0  0  0  0  0  0  0  0  0
   -0.8951  -52.6696  -26.5729 C   0  0  0  0  0  0  0  0  0  0  0  0
   -0.6463  -53.8978  -26.5210 O   0  0  0  0  0  0  0  0  0  0  0  0
   -0.2515  -51.8140  -25.6389 N   0  0  0  0  0  0  0  0  0  0  0  0
   -0.4705  -50.7928  -25.6963 H   0  0  0  0  0  0  0  0  0  0  0  0
   -3.1775  -52.2618  -27.1172 N   0  0  0  0  0  0  0  0  0  0  0  0
   -1.8374  -52.1690  -27.5927 C   0  0  0  0  0  0  0  0  0  0  0  0
   -3.7031  -51.3754  -27.0928 H   0  0  0  0  0  0  0  0  0  0  0  0
   -3.3011  -52.8541  -26.2735 H   0  0  0  0  0  0  0  0  0  0  0  0
   -1.7111  -53.0176  -28.8382 C   0  0  0  0  0  0  0  0  0  0  0  0
   -0.0713  -52.8598  -29.5811 S   0  0  0  0  0  0  0  0  0  0  0  0
   -0.1140  -53.0055  -30.9827 H   0  0  0  0  0  0  0  0  0  0  0  0
    2.0413  -52.4660  -25.1709 C   0  0  0  0  0  0  0  0  0  0  0  0
    2.3827  -53.6874  -25.7338 O   0  0  0  0  0  0  0  0  0  0  0  0
    2.9329  -51.5848  -25.1446 O   0  0  0  0  0  0  0  0  0  0  0  0
    2.3318  -54.5551  -25.2536 H   0  0  0  0  0  0  0  0  0  0  0  0
    0.1608  -53.4453  -23.8498 C   0  0  0  0  0  0  0  0  0  0  0  0
   -0.0700  -53.1892  -22.4351 C   0  0  0  0  0  0  0  0  0  0  0  0
    0.4797  -52.0765  -21.8296 C   0  0  0  0  0  0  0  0  0  0  0  0
    0.2694  -51.8148  -20.4707 C   0  0  0  0  0  0  0  0  0  0  0  0
   -0.4901  -52.6609  -19.7081 C   0  0  0  0  0  0  0  0  0  0  0  0
   -1.0474  -53.7800  -20.3018 C   0  0  0  0  0  0  0  0  0  0  0  0
   -0.8292  -54.0221  -21.6432 C   0  0  0  0  0  0  0  0  0  0  0  0
  6  7  1  0  0  0
  7 10  1  0  0  0
 10 11  1  0  0  0
  7  2  1  0  0  0
  2  3  2  0  0  0
  2  4  1  0  0  0
  4  1  1  0  0  0
  1 17  1  0  0  0
 17 18  1  0  0  0
 18 19  2  0  0  0
 19 20  1  0  0  0
 20 21  2  0  0  0
 21 22  1  0  0  0
 22 23  2  0  0  0
  1 13  1  0  0  0
 13 14  1  0  0  0
 13 15  2  0  0  0
 23 18  1  0  0  0
  6  8  1  0  0  0
  6  9  1  0  0  0
 11 12  1  0  0  0
  4  5  1  0  0  0
 14 16  1  0  0  0
M  END
> <minimizedAffinity>
-6.03715

> <CNNscore>
0.3847287595

> <CNNaffinity>
5.1389260292

> <CNN_VS>
1.9770926237

> <CNNaffinity_variance>
0.0090928162

$$$$
[H]OC(=O)[C@@]([H])(N([H])C(=O)[C@]([H])(N([H])[H])C([H])([H])S[H])C([H])([H])c1c([H])c([H])c([H])c([H])c1[H]


 23 23  0  0  0  0  0  0  0  0999 V2000
    2.2933  -51.7284  -23.5767 C   0  0  0  0  0  0  0  0  0  0  0  0
    0.4684  -52.0300  -21.8727 C   0  0  0  0  0  0  0  0  0  0  0  0
    0.4256  -50.7883  -21.7003 O   0  0  0  0  0  0  0  0  0  0  0  0
    1.3999  -52.5456  -22.8136 N   0  0  0  0  0  0  0  0  0  0  0  0
    1.4220  -53.5830  -22.9449 H   0  0  0  0  0  0  0  0  0  0  0  0
   -0.2137  -52.7313  -19.7014 N   0  0  0  0  0  0  0  0  0  0  0  0
   -0.4424  -52.8956  -21.0983 C   0  0  0  0  0  0  0  0  0  0  0  0
   -1.0313  -52.4330  -19.1490 H   0  0  0  0  0  0  0  0  0  0  0  0
    0.6675  -52.2392  -19.4583 H   0  0  0  0  0  0  0  0  0  0  0  0
   -0.1759  -54.3395  -21.4609 C   0  0  0  0  0  0  0  0  0  0  0  0
   -1.3004  -54.9139  -22.7537 S   0  0  0  0  0  0  0  0  0  0  0  0
   -1.5854  -56.2889  -22.6283 H   0  0  0  0  0  0  0  0  0  0  0  0
    3.2907  -51.0229  -22.7294 C   0  0  0  0  0  0  0  0  0  0  0  0
    4.0426  -51.7549  -21.8216 O   0  0  0  0  0  0  0  0  0  0  0  0
    3.5049  -49.7884  -22.7779 O   0  0  0  0  0  0  0  0  0  0  0  0
    3.6533  -52.3047  -21.0920 H   0  0  0  0  0  0  0  0  0  0  0  0
    1.6005  -50.8291  -24.5587 C   0  0  0  0  0  0  0  0  0  0  0  0
    0.9630  -51.5044  -25.6802 C   0  0  0  0  0  0  0  0  0  0  0  0
   -0.4095  -51.6518  -25.7159 C   0  0  0  0  0  0  0  0  0  0  0  0
   -1.0396  -52.2989  -26.7853 C   0  0  0  0  0  0  0  0  0  0  0  0
   -0.3049  -52.8025  -27.8249 C   0  0  0  0  0  0  0  0  0  0  0  0
    1.0718  -52.6619  -27.8024 C   0  0  0  0  0  0  0  0  0  0  0  0
    1.6759  -52.0209  -26.7395 C   0  0  0  0  0  0  0  0  0  0  0  0
  6  7  1  0  0  0
  7 10  1  0  0  0
 10 11  1  0  0  0
  7  2  1  0  0  0
  2  3  2  0  0  0
  2  4  1  0  0  0
  4  1  1  0  0  0
  1 17  1  0  0  0
 17 18  1  0  0  0
 18 19  2  0  0  0
 19 20  1  0  0  0
 20 21  2  0  0  0
 21 22  1  0  0  0
 22 23  2  0  0  0
  1 13  1  0  0  0
 13 14  1  0  0  0
 13 15  2  0  0  0
 23 18  1  0  0  0
  6  8  1  0  0  0
  6  9  1  0  0  0
 11 12  1  0  0  0
  4  5  1  0  0  0
 14 16  1  0  0  0
M  END
> <minimizedAffinity>
-5.29571

> <CNNscore>
0.3841542900

> <CNNaffinity>
4.7404165268

> <CNN_VS>
1.8210513592

> <CNNaffinity_variance>
0.2151927650

$$$$
[H]c1nc([H])c(Cl)c(N([H])C(=O)N([H])c2c([H])c(-c3c([H])c([H])c([H])c(-c4c([H])c([H])c([H])c(-c5nnn([H])n5)c4[H])c3[H])nn(C([H])([H])C([H])([H])[H])c2=O)c1Cl


 41 45  0  0  0  0  0  0  0  0999 V2000
   -0.1875  -53.6502  -22.4637 N   0  0  0  0  0  0  0  0  0  0  0  0
    0.8012  -52.8569  -22.7520 N   0  0  0  0  0  0  0  0  0  0  0  0
    1.4743  -52.1257  -21.8462 C   0  0  0  0  0  0  0  0  0  0  0  0
    1.0809  -52.2290  -20.5087 C   0  0  0  0  0  0  0  0  0  0  0  0
    0.0395  -53.0600  -20.1795 C   0  0  0  0  0  0  0  0  0  0  0  0
   -0.5933  -53.7769  -21.2003 C   0  0  0  0  0  0  0  0  0  0  0  0
   -1.5481  -54.5496  -20.9609 O   0  0  0  0  0  0  0  0  0  0  0  0
   -0.4346  -53.2374  -18.8699 N   0  0  0  0  0  0  0  0  0  0  0  0
   -0.6454  -52.2959  -17.8597 C   0  0  0  0  0  0  0  0  0  0  0  0
   -0.4190  -51.0806  -18.0111 O   0  0  0  0  0  0  0  0  0  0  0  0
   -1.1428  -52.6629  -16.5612 N   0  0  0  0  0  0  0  0  0  0  0  0
   -0.6769  -54.2496  -18.5871 H   0  0  0  0  0  0  0  0  0  0  0  0
   -1.3520  -53.6658  -16.3713 H   0  0  0  0  0  0  0  0  0  0  0  0
   -1.3651  -51.7386  -15.5244 C   0  0  0  0  0  0  0  0  0  0  0  0
   -2.6523  -51.2862  -15.2774 C   0  0  0  0  0  0  0  0  0  0  0  0
   -3.9716  -51.8838  -16.2710 Cl  0  0  0  0  0  0  0  0  0  0  0  0
   -2.9118  -50.3771  -14.2675 C   0  0  0  0  0  0  0  0  0  0  0  0
   -1.8860  -49.9354  -13.5224 N   0  0  0  0  0  0  0  0  0  0  0  0
   -0.6074  -50.3414  -13.7168 C   0  0  0  0  0  0  0  0  0  0  0  0
   -0.3649  -51.2468  -14.7262 C   0  0  0  0  0  0  0  0  0  0  0  0
    1.2910  -51.7697  -14.9739 Cl  0  0  0  0  0  0  0  0  0  0  0  0
    2.5805  -51.2553  -22.2655 C   0  0  0  0  0  0  0  0  0  0  0  0
    3.8574  -51.5851  -21.8657 C   0  0  0  0  0  0  0  0  0  0  0  0
    4.9695  -50.8442  -22.1986 C   0  0  0  0  0  0  0  0  0  0  0  0
    4.7773  -49.7155  -22.9735 C   0  0  0  0  0  0  0  0  0  0  0  0
    3.5223  -49.3389  -23.4012 C   0  0  0  0  0  0  0  0  0  0  0  0
    2.4344  -50.1352  -23.0283 C   0  0  0  0  0  0  0  0  0  0  0  0
    3.3512  -48.1437  -24.2181 C   0  0  0  0  0  0  0  0  0  0  0  0
    3.0934  -46.9295  -23.6112 C   0  0  0  0  0  0  0  0  0  0  0  0
    2.9258  -45.7720  -24.3579 C   0  0  0  0  0  0  0  0  0  0  0  0
    3.0116  -45.7971  -25.7346 C   0  0  0  0  0  0  0  0  0  0  0  0
    3.2703  -47.0109  -26.3557 C   0  0  0  0  0  0  0  0  0  0  0  0
    3.4344  -48.1535  -25.5954 C   0  0  0  0  0  0  0  0  0  0  0  0
    3.3654  -47.0592  -27.8090 C   0  0  0  0  0  0  0  0  0  0  0  0
    4.0263  -47.9654  -28.5440 N   0  0  0  0  0  0  0  0  0  0  0  0
    3.8583  -47.6466  -29.8038 N   0  0  0  0  0  0  0  0  0  0  0  0
    3.1119  -46.5657  -29.9107 N   0  0  0  0  0  0  0  0  0  0  0  0
    2.8073  -46.2028  -28.6784 N   0  0  0  0  0  0  0  0  0  0  0  0
    2.8281  -46.1028  -30.8079 H   0  0  0  0  0  0  0  0  0  0  0  0
   -0.4479  -53.6833  -24.8297 C   0  0  0  0  0  0  0  0  0  0  0  0
   -0.8433  -54.3969  -23.5429 C   0  0  0  0  0  0  0  0  0  0  0  0
 40 41  1  0  0  0
 41  1  1  0  0  0
  1  2  1  0  0  0
  2  3  2  0  0  0
  3  4  1  0  0  0
  4  5  2  0  0  0
  5  8  1  0  0  0
  8  9  1  0  0  0
  9 10  2  0  0  0
  9 11  1  0  0  0
 11 14  1  0  0  0
 14 15  2  0  0  0
 15 16  1  0  0  0
 15 17  1  0  0  0
 17 18  2  0  0  0
 18 19  1  0  0  0
 19 20  2  0  0  0
 20 21  1  0  0  0
  5  6  1  0  0  0
  6  7  2  0  0  0
  3 22  1  0  0  0
 22 23  2  0  0  0
 23 24  1  0  0  0
 24 25  2  0  0  0
 25 26  1  0  0  0
 26 27  2  0  0  0
 26 28  1  0  0  0
 28 29  2  0  0  0
 29 30  1  0  0  0
 30 31  2  0  0  0
 31 32  1  0  0  0
 32 33  2  0  0  0
 32 34  1  0  0  0
 34 35  1  0  0  0
 35 36  2  0  0  0
 36 37  1  0  0  0
 37 38  1  0  0  0
  6  1  1  0  0  0
 27 22  1  0  0  0
 33 28  1  0  0  0
 38 34  2  0  0  0
 20 14  1  0  0  0
  8 12  1  0  0  0
 11 13  1  0  0  0
 37 39  1  0  0  0
M  END
> <minimizedAffinity>
-9.14201

> <CNNscore>
0.7534796596

> <CNNaffinity>
7.6439652443

> <CNN_VS>
5.7595725060

> <CNNaffinity_variance>
0.1354793906

$$$$
[H]c1nc([H])c(Cl)c(N([H])C(=O)N([H])c2c([H])c(-c3c([H])c([H])c([H])c(-c4c([H])c([H])c([H])c(-c5nnn([H])n5)c4[H])c3[H])nn(C([H])([H])C([H])([H])[H])c2=O)c1Cl


 41 45  0  0  0  0  0  0  0  0999 V2000
   -0.3325  -53.5626  -22.0209 N   0  0  0  0  0  0  0  0  0  0  0  0
    0.6662  -52.7716  -22.2795 N   0  0  0  0  0  0  0  0  0  0  0  0
    1.3125  -52.0406  -21.3541 C   0  0  0  0  0  0  0  0  0  0  0  0
    0.8778  -52.1416  -20.0293 C   0  0  0  0  0  0  0  0  0  0  0  0
   -0.1749  -52.9701  -19.7314 C   0  0  0  0  0  0  0  0  0  0  0  0
   -0.7773  -53.6870  -20.7704 C   0  0  0  0  0  0  0  0  0  0  0  0
   -1.7405  -54.4576  -20.5597 O   0  0  0  0  0  0  0  0  0  0  0  0
   -0.6896  -53.1450  -18.4369 N   0  0  0  0  0  0  0  0  0  0  0  0
   -0.8894  -52.2086  -17.4197 C   0  0  0  0  0  0  0  0  0  0  0  0
   -0.6118  -51.0015  -17.5488 O   0  0  0  0  0  0  0  0  0  0  0  0
   -1.4345  -52.5719  -16.1394 N   0  0  0  0  0  0  0  0  0  0  0  0
   -0.9786  -54.1503  -18.1741 H   0  0  0  0  0  0  0  0  0  0  0  0
   -1.6877  -53.5681  -15.9686 H   0  0  0  0  0  0  0  0  0  0  0  0
   -1.6474  -51.6526  -15.0962 C   0  0  0  0  0  0  0  0  0  0  0  0
   -0.6221  -51.3856  -14.2017 C   0  0  0  0  0  0  0  0  0  0  0  0
    0.9178  -52.2068  -14.3998 Cl  0  0  0  0  0  0  0  0  0  0  0  0
   -0.7921  -50.4886  -13.1625 C   0  0  0  0  0  0  0  0  0  0  0  0
   -1.9788  -49.8742  -13.0326 N   0  0  0  0  0  0  0  0  0  0  0  0
   -3.0173  -50.0948  -13.8754 C   0  0  0  0  0  0  0  0  0  0  0  0
   -2.8326  -50.9906  -14.9054 C   0  0  0  0  0  0  0  0  0  0  0  0
   -4.1789  -51.2727  -15.9939 Cl  0  0  0  0  0  0  0  0  0  0  0  0
    2.4328  -51.1729  -21.7401 C   0  0  0  0  0  0  0  0  0  0  0  0
    3.6758  -51.4367  -21.2069 C   0  0  0  0  0  0  0  0  0  0  0  0
    4.7971  -50.6916  -21.4967 C   0  0  0  0  0  0  0  0  0  0  0  0
    4.6506  -49.6286  -22.3684 C   0  0  0  0  0  0  0  0  0  0  0  0
    3.4308  -49.3195  -22.9310 C   0  0  0  0  0  0  0  0  0  0  0  0
    2.3313  -50.1162  -22.5951 C   0  0  0  0  0  0  0  0  0  0  0  0
    3.3077  -48.1927  -23.8477 C   0  0  0  0  0  0  0  0  0  0  0  0
    2.9909  -46.9407  -23.3565 C   0  0  0  0  0  0  0  0  0  0  0  0
    2.8664  -45.8461  -24.2002 C   0  0  0  0  0  0  0  0  0  0  0  0
    3.0555  -45.9738  -25.5608 C   0  0  0  0  0  0  0  0  0  0  0  0
    3.3743  -47.2264  -26.0660 C   0  0  0  0  0  0  0  0  0  0  0  0
    3.4941  -48.3052  -25.2102 C   0  0  0  0  0  0  0  0  0  0  0  0
    3.5787  -47.3830  -27.5004 C   0  0  0  0  0  0  0  0  0  0  0  0
    4.1189  -48.4381  -28.1272 N   0  0  0  0  0  0  0  0  0  0  0  0
    4.1177  -48.1746  -29.4108 N   0  0  0  0  0  0  0  0  0  0  0  0
    3.5960  -46.9858  -29.6373 N   0  0  0  0  0  0  0  0  0  0  0  0
    3.2629  -46.4967  -28.4571 N   0  0  0  0  0  0  0  0  0  0  0  0
    3.4781  -46.5370  -30.5778 H   0  0  0  0  0  0  0  0  0  0  0  0
   -0.2658  -53.8211  -24.3863 C   0  0  0  0  0  0  0  0  0  0  0  0
   -0.9561  -54.3094  -23.1189 C   0  0  0  0  0  0  0  0  0  0  0  0
 40 41  1  0  0  0
 41  1  1  0  0  0
  1  2  1  0  0  0
  2  3  2  0  0  0
  3  4  1  0  0  0
  4  5  2  0  0  0
  5  8  1  0  0  0
  8  9  1  0  0  0
  9 10  2  0  0  0
  9 11  1  0  0  0
 11 14  1  0  0  0
 14 15  2  0  0  0
 15 16  1  0  0  0
 15 17  1  0  0  0
 17 18  2  0  0  0
 18 19  1  0  0  0
 19 20  2  0  0  0
 20 21  1  0  0  0
  5  6  1  0  0  0
  6  7  2  0  0  0
  3 22  1  0  0  0
 22 23  2  0  0  0
 23 24  1  0  0  0
 24 25  2  0  0  0
 25 26  1  0  0  0
 26 27  2  0  0  0
 26 28  1  0  0  0
 28 29  2  0  0  0
 29 30  1  0  0  0
 30 31  2  0  0  0
 31 32  1  0  0  0
 32 33  2  0  0  0
 32 34  1  0  0  0
 34 35  1  0  0  0
 35 36  2  0  0  0
 36 37  1  0  0  0
 37 38  1  0  0  0
  6  1  1  0  0  0
 27 22  1  0  0  0
 33 28  1  0  0  0
 38 34  2  0  0  0
 20 14  1  0  0  0
  8 12  1  0  0  0
 11 13  1  0  0  0
 37 39  1  0  0  0
M  END
> <minimizedAffinity>
-9.07283

> <CNNscore>
0.7416254282

> <CNNaffinity>
7.5794830322

> <CNN_VS>
5.6211371422

> <CNNaffinity_variance>
0.1240019351

$$$$
[H]c1nc([H])c(Cl)c(N([H])C(=O)N([H])c2c([H])c(-c3c([H])c([H])c([H])c(-c4c([H])c([H])c([H])c(-c5nnn([H])n5)c4[H])c3[H])nn(C([H])([H])C([H])([H])[H])c2=O)c1Cl


 41 45  0  0  0  0  0  0  0  0999 V2000
   -0.1564  -53.0821  -22.1523 N   0  0  0  0  0  0  0  0  0  0  0  0
    0.4936  -51.9883  -22.4190 N   0  0  0  0  0  0  0  0  0  0  0  0
    0.8534  -51.0775  -21.4974 C   0  0  0  0  0  0  0  0  0  0  0  0
    0.5031  -51.3281  -20.1675 C   0  0  0  0  0  0  0  0  0  0  0  0
   -0.1834  -52.4763  -19.8611 C   0  0  0  0  0  0  0  0  0  0  0  0
   -0.5090  -53.3582  -20.8968 C   0  0  0  0  0  0  0  0  0  0  0  0
   -1.1337  -54.4202  -20.6783 O   0  0  0  0  0  0  0  0  0  0  0  0
   -0.5829  -52.8244  -18.5609 N   0  0  0  0  0  0  0  0  0  0  0  0
   -0.7230  -52.0249  -17.4239 C   0  0  0  0  0  0  0  0  0  0  0  0
   -0.4909  -50.8013  -17.4258 O   0  0  0  0  0  0  0  0  0  0  0  0
   -1.1487  -52.5593  -16.1585 N   0  0  0  0  0  0  0  0  0  0  0  0
   -0.8208  -53.8642  -18.4010 H   0  0  0  0  0  0  0  0  0  0  0  0
   -1.3588  -53.5777  -16.0913 H   0  0  0  0  0  0  0  0  0  0  0  0
   -1.2990  -51.7804  -14.9969 C   0  0  0  0  0  0  0  0  0  0  0  0
   -2.5420  -51.2500  -14.6866 C   0  0  0  0  0  0  0  0  0  0  0  0
   -3.8967  -51.5686  -15.7581 Cl  0  0  0  0  0  0  0  0  0  0  0  0
   -2.7304  -50.4786  -13.5539 C   0  0  0  0  0  0  0  0  0  0  0  0
   -1.6788  -50.2494  -12.7512 N   0  0  0  0  0  0  0  0  0  0  0  0
   -0.4408  -50.7410  -13.0026 C   0  0  0  0  0  0  0  0  0  0  0  0
   -0.2690  -51.5073  -14.1343 C   0  0  0  0  0  0  0  0  0  0  0  0
    1.3345  -52.1416  -14.4556 Cl  0  0  0  0  0  0  0  0  0  0  0  0
    1.5879  -49.8686  -21.8926 C   0  0  0  0  0  0  0  0  0  0  0  0
    1.5338  -48.7714  -21.0606 C   0  0  0  0  0  0  0  0  0  0  0  0
    2.1817  -47.5860  -21.3283 C   0  0  0  0  0  0  0  0  0  0  0  0
    2.9193  -47.5101  -22.4951 C   0  0  0  0  0  0  0  0  0  0  0  0
    3.0081  -48.5767  -23.3636 C   0  0  0  0  0  0  0  0  0  0  0  0
    2.3260  -49.7522  -23.0326 C   0  0  0  0  0  0  0  0  0  0  0  0
    3.7944  -48.4668  -24.5861 C   0  0  0  0  0  0  0  0  0  0  0  0
    5.0895  -48.9473  -24.6138 C   0  0  0  0  0  0  0  0  0  0  0  0
    5.8661  -48.8598  -25.7605 C   0  0  0  0  0  0  0  0  0  0  0  0
    5.3678  -48.2881  -26.9130 C   0  0  0  0  0  0  0  0  0  0  0  0
    4.0681  -47.8020  -26.8974 C   0  0  0  0  0  0  0  0  0  0  0  0
    3.3096  -47.8979  -25.7460 C   0  0  0  0  0  0  0  0  0  0  0  0
    3.5223  -47.1948  -28.1045 C   0  0  0  0  0  0  0  0  0  0  0  0
    2.5307  -46.2950  -28.1767 N   0  0  0  0  0  0  0  0  0  0  0  0
    2.3500  -46.0112  -29.4431 N   0  0  0  0  0  0  0  0  0  0  0  0
    3.1896  -46.6957  -30.1938 N   0  0  0  0  0  0  0  0  0  0  0  0
    3.9139  -47.4268  -29.3668 N   0  0  0  0  0  0  0  0  0  0  0  0
    3.2525  -46.6521  -31.2397 H   0  0  0  0  0  0  0  0  0  0  0  0
   -0.1728  -53.2382  -24.5276 C   0  0  0  0  0  0  0  0  0  0  0  0
   -0.4921  -53.9993  -23.2470 C   0  0  0  0  0  0  0  0  0  0  0  0
 40 41  1  0  0  0
 41  1  1  0  0  0
  1  2  1  0  0  0
  2  3  2  0  0  0
  3  4  1  0  0  0
  4  5  2  0  0  0
  5  8  1  0  0  0
  8  9  1  0  0  0
  9 10  2  0  0  0
  9 11  1  0  0  0
 11 14  1  0  0  0
 14 15  2  0  0  0
 15 16  1  0  0  0
 15 17  1  0  0  0
 17 18  2  0  0  0
 18 19  1  0  0  0
 19 20  2  0  0  0
 20 21  1  0  0  0
  5  6  1  0  0  0
  6  7  2  0  0  0
  3 22  1  0  0  0
 22 23  2  0  0  0
 23 24  1  0  0  0
 24 25  2  0  0  0
 25 26  1  0  0  0
 26 27  2  0  0  0
 26 28  1  0  0  0
 28 29  2  0  0  0
 29 30  1  0  0  0
 30 31  2  0  0  0
 31 32  1  0  0  0
 32 33  2  0  0  0
 32 34  1  0  0  0
 34 35  1  0  0  0
 35 36  2  0  0  0
 36 37  1  0  0  0
 37 38  1  0  0  0
  6  1  1  0  0  0
 27 22  1  0  0  0
 33 28  1  0  0  0
 38 34  2  0  0  0
 20 14  1  0  0  0
  8 12  1  0  0  0
 11 13  1  0  0  0
 37 39  1  0  0  0
M  END
> <minimizedAffinity>
-8.58812

> <CNNscore>
0.6333921552

> <CNNaffinity>
7.4868774414

> <CNN_VS>
4.7421293259

> <CNNaffinity_variance>
0.3115422428

$$$$
[H]c1nc([H])c(Cl)c(N([H])C(=O)N([H])c2c([H])c(-c3c([H])c([H])c([H])c(-c4c([H])c([H])c([H])c(-c5nnn([H])n5)c4[H])c3[H])nn(C([H])([H])C([H])([H])[H])c2=O)c1Cl


 41 45  0  0  0  0  0  0  0  0999 V2000
   -0.3894  -54.0461  -23.4307 N   0  0  0  0  0  0  0  0  0  0  0  0
    0.3392  -53.0592  -23.8611 N   0  0  0  0  0  0  0  0  0  0  0  0
    0.9110  -52.1374  -23.0664 C   0  0  0  0  0  0  0  0  0  0  0  0
    0.7053  -52.2525  -21.6885 C   0  0  0  0  0  0  0  0  0  0  0  0
   -0.0604  -53.2860  -21.2100 C   0  0  0  0  0  0  0  0  0  0  0  0
   -0.6097  -54.1911  -22.1241 C   0  0  0  0  0  0  0  0  0  0  0  0
   -1.3159  -55.1529  -21.7470 O   0  0  0  0  0  0  0  0  0  0  0  0
   -0.3292  -53.4937  -19.8477 N   0  0  0  0  0  0  0  0  0  0  0  0
   -0.5967  -52.5669  -18.8373 C   0  0  0  0  0  0  0  0  0  0  0  0
   -0.6326  -51.3386  -19.0396 O   0  0  0  0  0  0  0  0  0  0  0  0
   -0.8524  -52.9656  -17.4794 N   0  0  0  0  0  0  0  0  0  0  0  0
   -0.3327  -54.5203  -19.5170 H   0  0  0  0  0  0  0  0  0  0  0  0
   -0.8367  -53.9807  -17.2451 H   0  0  0  0  0  0  0  0  0  0  0  0
   -1.1246  -52.0568  -16.4408 C   0  0  0  0  0  0  0  0  0  0  0  0
   -0.0891  -51.3133  -15.8952 C   0  0  0  0  0  0  0  0  0  0  0  0
    1.5378  -51.5299  -16.5205 Cl  0  0  0  0  0  0  0  0  0  0  0  0
   -0.3160  -50.4098  -14.8725 C   0  0  0  0  0  0  0  0  0  0  0  0
   -1.5686  -50.2629  -14.4119 N   0  0  0  0  0  0  0  0  0  0  0  0
   -2.6202  -50.9615  -14.9054 C   0  0  0  0  0  0  0  0  0  0  0  0
   -2.3785  -51.8573  -15.9235 C   0  0  0  0  0  0  0  0  0  0  0  0
   -3.7422  -52.7588  -16.5593 Cl  0  0  0  0  0  0  0  0  0  0  0  0
    1.7196  -51.0555  -23.6433 C   0  0  0  0  0  0  0  0  0  0  0  0
    1.9088  -51.0394  -25.0082 C   0  0  0  0  0  0  0  0  0  0  0  0
    2.6468  -50.0755  -25.6585 C   0  0  0  0  0  0  0  0  0  0  0  0
    3.2199  -49.0810  -24.8878 C   0  0  0  0  0  0  0  0  0  0  0  0
    3.0632  -49.0483  -23.5188 C   0  0  0  0  0  0  0  0  0  0  0  0
    2.3014  -50.0572  -22.9202 C   0  0  0  0  0  0  0  0  0  0  0  0
    3.6791  -47.9863  -22.7328 C   0  0  0  0  0  0  0  0  0  0  0  0
    4.6094  -47.1502  -23.3199 C   0  0  0  0  0  0  0  0  0  0  0  0
    5.2147  -46.1287  -22.6017 C   0  0  0  0  0  0  0  0  0  0  0  0
    4.9058  -45.9151  -21.2742 C   0  0  0  0  0  0  0  0  0  0  0  0
    3.9728  -46.7485  -20.6735 C   0  0  0  0  0  0  0  0  0  0  0  0
    3.3801  -47.7606  -21.4048 C   0  0  0  0  0  0  0  0  0  0  0  0
    3.6318  -46.5396  -19.2722 C   0  0  0  0  0  0  0  0  0  0  0  0
    3.3738  -47.4840  -18.3559 N   0  0  0  0  0  0  0  0  0  0  0  0
    3.1130  -46.8736  -17.2262 N   0  0  0  0  0  0  0  0  0  0  0  0
    3.1928  -45.5669  -17.3786 N   0  0  0  0  0  0  0  0  0  0  0  0
    3.5134  -45.3606  -18.6425 N   0  0  0  0  0  0  0  0  0  0  0  0
    3.0301  -44.8512  -16.6295 H   0  0  0  0  0  0  0  0  0  0  0  0
   -0.0358  -54.9382  -25.6092 C   0  0  0  0  0  0  0  0  0  0  0  0
   -0.9600  -54.9890  -24.3991 C   0  0  0  0  0  0  0  0  0  0  0  0
 40 41  1  0  0  0
 41  1  1  0  0  0
  1  2  1  0  0  0
  2  3  2  0  0  0
  3  4  1  0  0  0
  4  5  2  0  0  0
  5  8  1  0  0  0
  8  9  1  0  0  0
  9 10  2  0  0  0
  9 11  1  0  0  0
 11 14  1  0  0  0
 14 15  2  0  0  0
 15 16  1  0  0  0
 15 17  1  0  0  0
 17 18  2  0  0  0
 18 19  1  0  0  0
 19 20  2  0  0  0
 20 21  1  0  0  0
  5  6  1  0  0  0
  6  7  2  0  0  0
  3 22  1  0  0  0
 22 23  2  0  0  0
 23 24  1  0  0  0
 24 25  2  0  0  0
 25 26  1  0  0  0
 26 27  2  0  0  0
 26 28  1  0  0  0
 28 29  2  0  0  0
 29 30  1  0  0  0
 30 31  2  0  0  0
 31 32  1  0  0  0
 32 33  2  0  0  0
 32 34  1  0  0  0
 34 35  1  0  0  0
 35 36  2  0  0  0
 36 37  1  0  0  0
 37 38  1  0  0  0
  6  1  1  0  0  0
 27 22  1  0  0  0
 33 28  1  0  0  0
 38 34  2  0  0  0
 20 14  1  0  0  0
  8 12  1  0  0  0
 11 13  1  0  0  0
 37 39  1  0  0  0
M  END
> <minimizedAffinity>
-7.50712

> <CNNscore>
0.5604582429

> <CNNaffinity>
7.7889785767

> <CNN_VS>
4.3653974533

> <CNNaffinity_variance>
0.1025328189

$$$$
[H]c1nc([H])c(Cl)c(N([H])C(=O)N([H])c2c([H])c(-c3c([H])c([H])c([H])c(-c4c([H])c([H])c([H])c(-c5nnn([H])n5)c4[H])c3[H])nn(C([H])([H])C([H])([H])[H])c2=O)c1Cl


 41 45  0  0  0  0  0  0  0  0999 V2000
   -0.3995  -53.9211  -22.7215 N   0  0  0  0  0  0  0  0  0  0  0  0
    0.6396  -53.2177  -23.0615 N   0  0  0  0  0  0  0  0  0  0  0  0
    1.4029  -52.5275  -22.1959 C   0  0  0  0  0  0  0  0  0  0  0  0
    1.0516  -52.5726  -20.8436 C   0  0  0  0  0  0  0  0  0  0  0  0
   -0.0416  -53.3083  -20.4601 C   0  0  0  0  0  0  0  0  0  0  0  0
   -0.7678  -53.9898  -21.4423 C   0  0  0  0  0  0  0  0  0  0  0  0
   -1.7732  -54.6763  -21.1528 O   0  0  0  0  0  0  0  0  0  0  0  0
   -0.4805  -53.4210  -19.1312 N   0  0  0  0  0  0  0  0  0  0  0  0
   -0.6825  -52.4290  -18.1687 C   0  0  0  0  0  0  0  0  0  0  0  0
   -0.4808  -51.2204  -18.3917 O   0  0  0  0  0  0  0  0  0  0  0  0
   -1.1417  -52.7320  -16.8400 N   0  0  0  0  0  0  0  0  0  0  0  0
   -0.6984  -54.4199  -18.7877 H   0  0  0  0  0  0  0  0  0  0  0  0
   -1.3290  -53.7262  -16.5906 H   0  0  0  0  0  0  0  0  0  0  0  0
   -1.3544  -51.7558  -15.8497 C   0  0  0  0  0  0  0  0  0  0  0  0
   -2.6476  -51.3485  -15.5591 C   0  0  0  0  0  0  0  0  0  0  0  0
   -3.9863  -52.0673  -16.4400 Cl  0  0  0  0  0  0  0  0  0  0  0  0
   -2.8980  -50.3910  -14.5927 C   0  0  0  0  0  0  0  0  0  0  0  0
   -1.8574  -49.8567  -13.9336 N   0  0  0  0  0  0  0  0  0  0  0  0
   -0.5724  -50.2148  -14.1742 C   0  0  0  0  0  0  0  0  0  0  0  0
   -0.3390  -51.1695  -15.1394 C   0  0  0  0  0  0  0  0  0  0  0  0
    1.3253  -51.6301  -15.4471 Cl  0  0  0  0  0  0  0  0  0  0  0  0
    2.5606  -51.7595  -22.6725 C   0  0  0  0  0  0  0  0  0  0  0  0
    3.1275  -52.1145  -23.8773 C   0  0  0  0  0  0  0  0  0  0  0  0
    4.2139  -51.4671  -24.4223 C   0  0  0  0  0  0  0  0  0  0  0  0
    4.7506  -50.4096  -23.7116 C   0  0  0  0  0  0  0  0  0  0  0  0
    4.2237  -50.0118  -22.5017 C   0  0  0  0  0  0  0  0  0  0  0  0
    3.1197  -50.7116  -22.0037 C   0  0  0  0  0  0  0  0  0  0  0  0
    4.8109  -48.8924  -21.7757 C   0  0  0  0  0  0  0  0  0  0  0  0
    5.5607  -47.9519  -22.4557 C   0  0  0  0  0  0  0  0  0  0  0  0
    6.1336  -46.8735  -21.7965 C   0  0  0  0  0  0  0  0  0  0  0  0
    5.9720  -46.7059  -20.4367 C   0  0  0  0  0  0  0  0  0  0  0  0
    5.2209  -47.6440  -19.7428 C   0  0  0  0  0  0  0  0  0  0  0  0
    4.6579  -48.7117  -20.4164 C   0  0  0  0  0  0  0  0  0  0  0  0
    5.0376  -47.4853  -18.3059 C   0  0  0  0  0  0  0  0  0  0  0  0
    4.0170  -47.9453  -17.5677 N   0  0  0  0  0  0  0  0  0  0  0  0
    4.2375  -47.5865  -16.3269 N   0  0  0  0  0  0  0  0  0  0  0  0
    5.3649  -46.9101  -16.2354 N   0  0  0  0  0  0  0  0  0  0  0  0
    5.8592  -46.8476  -17.4579 N   0  0  0  0  0  0  0  0  0  0  0  0
    5.7702  -46.5102  -15.3547 H   0  0  0  0  0  0  0  0  0  0  0  0
   -0.4239  -54.3365  -25.0654 C   0  0  0  0  0  0  0  0  0  0  0  0
   -1.1532  -54.6315  -23.7606 C   0  0  0  0  0  0  0  0  0  0  0  0
 40 41  1  0  0  0
 41  1  1  0  0  0
  1  2  1  0  0  0
  2  3  2  0  0  0
  3  4  1  0  0  0
  4  5  2  0  0  0
  5  8  1  0  0  0
  8  9  1  0  0  0
  9 10  2  0  0  0
  9 11  1  0  0  0
 11 14  1  0  0  0
 14 15  2  0  0  0
 15 16  1  0  0  0
 15 17  1  0  0  0
 17 18  2  0  0  0
 18 19  1  0  0  0
 19 20  2  0  0  0
 20 21  1  0  0  0
  5  6  1  0  0  0
  6  7  2  0  0  0
  3 22  1  0  0  0
 22 23  2  0  0  0
 23 24  1  0  0  0
 24 25  2  0  0  0
 25 26  1  0  0  0
 26 27  2  0  0  0
 26 28  1  0  0  0
 28 29  2  0  0  0
 29 30  1  0  0  0
 30 31  2  0  0  0
 31 32  1  0  0  0
 32 33  2  0  0  0
 32 34  1  0  0  0
 34 35  1  0  0  0
 35 36  2  0  0  0
 36 37  1  0  0  0
 37 38  1  0  0  0
  6  1  1  0  0  0
 27 22  1  0  0  0
 33 28  1  0  0  0
 38 34  2  0  0  0
 20 14  1  0  0  0
  8 12  1  0  0  0
 11 13  1  0  0  0
 37 39  1  0  0  0
M  END
> <minimizedAffinity>
-7.72650

> <CNNscore>
0.4706599116

> <CNNaffinity>
7.5103502274

> <CNN_VS>
3.5348207951

> <CNNaffinity_variance>
0.0673785657

$$$$
[H]c1nc([H])c(Cl)c(N([H])C(=O)N([H])c2c([H])c(-c3c([H])c([H])c([H])c(-c4c([H])c([H])c([H])c(-c5nnn([H])n5)c4[H])c3[H])nn(C([H])([H])C([H])([H])[H])c2=O)c1Cl


 41 45  0  0  0  0  0  0  0  0999 V2000
    0.1576  -52.5720  -24.0106 N   0  0  0  0  0  0  0  0  0  0  0  0
    1.0970  -51.7886  -24.4507 N   0  0  0  0  0  0  0  0  0  0  0  0
    2.0330  -51.2173  -23.6724 C   0  0  0  0  0  0  0  0  0  0  0  0
    1.9883  -51.4868  -22.3014 C   0  0  0  0  0  0  0  0  0  0  0  0
    1.0057  -52.3110  -21.8129 C   0  0  0  0  0  0  0  0  0  0  0  0
    0.0801  -52.8540  -22.7101 C   0  0  0  0  0  0  0  0  0  0  0  0
   -0.8375  -53.6118  -22.3233 O   0  0  0  0  0  0  0  0  0  0  0  0
    0.8703  -52.6466  -20.4563 N   0  0  0  0  0  0  0  0  0  0  0  0
    0.3845  -51.8852  -19.3906 C   0  0  0  0  0  0  0  0  0  0  0  0
   -0.0226  -50.7161  -19.5262 O   0  0  0  0  0  0  0  0  0  0  0  0
    0.3181  -52.3988  -18.0490 N   0  0  0  0  0  0  0  0  0  0  0  0
    1.1857  -53.6405  -20.1807 H   0  0  0  0  0  0  0  0  0  0  0  0
    0.6442  -53.3720  -17.8697 H   0  0  0  0  0  0  0  0  0  0  0  0
   -0.1657  -51.6570  -16.9560 C   0  0  0  0  0  0  0  0  0  0  0  0
    0.6704  -50.7502  -16.3226 C   0  0  0  0  0  0  0  0  0  0  0  0
    2.3151  -50.5544  -16.9071 Cl  0  0  0  0  0  0  0  0  0  0  0  0
    0.2324  -50.0025  -15.2443 C   0  0  0  0  0  0  0  0  0  0  0  0
   -1.0291  -50.1709  -14.8165 N   0  0  0  0  0  0  0  0  0  0  0  0
   -1.8917  -51.0418  -15.3952 C   0  0  0  0  0  0  0  0  0  0  0  0
   -1.4410  -51.7791  -16.4678 C   0  0  0  0  0  0  0  0  0  0  0  0
   -2.5608  -52.9045  -17.2138 Cl  0  0  0  0  0  0  0  0  0  0  0  0
    3.0580  -50.3444  -24.2593 C   0  0  0  0  0  0  0  0  0  0  0  0
    4.3588  -50.4831  -23.8261 C   0  0  0  0  0  0  0  0  0  0  0  0
    5.4011  -49.7208  -24.3047 C   0  0  0  0  0  0  0  0  0  0  0  0
    5.1101  -48.7731  -25.2683 C   0  0  0  0  0  0  0  0  0  0  0  0
    3.8270  -48.5916  -25.7378 C   0  0  0  0  0  0  0  0  0  0  0  0
    2.8138  -49.3987  -25.2102 C   0  0  0  0  0  0  0  0  0  0  0  0
    3.5513  -47.5845  -26.7551 C   0  0  0  0  0  0  0  0  0  0  0  0
    3.0791  -46.3416  -26.3792 C   0  0  0  0  0  0  0  0  0  0  0  0
    2.8068  -45.3593  -27.3208 C   0  0  0  0  0  0  0  0  0  0  0  0
    2.9995  -45.5936  -28.6666 C   0  0  0  0  0  0  0  0  0  0  0  0
    3.4735  -46.8383  -29.0564 C   0  0  0  0  0  0  0  0  0  0  0  0
    3.7392  -47.8043  -28.1043 C   0  0  0  0  0  0  0  0  0  0  0  0
    3.6845  -47.1062  -30.4733 C   0  0  0  0  0  0  0  0  0  0  0  0
    3.2105  -46.3961  -31.5073 N   0  0  0  0  0  0  0  0  0  0  0  0
    3.6306  -46.9743  -32.6055 N   0  0  0  0  0  0  0  0  0  0  0  0
    4.3599  -48.0340  -32.3192 N   0  0  0  0  0  0  0  0  0  0  0  0
    4.3932  -48.1155  -31.0020 N   0  0  0  0  0  0  0  0  0  0  0  0
    4.8146  -48.6720  -33.0164 H   0  0  0  0  0  0  0  0  0  0  0  0
   -0.9537  -52.0901  -26.0599 C   0  0  0  0  0  0  0  0  0  0  0  0
   -0.8073  -53.1356  -24.9613 C   0  0  0  0  0  0  0  0  0  0  0  0
 40 41  1  0  0  0
 41  1  1  0  0  0
  1  2  1  0  0  0
  2  3  2  0  0  0
  3  4  1  0  0  0
  4  5  2  0  0  0
  5  8  1  0  0  0
  8  9  1  0  0  0
  9 10  2  0  0  0
  9 11  1  0  0  0
 11 14  1  0  0  0
 14 15  2  0  0  0
 15 16  1  0  0  0
 15 17  1  0  0  0
 17 18  2  0  0  0
 18 19  1  0  0  0
 19 20  2  0  0  0
 20 21  1  0  0  0
  5  6  1  0  0  0
  6  7  2  0  0  0
  3 22  1  0  0  0
 22 23  2  0  0  0
 23 24  1  0  0  0
 24 25  2  0  0  0
 25 26  1  0  0  0
 26 27  2  0  0  0
 26 28  1  0  0  0
 28 29  2  0  0  0
 29 30  1  0  0  0
 30 31  2  0  0  0
 31 32  1  0  0  0
 32 33  2  0  0  0
 32 34  1  0  0  0
 34 35  1  0  0  0
 35 36  2  0  0  0
 36 37  1  0  0  0
 37 38  1  0  0  0
  6  1  1  0  0  0
 27 22  1  0  0  0
 33 28  1  0  0  0
 38 34  2  0  0  0
 20 14  1  0  0  0
  8 12  1  0  0  0
 11 13  1  0  0  0
 37 39  1  0  0  0
M  END
> <minimizedAffinity>
-8.25898

> <CNNscore>
0.4244047403

> <CNNaffinity>
7.1981506348

> <CNN_VS>
3.0549292564

> <CNNaffinity_variance>
0.4981093407

$$$$
[H]c1nc([H])c(Cl)c(N([H])C(=O)N([H])c2c([H])c(-c3c([H])c([H])c([H])c(-c4c([H])c([H])c([H])c(-c5nnn([H])n5)c4[H])c3[H])nn(C([H])([H])C([H])([H])[H])c2=O)c1Cl


 41 45  0  0  0  0  0  0  0  0999 V2000
    0.3727  -52.5794  -24.1908 N   0  0  0  0  0  0  0  0  0  0  0  0
    1.2706  -51.7884  -24.6988 N   0  0  0  0  0  0  0  0  0  0  0  0
    2.1973  -51.1329  -23.9779 C   0  0  0  0  0  0  0  0  0  0  0  0
    2.1901  -51.3176  -22.5922 C   0  0  0  0  0  0  0  0  0  0  0  0
    1.2517  -52.1479  -22.0324 C   0  0  0  0  0  0  0  0  0  0  0  0
    0.3320  -52.7823  -22.8740 C   0  0  0  0  0  0  0  0  0  0  0  0
   -0.5462  -53.5501  -22.4211 O   0  0  0  0  0  0  0  0  0  0  0  0
    1.1564  -52.4030  -20.6550 N   0  0  0  0  0  0  0  0  0  0  0  0
    0.6096  -51.6195  -19.6359 C   0  0  0  0  0  0  0  0  0  0  0  0
    0.0961  -50.5040  -19.8432 O   0  0  0  0  0  0  0  0  0  0  0  0
    0.5992  -52.0461  -18.2626 N   0  0  0  0  0  0  0  0  0  0  0  0
    1.5634  -53.3434  -20.3184 H   0  0  0  0  0  0  0  0  0  0  0  0
    1.0143  -52.9714  -18.0236 H   0  0  0  0  0  0  0  0  0  0  0  0
    0.0565  -51.2802  -17.2150 C   0  0  0  0  0  0  0  0  0  0  0  0
   -1.1851  -51.6152  -16.6964 C   0  0  0  0  0  0  0  0  0  0  0  0
   -2.0457  -52.9919  -17.3664 Cl  0  0  0  0  0  0  0  0  0  0  0  0
   -1.7528  -50.8866  -15.6667 C   0  0  0  0  0  0  0  0  0  0  0  0
   -1.0748  -49.8386  -15.1721 N   0  0  0  0  0  0  0  0  0  0  0  0
    0.1415  -49.4635  -15.6382 C   0  0  0  0  0  0  0  0  0  0  0  0
    0.6939  -50.1988  -16.6637 C   0  0  0  0  0  0  0  0  0  0  0  0
    2.2681  -49.7101  -17.2634 Cl  0  0  0  0  0  0  0  0  0  0  0  0
    3.1741  -50.2585  -24.6399 C   0  0  0  0  0  0  0  0  0  0  0  0
    4.4928  -50.3398  -24.2484 C   0  0  0  0  0  0  0  0  0  0  0  0
    5.4942  -49.5704  -24.7978 C   0  0  0  0  0  0  0  0  0  0  0  0
    5.1411  -48.6763  -25.7915 C   0  0  0  0  0  0  0  0  0  0  0  0
    3.8374  -48.5535  -26.2219 C   0  0  0  0  0  0  0  0  0  0  0  0
    2.8682  -49.3646  -25.6224 C   0  0  0  0  0  0  0  0  0  0  0  0
    3.4959  -47.6022  -27.2723 C   0  0  0  0  0  0  0  0  0  0  0  0
    2.7248  -46.4959  -26.9712 C   0  0  0  0  0  0  0  0  0  0  0  0
    2.3815  -45.5699  -27.9461 C   0  0  0  0  0  0  0  0  0  0  0  0
    2.8007  -45.7254  -29.2512 C   0  0  0  0  0  0  0  0  0  0  0  0
    3.5758  -46.8326  -29.5659 C   0  0  0  0  0  0  0  0  0  0  0  0
    3.9078  -47.7443  -28.5815 C   0  0  0  0  0  0  0  0  0  0  0  0
    4.0294  -47.0153  -30.9387 C   0  0  0  0  0  0  0  0  0  0  0  0
    4.4065  -46.0569  -31.7974 N   0  0  0  0  0  0  0  0  0  0  0  0
    4.7391  -46.6450  -32.9201 N   0  0  0  0  0  0  0  0  0  0  0  0
    4.5904  -47.9506  -32.8189 N   0  0  0  0  0  0  0  0  0  0  0  0
    4.1520  -48.1794  -31.5948 N   0  0  0  0  0  0  0  0  0  0  0  0
    4.7878  -48.6505  -33.5745 H   0  0  0  0  0  0  0  0  0  0  0  0
   -1.1470  -52.1321  -25.9677 C   0  0  0  0  0  0  0  0  0  0  0  0
   -0.5865  -53.2392  -25.0836 C   0  0  0  0  0  0  0  0  0  0  0  0
 40 41  1  0  0  0
 41  1  1  0  0  0
  1  2  1  0  0  0
  2  3  2  0  0  0
  3  4  1  0  0  0
  4  5  2  0  0  0
  5  8  1  0  0  0
  8  9  1  0  0  0
  9 10  2  0  0  0
  9 11  1  0  0  0
 11 14  1  0  0  0
 14 15  2  0  0  0
 15 16  1  0  0  0
 15 17  1  0  0  0
 17 18  2  0  0  0
 18 19  1  0  0  0
 19 20  2  0  0  0
 20 21  1  0  0  0
  5  6  1  0  0  0
  6  7  2  0  0  0
  3 22  1  0  0  0
 22 23  2  0  0  0
 23 24  1  0  0  0
 24 25  2  0  0  0
 25 26  1  0  0  0
 26 27  2  0  0  0
 26 28  1  0  0  0
 28 29  2  0  0  0
 29 30  1  0  0  0
 30 31  2  0  0  0
 31 32  1  0  0  0
 32 33  2  0  0  0
 32 34  1  0  0  0
 34 35  1  0  0  0
 35 36  2  0  0  0
 36 37  1  0  0  0
 37 38  1  0  0  0
  6  1  1  0  0  0
 27 22  1  0  0  0
 33 28  1  0  0  0
 38 34  2  0  0  0
 20 14  1  0  0  0
  8 12  1  0  0  0
 11 13  1  0  0  0
 37 39  1  0  0  0
M  END
> <minimizedAffinity>
-8.39360

> <CNNscore>
0.3808095753

> <CNNaffinity>
7.1019043922

> <CNN_VS>
2.7044732571

> <CNNaffinity_variance>
0.5116521120

$$$$
[H]c1nc([H])c(Cl)c(N([H])C(=O)N([H])c2c([H])c(-c3c([H])c([H])c([H])c(-c4c([H])c([H])c([H])c(-c5nnn([H])n5)c4[H])c3[H])nn(C([H])([H])C([H])([H])[H])c2=O)c1Cl


 41 45  0  0  0  0  0  0  0  0999 V2000
    0.3188  -52.3854  -23.7694 N   0  0  0  0  0  0  0  0  0  0  0  0
    1.0672  -51.3525  -24.0209 N   0  0  0  0  0  0  0  0  0  0  0  0
    1.6791  -50.6135  -23.0787 C   0  0  0  0  0  0  0  0  0  0  0  0
    1.4950  -50.9843  -21.7435 C   0  0  0  0  0  0  0  0  0  0  0  0
    0.7091  -52.0712  -21.4529 C   0  0  0  0  0  0  0  0  0  0  0  0
    0.1181  -52.7717  -22.5095 C   0  0  0  0  0  0  0  0  0  0  0  0
   -0.6082  -53.7702  -22.3061 O   0  0  0  0  0  0  0  0  0  0  0  0
    0.4591  -52.5285  -20.1491 N   0  0  0  0  0  0  0  0  0  0  0  0
    0.1142  -51.8119  -19.0006 C   0  0  0  0  0  0  0  0  0  0  0  0
   -0.0256  -50.5744  -18.9931 O   0  0  0  0  0  0  0  0  0  0  0  0
   -0.1065  -52.4548  -17.7333 N   0  0  0  0  0  0  0  0  0  0  0  0
    0.5426  -53.5929  -19.9965 H   0  0  0  0  0  0  0  0  0  0  0  0
   -0.0049  -53.4901  -17.6736 H   0  0  0  0  0  0  0  0  0  0  0  0
   -0.4546  -51.7610  -16.5601 C   0  0  0  0  0  0  0  0  0  0  0  0
    0.5144  -51.0372  -15.8821 C   0  0  0  0  0  0  0  0  0  0  0  0
    2.1538  -51.0083  -16.5117 Cl  0  0  0  0  0  0  0  0  0  0  0  0
    0.2120  -50.3422  -14.7249 C   0  0  0  0  0  0  0  0  0  0  0  0
   -1.0485  -50.3804  -14.2640 N   0  0  0  0  0  0  0  0  0  0  0  0
   -2.0373  -51.0703  -14.8833 C   0  0  0  0  0  0  0  0  0  0  0  0
   -1.7208  -51.7573  -16.0345 C   0  0  0  0  0  0  0  0  0  0  0  0
   -3.0035  -52.6485  -16.8328 Cl  0  0  0  0  0  0  0  0  0  0  0  0
    2.5075  -49.4614  -23.4577 C   0  0  0  0  0  0  0  0  0  0  0  0
    2.6401  -48.4285  -22.5553 C   0  0  0  0  0  0  0  0  0  0  0  0
    3.3903  -47.3001  -22.8016 C   0  0  0  0  0  0  0  0  0  0  0  0
    4.0364  -47.2157  -24.0209 C   0  0  0  0  0  0  0  0  0  0  0  0
    3.9385  -48.2193  -24.9606 C   0  0  0  0  0  0  0  0  0  0  0  0
    3.1606  -49.3389  -24.6478 C   0  0  0  0  0  0  0  0  0  0  0  0
    4.6321  -48.1020  -26.2374 C   0  0  0  0  0  0  0  0  0  0  0  0
    5.9987  -48.2973  -26.2957 C   0  0  0  0  0  0  0  0  0  0  0  0
    6.6908  -48.1942  -27.4940 C   0  0  0  0  0  0  0  0  0  0  0  0
    6.0339  -47.8923  -28.6690 C   0  0  0  0  0  0  0  0  0  0  0  0
    4.6612  -47.6940  -28.6232 C   0  0  0  0  0  0  0  0  0  0  0  0
    3.9887  -47.8009  -27.4203 C   0  0  0  0  0  0  0  0  0  0  0  0
    3.9480  -47.3747  -29.8532 C   0  0  0  0  0  0  0  0  0  0  0  0
    4.0671  -47.9921  -31.0376 N   0  0  0  0  0  0  0  0  0  0  0  0
    3.2529  -47.3966  -31.8739 N   0  0  0  0  0  0  0  0  0  0  0  0
    2.6108  -46.4151  -31.2730 N   0  0  0  0  0  0  0  0  0  0  0  0
    3.0401  -46.4016  -30.0246 N   0  0  0  0  0  0  0  0  0  0  0  0
    1.9025  -45.7827  -31.7181 H   0  0  0  0  0  0  0  0  0  0  0  0
   -0.2042  -52.1724  -26.0820 C   0  0  0  0  0  0  0  0  0  0  0  0
   -0.2956  -53.1120  -24.8861 C   0  0  0  0  0  0  0  0  0  0  0  0
 40 41  1  0  0  0
 41  1  1  0  0  0
  1  2  1  0  0  0
  2  3  2  0  0  0
  3  4  1  0  0  0
  4  5  2  0  0  0
  5  8  1  0  0  0
  8  9  1  0  0  0
  9 10  2  0  0  0
  9 11  1  0  0  0
 11 14  1  0  0  0
 14 15  2  0  0  0
 15 16  1  0  0  0
 15 17  1  0  0  0
 17 18  2  0  0  0
 18 19  1  0  0  0
 19 20  2  0  0  0
 20 21  1  0  0  0
  5  6  1  0  0  0
  6  7  2  0  0  0
  3 22  1  0  0  0
 22 23  2  0  0  0
 23 24  1  0  0  0
 24 25  2  0  0  0
 25 26  1  0  0  0
 26 27  2  0  0  0
 26 28  1  0  0  0
 28 29  2  0  0  0
 29 30  1  0  0  0
 30 31  2  0  0  0
 31 32  1  0  0  0
 32 33  2  0  0  0
 32 34  1  0  0  0
 34 35  1  0  0  0
 35 36  2  0  0  0
 36 37  1  0  0  0
 37 38  1  0  0  0
  6  1  1  0  0  0
 27 22  1  0  0  0
 33 28  1  0  0  0
 38 34  2  0  0  0
 20 14  1  0  0  0
  8 12  1  0  0  0
 11 13  1  0  0  0
 37 39  1  0  0  0
M  END
> <minimizedAffinity>
-7.81674

> <CNNscore>
0.3022238314

> <CNNaffinity>
7.0275907516

> <CNN_VS>
2.1239054203

> <CNNaffinity_variance>
0.4815135002

$$$$
[H]c1nc([H])c(Cl)c(N([H])C(=O)N([H])c2c([H])c(-c3c([H])c([H])c([H])c(-c4c([H])c([H])c([H])c(-c5nnn([H])n5)c4[H])c3[H])nn(C([H])([H])C([H])([H])[H])c2=O)c1Cl


 41 45  0  0  0  0  0  0  0  0999 V2000
    3.1887  -47.2685  -19.3177 N   0  0  0  0  0  0  0  0  0  0  0  0
    2.4820  -48.3585  -19.2681 N   0  0  0  0  0  0  0  0  0  0  0  0
    1.9462  -48.9631  -20.3430 C   0  0  0  0  0  0  0  0  0  0  0  0
    2.1665  -48.3771  -21.5930 C   0  0  0  0  0  0  0  0  0  0  0  0
    2.9095  -47.2259  -21.6709 C   0  0  0  0  0  0  0  0  0  0  0  0
    3.4218  -46.6785  -20.4901 C   0  0  0  0  0  0  0  0  0  0  0  0
    4.1060  -45.6308  -20.4988 O   0  0  0  0  0  0  0  0  0  0  0  0
    3.1904  -46.5572  -22.8731 N   0  0  0  0  0  0  0  0  0  0  0  0
    3.5300  -47.0738  -24.1258 C   0  0  0  0  0  0  0  0  0  0  0  0
    3.6334  -48.2949  -24.3474 O   0  0  0  0  0  0  0  0  0  0  0  0
    3.7868  -46.2277  -25.2601 N   0  0  0  0  0  0  0  0  0  0  0  0
    3.1403  -45.4803  -22.8388 H   0  0  0  0  0  0  0  0  0  0  0  0
    3.7163  -45.1952  -25.1395 H   0  0  0  0  0  0  0  0  0  0  0  0
    4.1305  -46.7177  -26.5331 C   0  0  0  0  0  0  0  0  0  0  0  0
    3.2065  -46.6465  -27.5644 C   0  0  0  0  0  0  0  0  0  0  0  0
    1.6283  -45.9433  -27.2484 Cl  0  0  0  0  0  0  0  0  0  0  0  0
    3.5062  -47.1178  -28.8300 C   0  0  0  0  0  0  0  0  0  0  0  0
    4.7194  -47.6510  -29.0457 N   0  0  0  0  0  0  0  0  0  0  0  0
    5.6630  -47.7476  -28.0774 C   0  0  0  0  0  0  0  0  0  0  0  0
    5.3497  -47.2739  -26.8224 C   0  0  0  0  0  0  0  0  0  0  0  0
    6.5739  -47.4006  -25.5725 Cl  0  0  0  0  0  0  0  0  0  0  0  0
    1.1606  -50.1946  -20.1902 C   0  0  0  0  0  0  0  0  0  0  0  0
    0.7037  -50.5249  -18.9327 C   0  0  0  0  0  0  0  0  0  0  0  0
   -0.0410  -51.6532  -18.6704 C   0  0  0  0  0  0  0  0  0  0  0  0
   -0.3361  -52.4859  -19.7339 C   0  0  0  0  0  0  0  0  0  0  0  0
    0.0953  -52.2043  -21.0123 C   0  0  0  0  0  0  0  0  0  0  0  0
    0.8478  -51.0420  -21.2110 C   0  0  0  0  0  0  0  0  0  0  0  0
   -0.2325  -53.1011  -22.1138 C   0  0  0  0  0  0  0  0  0  0  0  0
   -0.9178  -54.2742  -21.8621 C   0  0  0  0  0  0  0  0  0  0  0  0
   -1.2467  -55.1505  -22.8866 C   0  0  0  0  0  0  0  0  0  0  0  0
   -0.8985  -54.8771  -24.1932 C   0  0  0  0  0  0  0  0  0  0  0  0
   -0.2099  -53.7018  -24.4585 C   0  0  0  0  0  0  0  0  0  0  0  0
    0.1090  -52.8410  -23.4252 C   0  0  0  0  0  0  0  0  0  0  0  0
    0.1669  -53.3938  -25.8321 C   0  0  0  0  0  0  0  0  0  0  0  0
   -0.0637  -52.2509  -26.4944 N   0  0  0  0  0  0  0  0  0  0  0  0
    0.4350  -52.3877  -27.6984 N   0  0  0  0  0  0  0  0  0  0  0  0
    0.9804  -53.5792  -27.8393 N   0  0  0  0  0  0  0  0  0  0  0  0
    0.8149  -54.2007  -26.6864 N   0  0  0  0  0  0  0  0  0  0  0  0
    1.4484  -53.9407  -28.7053 H   0  0  0  0  0  0  0  0  0  0  0  0
    3.7709  -47.8656  -17.0881 C   0  0  0  0  0  0  0  0  0  0  0  0
    3.7207  -46.7039  -18.0725 C   0  0  0  0  0  0  0  0  0  0  0  0
 40 41  1  0  0  0
 41  1  1  0  0  0
  1  2  1  0  0  0
  2  3  2  0  0  0
  3  4  1  0  0  0
  4  5  2  0  0  0
  5  8  1  0  0  0
  8  9  1  0  0  0
  9 10  2  0  0  0
  9 11  1  0  0  0
 11 14  1  0  0  0
 14 15  2  0  0  0
 15 16  1  0  0  0
 15 17  1  0  0  0
 17 18  2  0  0  0
 18 19  1  0  0  0
 19 20  2  0  0  0
 20 21  1  0  0  0
  5  6  1  0  0  0
  6  7  2  0  0  0
  3 22  1  0  0  0
 22 23  2  0  0  0
 23 24  1  0  0  0
 24 25  2  0  0  0
 25 26  1  0  0  0
 26 27  2  0  0  0
 26 28  1  0  0  0
 28 29  2  0  0  0
 29 30  1  0  0  0
 30 31  2  0  0  0
 31 32  1  0  0  0
 32 33  2  0  0  0
 32 34  1  0  0  0
 34 35  1  0  0  0
 35 36  2  0  0  0
 36 37  1  0  0  0
 37 38  1  0  0  0
  6  1  1  0  0  0
 27 22  1  0  0  0
 33 28  1  0  0  0
 38 34  2  0  0  0
 20 14  1  0  0  0
  8 12  1  0  0  0
 11 13  1  0  0  0
 37 39  1  0  0  0
M  END
> <minimizedAffinity>
-8.88181

> <CNNscore>
0.1880691648

> <CNNaffinity>
7.1065878868

> <CNN_VS>
1.3365300894

> <CNNaffinity_variance>
0.2169130296

$$$$
[H]c1c([H])c(C(=O)N([H])c2nnc(-c3c([H])c([H])c(Oc4c([H])c([H])c([N+](=O)[O-])c([H])c4[H])c([H])c3[H])s2)c([H])c([H])c1Br


 32 35  0  0  0  0  0  0  0  0999 V2000
    3.3613  -50.1243  -22.8201 C   0  0  0  0  0  0  0  0  0  0  0  0
    4.0979  -50.7424  -21.8344 C   0  0  0  0  0  0  0  0  0  0  0  0
    4.0328  -50.3066  -20.5191 C   0  0  0  0  0  0  0  0  0  0  0  0
    3.2403  -49.2495  -20.1379 C   0  0  0  0  0  0  0  0  0  0  0  0
    2.5042  -48.6294  -21.1149 C   0  0  0  0  0  0  0  0  0  0  0  0
    2.5648  -49.0642  -22.4455 C   0  0  0  0  0  0  0  0  0  0  0  0
    3.2067  -48.8251  -18.7261 C   0  0  0  0  0  0  0  0  0  0  0  0
    3.4033  -49.5287  -17.6268 N   0  0  0  0  0  0  0  0  0  0  0  0
    3.3307  -48.9765  -16.4958 N   0  0  0  0  0  0  0  0  0  0  0  0
    3.0572  -47.6876  -16.3917 C   0  0  0  0  0  0  0  0  0  0  0  0
    2.8987  -47.2697  -18.0664 S   0  0  0  0  0  0  0  0  0  0  0  0
    2.9149  -46.8151  -15.2773 N   0  0  0  0  0  0  0  0  0  0  0  0
    2.9927  -47.2819  -13.9712 C   0  0  0  0  0  0  0  0  0  0  0  0
    2.8566  -46.4472  -13.0081 O   0  0  0  0  0  0  0  0  0  0  0  0
    2.7465  -45.7897  -15.4509 H   0  0  0  0  0  0  0  0  0  0  0  0
    3.2240  -48.6897  -13.6936 C   0  0  0  0  0  0  0  0  0  0  0  0
    2.1895  -49.6234  -13.7071 C   0  0  0  0  0  0  0  0  0  0  0  0
    2.5000  -50.9409  -13.4216 C   0  0  0  0  0  0  0  0  0  0  0  0
    3.7867  -51.3399  -13.1301 C   0  0  0  0  0  0  0  0  0  0  0  0
    4.2274  -53.1608  -12.7335 Br  0  0  0  0  0  0  0  0  0  0  0  0
    4.8145  -50.4174  -13.1158 C   0  0  0  0  0  0  0  0  0  0  0  0
    4.5055  -49.0975  -13.4015 C   0  0  0  0  0  0  0  0  0  0  0  0
    3.4057  -50.5394  -24.1508 O   0  0  0  0  0  0  0  0  0  0  0  0
    5.1022  -48.2986  -27.2410 C   0  0  0  0  0  0  0  0  0  0  0  0
    3.8743  -48.9409  -27.3858 C   0  0  0  0  0  0  0  0  0  0  0  0
    3.3158  -49.6804  -26.3640 C   0  0  0  0  0  0  0  0  0  0  0  0
    3.9691  -49.8044  -25.1547 C   0  0  0  0  0  0  0  0  0  0  0  0
    5.1884  -49.1684  -25.0070 C   0  0  0  0  0  0  0  0  0  0  0  0
    5.7583  -48.4258  -26.0201 C   0  0  0  0  0  0  0  0  0  0  0  0
    5.6406  -48.0224  -29.5587 O   0  0  0  0  0  0  0  0  0  0  0  0
    5.6689  -47.5495  -28.2747 N   0  0  0  0  0  0  0  0  0  0  0  0
    6.2004  -46.4546  -28.0412 O   0  0  0  0  0  0  0  0  0  0  0  0
 30 31  1  0  0  0
 31 32  2  0  0  0
 31 24  1  0  0  0
 24 25  2  0  0  0
 25 26  1  0  0  0
 26 27  2  0  0  0
 27 23  1  0  0  0
 23  1  1  0  0  0
  1  2  2  0  0  0
  2  3  1  0  0  0
  3  4  2  0  0  0
  4  5  1  0  0  0
  5  6  2  0  0  0
  4  7  1  0  0  0
  7  8  2  0  0  0
  8  9  1  0  0  0
  9 10  2  0  0  0
 10 12  1  0  0  0
 12 13  1  0  0  0
 13 14  2  0  0  0
 13 16  1  0  0  0
 16 17  2  0  0  0
 17 18  1  0  0  0
 18 19  2  0  0  0
 19 20  1  0  0  0
 19 21  1  0  0  0
 21 22  2  0  0  0
 10 11  1  0  0  0
 27 28  1  0  0  0
 28 29  2  0  0  0
 29 24  1  0  0  0
  6  1  1  0  0  0
 11  7  1  0  0  0
 22 16  1  0  0  0
 12 15  1  0  0  0
M  CHG 1  30  -1
M  CHG 1  31   1
M  END
> <minimizedAffinity>
-4.12496

> <CNNscore>
0.3159524500

> <CNNaffinity>
5.5849962234

> <CNN_VS>
1.7645932436

> <CNNaffinity_variance>
0.6792539954

$$$$
[H]c1c([H])c(C(=O)N([H])c2nnc(-c3c([H])c([H])c(Oc4c([H])c([H])c([N+](=O)[O-])c([H])c4[H])c([H])c3[H])s2)c([H])c([H])c1Br


 32 35  0  0  0  0  0  0  0  0999 V2000
    1.7348  -50.3624  -17.7669 C   0  0  0  0  0  0  0  0  0  0  0  0
    0.8770  -50.7013  -18.7894 C   0  0  0  0  0  0  0  0  0  0  0  0
    1.3453  -50.8690  -20.0842 C   0  0  0  0  0  0  0  0  0  0  0  0
    2.6718  -50.7076  -20.4083 C   0  0  0  0  0  0  0  0  0  0  0  0
    3.5315  -50.3699  -19.3944 C   0  0  0  0  0  0  0  0  0  0  0  0
    3.0657  -50.1989  -18.0841 C   0  0  0  0  0  0  0  0  0  0  0  0
    3.1188  -50.8974  -21.8006 C   0  0  0  0  0  0  0  0  0  0  0  0
    3.3672  -50.0024  -22.7384 N   0  0  0  0  0  0  0  0  0  0  0  0
    3.7457  -50.3686  -23.8838 N   0  0  0  0  0  0  0  0  0  0  0  0
    3.8997  -51.6509  -24.1645 C   0  0  0  0  0  0  0  0  0  0  0  0
    3.4583  -52.3548  -22.6433 S   0  0  0  0  0  0  0  0  0  0  0  0
    4.3043  -52.3429  -25.3397 N   0  0  0  0  0  0  0  0  0  0  0  0
    3.3811  -52.7924  -26.2754 C   0  0  0  0  0  0  0  0  0  0  0  0
    3.8064  -53.4098  -27.3149 O   0  0  0  0  0  0  0  0  0  0  0  0
    5.3308  -52.5168  -25.5009 H   0  0  0  0  0  0  0  0  0  0  0  0
    1.9572  -52.5704  -26.0861 C   0  0  0  0  0  0  0  0  0  0  0  0
    1.1114  -53.5720  -25.6134 C   0  0  0  0  0  0  0  0  0  0  0  0
   -0.2323  -53.2748  -25.4732 C   0  0  0  0  0  0  0  0  0  0  0  0
   -0.7405  -52.0322  -25.7857 C   0  0  0  0  0  0  0  0  0  0  0  0
   -2.5987  -51.6102  -25.5955 Br  0  0  0  0  0  0  0  0  0  0  0  0
    0.0947  -51.0371  -26.2546 C   0  0  0  0  0  0  0  0  0  0  0  0
    1.4407  -51.3330  -26.3956 C   0  0  0  0  0  0  0  0  0  0  0  0
    1.2941  -50.1868  -16.4554 O   0  0  0  0  0  0  0  0  0  0  0  0
   -2.7279  -49.8622  -15.3754 C   0  0  0  0  0  0  0  0  0  0  0  0
   -1.8348  -48.8050  -15.2143 C   0  0  0  0  0  0  0  0  0  0  0  0
   -0.5069  -48.9142  -15.5717 C   0  0  0  0  0  0  0  0  0  0  0  0
   -0.0227  -50.0911  -16.1056 C   0  0  0  0  0  0  0  0  0  0  0  0
   -0.9061  -51.1431  -16.2669 C   0  0  0  0  0  0  0  0  0  0  0  0
   -2.2361  -51.0476  -15.9140 C   0  0  0  0  0  0  0  0  0  0  0  0
   -5.0500  -50.1705  -15.8762 O   0  0  0  0  0  0  0  0  0  0  0  0
   -4.0727  -49.7530  -15.0140 N   0  0  0  0  0  0  0  0  0  0  0  0
   -4.3930  -49.2795  -13.9144 O   0  0  0  0  0  0  0  0  0  0  0  0
 30 31  1  0  0  0
 31 32  2  0  0  0
 31 24  1  0  0  0
 24 25  2  0  0  0
 25 26  1  0  0  0
 26 27  2  0  0  0
 27 23  1  0  0  0
 23  1  1  0  0  0
  1  2  2  0  0  0
  2  3  1  0  0  0
  3  4  2  0  0  0
  4  5  1  0  0  0
  5  6  2  0  0  0
  4  7  1  0  0  0
  7  8  2  0  0  0
  8  9  1  0  0  0
  9 10  2  0  0  0
 10 12  1  0  0  0
 12 13  1  0  0  0
 13 14  2  0  0  0
 13 16  1  0  0  0
 16 17  2  0  0  0
 17 18  1  0  0  0
 18 19  2  0  0  0
 19 20  1  0  0  0
 19 21  1  0  0  0
 21 22  2  0  0  0
 10 11  1  0  0  0
 27 28  1  0  0  0
 28 29  2  0  0  0
 29 24  1  0  0  0
  6  1  1  0  0  0
 11  7  1  0  0  0
 22 16  1  0  0  0
 12 15  1  0  0  0
M  CHG 1  30  -1
M  CHG 1  31   1
M  END
> <minimizedAffinity>
-5.18868

> <CNNscore>
0.2435145527

> <CNNaffinity>
6.1380200386

> <CNN_VS>
1.4946972132

> <CNNaffinity_variance>
0.6369327307

$$$$
[H]c1c([H])c(C(=O)N([H])c2nnc(-c3c([H])c([H])c(Oc4c([H])c([H])c([N+](=O)[O-])c([H])c4[H])c([H])c3[H])s2)c([H])c([H])c1Br


 32 35  0  0  0  0  0  0  0  0999 V2000
    1.0078  -52.6612  -22.2466 C   0  0  0  0  0  0  0  0  0  0  0  0
    0.0882  -53.5259  -21.6964 C   0  0  0  0  0  0  0  0  0  0  0  0
   -0.3934  -53.3278  -20.4107 C   0  0  0  0  0  0  0  0  0  0  0  0
    0.0173  -52.2723  -19.6310 C   0  0  0  0  0  0  0  0  0  0  0  0
    0.9332  -51.4074  -20.1732 C   0  0  0  0  0  0  0  0  0  0  0  0
    1.4241  -51.6011  -21.4711 C   0  0  0  0  0  0  0  0  0  0  0  0
   -0.5254  -52.1064  -18.2699 C   0  0  0  0  0  0  0  0  0  0  0  0
   -0.1395  -51.3010  -17.2981 N   0  0  0  0  0  0  0  0  0  0  0  0
   -0.7403  -51.3069  -16.1898 N   0  0  0  0  0  0  0  0  0  0  0  0
   -1.7636  -52.1173  -15.9825 C   0  0  0  0  0  0  0  0  0  0  0  0
   -1.8401  -52.9167  -17.5186 S   0  0  0  0  0  0  0  0  0  0  0  0
   -2.6123  -52.3380  -14.8625 N   0  0  0  0  0  0  0  0  0  0  0  0
   -2.9738  -51.3050  -14.0068 C   0  0  0  0  0  0  0  0  0  0  0  0
   -3.7416  -51.5656  -13.0143 O   0  0  0  0  0  0  0  0  0  0  0  0
   -2.9739  -53.3107  -14.6807 H   0  0  0  0  0  0  0  0  0  0  0  0
   -2.4941  -49.9507  -14.2265 C   0  0  0  0  0  0  0  0  0  0  0  0
   -1.2998  -49.4928  -13.6733 C   0  0  0  0  0  0  0  0  0  0  0  0
   -0.9255  -48.1855  -13.9272 C   0  0  0  0  0  0  0  0  0  0  0  0
   -1.6955  -47.3440  -14.7011 C   0  0  0  0  0  0  0  0  0  0  0  0
   -1.1869  -45.5328  -15.0588 Br  0  0  0  0  0  0  0  0  0  0  0  0
   -2.8798  -47.7943  -15.2510 C   0  0  0  0  0  0  0  0  0  0  0  0
   -3.2563  -49.1032  -14.9978 C   0  0  0  0  0  0  0  0  0  0  0  0
    1.5104  -52.8339  -23.5360 O   0  0  0  0  0  0  0  0  0  0  0  0
   -0.8705  -52.7295  -26.9666 C   0  0  0  0  0  0  0  0  0  0  0  0
   -0.8086  -51.6559  -26.0806 C   0  0  0  0  0  0  0  0  0  0  0  0
   -0.0217  -51.6925  -24.9482 C   0  0  0  0  0  0  0  0  0  0  0  0
    0.7353  -52.8099  -24.6603 C   0  0  0  0  0  0  0  0  0  0  0  0
    0.6765  -53.8778  -25.5374 C   0  0  0  0  0  0  0  0  0  0  0  0
   -0.1059  -53.8548  -26.6732 C   0  0  0  0  0  0  0  0  0  0  0  0
   -3.0308  -52.7025  -28.0011 O   0  0  0  0  0  0  0  0  0  0  0  0
   -1.6669  -52.6938  -28.1135 N   0  0  0  0  0  0  0  0  0  0  0  0
   -1.1494  -52.6541  -29.2389 O   0  0  0  0  0  0  0  0  0  0  0  0
 30 31  1  0  0  0
 31 32  2  0  0  0
 31 24  1  0  0  0
 24 25  2  0  0  0
 25 26  1  0  0  0
 26 27  2  0  0  0
 27 23  1  0  0  0
 23  1  1  0  0  0
  1  2  2  0  0  0
  2  3  1  0  0  0
  3  4  2  0  0  0
  4  5  1  0  0  0
  5  6  2  0  0  0
  4  7  1  0  0  0
  7  8  2  0  0  0
  8  9  1  0  0  0
  9 10  2  0  0  0
 10 12  1  0  0  0
 12 13  1  0  0  0
 13 14  2  0  0  0
 13 16  1  0  0  0
 16 17  2  0  0  0
 17 18  1  0  0  0
 18 19  2  0  0  0
 19 20  1  0  0  0
 19 21  1  0  0  0
 21 22  2  0  0  0
 10 11  1  0  0  0
 27 28  1  0  0  0
 28 29  2  0  0  0
 29 24  1  0  0  0
  6  1  1  0  0  0
 11  7  1  0  0  0
 22 16  1  0  0  0
 12 15  1  0  0  0
M  CHG 1  30  -1
M  CHG 1  31   1
M  END
> <minimizedAffinity>
-8.18526

> <CNNscore>
0.2349570096

> <CNNaffinity>
6.1914033890

> <CNN_VS>
1.4547135830

> <CNNaffinity_variance>
0.0737298056

$$$$
[H]c1c([H])c(C(=O)N([H])c2nnc(-c3c([H])c([H])c(Oc4c([H])c([H])c([N+](=O)[O-])c([H])c4[H])c([H])c3[H])s2)c([H])c([H])c1Br


 32 35  0  0  0  0  0  0  0  0999 V2000
   -0.3197  -53.1874  -22.2060 C   0  0  0  0  0  0  0  0  0  0  0  0
    0.6347  -52.2119  -22.3886 C   0  0  0  0  0  0  0  0  0  0  0  0
    1.0437  -51.4108  -21.3326 C   0  0  0  0  0  0  0  0  0  0  0  0
    0.5239  -51.5482  -20.0670 C   0  0  0  0  0  0  0  0  0  0  0  0
   -0.4273  -52.5181  -19.8786 C   0  0  0  0  0  0  0  0  0  0  0  0
   -0.8452  -53.3311  -20.9404 C   0  0  0  0  0  0  0  0  0  0  0  0
    0.9927  -50.6709  -18.9784 C   0  0  0  0  0  0  0  0  0  0  0  0
    1.1483  -49.3604  -18.9562 N   0  0  0  0  0  0  0  0  0  0  0  0
    1.5668  -48.7865  -17.9147 N   0  0  0  0  0  0  0  0  0  0  0  0
    1.8562  -49.4850  -16.8306 C   0  0  0  0  0  0  0  0  0  0  0  0
    1.4868  -51.0846  -17.3865 S   0  0  0  0  0  0  0  0  0  0  0  0
    2.3352  -49.1187  -15.5422 N   0  0  0  0  0  0  0  0  0  0  0  0
    1.4684  -48.8712  -14.4852 C   0  0  0  0  0  0  0  0  0  0  0  0
    1.9596  -48.5449  -13.3473 O   0  0  0  0  0  0  0  0  0  0  0  0
    3.3742  -49.0342  -15.3897 H   0  0  0  0  0  0  0  0  0  0  0  0
    0.0293  -48.9780  -14.6588 C   0  0  0  0  0  0  0  0  0  0  0  0
   -0.7345  -47.9212  -15.1508 C   0  0  0  0  0  0  0  0  0  0  0  0
   -2.0995  -48.1086  -15.2740 C   0  0  0  0  0  0  0  0  0  0  0  0
   -2.7066  -49.2963  -14.9264 C   0  0  0  0  0  0  0  0  0  0  0  0
   -4.5951  -49.5662  -15.0929 Br  0  0  0  0  0  0  0  0  0  0  0  0
   -1.9529  -50.3458  -14.4385 C   0  0  0  0  0  0  0  0  0  0  0  0
   -0.5857  -50.1600  -14.3144 C   0  0  0  0  0  0  0  0  0  0  0  0
   -0.7512  -54.0082  -23.2477 O   0  0  0  0  0  0  0  0  0  0  0  0
   -0.2958  -53.0750  -27.2938 C   0  0  0  0  0  0  0  0  0  0  0  0
    0.1717  -54.2730  -26.7574 C   0  0  0  0  0  0  0  0  0  0  0  0
    0.0202  -54.5793  -25.4209 C   0  0  0  0  0  0  0  0  0  0  0  0
   -0.6074  -53.6934  -24.5690 C   0  0  0  0  0  0  0  0  0  0  0  0
   -1.0728  -52.5030  -25.0975 C   0  0  0  0  0  0  0  0  0  0  0  0
   -0.9283  -52.1840  -26.4317 C   0  0  0  0  0  0  0  0  0  0  0  0
   -1.2345  -52.4224  -29.3987 O   0  0  0  0  0  0  0  0  0  0  0  0
   -0.1431  -52.7637  -28.6468 N   0  0  0  0  0  0  0  0  0  0  0  0
    0.9764  -52.7929  -29.1775 O   0  0  0  0  0  0  0  0  0  0  0  0
 30 31  1  0  0  0
 31 32  2  0  0  0
 31 24  1  0  0  0
 24 25  2  0  0  0
 25 26  1  0  0  0
 26 27  2  0  0  0
 27 23  1  0  0  0
 23  1  1  0  0  0
  1  2  2  0  0  0
  2  3  1  0  0  0
  3  4  2  0  0  0
  4  5  1  0  0  0
  5  6  2  0  0  0
  4  7  1  0  0  0
  7  8  2  0  0  0
  8  9  1  0  0  0
  9 10  2  0  0  0
 10 12  1  0  0  0
 12 13  1  0  0  0
 13 14  2  0  0  0
 13 16  1  0  0  0
 16 17  2  0  0  0
 17 18  1  0  0  0
 18 19  2  0  0  0
 19 20  1  0  0  0
 19 21  1  0  0  0
 21 22  2  0  0  0
 10 11  1  0  0  0
 27 28  1  0  0  0
 28 29  2  0  0  0
 29 24  1  0  0  0
  6  1  1  0  0  0
 11  7  1  0  0  0
 22 16  1  0  0  0
 12 15  1  0  0  0
M  CHG 1  30  -1
M  CHG 1  31   1
M  END
> <minimizedAffinity>
-7.85474

> <CNNscore>
0.1655755937

> <CNNaffinity>
6.2014245987

> <CNN_VS>
1.0268045664

> <CNNaffinity_variance>
0.0918875188

$$$$
[H]c1c([H])c(C(=O)N([H])c2nnc(-c3c([H])c([H])c(Oc4c([H])c([H])c([N+](=O)[O-])c([H])c4[H])c([H])c3[H])s2)c([H])c([H])c1Br


 32 35  0  0  0  0  0  0  0  0999 V2000
   -0.5916  -52.4584  -18.3104 C   0  0  0  0  0  0  0  0  0  0  0  0
   -1.4812  -53.3537  -18.8609 C   0  0  0  0  0  0  0  0  0  0  0  0
   -1.4817  -53.6082  -20.2245 C   0  0  0  0  0  0  0  0  0  0  0  0
   -0.6059  -52.9877  -21.0841 C   0  0  0  0  0  0  0  0  0  0  0  0
    0.2827  -52.0947  -20.5420 C   0  0  0  0  0  0  0  0  0  0  0  0
    0.2892  -51.8327  -19.1656 C   0  0  0  0  0  0  0  0  0  0  0  0
   -0.6476  -53.2933  -22.5261 C   0  0  0  0  0  0  0  0  0  0  0  0
   -0.7931  -54.4521  -23.1410 N   0  0  0  0  0  0  0  0  0  0  0  0
   -0.8032  -54.5079  -24.4004 N   0  0  0  0  0  0  0  0  0  0  0  0
   -0.6686  -53.4104  -25.1244 C   0  0  0  0  0  0  0  0  0  0  0  0
   -0.5184  -52.2274  -23.8665 S   0  0  0  0  0  0  0  0  0  0  0  0
   -0.6426  -53.1729  -26.5267 N   0  0  0  0  0  0  0  0  0  0  0  0
    0.4523  -52.5836  -27.1463 C   0  0  0  0  0  0  0  0  0  0  0  0
    0.4172  -52.3953  -28.4135 O   0  0  0  0  0  0  0  0  0  0  0  0
   -1.4766  -53.4524  -27.1066 H   0  0  0  0  0  0  0  0  0  0  0  0
    1.6201  -52.1850  -26.3782 C   0  0  0  0  0  0  0  0  0  0  0  0
    2.5318  -53.1169  -25.8858 C   0  0  0  0  0  0  0  0  0  0  0  0
    3.6098  -52.6482  -25.1565 C   0  0  0  0  0  0  0  0  0  0  0  0
    3.7957  -51.3045  -24.9123 C   0  0  0  0  0  0  0  0  0  0  0  0
    5.2842  -50.6450  -23.9040 Br  0  0  0  0  0  0  0  0  0  0  0  0
    2.8942  -50.3780  -25.3986 C   0  0  0  0  0  0  0  0  0  0  0  0
    1.8140  -50.8455  -26.1293 C   0  0  0  0  0  0  0  0  0  0  0  0
   -0.5667  -52.1816  -16.9437 O   0  0  0  0  0  0  0  0  0  0  0  0
    0.9838  -48.6600  -15.3180 C   0  0  0  0  0  0  0  0  0  0  0  0
    1.7239  -49.8398  -15.3597 C   0  0  0  0  0  0  0  0  0  0  0  0
    1.2100  -51.0017  -15.8971 C   0  0  0  0  0  0  0  0  0  0  0  0
   -0.0692  -51.0249  -16.4145 C   0  0  0  0  0  0  0  0  0  0  0  0
   -0.8072  -49.8558  -16.3748 C   0  0  0  0  0  0  0  0  0  0  0  0
   -0.3059  -48.6871  -15.8406 C   0  0  0  0  0  0  0  0  0  0  0  0
    2.7245  -47.4935  -14.1572 O   0  0  0  0  0  0  0  0  0  0  0  0
    1.5029  -47.4828  -14.7742 N   0  0  0  0  0  0  0  0  0  0  0  0
    0.8661  -46.4220  -14.8446 O   0  0  0  0  0  0  0  0  0  0  0  0
 30 31  1  0  0  0
 31 32  2  0  0  0
 31 24  1  0  0  0
 24 25  2  0  0  0
 25 26  1  0  0  0
 26 27  2  0  0  0
 27 23  1  0  0  0
 23  1  1  0  0  0
  1  2  2  0  0  0
  2  3  1  0  0  0
  3  4  2  0  0  0
  4  5  1  0  0  0
  5  6  2  0  0  0
  4  7  1  0  0  0
  7  8  2  0  0  0
  8  9  1  0  0  0
  9 10  2  0  0  0
 10 12  1  0  0  0
 12 13  1  0  0  0
 13 14  2  0  0  0
 13 16  1  0  0  0
 16 17  2  0  0  0
 17 18  1  0  0  0
 18 19  2  0  0  0
 19 20  1  0  0  0
 19 21  1  0  0  0
 21 22  2  0  0  0
 10 11  1  0  0  0
 27 28  1  0  0  0
 28 29  2  0  0  0
 29 24  1  0  0  0
  6  1  1  0  0  0
 11  7  1  0  0  0
 22 16  1  0  0  0
 12 15  1  0  0  0
M  CHG 1  30  -1
M  CHG 1  31   1
M  END
> <minimizedAffinity>
-7.37509

> <CNNscore>
0.1618955284

> <CNNaffinity>
6.5177793503

> <CNN_VS>
1.0551993847

> <CNNaffinity_variance>
0.2970530391

$$$$
[H]c1c([H])c(C(=O)N([H])c2nnc(-c3c([H])c([H])c(Oc4c([H])c([H])c([N+](=O)[O-])c([H])c4[H])c([H])c3[H])s2)c([H])c([H])c1Br


 32 35  0  0  0  0  0  0  0  0999 V2000
    1.2187  -50.8754  -15.6063 C   0  0  0  0  0  0  0  0  0  0  0  0
    0.5104  -51.1785  -16.7475 C   0  0  0  0  0  0  0  0  0  0  0  0
    1.1180  -51.1359  -17.9938 C   0  0  0  0  0  0  0  0  0  0  0  0
    2.4403  -50.7932  -18.1508 C   0  0  0  0  0  0  0  0  0  0  0  0
    3.1514  -50.4900  -17.0180 C   0  0  0  0  0  0  0  0  0  0  0  0
    2.5445  -50.5311  -15.7558 C   0  0  0  0  0  0  0  0  0  0  0  0
    3.0388  -50.7628  -19.4982 C   0  0  0  0  0  0  0  0  0  0  0  0
    3.9570  -51.5454  -20.0334 N   0  0  0  0  0  0  0  0  0  0  0  0
    4.3436  -51.3555  -21.2182 N   0  0  0  0  0  0  0  0  0  0  0  0
    3.8377  -50.3726  -21.9425 C   0  0  0  0  0  0  0  0  0  0  0  0
    2.7249  -49.6903  -20.8022 S   0  0  0  0  0  0  0  0  0  0  0  0
    4.0750  -49.9294  -23.2732 N   0  0  0  0  0  0  0  0  0  0  0  0
    4.8560  -48.8121  -23.5413 C   0  0  0  0  0  0  0  0  0  0  0  0
    5.0339  -48.4616  -24.7611 O   0  0  0  0  0  0  0  0  0  0  0  0
    3.6461  -50.4646  -24.0729 H   0  0  0  0  0  0  0  0  0  0  0  0
    5.4635  -48.0494  -22.4635 C   0  0  0  0  0  0  0  0  0  0  0  0
    5.0735  -46.7433  -22.1738 C   0  0  0  0  0  0  0  0  0  0  0  0
    5.7132  -46.0894  -21.1360 C   0  0  0  0  0  0  0  0  0  0  0  0
    6.7088  -46.6927  -20.3979 C   0  0  0  0  0  0  0  0  0  0  0  0
    7.6007  -45.7969  -18.9595 Br  0  0  0  0  0  0  0  0  0  0  0  0
    7.0980  -47.9871  -20.6821 C   0  0  0  0  0  0  0  0  0  0  0  0
    6.4584  -48.6435  -21.7211 C   0  0  0  0  0  0  0  0  0  0  0  0
    0.6359  -50.9093  -14.3397 O   0  0  0  0  0  0  0  0  0  0  0  0
   -3.4949  -50.9261  -13.7193 C   0  0  0  0  0  0  0  0  0  0  0  0
   -2.9265  -50.3990  -14.8771 C   0  0  0  0  0  0  0  0  0  0  0  0
   -1.5621  -50.3944  -15.0800 C   0  0  0  0  0  0  0  0  0  0  0  0
   -0.7132  -50.9197  -14.1270 C   0  0  0  0  0  0  0  0  0  0  0  0
   -1.2735  -51.4438  -12.9762 C   0  0  0  0  0  0  0  0  0  0  0  0
   -2.6359  -51.4549  -12.7604 C   0  0  0  0  0  0  0  0  0  0  0  0
   -5.5567  -52.1176  -13.4598 O   0  0  0  0  0  0  0  0  0  0  0  0
   -4.8762  -50.9313  -13.5125 N   0  0  0  0  0  0  0  0  0  0  0  0
   -5.4967  -49.8673  -13.3752 O   0  0  0  0  0  0  0  0  0  0  0  0
 30 31  1  0  0  0
 31 32  2  0  0  0
 31 24  1  0  0  0
 24 25  2  0  0  0
 25 26  1  0  0  0
 26 27  2  0  0  0
 27 23  1  0  0  0
 23  1  1  0  0  0
  1  2  2  0  0  0
  2  3  1  0  0  0
  3  4  2  0  0  0
  4  5  1  0  0  0
  5  6  2  0  0  0
  4  7  1  0  0  0
  7  8  2  0  0  0
  8  9  1  0  0  0
  9 10  2  0  0  0
 10 12  1  0  0  0
 12 13  1  0  0  0
 13 14  2  0  0  0
 13 16  1  0  0  0
 16 17  2  0  0  0
 17 18  1  0  0  0
 18 19  2  0  0  0
 19 20  1  0  0  0
 19 21  1  0  0  0
 21 22  2  0  0  0
 10 11  1  0  0  0
 27 28  1  0  0  0
 28 29  2  0  0  0
 29 24  1  0  0  0
  6  1  1  0  0  0
 11  7  1  0  0  0
 22 16  1  0  0  0
 12 15  1  0  0  0
M  CHG 1  30  -1
M  CHG 1  31   1
M  END
> <minimizedAffinity>
-4.79441

> <CNNscore>
0.1341946125

> <CNNaffinity>
5.8032636642

> <CNN_VS>
0.7787666917

> <CNNaffinity_variance>
0.7890334129

$$$$
[H]c1c([H])c(C(=O)N([H])c2nnc(-c3c([H])c([H])c(Oc4c([H])c([H])c([N+](=O)[O-])c([H])c4[H])c([H])c3[H])s2)c([H])c([H])c1Br


 32 35  0  0  0  0  0  0  0  0999 V2000
    0.0112  -53.2098  -22.3629 C   0  0  0  0  0  0  0  0  0  0  0  0
    1.0762  -52.4043  -22.6985 C   0  0  0  0  0  0  0  0  0  0  0  0
    1.8144  -51.7566  -21.7188 C   0  0  0  0  0  0  0  0  0  0  0  0
    1.5240  -51.8843  -20.3809 C   0  0  0  0  0  0  0  0  0  0  0  0
    0.4642  -52.6852  -20.0399 C   0  0  0  0  0  0  0  0  0  0  0  0
   -0.2859  -53.3426  -21.0239 C   0  0  0  0  0  0  0  0  0  0  0  0
    2.3399  -51.1742  -19.3786 C   0  0  0  0  0  0  0  0  0  0  0  0
    3.3512  -51.6086  -18.6501 N   0  0  0  0  0  0  0  0  0  0  0  0
    3.9276  -50.8372  -17.8365 N   0  0  0  0  0  0  0  0  0  0  0  0
    3.5304  -49.5841  -17.6994 C   0  0  0  0  0  0  0  0  0  0  0  0
    2.2276  -49.5467  -18.8421 S   0  0  0  0  0  0  0  0  0  0  0  0
    3.9789  -48.5103  -16.8812 N   0  0  0  0  0  0  0  0  0  0  0  0
    3.6804  -48.4525  -15.5257 C   0  0  0  0  0  0  0  0  0  0  0  0
    4.1127  -47.4597  -14.8401 O   0  0  0  0  0  0  0  0  0  0  0  0
    4.5519  -47.7416  -17.3179 H   0  0  0  0  0  0  0  0  0  0  0  0
    2.8925  -49.4950  -14.8893 C   0  0  0  0  0  0  0  0  0  0  0  0
    1.4991  -49.4802  -14.9063 C   0  0  0  0  0  0  0  0  0  0  0  0
    0.8308  -50.5085  -14.2663 C   0  0  0  0  0  0  0  0  0  0  0  0
    1.5029  -51.5269  -13.6252 C   0  0  0  0  0  0  0  0  0  0  0  0
    0.5877  -52.9550  -12.7363 Br  0  0  0  0  0  0  0  0  0  0  0  0
    2.8838  -51.5450  -13.6063 C   0  0  0  0  0  0  0  0  0  0  0  0
    3.5548  -50.5159  -14.2466 C   0  0  0  0  0  0  0  0  0  0  0  0
   -0.7497  -53.8738  -23.3247 O   0  0  0  0  0  0  0  0  0  0  0  0
   -0.3776  -53.2024  -27.4307 C   0  0  0  0  0  0  0  0  0  0  0  0
   -1.0526  -52.3127  -26.5975 C   0  0  0  0  0  0  0  0  0  0  0  0
   -1.1744  -52.5364  -25.2418 C   0  0  0  0  0  0  0  0  0  0  0  0
   -0.6224  -53.6637  -24.6682 C   0  0  0  0  0  0  0  0  0  0  0  0
    0.0484  -54.5495  -25.4920 C   0  0  0  0  0  0  0  0  0  0  0  0
    0.1777  -54.3384  -26.8490 C   0  0  0  0  0  0  0  0  0  0  0  0
   -1.3603  -53.0206  -29.6077 O   0  0  0  0  0  0  0  0  0  0  0  0
   -0.2537  -52.9773  -28.8036 N   0  0  0  0  0  0  0  0  0  0  0  0
    0.8538  -52.7371  -29.3052 O   0  0  0  0  0  0  0  0  0  0  0  0
 30 31  1  0  0  0
 31 32  2  0  0  0
 31 24  1  0  0  0
 24 25  2  0  0  0
 25 26  1  0  0  0
 26 27  2  0  0  0
 27 23  1  0  0  0
 23  1  1  0  0  0
  1  2  2  0  0  0
  2  3  1  0  0  0
  3  4  2  0  0  0
  4  5  1  0  0  0
  5  6  2  0  0  0
  4  7  1  0  0  0
  7  8  2  0  0  0
  8  9  1  0  0  0
  9 10  2  0  0  0
 10 12  1  0  0  0
 12 13  1  0  0  0
 13 14  2  0  0  0
 13 16  1  0  0  0
 16 17  2  0  0  0
 17 18  1  0  0  0
 18 19  2  0  0  0
 19 20  1  0  0  0
 19 21  1  0  0  0
 21 22  2  0  0  0
 10 11  1  0  0  0
 27 28  1  0  0  0
 28 29  2  0  0  0
 29 24  1  0  0  0
  6  1  1  0  0  0
 11  7  1  0  0  0
 22 16  1  0  0  0
 12 15  1  0  0  0
M  CHG 1  30  -1
M  CHG 1  31   1
M  END
> <minimizedAffinity>
-8.05865

> <CNNscore>
0.1223509610

> <CNNaffinity>
6.1577153206

> <CNN_VS>
0.7534024119

> <CNNaffinity_variance>
0.1910032332

$$$$
[H]c1c([H])c(C(=O)N([H])c2nnc(-c3c([H])c([H])c(Oc4c([H])c([H])c([N+](=O)[O-])c([H])c4[H])c([H])c3[H])s2)c([H])c([H])c1Br


 32 35  0  0  0  0  0  0  0  0999 V2000
    2.0196  -50.8838  -22.9886 C   0  0  0  0  0  0  0  0  0  0  0  0
    3.1201  -51.4659  -22.4004 C   0  0  0  0  0  0  0  0  0  0  0  0
    3.2650  -51.4800  -21.0209 C   0  0  0  0  0  0  0  0  0  0  0  0
    2.3298  -50.9209  -20.1821 C   0  0  0  0  0  0  0  0  0  0  0  0
    1.2313  -50.3394  -20.7617 C   0  0  0  0  0  0  0  0  0  0  0  0
    1.0780  -50.3215  -22.1543 C   0  0  0  0  0  0  0  0  0  0  0  0
    2.5311  -50.9623  -18.7219 C   0  0  0  0  0  0  0  0  0  0  0  0
    3.6416  -51.1172  -18.0255 N   0  0  0  0  0  0  0  0  0  0  0  0
    3.6070  -51.1251  -16.7653 N   0  0  0  0  0  0  0  0  0  0  0  0
    2.4619  -50.9790  -16.1218 C   0  0  0  0  0  0  0  0  0  0  0  0
    1.3733  -50.8206  -17.4614 S   0  0  0  0  0  0  0  0  0  0  0  0
    2.1249  -50.9479  -14.7401 N   0  0  0  0  0  0  0  0  0  0  0  0
    2.2862  -49.7990  -13.9760 C   0  0  0  0  0  0  0  0  0  0  0  0
    1.9648  -49.8323  -12.7358 O   0  0  0  0  0  0  0  0  0  0  0  0
    1.7436  -51.8200  -14.2887 H   0  0  0  0  0  0  0  0  0  0  0  0
    2.8094  -48.5775  -14.5650 C   0  0  0  0  0  0  0  0  0  0  0  0
    1.9933  -47.6840  -15.2561 C   0  0  0  0  0  0  0  0  0  0  0  0
    2.5786  -46.5510  -15.7922 C   0  0  0  0  0  0  0  0  0  0  0  0
    3.9262  -46.2941  -15.6587 C   0  0  0  0  0  0  0  0  0  0  0  0
    4.7466  -44.7291  -16.3969 Br  0  0  0  0  0  0  0  0  0  0  0  0
    4.7382  -47.1773  -14.9745 C   0  0  0  0  0  0  0  0  0  0  0  0
    4.1537  -48.3125  -14.4369 C   0  0  0  0  0  0  0  0  0  0  0  0
    1.8458  -50.8539  -24.3720 O   0  0  0  0  0  0  0  0  0  0  0  0
    4.1918  -48.5785  -26.9734 C   0  0  0  0  0  0  0  0  0  0  0  0
    3.7904  -49.8752  -27.2876 C   0  0  0  0  0  0  0  0  0  0  0  0
    3.0156  -50.6250  -26.4271 C   0  0  0  0  0  0  0  0  0  0  0  0
    2.6127  -50.1016  -25.2153 C   0  0  0  0  0  0  0  0  0  0  0  0
    3.0092  -48.8146  -24.8997 C   0  0  0  0  0  0  0  0  0  0  0  0
    3.7838  -48.0538  -25.7505 C   0  0  0  0  0  0  0  0  0  0  0  0
    4.7722  -46.4690  -27.9488 O   0  0  0  0  0  0  0  0  0  0  0  0
    4.9763  -47.8182  -27.8437 N   0  0  0  0  0  0  0  0  0  0  0  0
    5.8609  -48.3548  -28.5260 O   0  0  0  0  0  0  0  0  0  0  0  0
 30 31  1  0  0  0
 31 32  2  0  0  0
 31 24  1  0  0  0
 24 25  2  0  0  0
 25 26  1  0  0  0
 26 27  2  0  0  0
 27 23  1  0  0  0
 23  1  1  0  0  0
  1  2  2  0  0  0
  2  3  1  0  0  0
  3  4  2  0  0  0
  4  5  1  0  0  0
  5  6  2  0  0  0
  4  7  1  0  0  0
  7  8  2  0  0  0
  8  9  1  0  0  0
  9 10  2  0  0  0
 10 12  1  0  0  0
 12 13  1  0  0  0
 13 14  2  0  0  0
 13 16  1  0  0  0
 16 17  2  0  0  0
 17 18  1  0  0  0
 18 19  2  0  0  0
 19 20  1  0  0  0
 19 21  1  0  0  0
 21 22  2  0  0  0
 10 11  1  0  0  0
 27 28  1  0  0  0
 28 29  2  0  0  0
 29 24  1  0  0  0
  6  1  1  0  0  0
 11  7  1  0  0  0
 22 16  1  0  0  0
 12 15  1  0  0  0
M  CHG 1  30  -1
M  CHG 1  31   1
M  END
> <minimizedAffinity>
-4.90402

> <CNNscore>
0.1145578176

> <CNNaffinity>
5.3592100143

> <CNN_VS>
0.6139394045

> <CNNaffinity_variance>
0.1702658832

$$$$
[H]c1c([H])c(C(=O)N([H])c2nnc(-c3c([H])c([H])c(Oc4c([H])c([H])c([N+](=O)[O-])c([H])c4[H])c([H])c3[H])s2)c([H])c([H])c1Br


 32 35  0  0  0  0  0  0  0  0999 V2000
    1.2053  -52.6141  -24.0029 C   0  0  0  0  0  0  0  0  0  0  0  0
    2.1073  -53.0247  -24.9587 C   0  0  0  0  0  0  0  0  0  0  0  0
    2.8602  -52.1013  -25.6692 C   0  0  0  0  0  0  0  0  0  0  0  0
    2.7455  -50.7474  -25.4580 C   0  0  0  0  0  0  0  0  0  0  0  0
    1.8487  -50.3319  -24.5072 C   0  0  0  0  0  0  0  0  0  0  0  0
    1.0849  -51.2587  -23.7856 C   0  0  0  0  0  0  0  0  0  0  0  0
    3.5692  -49.8071  -26.2401 C   0  0  0  0  0  0  0  0  0  0  0  0
    3.6478  -49.6367  -27.5466 N   0  0  0  0  0  0  0  0  0  0  0  0
    4.4231  -48.7681  -28.0300 N   0  0  0  0  0  0  0  0  0  0  0  0
    5.1684  -48.0156  -27.2393 C   0  0  0  0  0  0  0  0  0  0  0  0
    4.6928  -48.6305  -25.6901 S   0  0  0  0  0  0  0  0  0  0  0  0
    6.1112  -46.9812  -27.4942 N   0  0  0  0  0  0  0  0  0  0  0  0
    5.9397  -46.0788  -28.5363 C   0  0  0  0  0  0  0  0  0  0  0  0
    6.8234  -45.1682  -28.7162 O   0  0  0  0  0  0  0  0  0  0  0  0
    6.9595  -46.9008  -26.8746 H   0  0  0  0  0  0  0  0  0  0  0  0
    4.7818  -46.1594  -29.4112 C   0  0  0  0  0  0  0  0  0  0  0  0
    3.5488  -45.6166  -29.0541 C   0  0  0  0  0  0  0  0  0  0  0  0
    2.4987  -45.7485  -29.9449 C   0  0  0  0  0  0  0  0  0  0  0  0
    2.6453  -46.3933  -31.1543 C   0  0  0  0  0  0  0  0  0  0  0  0
    1.1984  -46.5815  -32.3945 Br  0  0  0  0  0  0  0  0  0  0  0  0
    3.8657  -46.9324  -31.5115 C   0  0  0  0  0  0  0  0  0  0  0  0
    4.9185  -46.8013  -30.6207 C   0  0  0  0  0  0  0  0  0  0  0  0
    0.4343  -53.5180  -23.2725 O   0  0  0  0  0  0  0  0  0  0  0  0
   -0.7136  -52.9369  -19.2984 C   0  0  0  0  0  0  0  0  0  0  0  0
   -1.5221  -53.6180  -20.2061 C   0  0  0  0  0  0  0  0  0  0  0  0
   -1.1411  -53.8088  -21.5181 C   0  0  0  0  0  0  0  0  0  0  0  0
    0.0684  -53.3226  -21.9712 C   0  0  0  0  0  0  0  0  0  0  0  0
    0.8738  -52.6458  -21.0732 C   0  0  0  0  0  0  0  0  0  0  0  0
    0.5054  -52.4479  -19.7587 C   0  0  0  0  0  0  0  0  0  0  0  0
   -2.2747  -53.2720  -17.5127 O   0  0  0  0  0  0  0  0  0  0  0  0
   -1.0982  -52.7430  -17.9697 N   0  0  0  0  0  0  0  0  0  0  0  0
   -0.3816  -52.0933  -17.1949 O   0  0  0  0  0  0  0  0  0  0  0  0
 30 31  1  0  0  0
 31 32  2  0  0  0
 31 24  1  0  0  0
 24 25  2  0  0  0
 25 26  1  0  0  0
 26 27  2  0  0  0
 27 23  1  0  0  0
 23  1  1  0  0  0
  1  2  2  0  0  0
  2  3  1  0  0  0
  3  4  2  0  0  0
  4  5  1  0  0  0
  5  6  2  0  0  0
  4  7  1  0  0  0
  7  8  2  0  0  0
  8  9  1  0  0  0
  9 10  2  0  0  0
 10 12  1  0  0  0
 12 13  1  0  0  0
 13 14  2  0  0  0
 13 16  1  0  0  0
 16 17  2  0  0  0
 17 18  1  0  0  0
 18 19  2  0  0  0
 19 20  1  0  0  0
 19 21  1  0  0  0
 21 22  2  0  0  0
 10 11  1  0  0  0
 27 28  1  0  0  0
 28 29  2  0  0  0
 29 24  1  0  0  0
  6  1  1  0  0  0
 11  7  1  0  0  0
 22 16  1  0  0  0
 12 15  1  0  0  0
M  CHG 1  30  -1
M  CHG 1  31   1
M  END
> <minimizedAffinity>
-7.20054

> <CNNscore>
0.1050253659

> <CNNaffinity>
5.5665335655

> <CNN_VS>
0.5846272111

> <CNNaffinity_variance>
0.2486485541

$$$$
[H]OC1([H])C([H])([H])C([H])([H])C2([H])C3([H])C([H])([H])C([H])([H])C4=C([H])C(=O)C([H])([H])C([H])([H])[C@]4(C([H])([H])[H])C3([H])C([H])([H])C([H])([H])[C@]12C([H])([H])[H]


 22 25  0  0  0  0  0  0  0  0999 V2000
   -1.8521  -53.0478  -21.3517 C   0  0  0  0  0  0  0  0  0  0  0  0
   -0.5019  -53.5167  -21.8554 C   0  0  0  0  0  0  0  0  0  0  0  0
    0.3661  -53.8936  -20.6888 C   0  0  0  0  0  0  0  0  0  0  0  0
    0.8478  -52.6266  -20.0615 C   0  0  0  0  0  0  0  0  0  0  0  0
    1.8043  -51.9486  -20.9973 C   0  0  0  0  0  0  0  0  0  0  0  0
    1.4745  -52.0298  -22.4297 C   0  0  0  0  0  0  0  0  0  0  0  0
    1.6430  -50.7439  -23.2093 C   0  0  0  0  0  0  0  0  0  0  0  0
    2.6877  -49.8283  -22.7338 C   0  0  0  0  0  0  0  0  0  0  0  0
    2.9526  -49.8430  -21.2835 C   0  0  0  0  0  0  0  0  0  0  0  0
    4.0556  -49.2765  -20.8436 C   0  0  0  0  0  0  0  0  0  0  0  0
    4.3549  -49.2712  -19.3959 C   0  0  0  0  0  0  0  0  0  0  0  0
    5.5261  -49.1084  -19.0018 O   0  0  0  0  0  0  0  0  0  0  0  0
    3.1696  -49.4703  -18.5281 C   0  0  0  0  0  0  0  0  0  0  0  0
    2.3262  -50.6077  -19.0184 C   0  0  0  0  0  0  0  0  0  0  0  0
    1.9219  -50.5093  -20.4668 C   0  0  0  0  0  0  0  0  0  0  0  0
    0.5859  -49.8076  -20.5527 C   0  0  0  0  0  0  0  0  0  0  0  0
    0.1280  -52.5487  -22.7934 C   0  0  0  0  0  0  0  0  0  0  0  0
    0.1805  -53.2685  -24.1517 C   0  0  0  0  0  0  0  0  0  0  0  0
   -0.9378  -54.2505  -24.0728 C   0  0  0  0  0  0  0  0  0  0  0  0
   -0.7649  -54.7930  -22.6476 C   0  0  0  0  0  0  0  0  0  0  0  0
   -1.9550  -55.3922  -22.3081 O   0  0  0  0  0  0  0  0  0  0  0  0
   -1.8708  -56.1741  -21.7150 H   0  0  0  0  0  0  0  0  0  0  0  0
  2  1  1  0  0  0
  2  3  1  0  0  0
  3  4  1  0  0  0
  4  5  1  0  0  0
  5  6  1  0  0  0
  6  7  1  0  0  0
  7  8  1  0  0  0
  8  9  1  0  0  0
  9 10  2  0  0  0
 10 11  1  0  0  0
 11 12  2  0  0  0
 11 13  1  0  0  0
 13 14  1  0  0  0
 14 15  1  0  0  0
 15 16  1  0  0  0
  6 17  1  0  0  0
 17 18  1  0  0  0
 18 19  1  0  0  0
 19 20  1  0  0  0
 20 21  1  0  0  0
 17  2  1  0  0  0
 20  2  1  0  0  0
 15  5  1  0  0  0
 15  9  1  0  0  0
 21 22  1  0  0  0
M  END
> <minimizedAffinity>
-7.71936

> <CNNscore>
0.5501158237

> <CNNaffinity>
5.9279088974

> <CNN_VS>
3.2610363960

> <CNNaffinity_variance>
0.2133398056

$$$$
[H]OC1([H])C([H])([H])C([H])([H])C2([H])C3([H])C([H])([H])C([H])([H])C4=C([H])C(=O)C([H])([H])C([H])([H])[C@]4(C([H])([H])[H])C3([H])C([H])([H])C([H])([H])[C@]12C([H])([H])[H]


 22 25  0  0  0  0  0  0  0  0999 V2000
    3.7960  -48.0145  -20.9700 C   0  0  0  0  0  0  0  0  0  0  0  0
    2.7156  -48.0894  -22.0301 C   0  0  0  0  0  0  0  0  0  0  0  0
    1.3648  -48.0576  -21.3736 C   0  0  0  0  0  0  0  0  0  0  0  0
    1.1213  -49.4085  -20.7848 C   0  0  0  0  0  0  0  0  0  0  0  0
    0.9415  -50.4020  -21.8944 C   0  0  0  0  0  0  0  0  0  0  0  0
    1.7976  -50.2127  -23.0768 C   0  0  0  0  0  0  0  0  0  0  0  0
    2.4193  -51.4732  -23.6375 C   0  0  0  0  0  0  0  0  0  0  0  0
    1.6481  -52.7104  -23.4638 C   0  0  0  0  0  0  0  0  0  0  0  0
    0.8065  -52.7864  -22.2555 C   0  0  0  0  0  0  0  0  0  0  0  0
   -0.1163  -53.7221  -22.1941 C   0  0  0  0  0  0  0  0  0  0  0  0
   -0.9788  -53.8295  -20.9983 C   0  0  0  0  0  0  0  0  0  0  0  0
   -2.0757  -54.4169  -21.0713 O   0  0  0  0  0  0  0  0  0  0  0  0
   -0.4164  -53.1946  -19.7825 C   0  0  0  0  0  0  0  0  0  0  0  0
    0.1170  -51.8274  -20.0847 C   0  0  0  0  0  0  0  0  0  0  0  0
    1.1032  -51.7767  -21.2230 C   0  0  0  0  0  0  0  0  0  0  0  0
    2.4996  -51.9269  -20.6645 C   0  0  0  0  0  0  0  0  0  0  0  0
    2.9091  -49.2293  -22.9665 C   0  0  0  0  0  0  0  0  0  0  0  0
    3.1971  -48.5908  -24.3359 C   0  0  0  0  0  0  0  0  0  0  0  0
    3.7733  -47.2607  -23.9896 C   0  0  0  0  0  0  0  0  0  0  0  0
    2.8418  -46.8130  -22.8549 C   0  0  0  0  0  0  0  0  0  0  0  0
    3.4971  -45.8090  -22.1817 O   0  0  0  0  0  0  0  0  0  0  0  0
    2.9117  -45.1117  -21.8056 H   0  0  0  0  0  0  0  0  0  0  0  0
  2  1  1  0  0  0
  2  3  1  0  0  0
  3  4  1  0  0  0
  4  5  1  0  0  0
  5  6  1  0  0  0
  6  7  1  0  0  0
  7  8  1  0  0  0
  8  9  1  0  0  0
  9 10  2  0  0  0
 10 11  1  0  0  0
 11 12  2  0  0  0
 11 13  1  0  0  0
 13 14  1  0  0  0
 14 15  1  0  0  0
 15 16  1  0  0  0
  6 17  1  0  0  0
 17 18  1  0  0  0
 18 19  1  0  0  0
 19 20  1  0  0  0
 20 21  1  0  0  0
 17  2  1  0  0  0
 20  2  1  0  0  0
 15  5  1  0  0  0
 15  9  1  0  0  0
 21 22  1  0  0  0
M  END
> <minimizedAffinity>
-7.92669

> <CNNscore>
0.5397329330

> <CNNaffinity>
5.7024927139

> <CNN_VS>
3.0778231621

> <CNNaffinity_variance>
0.2215124667

$$$$
[H]OC1([H])C([H])([H])C([H])([H])C2([H])C3([H])C([H])([H])C([H])([H])C4=C([H])C(=O)C([H])([H])C([H])([H])[C@]4(C([H])([H])[H])C3([H])C([H])([H])C([H])([H])[C@]12C([H])([H])[H]


 22 25  0  0  0  0  0  0  0  0999 V2000
    0.1340  -50.2707  -21.1037 C   0  0  0  0  0  0  0  0  0  0  0  0
    0.8698  -51.5952  -21.1371 C   0  0  0  0  0  0  0  0  0  0  0  0
    2.1067  -51.4614  -21.9788 C   0  0  0  0  0  0  0  0  0  0  0  0
    1.6775  -51.4676  -23.4095 C   0  0  0  0  0  0  0  0  0  0  0  0
    1.1670  -52.8334  -23.7625 C   0  0  0  0  0  0  0  0  0  0  0  0
    0.3957  -53.5255  -22.7170 C   0  0  0  0  0  0  0  0  0  0  0  0
   -0.8601  -54.2242  -23.1909 C   0  0  0  0  0  0  0  0  0  0  0  0
   -0.8381  -54.7373  -24.5663 C   0  0  0  0  0  0  0  0  0  0  0  0
   -0.0163  -53.9802  -25.5284 C   0  0  0  0  0  0  0  0  0  0  0  0
    0.2773  -54.5447  -26.6800 C   0  0  0  0  0  0  0  0  0  0  0  0
    1.0986  -53.8161  -27.6699 C   0  0  0  0  0  0  0  0  0  0  0  0
    1.7045  -54.4435  -28.5603 O   0  0  0  0  0  0  0  0  0  0  0  0
    1.1124  -52.3452  -27.4856 C   0  0  0  0  0  0  0  0  0  0  0  0
    1.3425  -51.9829  -26.0499 C   0  0  0  0  0  0  0  0  0  0  0  0
    0.3946  -52.6378  -25.0785 C   0  0  0  0  0  0  0  0  0  0  0  0
   -0.7888  -51.7230  -24.8614 C   0  0  0  0  0  0  0  0  0  0  0  0
   -0.0099  -52.7302  -21.5263 C   0  0  0  0  0  0  0  0  0  0  0  0
   -0.0909  -53.6315  -20.2826 C   0  0  0  0  0  0  0  0  0  0  0  0
    0.1659  -52.6950  -19.1521 C   0  0  0  0  0  0  0  0  0  0  0  0
    1.3287  -51.8613  -19.7074 C   0  0  0  0  0  0  0  0  0  0  0  0
    1.3892  -50.7166  -18.9480 O   0  0  0  0  0  0  0  0  0  0  0  0
    2.2956  -50.3534  -18.8174 H   0  0  0  0  0  0  0  0  0  0  0  0
  2  1  1  0  0  0
  2  3  1  0  0  0
  3  4  1  0  0  0
  4  5  1  0  0  0
  5  6  1  0  0  0
  6  7  1  0  0  0
  7  8  1  0  0  0
  8  9  1  0  0  0
  9 10  2  0  0  0
 10 11  1  0  0  0
 11 12  2  0  0  0
 11 13  1  0  0  0
 13 14  1  0  0  0
 14 15  1  0  0  0
 15 16  1  0  0  0
  6 17  1  0  0  0
 17 18  1  0  0  0
 18 19  1  0  0  0
 19 20  1  0  0  0
 20 21  1  0  0  0
 17  2  1  0  0  0
 20  2  1  0  0  0
 15  5  1  0  0  0
 15  9  1  0  0  0
 21 22  1  0  0  0
M  END
> <minimizedAffinity>
-8.53228

> <CNNscore>
0.5319321156

> <CNNaffinity>
6.2840785980

> <CNN_VS>
3.3427031040

> <CNNaffinity_variance>
0.1817094833

$$$$
[H]OC1([H])C([H])([H])C([H])([H])C2([H])C3([H])C([H])([H])C([H])([H])C4=C([H])C(=O)C([H])([H])C([H])([H])[C@]4(C([H])([H])[H])C3([H])C([H])([H])C([H])([H])[C@]12C([H])([H])[H]


 22 25  0  0  0  0  0  0  0  0999 V2000
   -0.2524  -52.2765  -27.3965 C   0  0  0  0  0  0  0  0  0  0  0  0
    0.8246  -53.1609  -26.8008 C   0  0  0  0  0  0  0  0  0  0  0  0
    0.1872  -54.3333  -26.1113 C   0  0  0  0  0  0  0  0  0  0  0  0
   -0.3682  -53.8423  -24.8146 C   0  0  0  0  0  0  0  0  0  0  0  0
    0.7654  -53.4804  -23.9011 C   0  0  0  0  0  0  0  0  0  0  0  0
    1.9309  -52.8450  -24.5374 C   0  0  0  0  0  0  0  0  0  0  0  0
    2.5102  -51.6598  -23.7963 C   0  0  0  0  0  0  0  0  0  0  0  0
    2.3748  -51.6786  -22.3344 C   0  0  0  0  0  0  0  0  0  0  0  0
    1.1808  -52.3602  -21.8019 C   0  0  0  0  0  0  0  0  0  0  0  0
    1.1533  -52.6649  -20.5223 C   0  0  0  0  0  0  0  0  0  0  0  0
   -0.0272  -53.3481  -19.9524 C   0  0  0  0  0  0  0  0  0  0  0  0
    0.0745  -53.9820  -18.8840 O   0  0  0  0  0  0  0  0  0  0  0  0
   -1.2647  -53.1971  -20.7545 C   0  0  0  0  0  0  0  0  0  0  0  0
   -1.0004  -53.4489  -22.2078 C   0  0  0  0  0  0  0  0  0  0  0  0
    0.1222  -52.6305  -22.7917 C   0  0  0  0  0  0  0  0  0  0  0  0
   -0.4530  -51.3589  -23.3718 C   0  0  0  0  0  0  0  0  0  0  0  0
    1.7829  -52.4039  -25.9510 C   0  0  0  0  0  0  0  0  0  0  0  0
    3.1337  -52.4870  -26.6821 C   0  0  0  0  0  0  0  0  0  0  0  0
    2.7499  -52.6836  -28.1087 C   0  0  0  0  0  0  0  0  0  0  0  0
    1.6192  -53.7133  -27.9793 C   0  0  0  0  0  0  0  0  0  0  0  0
    0.9146  -53.6736  -29.1594 O   0  0  0  0  0  0  0  0  0  0  0  0
    0.5318  -54.5359  -29.4426 H   0  0  0  0  0  0  0  0  0  0  0  0
  2  1  1  0  0  0
  2  3  1  0  0  0
  3  4  1  0  0  0
  4  5  1  0  0  0
  5  6  1  0  0  0
  6  7  1  0  0  0
  7  8  1  0  0  0
  8  9  1  0  0  0
  9 10  2  0  0  0
 10 11  1  0  0  0
 11 12  2  0  0  0
 11 13  1  0  0  0
 13 14  1  0  0  0
 14 15  1  0  0  0
 15 16  1  0  0  0
  6 17  1  0  0  0
 17 18  1  0  0  0
 18 19  1  0  0  0
 19 20  1  0  0  0
 20 21  1  0  0  0
 17  2  1  0  0  0
 20  2  1  0  0  0
 15  5  1  0  0  0
 15  9  1  0  0  0
 21 22  1  0  0  0
M  END
> <minimizedAffinity>
-7.02156

> <CNNscore>
0.4007022083

> <CNNaffinity>
6.1208333969

> <CNN_VS>
2.4526314735

> <CNNaffinity_variance>
0.2520154119

$$$$
[H]OC1([H])C([H])([H])C([H])([H])C2([H])C3([H])C([H])([H])C([H])([H])C4=C([H])C(=O)C([H])([H])C([H])([H])[C@]4(C([H])([H])[H])C3([H])C([H])([H])C([H])([H])[C@]12C([H])([H])[H]


 22 25  0  0  0  0  0  0  0  0999 V2000
    2.6796  -52.4917  -23.9526 C   0  0  0  0  0  0  0  0  0  0  0  0
    1.2307  -52.1021  -23.7390 C   0  0  0  0  0  0  0  0  0  0  0  0
    1.1443  -50.6320  -23.4429 C   0  0  0  0  0  0  0  0  0  0  0  0
    1.5854  -50.4332  -22.0298 C   0  0  0  0  0  0  0  0  0  0  0  0
    0.5634  -51.0306  -21.1083 C   0  0  0  0  0  0  0  0  0  0  0  0
   -0.0576  -52.2869  -21.5589 C   0  0  0  0  0  0  0  0  0  0  0  0
   -0.2011  -53.3575  -20.4992 C   0  0  0  0  0  0  0  0  0  0  0  0
   -0.3831  -52.8865  -19.1206 C   0  0  0  0  0  0  0  0  0  0  0  0
    0.2638  -51.6056  -18.7816 C   0  0  0  0  0  0  0  0  0  0  0  0
   -0.1004  -50.9949  -17.6746 C   0  0  0  0  0  0  0  0  0  0  0  0
    0.5264  -49.7091  -17.3017 C   0  0  0  0  0  0  0  0  0  0  0  0
   -0.0518  -48.9402  -16.5092 O   0  0  0  0  0  0  0  0  0  0  0  0
    1.8397  -49.4628  -17.9435 C   0  0  0  0  0  0  0  0  0  0  0  0
    1.7894  -49.7658  -19.4102 C   0  0  0  0  0  0  0  0  0  0  0  0
    1.2749  -51.1411  -19.7487 C   0  0  0  0  0  0  0  0  0  0  0  0
    2.4478  -52.0895  -19.8459 C   0  0  0  0  0  0  0  0  0  0  0  0
    0.5467  -52.9646  -22.7379 C   0  0  0  0  0  0  0  0  0  0  0  0
   -0.5296  -53.7317  -23.5246 C   0  0  0  0  0  0  0  0  0  0  0  0
    0.0080  -53.7662  -24.9142 C   0  0  0  0  0  0  0  0  0  0  0  0
    0.5290  -52.3314  -25.0734 C   0  0  0  0  0  0  0  0  0  0  0  0
    1.4016  -52.3458  -26.1359 O   0  0  0  0  0  0  0  0  0  0  0  0
    1.4207  -51.5168  -26.6676 H   0  0  0  0  0  0  0  0  0  0  0  0
  2  1  1  0  0  0
  2  3  1  0  0  0
  3  4  1  0  0  0
  4  5  1  0  0  0
  5  6  1  0  0  0
  6  7  1  0  0  0
  7  8  1  0  0  0
  8  9  1  0  0  0
  9 10  2  0  0  0
 10 11  1  0  0  0
 11 12  2  0  0  0
 11 13  1  0  0  0
 13 14  1  0  0  0
 14 15  1  0  0  0
 15 16  1  0  0  0
  6 17  1  0  0  0
 17 18  1  0  0  0
 18 19  1  0  0  0
 19 20  1  0  0  0
 20 21  1  0  0  0
 17  2  1  0  0  0
 20  2  1  0  0  0
 15  5  1  0  0  0
 15  9  1  0  0  0
 21 22  1  0  0  0
M  END
> <minimizedAffinity>
-8.12947

> <CNNscore>
0.3983284831

> <CNNaffinity>
5.8362250328

> <CNN_VS>
2.3247346878

> <CNNaffinity_variance>
0.1094380617

$$$$
[H]OC1([H])C([H])([H])C([H])([H])C2([H])C3([H])C([H])([H])C([H])([H])C4=C([H])C(=O)C([H])([H])C([H])([H])[C@]4(C([H])([H])[H])C3([H])C([H])([H])C([H])([H])[C@]12C([H])([H])[H]


 22 25  0  0  0  0  0  0  0  0999 V2000
   -0.5414  -51.4794  -25.8497 C   0  0  0  0  0  0  0  0  0  0  0  0
    0.3037  -52.6488  -25.3858 C   0  0  0  0  0  0  0  0  0  0  0  0
   -0.2634  -53.2035  -24.1103 C   0  0  0  0  0  0  0  0  0  0  0  0
    0.1163  -52.2697  -23.0081 C   0  0  0  0  0  0  0  0  0  0  0  0
    1.5982  -52.3472  -22.7883 C   0  0  0  0  0  0  0  0  0  0  0  0
    2.4242  -52.4987  -23.9974 C   0  0  0  0  0  0  0  0  0  0  0  0
    3.6663  -51.6359  -24.0482 C   0  0  0  0  0  0  0  0  0  0  0  0
    4.2846  -51.3110  -22.7568 C   0  0  0  0  0  0  0  0  0  0  0  0
    3.3680  -51.2044  -21.6069 C   0  0  0  0  0  0  0  0  0  0  0  0
    3.8814  -51.2098  -20.3954 C   0  0  0  0  0  0  0  0  0  0  0  0
    2.9936  -51.1041  -19.2181 C   0  0  0  0  0  0  0  0  0  0  0  0
    3.3893  -51.4927  -18.1019 O   0  0  0  0  0  0  0  0  0  0  0  0
    1.6632  -50.5184  -19.5089 C   0  0  0  0  0  0  0  0  0  0  0  0
    1.0574  -51.1352  -20.7328 C   0  0  0  0  0  0  0  0  0  0  0  0
    1.9391  -51.1001  -21.9544 C   0  0  0  0  0  0  0  0  0  0  0  0
    1.6341  -49.8448  -22.7391 C   0  0  0  0  0  0  0  0  0  0  0  0
    1.7520  -52.3161  -25.3125 C   0  0  0  0  0  0  0  0  0  0  0  0
    2.4278  -53.1875  -26.3848 C   0  0  0  0  0  0  0  0  0  0  0  0
    1.3408  -53.4341  -27.3740 C   0  0  0  0  0  0  0  0  0  0  0  0
    0.1516  -53.7303  -26.4501 C   0  0  0  0  0  0  0  0  0  0  0  0
   -0.9843  -53.5719  -27.2086 O   0  0  0  0  0  0  0  0  0  0  0  0
   -1.7291  -54.1705  -26.9693 H   0  0  0  0  0  0  0  0  0  0  0  0
  2  1  1  0  0  0
  2  3  1  0  0  0
  3  4  1  0  0  0
  4  5  1  0  0  0
  5  6  1  0  0  0
  6  7  1  0  0  0
  7  8  1  0  0  0
  8  9  1  0  0  0
  9 10  2  0  0  0
 10 11  1  0  0  0
 11 12  2  0  0  0
 11 13  1  0  0  0
 13 14  1  0  0  0
 14 15  1  0  0  0
 15 16  1  0  0  0
  6 17  1  0  0  0
 17 18  1  0  0  0
 18 19  1  0  0  0
 19 20  1  0  0  0
 20 21  1  0  0  0
 17  2  1  0  0  0
 20  2  1  0  0  0
 15  5  1  0  0  0
 15  9  1  0  0  0
 21 22  1  0  0  0
M  END
> <minimizedAffinity>
-8.25993

> <CNNscore>
0.3301402628

> <CNNaffinity>
5.9635415077

> <CNN_VS>
1.9688051939

> <CNNaffinity_variance>
0.1980592608

$$$$
[H]OC1([H])C([H])([H])C([H])([H])C2([H])C3([H])C([H])([H])C([H])([H])C4=C([H])C(=O)C([H])([H])C([H])([H])[C@]4(C([H])([H])[H])C3([H])C([H])([H])C([H])([H])[C@]12C([H])([H])[H]


 22 25  0  0  0  0  0  0  0  0999 V2000
    0.3560  -51.6688  -26.1574 C   0  0  0  0  0  0  0  0  0  0  0  0
    1.5841  -51.7638  -25.2745 C   0  0  0  0  0  0  0  0  0  0  0  0
    1.6291  -53.1152  -24.6203 C   0  0  0  0  0  0  0  0  0  0  0  0
    0.6237  -53.1115  -23.5157 C   0  0  0  0  0  0  0  0  0  0  0  0
    1.0913  -52.1878  -22.4300 C   0  0  0  0  0  0  0  0  0  0  0  0
    1.7619  -50.9550  -22.8743 C   0  0  0  0  0  0  0  0  0  0  0  0
    1.3508  -49.6933  -22.1471 C   0  0  0  0  0  0  0  0  0  0  0  0
    0.9364  -49.8558  -20.7480 C   0  0  0  0  0  0  0  0  0  0  0  0
    0.2936  -51.1380  -20.4063 C   0  0  0  0  0  0  0  0  0  0  0  0
    0.1716  -51.4571  -19.1357 C   0  0  0  0  0  0  0  0  0  0  0  0
   -0.4680  -52.7343  -18.7547 C   0  0  0  0  0  0  0  0  0  0  0  0
   -0.2492  -53.2309  -17.6326 O   0  0  0  0  0  0  0  0  0  0  0  0
   -1.3432  -53.3136  -19.8016 C   0  0  0  0  0  0  0  0  0  0  0  0
   -0.6708  -53.2916  -21.1405 C   0  0  0  0  0  0  0  0  0  0  0  0
   -0.1530  -51.9400  -21.5598 C   0  0  0  0  0  0  0  0  0  0  0  0
   -1.2230  -51.2363  -22.3626 C   0  0  0  0  0  0  0  0  0  0  0  0
    1.6964  -50.6247  -24.3239 C   0  0  0  0  0  0  0  0  0  0  0  0
    2.9555  -49.8535  -24.7548 C   0  0  0  0  0  0  0  0  0  0  0  0
    3.0858  -50.1745  -26.2043 C   0  0  0  0  0  0  0  0  0  0  0  0
    2.7859  -51.6797  -26.2096 C   0  0  0  0  0  0  0  0  0  0  0  0
    2.4733  -52.0135  -27.5063 O   0  0  0  0  0  0  0  0  0  0  0  0
    2.7464  -52.9201  -27.7781 H   0  0  0  0  0  0  0  0  0  0  0  0
  2  1  1  0  0  0
  2  3  1  0  0  0
  3  4  1  0  0  0
  4  5  1  0  0  0
  5  6  1  0  0  0
  6  7  1  0  0  0
  7  8  1  0  0  0
  8  9  1  0  0  0
  9 10  2  0  0  0
 10 11  1  0  0  0
 11 12  2  0  0  0
 11 13  1  0  0  0
 13 14  1  0  0  0
 14 15  1  0  0  0
 15 16  1  0  0  0
  6 17  1  0  0  0
 17 18  1  0  0  0
 18 19  1  0  0  0
 19 20  1  0  0  0
 20 21  1  0  0  0
 17  2  1  0  0  0
 20  2  1  0  0  0
 15  5  1  0  0  0
 15  9  1  0  0  0
 21 22  1  0  0  0
M  END
> <minimizedAffinity>
-6.95891

> <CNNscore>
0.3070240915

> <CNNaffinity>
5.8036565781

> <CNN_VS>
1.7818623781

> <CNNaffinity_variance>
0.3186231256

$$$$
[H]OC1([H])C([H])([H])C([H])([H])C2([H])C3([H])C([H])([H])C([H])([H])C4=C([H])C(=O)C([H])([H])C([H])([H])[C@]4(C([H])([H])[H])C3([H])C([H])([H])C([H])([H])[C@]12C([H])([H])[H]


 22 25  0  0  0  0  0  0  0  0999 V2000
    0.1127  -54.5288  -21.6736 C   0  0  0  0  0  0  0  0  0  0  0  0
   -0.2400  -53.0738  -21.4381 C   0  0  0  0  0  0  0  0  0  0  0  0
   -0.9110  -52.5155  -22.6605 C   0  0  0  0  0  0  0  0  0  0  0  0
    0.1509  -52.2713  -23.6821 C   0  0  0  0  0  0  0  0  0  0  0  0
    1.0235  -51.1412  -23.2220 C   0  0  0  0  0  0  0  0  0  0  0  0
    1.3077  -51.0900  -21.7785 C   0  0  0  0  0  0  0  0  0  0  0  0
    2.7441  -50.7898  -21.4092 C   0  0  0  0  0  0  0  0  0  0  0  0
    3.4935  -49.9463  -22.3486 C   0  0  0  0  0  0  0  0  0  0  0  0
    3.1132  -50.0602  -23.7685 C   0  0  0  0  0  0  0  0  0  0  0  0
    3.5325  -49.1345  -24.6043 C   0  0  0  0  0  0  0  0  0  0  0  0
    3.1716  -49.2155  -26.0355 C   0  0  0  0  0  0  0  0  0  0  0  0
    3.2102  -48.1929  -26.7472 O   0  0  0  0  0  0  0  0  0  0  0  0
    2.7837  -50.5721  -26.4902 C   0  0  0  0  0  0  0  0  0  0  0  0
    1.8196  -51.2068  -25.5347 C   0  0  0  0  0  0  0  0  0  0  0  0
    2.2829  -51.2321  -24.1009 C   0  0  0  0  0  0  0  0  0  0  0  0
    3.0075  -52.5339  -23.8464 C   0  0  0  0  0  0  0  0  0  0  0  0
    0.9199  -52.2725  -20.9624 C   0  0  0  0  0  0  0  0  0  0  0  0
    0.5604  -51.8404  -19.5307 C   0  0  0  0  0  0  0  0  0  0  0  0
   -0.3902  -52.8934  -19.0738 C   0  0  0  0  0  0  0  0  0  0  0  0
   -1.2737  -53.0644  -20.3170 C   0  0  0  0  0  0  0  0  0  0  0  0
   -1.9172  -54.2716  -20.1788 O   0  0  0  0  0  0  0  0  0  0  0  0
   -2.8237  -54.3043  -20.5630 H   0  0  0  0  0  0  0  0  0  0  0  0
  2  1  1  0  0  0
  2  3  1  0  0  0
  3  4  1  0  0  0
  4  5  1  0  0  0
  5  6  1  0  0  0
  6  7  1  0  0  0
  7  8  1  0  0  0
  8  9  1  0  0  0
  9 10  2  0  0  0
 10 11  1  0  0  0
 11 12  2  0  0  0
 11 13  1  0  0  0
 13 14  1  0  0  0
 14 15  1  0  0  0
 15 16  1  0  0  0
  6 17  1  0  0  0
 17 18  1  0  0  0
 18 19  1  0  0  0
 19 20  1  0  0  0
 20 21  1  0  0  0
 17  2  1  0  0  0
 20  2  1  0  0  0
 15  5  1  0  0  0
 15  9  1  0  0  0
 21 22  1  0  0  0
M  END
> <minimizedAffinity>
-7.85823

> <CNNscore>
0.3063589036

> <CNNaffinity>
5.6804742813

> <CNN_VS>
1.7402638197

> <CNNaffinity_variance>
0.1389779299

$$$$
[H]OC1([H])C([H])([H])C([H])([H])C2([H])C3([H])C([H])([H])C([H])([H])C4=C([H])C(=O)C([H])([H])C([H])([H])[C@]4(C([H])([H])[H])C3([H])C([H])([H])C([H])([H])[C@]12C([H])([H])[H]


 22 25  0  0  0  0  0  0  0  0999 V2000
    1.3108  -48.9328  -20.2141 C   0  0  0  0  0  0  0  0  0  0  0  0
    1.8430  -50.2980  -19.8268 C   0  0  0  0  0  0  0  0  0  0  0  0
    2.6103  -50.8830  -20.9780 C   0  0  0  0  0  0  0  0  0  0  0  0
    1.6140  -51.3657  -21.9808 C   0  0  0  0  0  0  0  0  0  0  0  0
    0.8841  -52.5487  -21.4168 C   0  0  0  0  0  0  0  0  0  0  0  0
    0.5740  -52.4919  -19.9789 C   0  0  0  0  0  0  0  0  0  0  0  0
   -0.8199  -52.9394  -19.5965 C   0  0  0  0  0  0  0  0  0  0  0  0
   -1.4308  -53.9639  -20.4527 C   0  0  0  0  0  0  0  0  0  0  0  0
   -1.0340  -53.9440  -21.8726 C   0  0  0  0  0  0  0  0  0  0  0  0
   -1.3095  -54.9958  -22.6135 C   0  0  0  0  0  0  0  0  0  0  0  0
   -0.9275  -55.0120  -24.0415 C   0  0  0  0  0  0  0  0  0  0  0  0
   -0.8160  -56.0968  -24.6450 O   0  0  0  0  0  0  0  0  0  0  0  0
   -0.7076  -53.6686  -24.6286 C   0  0  0  0  0  0  0  0  0  0  0  0
    0.1428  -52.8203  -23.7327 C   0  0  0  0  0  0  0  0  0  0  0  0
   -0.3547  -52.7125  -22.3143 C   0  0  0  0  0  0  0  0  0  0  0  0
   -1.2477  -51.4982  -22.2025 C   0  0  0  0  0  0  0  0  0  0  0  0
    0.7855  -51.1929  -19.2842 C   0  0  0  0  0  0  0  0  0  0  0  0
    1.1630  -51.4283  -17.8118 C   0  0  0  0  0  0  0  0  0  0  0  0
    1.9578  -50.2192  -17.4549 C   0  0  0  0  0  0  0  0  0  0  0  0
    2.8417  -50.0592  -18.6993 C   0  0  0  0  0  0  0  0  0  0  0  0
    3.3200  -48.7702  -18.6785 O   0  0  0  0  0  0  0  0  0  0  0  0
    4.2237  -48.6575  -19.0540 H   0  0  0  0  0  0  0  0  0  0  0  0
  2  1  1  0  0  0
  2  3  1  0  0  0
  3  4  1  0  0  0
  4  5  1  0  0  0
  5  6  1  0  0  0
  6  7  1  0  0  0
  7  8  1  0  0  0
  8  9  1  0  0  0
  9 10  2  0  0  0
 10 11  1  0  0  0
 11 12  2  0  0  0
 11 13  1  0  0  0
 13 14  1  0  0  0
 14 15  1  0  0  0
 15 16  1  0  0  0
  6 17  1  0  0  0
 17 18  1  0  0  0
 18 19  1  0  0  0
 19 20  1  0  0  0
 20 21  1  0  0  0
 17  2  1  0  0  0
 20  2  1  0  0  0
 15  5  1  0  0  0
 15  9  1  0  0  0
 21 22  1  0  0  0
M  END
> <minimizedAffinity>
-7.41477

> <CNNscore>
0.2779866159

> <CNNaffinity>
5.6139688492

> <CNN_VS>
1.5606081486

> <CNNaffinity_variance>
0.1028913483

$$$$
[H]O[C@]12O[C@]([H])([C@@]([H])(OC([H])([H])[H])C([H])([H])[C@@]([H])(C([H])([H])[H])C([H])([H])/C(C([H])([H])[H])=C(\[H])[C@@]([H])(C([H])([H])C([H])([H])[H])C(=O)C([H])([H])[C@@]([H])(O[H])[C@@]([H])(C([H])([H])[H])[C@@]([H])(C(=C([H])[H])C([H])([H])[H])OC(=O)[C@@]3([H])N(C(=O)C1=O)C([H])([H])C([H])([H])C([H])([H])C3([H])[H])[C@@]([H])(OC([H])([H])[H])C([H])([H])[C@@]2([H])C([H])([H])[H]


 49 51  0  0  0  0  0  0  0  0999 V2000
   -1.6724  -52.7929  -23.8051 C   0  0  0  0  0  0  0  0  0  0  0  0
   -2.2056  -53.6193  -22.7385 C   0  0  0  0  0  0  0  0  0  0  0  0
   -1.6190  -54.2700  -21.7580 C   0  0  0  0  0  0  0  0  0  0  0  0
   -2.5264  -55.0564  -20.7999 C   0  0  0  0  0  0  0  0  0  0  0  0
   -0.1913  -54.3766  -21.4399 C   0  0  0  0  0  0  0  0  0  0  0  0
    0.4485  -53.2242  -20.7042 C   0  0  0  0  0  0  0  0  0  0  0  0
    1.7988  -53.7300  -20.2734 C   0  0  0  0  0  0  0  0  0  0  0  0
   -0.3674  -52.5328  -19.7238 C   0  0  0  0  0  0  0  0  0  0  0  0
    0.1364  -52.2956  -18.3404 C   0  0  0  0  0  0  0  0  0  0  0  0
    1.0086  -51.1264  -18.1128 C   0  0  0  0  0  0  0  0  0  0  0  0
    2.0479  -50.9244  -18.9915 O   0  0  0  0  0  0  0  0  0  0  0  0
    3.0741  -50.1874  -18.4585 C   0  0  0  0  0  0  0  0  0  0  0  0
    3.4864  -50.8807  -17.2746 O   0  0  0  0  0  0  0  0  0  0  0  0
    2.6908  -48.8478  -18.0020 C   0  0  0  0  0  0  0  0  0  0  0  0
    3.7045  -48.2854  -17.0064 C   0  0  0  0  0  0  0  0  0  0  0  0
    1.3902  -48.9328  -17.2296 C   0  0  0  0  0  0  0  0  0  0  0  0
    0.3419  -49.7893  -17.9686 C   0  0  0  0  0  0  0  0  0  0  0  0
    4.1892  -50.2896  -19.4330 C   0  0  0  0  0  0  0  0  0  0  0  0
    4.5790  -51.5340  -19.4883 O   0  0  0  0  0  0  0  0  0  0  0  0
    4.8300  -49.3072  -20.2374 C   0  0  0  0  0  0  0  0  0  0  0  0
    6.1267  -49.3777  -20.2310 O   0  0  0  0  0  0  0  0  0  0  0  0
    4.3734  -48.2587  -21.0531 N   0  0  0  0  0  0  0  0  0  0  0  0
    5.2515  -47.0604  -21.2721 C   0  0  0  0  0  0  0  0  0  0  0  0
    4.4612  -45.8039  -21.1054 C   0  0  0  0  0  0  0  0  0  0  0  0
    3.4612  -45.7340  -22.2415 C   0  0  0  0  0  0  0  0  0  0  0  0
    3.3489  -47.0773  -22.8950 C   0  0  0  0  0  0  0  0  0  0  0  0
    3.1497  -48.1100  -21.7604 C   0  0  0  0  0  0  0  0  0  0  0  0
    2.5720  -49.3417  -22.3601 C   0  0  0  0  0  0  0  0  0  0  0  0
    1.3641  -49.5429  -21.9633 O   0  0  0  0  0  0  0  0  0  0  0  0
    3.3101  -50.0688  -23.1976 O   0  0  0  0  0  0  0  0  0  0  0  0
    3.8005  -51.2876  -23.4905 C   0  0  0  0  0  0  0  0  0  0  0  0
    3.0525  -51.8098  -24.7274 C   0  0  0  0  0  0  0  0  0  0  0  0
    2.4550  -50.6679  -25.5062 C   0  0  0  0  0  0  0  0  0  0  0  0
    2.0281  -52.8614  -24.3860 C   0  0  0  0  0  0  0  0  0  0  0  0
    2.1812  -54.0176  -25.1851 O   0  0  0  0  0  0  0  0  0  0  0  0
    0.6743  -52.2986  -24.6511 C   0  0  0  0  0  0  0  0  0  0  0  0
   -0.4588  -53.2292  -24.5078 C   0  0  0  0  0  0  0  0  0  0  0  0
   -0.3875  -54.3402  -24.9688 O   0  0  0  0  0  0  0  0  0  0  0  0
    4.4725  -50.9282  -17.2437 H   0  0  0  0  0  0  0  0  0  0  0  0
    2.8758  -54.5636  -24.7075 H   0  0  0  0  0  0  0  0  0  0  0  0
    5.2602  -51.2846  -23.8979 C   0  0  0  0  0  0  0  0  0  0  0  0
    5.9458  -49.9662  -23.8698 C   0  0  0  0  0  0  0  0  0  0  0  0
    5.9220  -52.3407  -24.2592 C   0  0  0  0  0  0  0  0  0  0  0  0
   -2.2076  -51.2066  -22.0185 C   0  0  0  0  0  0  0  0  0  0  0  0
   -1.6083  -51.3023  -23.4092 C   0  0  0  0  0  0  0  0  0  0  0  0
   -0.9846  -52.0972  -17.5226 O   0  0  0  0  0  0  0  0  0  0  0  0
   -1.8352  -53.1701  -17.4653 C   0  0  0  0  0  0  0  0  0  0  0  0
   -0.7941  -49.7599  -17.2118 O   0  0  0  0  0  0  0  0  0  0  0  0
   -0.4603  -49.2392  -15.9425 C   0  0  0  0  0  0  0  0  0  0  0  0
 44 45  1  0  0  0
 45  1  1  0  0  0
  1  2  1  0  0  0
  2  3  2  0  0  0
  3  4  1  0  0  0
  3  5  1  0  0  0
  5  6  1  0  0  0
  6  7  1  0  0  0
  6  8  1  0  0  0
  8  9  1  0  0  0
  9 46  1  0  0  0
 46 47  1  0  0  0
  9 10  1  0  0  0
 10 11  1  0  0  0
 11 12  1  0  0  0
 12 13  1  0  0  0
 12 14  1  0  0  0
 14 15  1  0  0  0
 14 16  1  0  0  0
 16 17  1  0  0  0
 17 48  1  0  0  0
 48 49  1  0  0  0
 12 18  1  0  0  0
 18 19  2  0  0  0
 18 20  1  0  0  0
 20 21  2  0  0  0
 20 22  1  0  0  0
 22 23  1  0  0  0
 23 24  1  0  0  0
 24 25  1  0  0  0
 25 26  1  0  0  0
 26 27  1  0  0  0
 27 28  1  0  0  0
 28 29  2  0  0  0
 28 30  1  0  0  0
 30 31  1  0  0  0
 31 32  1  0  0  0
 32 33  1  0  0  0
 32 34  1  0  0  0
 34 35  1  0  0  0
 34 36  1  0  0  0
 36 37  1  0  0  0
 37 38  2  0  0  0
 31 41  1  0  0  0
 41 42  1  0  0  0
 41 43  2  0  0  0
 37  1  1  0  0  0
 17 10  1  0  0  0
 27 22  1  0  0  0
 13 39  1  0  0  0
 35 40  1  0  0  0
M  END
> <minimizedAffinity>
1.00848

> <CNNscore>
0.4224168956

> <CNNaffinity>
6.9833478928

> <CNN_VS>
2.9498841763

> <CNNaffinity_variance>
0.3727135062

$$$$
[H]O[C@]12O[C@]([H])([C@@]([H])(OC([H])([H])[H])C([H])([H])[C@@]([H])(C([H])([H])[H])C([H])([H])/C(C([H])([H])[H])=C(\[H])[C@@]([H])(C([H])([H])C([H])([H])[H])C(=O)C([H])([H])[C@@]([H])(O[H])[C@@]([H])(C([H])([H])[H])[C@@]([H])(C(=C([H])[H])C([H])([H])[H])OC(=O)[C@@]3([H])N(C(=O)C1=O)C([H])([H])C([H])([H])C([H])([H])C3([H])[H])[C@@]([H])(OC([H])([H])[H])C([H])([H])[C@@]2([H])C([H])([H])[H]


 49 51  0  0  0  0  0  0  0  0999 V2000
   -1.2643  -52.1952  -26.3375 C   0  0  0  0  0  0  0  0  0  0  0  0
   -1.5441  -53.5113  -25.7948 C   0  0  0  0  0  0  0  0  0  0  0  0
   -0.7686  -54.4062  -25.2234 C   0  0  0  0  0  0  0  0  0  0  0  0
   -1.4309  -55.7142  -24.7650 C   0  0  0  0  0  0  0  0  0  0  0  0
    0.6739  -54.3526  -24.9645 C   0  0  0  0  0  0  0  0  0  0  0  0
    1.1392  -53.5686  -23.7613 C   0  0  0  0  0  0  0  0  0  0  0  0
    2.5909  -53.9273  -23.5920 C   0  0  0  0  0  0  0  0  0  0  0  0
    0.2871  -53.5942  -22.5874 C   0  0  0  0  0  0  0  0  0  0  0  0
    0.8447  -53.9273  -21.2450 C   0  0  0  0  0  0  0  0  0  0  0  0
    1.4938  -52.8458  -20.4778 C   0  0  0  0  0  0  0  0  0  0  0  0
    2.4026  -52.0514  -21.1379 O   0  0  0  0  0  0  0  0  0  0  0  0
    3.3089  -51.4524  -20.3011 C   0  0  0  0  0  0  0  0  0  0  0  0
    3.9382  -52.5141  -19.5736 O   0  0  0  0  0  0  0  0  0  0  0  0
    2.7152  -50.5877  -19.2766 C   0  0  0  0  0  0  0  0  0  0  0  0
    3.6792  -50.3562  -18.1138 C   0  0  0  0  0  0  0  0  0  0  0  0
    1.5200  -51.2857  -18.6605 C   0  0  0  0  0  0  0  0  0  0  0  0
    0.5985  -51.8967  -19.7357 C   0  0  0  0  0  0  0  0  0  0  0  0
    4.3422  -50.8602  -21.1872 C   0  0  0  0  0  0  0  0  0  0  0  0
    4.9560  -51.8275  -21.8128 O   0  0  0  0  0  0  0  0  0  0  0  0
    4.7186  -49.5091  -21.4232 C   0  0  0  0  0  0  0  0  0  0  0  0
    6.0014  -49.3069  -21.4251 O   0  0  0  0  0  0  0  0  0  0  0  0
    4.0076  -48.3210  -21.6597 N   0  0  0  0  0  0  0  0  0  0  0  0
    4.6215  -47.0062  -21.2729 C   0  0  0  0  0  0  0  0  0  0  0  0
    3.6223  -46.1624  -20.5512 C   0  0  0  0  0  0  0  0  0  0  0  0
    2.5404  -45.7808  -21.5409 C   0  0  0  0  0  0  0  0  0  0  0  0
    2.6342  -46.6592  -22.7508 C   0  0  0  0  0  0  0  0  0  0  0  0
    2.7257  -48.1161  -22.2383 C   0  0  0  0  0  0  0  0  0  0  0  0
    2.3471  -49.0186  -23.3575 C   0  0  0  0  0  0  0  0  0  0  0  0
    1.2350  -49.6238  -23.1256 O   0  0  0  0  0  0  0  0  0  0  0  0
    3.1413  -49.1060  -24.4236 O   0  0  0  0  0  0  0  0  0  0  0  0
    3.8298  -49.9204  -25.2449 C   0  0  0  0  0  0  0  0  0  0  0  0
    3.0991  -49.9510  -26.5966 C   0  0  0  0  0  0  0  0  0  0  0  0
    2.2353  -48.7283  -26.7595 C   0  0  0  0  0  0  0  0  0  0  0  0
    2.3238  -51.2259  -26.8094 C   0  0  0  0  0  0  0  0  0  0  0  0
    2.6301  -51.8211  -28.0547 O   0  0  0  0  0  0  0  0  0  0  0  0
    0.8709  -50.8957  -26.8058 C   0  0  0  0  0  0  0  0  0  0  0  0
   -0.0495  -51.9968  -27.1388 C   0  0  0  0  0  0  0  0  0  0  0  0
    0.1951  -52.7264  -28.0660 O   0  0  0  0  0  0  0  0  0  0  0  0
    4.9146  -52.3671  -19.5492 H   0  0  0  0  0  0  0  0  0  0  0  0
    3.4515  -52.3705  -27.8759 H   0  0  0  0  0  0  0  0  0  0  0  0
    5.2252  -49.4296  -25.5743 C   0  0  0  0  0  0  0  0  0  0  0  0
    6.0476  -50.3205  -26.4338 C   0  0  0  0  0  0  0  0  0  0  0  0
    5.7241  -48.3065  -25.1574 C   0  0  0  0  0  0  0  0  0  0  0  0
   -2.7280  -50.3502  -25.6680 C   0  0  0  0  0  0  0  0  0  0  0  0
   -1.4536  -51.0804  -25.2868 C   0  0  0  0  0  0  0  0  0  0  0  0
   -0.2251  -54.3651  -20.4521 O   0  0  0  0  0  0  0  0  0  0  0  0
   -1.4472  -54.2935  -21.0681 C   0  0  0  0  0  0  0  0  0  0  0  0
   -0.4587  -52.4551  -19.0763 O   0  0  0  0  0  0  0  0  0  0  0  0
   -0.5748  -51.8207  -17.8202 C   0  0  0  0  0  0  0  0  0  0  0  0
 44 45  1  0  0  0
 45  1  1  0  0  0
  1  2  1  0  0  0
  2  3  2  0  0  0
  3  4  1  0  0  0
  3  5  1  0  0  0
  5  6  1  0  0  0
  6  7  1  0  0  0
  6  8  1  0  0  0
  8  9  1  0  0  0
  9 46  1  0  0  0
 46 47  1  0  0  0
  9 10  1  0  0  0
 10 11  1  0  0  0
 11 12  1  0  0  0
 12 13  1  0  0  0
 12 14  1  0  0  0
 14 15  1  0  0  0
 14 16  1  0  0  0
 16 17  1  0  0  0
 17 48  1  0  0  0
 48 49  1  0  0  0
 12 18  1  0  0  0
 18 19  2  0  0  0
 18 20  1  0  0  0
 20 21  2  0  0  0
 20 22  1  0  0  0
 22 23  1  0  0  0
 23 24  1  0  0  0
 24 25  1  0  0  0
 25 26  1  0  0  0
 26 27  1  0  0  0
 27 28  1  0  0  0
 28 29  2  0  0  0
 28 30  1  0  0  0
 30 31  1  0  0  0
 31 32  1  0  0  0
 32 33  1  0  0  0
 32 34  1  0  0  0
 34 35  1  0  0  0
 34 36  1  0  0  0
 36 37  1  0  0  0
 37 38  2  0  0  0
 31 41  1  0  0  0
 41 42  1  0  0  0
 41 43  2  0  0  0
 37  1  1  0  0  0
 17 10  1  0  0  0
 27 22  1  0  0  0
 13 39  1  0  0  0
 35 40  1  0  0  0
M  END
> <minimizedAffinity>
5.98710

> <CNNscore>
0.4199664891

> <CNNaffinity>
7.2261567116

> <CNN_VS>
3.0347435474

> <CNNaffinity_variance>
1.1419359446

$$$$
[H]O[C@]12O[C@]([H])([C@@]([H])(OC([H])([H])[H])C([H])([H])[C@@]([H])(C([H])([H])[H])C([H])([H])/C(C([H])([H])[H])=C(\[H])[C@@]([H])(C([H])([H])C([H])([H])[H])C(=O)C([H])([H])[C@@]([H])(O[H])[C@@]([H])(C([H])([H])[H])[C@@]([H])(C(=C([H])[H])C([H])([H])[H])OC(=O)[C@@]3([H])N(C(=O)C1=O)C([H])([H])C([H])([H])C([H])([H])C3([H])[H])[C@@]([H])(OC([H])([H])[H])C([H])([H])[C@@]2([H])C([H])([H])[H]


 49 51  0  0  0  0  0  0  0  0999 V2000
   -1.0110  -51.0171  -19.1409 C   0  0  0  0  0  0  0  0  0  0  0  0
    0.1720  -50.4531  -18.5185 C   0  0  0  0  0  0  0  0  0  0  0  0
    1.4456  -50.7654  -18.6143 C   0  0  0  0  0  0  0  0  0  0  0  0
    2.4344  -49.9284  -17.7888 C   0  0  0  0  0  0  0  0  0  0  0  0
    2.0826  -51.8297  -19.3968 C   0  0  0  0  0  0  0  0  0  0  0  0
    2.3061  -51.5769  -20.8682 C   0  0  0  0  0  0  0  0  0  0  0  0
    3.2110  -52.6880  -21.3280 C   0  0  0  0  0  0  0  0  0  0  0  0
    2.6350  -50.2199  -21.2619 C   0  0  0  0  0  0  0  0  0  0  0  0
    3.8139  -49.9406  -22.1314 C   0  0  0  0  0  0  0  0  0  0  0  0
    3.6474  -50.0881  -23.5910 C   0  0  0  0  0  0  0  0  0  0  0  0
    3.0320  -51.2293  -24.0513 O   0  0  0  0  0  0  0  0  0  0  0  0
    3.3645  -51.5416  -25.3445 C   0  0  0  0  0  0  0  0  0  0  0  0
    4.7933  -51.6419  -25.3729 O   0  0  0  0  0  0  0  0  0  0  0  0
    3.0354  -50.5043  -26.3270 C   0  0  0  0  0  0  0  0  0  0  0  0
    3.8423  -50.6768  -27.6132 C   0  0  0  0  0  0  0  0  0  0  0  0
    3.4472  -49.1504  -25.7860 C   0  0  0  0  0  0  0  0  0  0  0  0
    2.9906  -48.9559  -24.3257 C   0  0  0  0  0  0  0  0  0  0  0  0
    2.8279  -52.9058  -25.5780 C   0  0  0  0  0  0  0  0  0  0  0  0
    3.4556  -53.7384  -24.7928 O   0  0  0  0  0  0  0  0  0  0  0  0
    1.8186  -53.3829  -26.4592 C   0  0  0  0  0  0  0  0  0  0  0  0
    2.1437  -54.4605  -27.1067 O   0  0  0  0  0  0  0  0  0  0  0  0
    0.5261  -52.9478  -26.7956 N   0  0  0  0  0  0  0  0  0  0  0  0
   -0.0338  -53.2805  -28.1487 C   0  0  0  0  0  0  0  0  0  0  0  0
   -0.6606  -52.0701  -28.7598 C   0  0  0  0  0  0  0  0  0  0  0  0
   -1.8835  -51.7190  -27.9371 C   0  0  0  0  0  0  0  0  0  0  0  0
   -1.8301  -52.4401  -26.6251 C   0  0  0  0  0  0  0  0  0  0  0  0
   -0.4178  -52.1996  -26.0411 C   0  0  0  0  0  0  0  0  0  0  0  0
   -0.4742  -52.4757  -24.5813 C   0  0  0  0  0  0  0  0  0  0  0  0
   -0.3072  -51.4044  -23.8874 O   0  0  0  0  0  0  0  0  0  0  0  0
   -0.6814  -53.7224  -24.1597 O   0  0  0  0  0  0  0  0  0  0  0  0
   -0.2463  -54.7286  -23.3786 C   0  0  0  0  0  0  0  0  0  0  0  0
   -1.2193  -54.8595  -22.1962 C   0  0  0  0  0  0  0  0  0  0  0  0
   -2.5558  -54.2573  -22.5409 C   0  0  0  0  0  0  0  0  0  0  0  0
   -0.6569  -54.2974  -20.9158 C   0  0  0  0  0  0  0  0  0  0  0  0
   -0.7576  -55.2226  -19.8514 O   0  0  0  0  0  0  0  0  0  0  0  0
   -1.4482  -53.0898  -20.5480 C   0  0  0  0  0  0  0  0  0  0  0  0
   -1.1359  -52.4767  -19.2452 C   0  0  0  0  0  0  0  0  0  0  0  0
   -0.9877  -53.1723  -18.2726 O   0  0  0  0  0  0  0  0  0  0  0  0
    5.0599  -52.4478  -25.8779 H   0  0  0  0  0  0  0  0  0  0  0  0
    0.0614  -55.7972  -19.9389 H   0  0  0  0  0  0  0  0  0  0  0  0
   -0.2729  -56.0872  -24.0495 C   0  0  0  0  0  0  0  0  0  0  0  0
    0.2152  -57.2303  -23.2345 C   0  0  0  0  0  0  0  0  0  0  0  0
   -0.6868  -56.2978  -25.2612 C   0  0  0  0  0  0  0  0  0  0  0  0
   -0.1146  -49.5631  -20.8951 C   0  0  0  0  0  0  0  0  0  0  0  0
   -1.3644  -50.3093  -20.4663 C   0  0  0  0  0  0  0  0  0  0  0  0
    4.1699  -48.6008  -21.9241 O   0  0  0  0  0  0  0  0  0  0  0  0
    5.5178  -48.3614  -21.9879 C   0  0  0  0  0  0  0  0  0  0  0  0
    3.3713  -47.6970  -23.9591 O   0  0  0  0  0  0  0  0  0  0  0  0
    2.2107  -46.8980  -23.8697 C   0  0  0  0  0  0  0  0  0  0  0  0
 44 45  1  0  0  0
 45  1  1  0  0  0
  1  2  1  0  0  0
  2  3  2  0  0  0
  3  4  1  0  0  0
  3  5  1  0  0  0
  5  6  1  0  0  0
  6  7  1  0  0  0
  6  8  1  0  0  0
  8  9  1  0  0  0
  9 46  1  0  0  0
 46 47  1  0  0  0
  9 10  1  0  0  0
 10 11  1  0  0  0
 11 12  1  0  0  0
 12 13  1  0  0  0
 12 14  1  0  0  0
 14 15  1  0  0  0
 14 16  1  0  0  0
 16 17  1  0  0  0
 17 48  1  0  0  0
 48 49  1  0  0  0
 12 18  1  0  0  0
 18 19  2  0  0  0
 18 20  1  0  0  0
 20 21  2  0  0  0
 20 22  1  0  0  0
 22 23  1  0  0  0
 23 24  1  0  0  0
 24 25  1  0  0  0
 25 26  1  0  0  0
 26 27  1  0  0  0
 27 28  1  0  0  0
 28 29  2  0  0  0
 28 30  1  0  0  0
 30 31  1  0  0  0
 31 32  1  0  0  0
 32 33  1  0  0  0
 32 34  1  0  0  0
 34 35  1  0  0  0
 34 36  1  0  0  0
 36 37  1  0  0  0
 37 38  2  0  0  0
 31 41  1  0  0  0
 41 42  1  0  0  0
 41 43  2  0  0  0
 37  1  1  0  0  0
 17 10  1  0  0  0
 27 22  1  0  0  0
 13 39  1  0  0  0
 35 40  1  0  0  0
M  END
> <minimizedAffinity>
8.27767

> <CNNscore>
0.4178737700

> <CNNaffinity>
7.0298681259

> <CNN_VS>
2.9375975132

> <CNNaffinity_variance>
0.5189021230

$$$$
[H]O[C@]12O[C@]([H])([C@@]([H])(OC([H])([H])[H])C([H])([H])[C@@]([H])(C([H])([H])[H])C([H])([H])/C(C([H])([H])[H])=C(\[H])[C@@]([H])(C([H])([H])C([H])([H])[H])C(=O)C([H])([H])[C@@]([H])(O[H])[C@@]([H])(C([H])([H])[H])[C@@]([H])(C(=C([H])[H])C([H])([H])[H])OC(=O)[C@@]3([H])N(C(=O)C1=O)C([H])([H])C([H])([H])C([H])([H])C3([H])[H])[C@@]([H])(OC([H])([H])[H])C([H])([H])[C@@]2([H])C([H])([H])[H]


 49 51  0  0  0  0  0  0  0  0999 V2000
   -2.4446  -52.4898  -21.6148 C   0  0  0  0  0  0  0  0  0  0  0  0
   -2.4656  -53.0075  -20.2597 C   0  0  0  0  0  0  0  0  0  0  0  0
   -1.5131  -53.4865  -19.4902 C   0  0  0  0  0  0  0  0  0  0  0  0
   -1.9186  -53.9509  -18.0832 C   0  0  0  0  0  0  0  0  0  0  0  0
   -0.0873  -53.6658  -19.7830 C   0  0  0  0  0  0  0  0  0  0  0  0
    0.8049  -52.4524  -19.6811 C   0  0  0  0  0  0  0  0  0  0  0  0
    2.2100  -52.9871  -19.7475 C   0  0  0  0  0  0  0  0  0  0  0  0
    0.4890  -51.4862  -18.6460 C   0  0  0  0  0  0  0  0  0  0  0  0
    1.5386  -51.0075  -17.7010 C   0  0  0  0  0  0  0  0  0  0  0  0
    2.4219  -49.9113  -18.1457 C   0  0  0  0  0  0  0  0  0  0  0  0
    2.9816  -50.0106  -19.3985 O   0  0  0  0  0  0  0  0  0  0  0  0
    4.1360  -49.2835  -19.5367 C   0  0  0  0  0  0  0  0  0  0  0  0
    5.0188  -49.7423  -18.5059 O   0  0  0  0  0  0  0  0  0  0  0  0
    3.9841  -47.8452  -19.2965 C   0  0  0  0  0  0  0  0  0  0  0  0
    5.3266  -47.1863  -18.9823 C   0  0  0  0  0  0  0  0  0  0  0  0
    3.1426  -47.6288  -18.0554 C   0  0  0  0  0  0  0  0  0  0  0  0
    1.8798  -48.5142  -18.0600 C   0  0  0  0  0  0  0  0  0  0  0  0
    4.7235  -49.7066  -20.8326 C   0  0  0  0  0  0  0  0  0  0  0  0
    5.0537  -50.9665  -20.7467 O   0  0  0  0  0  0  0  0  0  0  0  0
    4.9542  -48.9917  -22.0403 C   0  0  0  0  0  0  0  0  0  0  0  0
    6.1276  -49.1902  -22.5601 O   0  0  0  0  0  0  0  0  0  0  0  0
    4.1893  -48.1039  -22.8147 N   0  0  0  0  0  0  0  0  0  0  0  0
    4.8856  -47.0767  -23.6603 C   0  0  0  0  0  0  0  0  0  0  0  0
    4.2418  -45.7404  -23.4838 C   0  0  0  0  0  0  0  0  0  0  0  0
    2.8501  -45.8171  -24.0781 C   0  0  0  0  0  0  0  0  0  0  0  0
    2.4698  -47.2515  -24.2828 C   0  0  0  0  0  0  0  0  0  0  0  0
    2.7800  -47.9886  -22.9584 C   0  0  0  0  0  0  0  0  0  0  0  0
    2.0025  -49.2558  -22.9481 C   0  0  0  0  0  0  0  0  0  0  0  0
    1.0833  -49.2430  -22.0471 O   0  0  0  0  0  0  0  0  0  0  0  0
    2.3098  -50.2180  -23.8169 O   0  0  0  0  0  0  0  0  0  0  0  0
    2.6286  -51.5145  -23.9875 C   0  0  0  0  0  0  0  0  0  0  0  0
    1.4221  -52.2135  -24.6339 C   0  0  0  0  0  0  0  0  0  0  0  0
    0.5456  -51.2127  -25.3394 C   0  0  0  0  0  0  0  0  0  0  0  0
    0.6460  -53.0569  -23.6551 C   0  0  0  0  0  0  0  0  0  0  0  0
    0.4424  -54.3682  -24.1431 O   0  0  0  0  0  0  0  0  0  0  0  0
   -0.6911  -52.4307  -23.4557 C   0  0  0  0  0  0  0  0  0  0  0  0
   -1.6507  -53.1886  -22.6340 C   0  0  0  0  0  0  0  0  0  0  0  0
   -1.7828  -54.3744  -22.8023 O   0  0  0  0  0  0  0  0  0  0  0  0
    5.9223  -49.8817  -18.8798 H   0  0  0  0  0  0  0  0  0  0  0  0
    1.2758  -54.8653  -23.8845 H   0  0  0  0  0  0  0  0  0  0  0  0
    3.7709  -51.7476  -24.9557 C   0  0  0  0  0  0  0  0  0  0  0  0
    5.0223  -50.9922  -24.6870 C   0  0  0  0  0  0  0  0  0  0  0  0
    3.7148  -52.5477  -25.9758 C   0  0  0  0  0  0  0  0  0  0  0  0
   -3.4861  -50.3607  -22.2287 C   0  0  0  0  0  0  0  0  0  0  0  0
   -2.2190  -50.9633  -21.6509 C   0  0  0  0  0  0  0  0  0  0  0  0
    0.8782  -50.5243  -16.5630 O   0  0  0  0  0  0  0  0  0  0  0  0
   -0.3268  -51.1276  -16.3139 C   0  0  0  0  0  0  0  0  0  0  0  0
    1.1799  -48.2067  -16.9287 O   0  0  0  0  0  0  0  0  0  0  0  0
    2.0956  -47.7357  -15.9626 C   0  0  0  0  0  0  0  0  0  0  0  0
 44 45  1  0  0  0
 45  1  1  0  0  0
  1  2  1  0  0  0
  2  3  2  0  0  0
  3  4  1  0  0  0
  3  5  1  0  0  0
  5  6  1  0  0  0
  6  7  1  0  0  0
  6  8  1  0  0  0
  8  9  1  0  0  0
  9 46  1  0  0  0
 46 47  1  0  0  0
  9 10  1  0  0  0
 10 11  1  0  0  0
 11 12  1  0  0  0
 12 13  1  0  0  0
 12 14  1  0  0  0
 14 15  1  0  0  0
 14 16  1  0  0  0
 16 17  1  0  0  0
 17 48  1  0  0  0
 48 49  1  0  0  0
 12 18  1  0  0  0
 18 19  2  0  0  0
 18 20  1  0  0  0
 20 21  2  0  0  0
 20 22  1  0  0  0
 22 23  1  0  0  0
 23 24  1  0  0  0
 24 25  1  0  0  0
 25 26  1  0  0  0
 26 27  1  0  0  0
 27 28  1  0  0  0
 28 29  2  0  0  0
 28 30  1  0  0  0
 30 31  1  0  0  0
 31 32  1  0  0  0
 32 33  1  0  0  0
 32 34  1  0  0  0
 34 35  1  0  0  0
 34 36  1  0  0  0
 36 37  1  0  0  0
 37 38  2  0  0  0
 31 41  1  0  0  0
 41 42  1  0  0  0
 41 43  2  0  0  0
 37  1  1  0  0  0
 17 10  1  0  0  0
 27 22  1  0  0  0
 13 39  1  0  0  0
 35 40  1  0  0  0
M  END
> <minimizedAffinity>
2.56079

> <CNNscore>
0.4112447798

> <CNNaffinity>
6.7476677895

> <CNN_VS>
2.7749431133

> <CNNaffinity_variance>
0.4492529035

$$$$
[H]O[C@]12O[C@]([H])([C@@]([H])(OC([H])([H])[H])C([H])([H])[C@@]([H])(C([H])([H])[H])C([H])([H])/C(C([H])([H])[H])=C(\[H])[C@@]([H])(C([H])([H])C([H])([H])[H])C(=O)C([H])([H])[C@@]([H])(O[H])[C@@]([H])(C([H])([H])[H])[C@@]([H])(C(=C([H])[H])C([H])([H])[H])OC(=O)[C@@]3([H])N(C(=O)C1=O)C([H])([H])C([H])([H])C([H])([H])C3([H])[H])[C@@]([H])(OC([H])([H])[H])C([H])([H])[C@@]2([H])C([H])([H])[H]


 49 51  0  0  0  0  0  0  0  0999 V2000
   -1.5229  -53.2720  -22.9381 C   0  0  0  0  0  0  0  0  0  0  0  0
   -1.1013  -53.7662  -21.6409 C   0  0  0  0  0  0  0  0  0  0  0  0
    0.0788  -54.1150  -21.1776 C   0  0  0  0  0  0  0  0  0  0  0  0
    0.1423  -54.6015  -19.7220 C   0  0  0  0  0  0  0  0  0  0  0  0
    1.3763  -54.1268  -21.8612 C   0  0  0  0  0  0  0  0  0  0  0  0
    2.1094  -52.8137  -21.9914 C   0  0  0  0  0  0  0  0  0  0  0  0
    3.4932  -53.1771  -22.4582 C   0  0  0  0  0  0  0  0  0  0  0  0
    1.9829  -51.8755  -20.8920 C   0  0  0  0  0  0  0  0  0  0  0  0
    3.1900  -51.2591  -20.2703 C   0  0  0  0  0  0  0  0  0  0  0  0
    3.7757  -50.0723  -20.9247 C   0  0  0  0  0  0  0  0  0  0  0  0
    3.9697  -50.1243  -22.2858 O   0  0  0  0  0  0  0  0  0  0  0  0
    4.9436  -49.2664  -22.7285 C   0  0  0  0  0  0  0  0  0  0  0  0
    6.1281  -49.5991  -21.9946 O   0  0  0  0  0  0  0  0  0  0  0  0
    4.6941  -47.8529  -22.4296 C   0  0  0  0  0  0  0  0  0  0  0  0
    5.9820  -47.0328  -22.4921 C   0  0  0  0  0  0  0  0  0  0  0  0
    4.2143  -47.7187  -20.9988 C   0  0  0  0  0  0  0  0  0  0  0  0
    3.1162  -48.7491  -20.6655 C   0  0  0  0  0  0  0  0  0  0  0  0
    5.1908  -49.6372  -24.1445 C   0  0  0  0  0  0  0  0  0  0  0  0
    5.6801  -50.8468  -24.1772 O   0  0  0  0  0  0  0  0  0  0  0  0
    4.9866  -48.9197  -25.3555 C   0  0  0  0  0  0  0  0  0  0  0  0
    5.9824  -48.9845  -26.1865 O   0  0  0  0  0  0  0  0  0  0  0  0
    3.9349  -48.1427  -25.8686 N   0  0  0  0  0  0  0  0  0  0  0  0
    4.2384  -47.0534  -26.8567 C   0  0  0  0  0  0  0  0  0  0  0  0
    3.5147  -45.8012  -26.4830 C   0  0  0  0  0  0  0  0  0  0  0  0
    2.0319  -46.0539  -26.6651 C   0  0  0  0  0  0  0  0  0  0  0  0
    1.7839  -47.5268  -26.7809 C   0  0  0  0  0  0  0  0  0  0  0  0
    2.5385  -48.1996  -25.6098 C   0  0  0  0  0  0  0  0  0  0  0  0
    1.9525  -49.5505  -25.4050 C   0  0  0  0  0  0  0  0  0  0  0  0
    1.3279  -49.6333  -24.2825 O   0  0  0  0  0  0  0  0  0  0  0  0
    2.1169  -50.4830  -26.3423 O   0  0  0  0  0  0  0  0  0  0  0  0
    2.5279  -51.7346  -26.6186 C   0  0  0  0  0  0  0  0  0  0  0  0
    1.2813  -52.5837  -26.9137 C   0  0  0  0  0  0  0  0  0  0  0  0
    0.1291  -51.7068  -27.3275 C   0  0  0  0  0  0  0  0  0  0  0  0
    0.9172  -53.4979  -25.7721 C   0  0  0  0  0  0  0  0  0  0  0  0
    0.7434  -54.8319  -26.2071 O   0  0  0  0  0  0  0  0  0  0  0  0
   -0.3755  -53.0333  -25.1950 C   0  0  0  0  0  0  0  0  0  0  0  0
   -0.9686  -53.8871  -24.1512 C   0  0  0  0  0  0  0  0  0  0  0  0
   -0.9996  -55.0828  -24.2971 O   0  0  0  0  0  0  0  0  0  0  0  0
    6.9006  -49.6353  -22.6090 H   0  0  0  0  0  0  0  0  0  0  0  0
    1.6691  -55.2212  -26.2012 H   0  0  0  0  0  0  0  0  0  0  0  0
    3.3726  -51.8449  -27.8719 C   0  0  0  0  0  0  0  0  0  0  0  0
    3.2756  -53.1272  -28.6170 C   0  0  0  0  0  0  0  0  0  0  0  0
    4.1524  -50.9068  -28.3146 C   0  0  0  0  0  0  0  0  0  0  0  0
   -1.2615  -51.2443  -21.5911 C   0  0  0  0  0  0  0  0  0  0  0  0
   -1.5007  -51.7302  -23.0085 C   0  0  0  0  0  0  0  0  0  0  0  0
    2.8221  -50.8399  -18.9843 O   0  0  0  0  0  0  0  0  0  0  0  0
    1.8618  -51.6185  -18.3929 C   0  0  0  0  0  0  0  0  0  0  0  0
    2.7297  -48.5092  -19.3781 O   0  0  0  0  0  0  0  0  0  0  0  0
    1.7444  -47.4981  -19.3987 C   0  0  0  0  0  0  0  0  0  0  0  0
 44 45  1  0  0  0
 45  1  1  0  0  0
  1  2  1  0  0  0
  2  3  2  0  0  0
  3  4  1  0  0  0
  3  5  1  0  0  0
  5  6  1  0  0  0
  6  7  1  0  0  0
  6  8  1  0  0  0
  8  9  1  0  0  0
  9 46  1  0  0  0
 46 47  1  0  0  0
  9 10  1  0  0  0
 10 11  1  0  0  0
 11 12  1  0  0  0
 12 13  1  0  0  0
 12 14  1  0  0  0
 14 15  1  0  0  0
 14 16  1  0  0  0
 16 17  1  0  0  0
 17 48  1  0  0  0
 48 49  1  0  0  0
 12 18  1  0  0  0
 18 19  2  0  0  0
 18 20  1  0  0  0
 20 21  2  0  0  0
 20 22  1  0  0  0
 22 23  1  0  0  0
 23 24  1  0  0  0
 24 25  1  0  0  0
 25 26  1  0  0  0
 26 27  1  0  0  0
 27 28  1  0  0  0
 28 29  2  0  0  0
 28 30  1  0  0  0
 30 31  1  0  0  0
 31 32  1  0  0  0
 32 33  1  0  0  0
 32 34  1  0  0  0
 34 35  1  0  0  0
 34 36  1  0  0  0
 36 37  1  0  0  0
 37 38  2  0  0  0
 31 41  1  0  0  0
 41 42  1  0  0  0
 41 43  2  0  0  0
 37  1  1  0  0  0
 17 10  1  0  0  0
 27 22  1  0  0  0
 13 39  1  0  0  0
 35 40  1  0  0  0
M  END
> <minimizedAffinity>
5.93432

> <CNNscore>
0.4061559737

> <CNNaffinity>
6.7556524277

> <CNN_VS>
2.7438485622

> <CNNaffinity_variance>
1.1291077137

$$$$
[H]O[C@]12O[C@]([H])([C@@]([H])(OC([H])([H])[H])C([H])([H])[C@@]([H])(C([H])([H])[H])C([H])([H])/C(C([H])([H])[H])=C(\[H])[C@@]([H])(C([H])([H])C([H])([H])[H])C(=O)C([H])([H])[C@@]([H])(O[H])[C@@]([H])(C([H])([H])[H])[C@@]([H])(C(=C([H])[H])C([H])([H])[H])OC(=O)[C@@]3([H])N(C(=O)C1=O)C([H])([H])C([H])([H])C([H])([H])C3([H])[H])[C@@]([H])(OC([H])([H])[H])C([H])([H])[C@@]2([H])C([H])([H])[H]


 49 51  0  0  0  0  0  0  0  0999 V2000
    1.4492  -54.2845  -25.5611 C   0  0  0  0  0  0  0  0  0  0  0  0
    1.2122  -53.6626  -26.8503 C   0  0  0  0  0  0  0  0  0  0  0  0
    0.6740  -52.5094  -27.1809 C   0  0  0  0  0  0  0  0  0  0  0  0
    0.5880  -52.1822  -28.6793 C   0  0  0  0  0  0  0  0  0  0  0  0
    0.1129  -51.4666  -26.3157 C   0  0  0  0  0  0  0  0  0  0  0  0
    1.0795  -50.5220  -25.6430 C   0  0  0  0  0  0  0  0  0  0  0  0
    0.2263  -49.4194  -25.0765 C   0  0  0  0  0  0  0  0  0  0  0  0
    2.2679  -50.1527  -26.3886 C   0  0  0  0  0  0  0  0  0  0  0  0
    2.6532  -48.7215  -26.5532 C   0  0  0  0  0  0  0  0  0  0  0  0
    3.4084  -48.0782  -25.4597 C   0  0  0  0  0  0  0  0  0  0  0  0
    2.9489  -48.2569  -24.1752 O   0  0  0  0  0  0  0  0  0  0  0  0
    3.3451  -47.2660  -23.3141 C   0  0  0  0  0  0  0  0  0  0  0  0
    2.8913  -46.0355  -23.8906 O   0  0  0  0  0  0  0  0  0  0  0  0
    4.7977  -47.1139  -23.1852 C   0  0  0  0  0  0  0  0  0  0  0  0
    5.1686  -45.7379  -22.6336 C   0  0  0  0  0  0  0  0  0  0  0  0
    5.4329  -47.1682  -24.5596 C   0  0  0  0  0  0  0  0  0  0  0  0
    4.8846  -48.3421  -25.3963 C   0  0  0  0  0  0  0  0  0  0  0  0
    2.5623  -47.4787  -22.0709 C   0  0  0  0  0  0  0  0  0  0  0  0
    1.2987  -47.2919  -22.3394 O   0  0  0  0  0  0  0  0  0  0  0  0
    2.9655  -47.8247  -20.7516 C   0  0  0  0  0  0  0  0  0  0  0  0
    2.4033  -47.1154  -19.8204 O   0  0  0  0  0  0  0  0  0  0  0  0
    3.8485  -48.7760  -20.2148 N   0  0  0  0  0  0  0  0  0  0  0  0
    4.5074  -48.5055  -18.8927 C   0  0  0  0  0  0  0  0  0  0  0  0
    5.9665  -48.8159  -18.9700 C   0  0  0  0  0  0  0  0  0  0  0  0
    6.1104  -50.3137  -19.1477 C   0  0  0  0  0  0  0  0  0  0  0  0
    4.7935  -50.8999  -19.5554 C   0  0  0  0  0  0  0  0  0  0  0  0
    4.2635  -50.0362  -20.7245 C   0  0  0  0  0  0  0  0  0  0  0  0
    3.2396  -50.8314  -21.4522 C   0  0  0  0  0  0  0  0  0  0  0  0
    3.6357  -51.1489  -22.6351 O   0  0  0  0  0  0  0  0  0  0  0  0
    2.0879  -51.1221  -20.8488 O   0  0  0  0  0  0  0  0  0  0  0  0
    0.7443  -51.0809  -20.9181 C   0  0  0  0  0  0  0  0  0  0  0  0
    0.2413  -52.5163  -21.1388 C   0  0  0  0  0  0  0  0  0  0  0  0
    1.2713  -53.5148  -20.6805 C   0  0  0  0  0  0  0  0  0  0  0  0
   -0.1986  -52.7660  -22.5586 C   0  0  0  0  0  0  0  0  0  0  0  0
   -1.4923  -53.3340  -22.6116 O   0  0  0  0  0  0  0  0  0  0  0  0
    0.7506  -53.7324  -23.1791 C   0  0  0  0  0  0  0  0  0  0  0  0
    0.4063  -54.2096  -24.5297 C   0  0  0  0  0  0  0  0  0  0  0  0
   -0.7252  -54.5386  -24.7818 O   0  0  0  0  0  0  0  0  0  0  0  0
    2.4762  -45.4743  -23.1918 H   0  0  0  0  0  0  0  0  0  0  0  0
   -2.1146  -52.5467  -22.5753 H   0  0  0  0  0  0  0  0  0  0  0  0
    0.0731  -50.6323  -19.6356 C   0  0  0  0  0  0  0  0  0  0  0  0
    0.4300  -49.2739  -19.1494 C   0  0  0  0  0  0  0  0  0  0  0  0
   -0.7709  -51.3506  -18.9605 C   0  0  0  0  0  0  0  0  0  0  0  0
    3.5368  -53.1060  -26.0586 C   0  0  0  0  0  0  0  0  0  0  0  0
    2.8456  -53.9435  -24.9988 C   0  0  0  0  0  0  0  0  0  0  0  0
    3.4812  -48.6453  -27.6816 O   0  0  0  0  0  0  0  0  0  0  0  0
    3.4436  -47.4361  -28.3254 C   0  0  0  0  0  0  0  0  0  0  0  0
    5.5530  -48.3223  -26.5867 O   0  0  0  0  0  0  0  0  0  0  0  0
    6.1282  -49.5962  -26.7863 C   0  0  0  0  0  0  0  0  0  0  0  0
 44 45  1  0  0  0
 45  1  1  0  0  0
  1  2  1  0  0  0
  2  3  2  0  0  0
  3  4  1  0  0  0
  3  5  1  0  0  0
  5  6  1  0  0  0
  6  7  1  0  0  0
  6  8  1  0  0  0
  8  9  1  0  0  0
  9 46  1  0  0  0
 46 47  1  0  0  0
  9 10  1  0  0  0
 10 11  1  0  0  0
 11 12  1  0  0  0
 12 13  1  0  0  0
 12 14  1  0  0  0
 14 15  1  0  0  0
 14 16  1  0  0  0
 16 17  1  0  0  0
 17 48  1  0  0  0
 48 49  1  0  0  0
 12 18  1  0  0  0
 18 19  2  0  0  0
 18 20  1  0  0  0
 20 21  2  0  0  0
 20 22  1  0  0  0
 22 23  1  0  0  0
 23 24  1  0  0  0
 24 25  1  0  0  0
 25 26  1  0  0  0
 26 27  1  0  0  0
 27 28  1  0  0  0
 28 29  2  0  0  0
 28 30  1  0  0  0
 30 31  1  0  0  0
 31 32  1  0  0  0
 32 33  1  0  0  0
 32 34  1  0  0  0
 34 35  1  0  0  0
 34 36  1  0  0  0
 36 37  1  0  0  0
 37 38  2  0  0  0
 31 41  1  0  0  0
 41 42  1  0  0  0
 41 43  2  0  0  0
 37  1  1  0  0  0
 17 10  1  0  0  0
 27 22  1  0  0  0
 13 39  1  0  0  0
 35 40  1  0  0  0
M  END
> <minimizedAffinity>
6.45363

> <CNNscore>
0.4042363465

> <CNNaffinity>
6.9216284752

> <CNN_VS>
2.7979738712

> <CNNaffinity_variance>
1.2581542730

$$$$
[H]O[C@]12O[C@]([H])([C@@]([H])(OC([H])([H])[H])C([H])([H])[C@@]([H])(C([H])([H])[H])C([H])([H])/C(C([H])([H])[H])=C(\[H])[C@@]([H])(C([H])([H])C([H])([H])[H])C(=O)C([H])([H])[C@@]([H])(O[H])[C@@]([H])(C([H])([H])[H])[C@@]([H])(C(=C([H])[H])C([H])([H])[H])OC(=O)[C@@]3([H])N(C(=O)C1=O)C([H])([H])C([H])([H])C([H])([H])C3([H])[H])[C@@]([H])(OC([H])([H])[H])C([H])([H])[C@@]2([H])C([H])([H])[H]


 49 51  0  0  0  0  0  0  0  0999 V2000
    0.7548  -54.7924  -24.3976 C   0  0  0  0  0  0  0  0  0  0  0  0
    0.4238  -54.2994  -25.7213 C   0  0  0  0  0  0  0  0  0  0  0  0
   -0.1073  -53.1670  -26.1269 C   0  0  0  0  0  0  0  0  0  0  0  0
   -0.3148  -52.9945  -27.6392 C   0  0  0  0  0  0  0  0  0  0  0  0
   -0.5595  -52.0190  -25.3342 C   0  0  0  0  0  0  0  0  0  0  0  0
    0.4896  -51.0474  -24.8503 C   0  0  0  0  0  0  0  0  0  0  0  0
   -0.2779  -49.8598  -24.3352 C   0  0  0  0  0  0  0  0  0  0  0  0
    1.6183  -50.8036  -25.7285 C   0  0  0  0  0  0  0  0  0  0  0  0
    2.0294  -49.4132  -26.0771 C   0  0  0  0  0  0  0  0  0  0  0  0
    2.8962  -48.6891  -25.1263 C   0  0  0  0  0  0  0  0  0  0  0  0
    2.5462  -48.7153  -23.7960 O   0  0  0  0  0  0  0  0  0  0  0  0
    3.0453  -47.6560  -23.0823 C   0  0  0  0  0  0  0  0  0  0  0  0
    2.5789  -46.4757  -23.7468 O   0  0  0  0  0  0  0  0  0  0  0  0
    4.5074  -47.5472  -23.0931 C   0  0  0  0  0  0  0  0  0  0  0  0
    4.9655  -46.1366  -22.7251 C   0  0  0  0  0  0  0  0  0  0  0  0
    5.0177  -47.7686  -24.5023 C   0  0  0  0  0  0  0  0  0  0  0  0
    4.3640  -49.0013  -25.1594 C   0  0  0  0  0  0  0  0  0  0  0  0
    2.3687  -47.7079  -21.7620 C   0  0  0  0  0  0  0  0  0  0  0  0
    1.0925  -47.5017  -21.9415 O   0  0  0  0  0  0  0  0  0  0  0  0
    2.8759  -47.9299  -20.4519 C   0  0  0  0  0  0  0  0  0  0  0  0
    2.4186  -47.1065  -19.5579 O   0  0  0  0  0  0  0  0  0  0  0  0
    3.7744  -48.8534  -19.8925 N   0  0  0  0  0  0  0  0  0  0  0  0
    4.5544  -48.4722  -18.6672 C   0  0  0  0  0  0  0  0  0  0  0  0
    5.9914  -48.8448  -18.8334 C   0  0  0  0  0  0  0  0  0  0  0  0
    6.0752  -50.3573  -18.8613 C   0  0  0  0  0  0  0  0  0  0  0  0
    4.7110  -50.9318  -19.0915 C   0  0  0  0  0  0  0  0  0  0  0  0
    4.1060  -50.1748  -20.2975 C   0  0  0  0  0  0  0  0  0  0  0  0
    2.9993  -51.0015  -20.8472 C   0  0  0  0  0  0  0  0  0  0  0  0
    3.2805  -51.4554  -22.0184 O   0  0  0  0  0  0  0  0  0  0  0  0
    1.8970  -51.1834  -20.1213 O   0  0  0  0  0  0  0  0  0  0  0  0
    0.5543  -51.0981  -20.0813 C   0  0  0  0  0  0  0  0  0  0  0  0
   -0.0080  -52.5283  -20.1040 C   0  0  0  0  0  0  0  0  0  0  0  0
    1.0285  -53.5124  -19.6298 C   0  0  0  0  0  0  0  0  0  0  0  0
   -0.5779  -52.9074  -21.4468 C   0  0  0  0  0  0  0  0  0  0  0  0
   -1.8873  -53.4277  -21.3296 O   0  0  0  0  0  0  0  0  0  0  0  0
    0.2844  -53.9689  -22.0380 C   0  0  0  0  0  0  0  0  0  0  0  0
   -0.1909  -54.5705  -23.2959 C   0  0  0  0  0  0  0  0  0  0  0  0
   -1.3493  -54.8802  -23.4152 O   0  0  0  0  0  0  0  0  0  0  0  0
    2.2433  -45.8293  -23.0797 H   0  0  0  0  0  0  0  0  0  0  0  0
   -2.4808  -52.6175  -21.3255 H   0  0  0  0  0  0  0  0  0  0  0  0
    0.0116  -50.4930  -18.8022 C   0  0  0  0  0  0  0  0  0  0  0  0
   -0.8713  -51.3671  -17.9866 C   0  0  0  0  0  0  0  0  0  0  0  0
    0.2697  -49.2882  -18.3949 C   0  0  0  0  0  0  0  0  0  0  0  0
    2.7503  -53.5565  -25.0940 C   0  0  0  0  0  0  0  0  0  0  0  0
    2.2045  -54.4485  -23.9945 C   0  0  0  0  0  0  0  0  0  0  0  0
    2.7570  -49.4867  -27.2729 O   0  0  0  0  0  0  0  0  0  0  0  0
    3.1424  -50.7555  -27.6189 C   0  0  0  0  0  0  0  0  0  0  0  0
    4.9256  -49.1312  -26.3972 O   0  0  0  0  0  0  0  0  0  0  0  0
    5.3916  -47.8612  -26.8012 C   0  0  0  0  0  0  0  0  0  0  0  0
 44 45  1  0  0  0
 45  1  1  0  0  0
  1  2  1  0  0  0
  2  3  2  0  0  0
  3  4  1  0  0  0
  3  5  1  0  0  0
  5  6  1  0  0  0
  6  7  1  0  0  0
  6  8  1  0  0  0
  8  9  1  0  0  0
  9 46  1  0  0  0
 46 47  1  0  0  0
  9 10  1  0  0  0
 10 11  1  0  0  0
 11 12  1  0  0  0
 12 13  1  0  0  0
 12 14  1  0  0  0
 14 15  1  0  0  0
 14 16  1  0  0  0
 16 17  1  0  0  0
 17 48  1  0  0  0
 48 49  1  0  0  0
 12 18  1  0  0  0
 18 19  2  0  0  0
 18 20  1  0  0  0
 20 21  2  0  0  0
 20 22  1  0  0  0
 22 23  1  0  0  0
 23 24  1  0  0  0
 24 25  1  0  0  0
 25 26  1  0  0  0
 26 27  1  0  0  0
 27 28  1  0  0  0
 28 29  2  0  0  0
 28 30  1  0  0  0
 30 31  1  0  0  0
 31 32  1  0  0  0
 32 33  1  0  0  0
 32 34  1  0  0  0
 34 35  1  0  0  0
 34 36  1  0  0  0
 36 37  1  0  0  0
 37 38  2  0  0  0
 31 41  1  0  0  0
 41 42  1  0  0  0
 41 43  2  0  0  0
 37  1  1  0  0  0
 17 10  1  0  0  0
 27 22  1  0  0  0
 13 39  1  0  0  0
 35 40  1  0  0  0
M  END
> <minimizedAffinity>
8.32495

> <CNNscore>
0.4033259451

> <CNNaffinity>
6.6959486008

> <CNN_VS>
2.7006497383

> <CNNaffinity_variance>
0.6740104556

$$$$
[H]O[C@]12O[C@]([H])([C@@]([H])(OC([H])([H])[H])C([H])([H])[C@@]([H])(C([H])([H])[H])C([H])([H])/C(C([H])([H])[H])=C(\[H])[C@@]([H])(C([H])([H])C([H])([H])[H])C(=O)C([H])([H])[C@@]([H])(O[H])[C@@]([H])(C([H])([H])[H])[C@@]([H])(C(=C([H])[H])C([H])([H])[H])OC(=O)[C@@]3([H])N(C(=O)C1=O)C([H])([H])C([H])([H])C([H])([H])C3([H])[H])[C@@]([H])(OC([H])([H])[H])C([H])([H])[C@@]2([H])C([H])([H])[H]


 49 51  0  0  0  0  0  0  0  0999 V2000
    3.6246  -45.7344  -22.9896 C   0  0  0  0  0  0  0  0  0  0  0  0
    4.5176  -45.8957  -24.1216 C   0  0  0  0  0  0  0  0  0  0  0  0
    5.3165  -46.8788  -24.4740 C   0  0  0  0  0  0  0  0  0  0  0  0
    6.1280  -46.6914  -25.7647 C   0  0  0  0  0  0  0  0  0  0  0  0
    5.5710  -48.1544  -23.7965 C   0  0  0  0  0  0  0  0  0  0  0  0
    4.5608  -49.2600  -23.9863 C   0  0  0  0  0  0  0  0  0  0  0  0
    5.2170  -50.4956  -23.4318 C   0  0  0  0  0  0  0  0  0  0  0  0
    3.9179  -49.3508  -25.2837 C   0  0  0  0  0  0  0  0  0  0  0  0
    3.8746  -50.6430  -26.0268 C   0  0  0  0  0  0  0  0  0  0  0  0
    2.8108  -51.6058  -25.6788 C   0  0  0  0  0  0  0  0  0  0  0  0
    2.5975  -51.8672  -24.3450 O   0  0  0  0  0  0  0  0  0  0  0  0
    2.0076  -53.0841  -24.1177 C   0  0  0  0  0  0  0  0  0  0  0  0
    2.8571  -54.0577  -24.7363 O   0  0  0  0  0  0  0  0  0  0  0  0
    0.6998  -53.2575  -24.7572 C   0  0  0  0  0  0  0  0  0  0  0  0
    0.3326  -54.7352  -24.8864 C   0  0  0  0  0  0  0  0  0  0  0  0
    0.7646  -52.7450  -26.1815 C   0  0  0  0  0  0  0  0  0  0  0  0
    1.4485  -51.3650  -26.2614 C   0  0  0  0  0  0  0  0  0  0  0  0
    2.0913  -53.3025  -22.6518 C   0  0  0  0  0  0  0  0  0  0  0  0
    3.3494  -53.4008  -22.3182 O   0  0  0  0  0  0  0  0  0  0  0  0
    1.0812  -53.4100  -21.6563 C   0  0  0  0  0  0  0  0  0  0  0  0
    1.2554  -54.3929  -20.8257 O   0  0  0  0  0  0  0  0  0  0  0  0
   -0.0834  -52.6827  -21.3597 N   0  0  0  0  0  0  0  0  0  0  0  0
   -1.2245  -53.3706  -20.6670 C   0  0  0  0  0  0  0  0  0  0  0  0
   -2.5143  -53.0393  -21.3436 C   0  0  0  0  0  0  0  0  0  0  0  0
   -2.7878  -51.5661  -21.1187 C   0  0  0  0  0  0  0  0  0  0  0  0
   -1.5374  -50.8895  -20.6467 C   0  0  0  0  0  0  0  0  0  0  0  0
   -0.4059  -51.3213  -21.6094 C   0  0  0  0  0  0  0  0  0  0  0  0
    0.7025  -50.3388  -21.4813 C   0  0  0  0  0  0  0  0  0  0  0  0
    0.8489  -49.6435  -22.5547 O   0  0  0  0  0  0  0  0  0  0  0  0
    1.3903  -50.2747  -20.3421 O   0  0  0  0  0  0  0  0  0  0  0  0
    2.6050  -50.3024  -19.7628 C   0  0  0  0  0  0  0  0  0  0  0  0
    2.9273  -48.8795  -19.2795 C   0  0  0  0  0  0  0  0  0  0  0  0
    1.6628  -48.0805  -19.1047 C   0  0  0  0  0  0  0  0  0  0  0  0
    3.9246  -48.1770  -20.1647 C   0  0  0  0  0  0  0  0  0  0  0  0
    4.9950  -47.6350  -19.4167 O   0  0  0  0  0  0  0  0  0  0  0  0
    3.2298  -47.0513  -20.8501 C   0  0  0  0  0  0  0  0  0  0  0  0
    4.0770  -46.1563  -21.6574 C   0  0  0  0  0  0  0  0  0  0  0  0
    5.1330  -45.7723  -21.2224 O   0  0  0  0  0  0  0  0  0  0  0  0
    2.9864  -54.8225  -24.1248 H   0  0  0  0  0  0  0  0  0  0  0  0
    5.6437  -48.3953  -19.3181 H   0  0  0  0  0  0  0  0  0  0  0  0
    2.6741  -51.1568  -18.5130 C   0  0  0  0  0  0  0  0  0  0  0  0
    3.9731  -51.1583  -17.7910 C   0  0  0  0  0  0  0  0  0  0  0  0
    1.6882  -51.8655  -18.0549 C   0  0  0  0  0  0  0  0  0  0  0  0
    1.8694  -45.7347  -24.6966 C   0  0  0  0  0  0  0  0  0  0  0  0
    2.1963  -46.2303  -23.3001 C   0  0  0  0  0  0  0  0  0  0  0  0
    3.6779  -50.3334  -27.3796 O   0  0  0  0  0  0  0  0  0  0  0  0
    4.0983  -49.0786  -27.7357 C   0  0  0  0  0  0  0  0  0  0  0  0
    1.4114  -50.9830  -27.5717 O   0  0  0  0  0  0  0  0  0  0  0  0
    1.1041  -52.1203  -28.3500 C   0  0  0  0  0  0  0  0  0  0  0  0
 44 45  1  0  0  0
 45  1  1  0  0  0
  1  2  1  0  0  0
  2  3  2  0  0  0
  3  4  1  0  0  0
  3  5  1  0  0  0
  5  6  1  0  0  0
  6  7  1  0  0  0
  6  8  1  0  0  0
  8  9  1  0  0  0
  9 46  1  0  0  0
 46 47  1  0  0  0
  9 10  1  0  0  0
 10 11  1  0  0  0
 11 12  1  0  0  0
 12 13  1  0  0  0
 12 14  1  0  0  0
 14 15  1  0  0  0
 14 16  1  0  0  0
 16 17  1  0  0  0
 17 48  1  0  0  0
 48 49  1  0  0  0
 12 18  1  0  0  0
 18 19  2  0  0  0
 18 20  1  0  0  0
 20 21  2  0  0  0
 20 22  1  0  0  0
 22 23  1  0  0  0
 23 24  1  0  0  0
 24 25  1  0  0  0
 25 26  1  0  0  0
 26 27  1  0  0  0
 27 28  1  0  0  0
 28 29  2  0  0  0
 28 30  1  0  0  0
 30 31  1  0  0  0
 31 32  1  0  0  0
 32 33  1  0  0  0
 32 34  1  0  0  0
 34 35  1  0  0  0
 34 36  1  0  0  0
 36 37  1  0  0  0
 37 38  2  0  0  0
 31 41  1  0  0  0
 41 42  1  0  0  0
 41 43  2  0  0  0
 37  1  1  0  0  0
 17 10  1  0  0  0
 27 22  1  0  0  0
 13 39  1  0  0  0
 35 40  1  0  0  0
M  END
> <minimizedAffinity>
6.54055

> <CNNscore>
0.4031654894

> <CNNaffinity>
7.3245482445

> <CNN_VS>
2.9530050755

> <CNNaffinity_variance>
1.6792547703

$$$$
[H]O[C@]12O[C@]([H])([C@@]([H])(OC([H])([H])[H])C([H])([H])[C@@]([H])(C([H])([H])[H])C([H])([H])/C(C([H])([H])[H])=C(\[H])[C@@]([H])(C([H])([H])C([H])([H])[H])C(=O)C([H])([H])[C@@]([H])(O[H])[C@@]([H])(C([H])([H])[H])[C@@]([H])(C(=C([H])[H])C([H])([H])[H])OC(=O)[C@@]3([H])N(C(=O)C1=O)C([H])([H])C([H])([H])C([H])([H])C3([H])[H])[C@@]([H])(OC([H])([H])[H])C([H])([H])[C@@]2([H])C([H])([H])[H]


 49 51  0  0  0  0  0  0  0  0999 V2000
    3.6875  -49.8054  -15.6979 C   0  0  0  0  0  0  0  0  0  0  0  0
    2.3622  -50.0471  -15.1593 C   0  0  0  0  0  0  0  0  0  0  0  0
    1.1643  -49.7559  -15.6165 C   0  0  0  0  0  0  0  0  0  0  0  0
   -0.0346  -50.1770  -14.7534 C   0  0  0  0  0  0  0  0  0  0  0  0
    0.7876  -49.0570  -16.8496 C   0  0  0  0  0  0  0  0  0  0  0  0
    0.7948  -49.8516  -18.1331 C   0  0  0  0  0  0  0  0  0  0  0  0
    0.1052  -48.9764  -19.1446 C   0  0  0  0  0  0  0  0  0  0  0  0
    0.3969  -51.2442  -18.0492 C   0  0  0  0  0  0  0  0  0  0  0  0
   -0.6379  -51.8003  -18.9679 C   0  0  0  0  0  0  0  0  0  0  0  0
   -0.2083  -52.2336  -20.3123 C   0  0  0  0  0  0  0  0  0  0  0  0
    0.5943  -51.3792  -21.0325 O   0  0  0  0  0  0  0  0  0  0  0  0
    0.5240  -51.5806  -22.3871 C   0  0  0  0  0  0  0  0  0  0  0  0
   -0.8599  -51.4537  -22.7351 O   0  0  0  0  0  0  0  0  0  0  0  0
    0.9055  -52.9268  -22.8248 C   0  0  0  0  0  0  0  0  0  0  0  0
    0.3545  -53.2393  -24.2155 C   0  0  0  0  0  0  0  0  0  0  0  0
    0.2659  -53.9527  -21.9115 C   0  0  0  0  0  0  0  0  0  0  0  0
    0.4415  -53.5820  -20.4248 C   0  0  0  0  0  0  0  0  0  0  0  0
    1.2340  -50.4303  -23.0006 C   0  0  0  0  0  0  0  0  0  0  0  0
    0.5723  -49.3395  -22.7249 O   0  0  0  0  0  0  0  0  0  0  0  0
    2.4245  -50.3631  -23.7759 C   0  0  0  0  0  0  0  0  0  0  0  0
    2.3313  -49.6097  -24.8295 O   0  0  0  0  0  0  0  0  0  0  0  0
    3.7022  -50.9352  -23.6608 N   0  0  0  0  0  0  0  0  0  0  0  0
    4.5184  -51.1692  -24.8994 C   0  0  0  0  0  0  0  0  0  0  0  0
    5.1092  -52.5410  -24.8767 C   0  0  0  0  0  0  0  0  0  0  0  0
    6.1284  -52.5855  -23.7565 C   0  0  0  0  0  0  0  0  0  0  0  0
    5.9269  -51.4120  -22.8472 C   0  0  0  0  0  0  0  0  0  0  0  0
    4.4178  -51.3632  -22.5098 C   0  0  0  0  0  0  0  0  0  0  0  0
    4.2513  -50.5464  -21.2788 C   0  0  0  0  0  0  0  0  0  0  0  0
    3.8551  -51.2604  -20.2837 O   0  0  0  0  0  0  0  0  0  0  0  0
    4.5136  -49.2408  -21.3205 O   0  0  0  0  0  0  0  0  0  0  0  0
    4.0596  -47.9977  -21.0749 C   0  0  0  0  0  0  0  0  0  0  0  0
    4.8232  -47.4509  -19.8583 C   0  0  0  0  0  0  0  0  0  0  0  0
    6.1277  -48.1817  -19.6796 C   0  0  0  0  0  0  0  0  0  0  0  0
    3.9928  -47.4564  -18.6005 C   0  0  0  0  0  0  0  0  0  0  0  0
    4.0063  -46.1954  -17.9611 O   0  0  0  0  0  0  0  0  0  0  0  0
    4.5769  -48.4525  -17.6590 C   0  0  0  0  0  0  0  0  0  0  0  0
    3.9822  -48.5042  -16.3121 C   0  0  0  0  0  0  0  0  0  0  0  0
    3.7434  -47.4824  -15.7197 O   0  0  0  0  0  0  0  0  0  0  0  0
   -0.9490  -50.8976  -23.5464 H   0  0  0  0  0  0  0  0  0  0  0  0
    3.2800  -45.6736  -18.4180 H   0  0  0  0  0  0  0  0  0  0  0  0
    4.3447  -47.0055  -22.1843 C   0  0  0  0  0  0  0  0  0  0  0  0
    3.4793  -45.7978  -22.2219 C   0  0  0  0  0  0  0  0  0  0  0  0
    5.2764  -47.1513  -23.0758 C   0  0  0  0  0  0  0  0  0  0  0  0
    4.3922  -52.1488  -15.6173 C   0  0  0  0  0  0  0  0  0  0  0  0
    4.1866  -50.9812  -16.5644 C   0  0  0  0  0  0  0  0  0  0  0  0
   -1.1640  -52.9438  -18.3512 O   0  0  0  0  0  0  0  0  0  0  0  0
   -1.7697  -52.7036  -17.1456 C   0  0  0  0  0  0  0  0  0  0  0  0
   -0.1276  -54.5887  -19.6988 O   0  0  0  0  0  0  0  0  0  0  0  0
    0.8404  -55.6012  -19.5220 C   0  0  0  0  0  0  0  0  0  0  0  0
 44 45  1  0  0  0
 45  1  1  0  0  0
  1  2  1  0  0  0
  2  3  2  0  0  0
  3  4  1  0  0  0
  3  5  1  0  0  0
  5  6  1  0  0  0
  6  7  1  0  0  0
  6  8  1  0  0  0
  8  9  1  0  0  0
  9 46  1  0  0  0
 46 47  1  0  0  0
  9 10  1  0  0  0
 10 11  1  0  0  0
 11 12  1  0  0  0
 12 13  1  0  0  0
 12 14  1  0  0  0
 14 15  1  0  0  0
 14 16  1  0  0  0
 16 17  1  0  0  0
 17 48  1  0  0  0
 48 49  1  0  0  0
 12 18  1  0  0  0
 18 19  2  0  0  0
 18 20  1  0  0  0
 20 21  2  0  0  0
 20 22  1  0  0  0
 22 23  1  0  0  0
 23 24  1  0  0  0
 24 25  1  0  0  0
 25 26  1  0  0  0
 26 27  1  0  0  0
 27 28  1  0  0  0
 28 29  2  0  0  0
 28 30  1  0  0  0
 30 31  1  0  0  0
 31 32  1  0  0  0
 32 33  1  0  0  0
 32 34  1  0  0  0
 34 35  1  0  0  0
 34 36  1  0  0  0
 36 37  1  0  0  0
 37 38  2  0  0  0
 31 41  1  0  0  0
 41 42  1  0  0  0
 41 43  2  0  0  0
 37  1  1  0  0  0
 17 10  1  0  0  0
 27 22  1  0  0  0
 13 39  1  0  0  0
 35 40  1  0  0  0
M  END
> <minimizedAffinity>
0.29927

> <CNNscore>
0.4029200077

> <CNNaffinity>
7.0038666725

> <CNN_VS>
2.8219981194

> <CNNaffinity_variance>
0.7785530090

$$$$
[H]OC([H])([H])C([H])([H])Oc1nc([H])c(-c2c(C([H])([H])[H])nc([H])c(N([H])C(=O)c3c([H])c([H])c([H])c(C(F)(F)F)c3[H])c2[H])c([H])c1N1C([H])([H])C([H])([H])OC([H])([H])C1([H])[H]


 38 41  0  0  0  0  0  0  0  0999 V2000
   -1.3482  -54.9910  -22.8994 C   0  0  0  0  0  0  0  0  0  0  0  0
   -1.0217  -54.0364  -21.8184 C   0  0  0  0  0  0  0  0  0  0  0  0
   -1.4958  -54.2454  -20.5870 N   0  0  0  0  0  0  0  0  0  0  0  0
   -1.2441  -53.4446  -19.5489 C   0  0  0  0  0  0  0  0  0  0  0  0
   -0.4443  -52.3053  -19.7001 C   0  0  0  0  0  0  0  0  0  0  0  0
    0.0356  -52.0970  -20.9603 C   0  0  0  0  0  0  0  0  0  0  0  0
   -0.2258  -52.9288  -22.0326 C   0  0  0  0  0  0  0  0  0  0  0  0
    0.3088  -52.6403  -23.3558 C   0  0  0  0  0  0  0  0  0  0  0  0
   -0.4637  -52.7435  -24.4898 C   0  0  0  0  0  0  0  0  0  0  0  0
    0.1014  -52.4526  -25.6721 N   0  0  0  0  0  0  0  0  0  0  0  0
    1.3753  -52.0639  -25.8276 C   0  0  0  0  0  0  0  0  0  0  0  0
    2.2062  -51.9450  -24.6970 C   0  0  0  0  0  0  0  0  0  0  0  0
    1.6396  -52.2382  -23.4917 C   0  0  0  0  0  0  0  0  0  0  0  0
    3.5523  -51.5469  -24.8598 N   0  0  0  0  0  0  0  0  0  0  0  0
    3.9447  -50.1715  -25.0570 C   0  0  0  0  0  0  0  0  0  0  0  0
    5.2489  -49.9338  -24.3378 C   0  0  0  0  0  0  0  0  0  0  0  0
    5.3263  -50.8874  -23.2907 O   0  0  0  0  0  0  0  0  0  0  0  0
    5.7769  -52.0569  -23.9215 C   0  0  0  0  0  0  0  0  0  0  0  0
    4.6340  -52.5390  -24.8258 C   0  0  0  0  0  0  0  0  0  0  0  0
    1.9842  -51.7584  -27.0158 O   0  0  0  0  0  0  0  0  0  0  0  0
    2.5011  -52.7003  -27.8961 C   0  0  0  0  0  0  0  0  0  0  0  0
    1.4687  -53.6295  -28.5091 C   0  0  0  0  0  0  0  0  0  0  0  0
    0.6555  -52.8786  -29.3942 O   0  0  0  0  0  0  0  0  0  0  0  0
   -0.2422  -53.3164  -29.4607 H   0  0  0  0  0  0  0  0  0  0  0  0
   -0.2179  -51.5068  -18.5626 N   0  0  0  0  0  0  0  0  0  0  0  0
    1.0216  -51.0505  -18.0926 C   0  0  0  0  0  0  0  0  0  0  0  0
    2.1480  -51.2640  -18.5924 O   0  0  0  0  0  0  0  0  0  0  0  0
   -1.0647  -51.2046  -17.9904 H   0  0  0  0  0  0  0  0  0  0  0  0
    1.0427  -50.2207  -16.8710 C   0  0  0  0  0  0  0  0  0  0  0  0
    2.1436  -50.3112  -16.0575 C   0  0  0  0  0  0  0  0  0  0  0  0
    2.2574  -49.5844  -14.8804 C   0  0  0  0  0  0  0  0  0  0  0  0
    1.2074  -48.7729  -14.5720 C   0  0  0  0  0  0  0  0  0  0  0  0
    0.0681  -48.6292  -15.3354 C   0  0  0  0  0  0  0  0  0  0  0  0
    0.0229  -49.3856  -16.5033 C   0  0  0  0  0  0  0  0  0  0  0  0
   -1.0297  -47.7314  -14.9212 C   0  0  0  0  0  0  0  0  0  0  0  0
   -0.6658  -46.4075  -15.1508 F   0  0  0  0  0  0  0  0  0  0  0  0
   -2.1636  -48.0506  -15.6668 F   0  0  0  0  0  0  0  0  0  0  0  0
   -1.3262  -47.8796  -13.5820 F   0  0  0  0  0  0  0  0  0  0  0  0
  1  2  1  0  0  0
  2  3  2  0  0  0
  3  4  1  0  0  0
  4  5  2  0  0  0
  5 25  1  0  0  0
 25 26  1  0  0  0
 26 27  2  0  0  0
 26 29  1  0  0  0
 29 30  2  0  0  0
 30 31  1  0  0  0
 31 32  2  0  0  0
 32 33  1  0  0  0
 33 34  2  0  0  0
 33 35  1  0  0  0
 35 36  1  0  0  0
 35 37  1  0  0  0
 35 38  1  0  0  0
  5  6  1  0  0  0
  6  7  2  0  0  0
  7  8  1  0  0  0
  8  9  2  0  0  0
  9 10  1  0  0  0
 10 11  2  0  0  0
 11 20  1  0  0  0
 20 21  1  0  0  0
 21 22  1  0  0  0
 22 23  1  0  0  0
 11 12  1  0  0  0
 12 13  2  0  0  0
 12 14  1  0  0  0
 14 15  1  0  0  0
 15 16  1  0  0  0
 16 17  1  0  0  0
 17 18  1  0  0  0
 18 19  1  0  0  0
  7  2  1  0  0  0
 13  8  1  0  0  0
 19 14  1  0  0  0
 34 29  1  0  0  0
 25 28  1  0  0  0
 23 24  1  0  0  0
M  END
> <minimizedAffinity>
-8.03692

> <CNNscore>
0.6288596392

> <CNNaffinity>
7.0573987961

> <CNN_VS>
4.4381132126

> <CNNaffinity_variance>
0.1574605554

$$$$
[H]OC([H])([H])C([H])([H])Oc1nc([H])c(-c2c(C([H])([H])[H])nc([H])c(N([H])C(=O)c3c([H])c([H])c([H])c(C(F)(F)F)c3[H])c2[H])c([H])c1N1C([H])([H])C([H])([H])OC([H])([H])C1([H])[H]


 38 41  0  0  0  0  0  0  0  0999 V2000
   -1.3836  -55.0044  -22.8002 C   0  0  0  0  0  0  0  0  0  0  0  0
   -0.9806  -54.0316  -21.7621 C   0  0  0  0  0  0  0  0  0  0  0  0
   -1.4335  -54.1727  -20.5132 N   0  0  0  0  0  0  0  0  0  0  0  0
   -1.1143  -53.3509  -19.5106 C   0  0  0  0  0  0  0  0  0  0  0  0
   -0.2606  -52.2612  -19.7214 C   0  0  0  0  0  0  0  0  0  0  0  0
    0.1973  -52.1222  -20.9992 C   0  0  0  0  0  0  0  0  0  0  0  0
   -0.1340  -52.9756  -22.0345 C   0  0  0  0  0  0  0  0  0  0  0  0
    0.3811  -52.7616  -23.3794 C   0  0  0  0  0  0  0  0  0  0  0  0
   -0.3730  -53.0329  -24.4979 C   0  0  0  0  0  0  0  0  0  0  0  0
    0.1714  -52.8013  -25.7028 N   0  0  0  0  0  0  0  0  0  0  0  0
    1.4076  -52.3187  -25.8953 C   0  0  0  0  0  0  0  0  0  0  0  0
    2.2186  -52.0270  -24.7817 C   0  0  0  0  0  0  0  0  0  0  0  0
    1.6727  -52.2591  -23.5538 C   0  0  0  0  0  0  0  0  0  0  0  0
    3.5259  -51.5295  -24.9825 N   0  0  0  0  0  0  0  0  0  0  0  0
    3.7997  -50.1451  -25.2878 C   0  0  0  0  0  0  0  0  0  0  0  0
    5.0781  -49.7421  -24.5966 C   0  0  0  0  0  0  0  0  0  0  0  0
    5.2356  -50.6014  -23.4792 O   0  0  0  0  0  0  0  0  0  0  0  0
    5.7851  -51.7737  -24.0202 C   0  0  0  0  0  0  0  0  0  0  0  0
    4.6883  -52.4202  -24.8779 C   0  0  0  0  0  0  0  0  0  0  0  0
    1.9944  -52.0692  -27.1074 O   0  0  0  0  0  0  0  0  0  0  0  0
    2.2808  -53.0441  -28.0546 C   0  0  0  0  0  0  0  0  0  0  0  0
    1.0630  -53.6545  -28.7249 C   0  0  0  0  0  0  0  0  0  0  0  0
    0.5360  -52.7140  -29.6449 O   0  0  0  0  0  0  0  0  0  0  0  0
   -0.4434  -52.8857  -29.7594 H   0  0  0  0  0  0  0  0  0  0  0  0
    0.0358  -51.4370  -18.6188 N   0  0  0  0  0  0  0  0  0  0  0  0
    1.3096  -51.1339  -18.1179 C   0  0  0  0  0  0  0  0  0  0  0  0
    2.4114  -51.5340  -18.5539 O   0  0  0  0  0  0  0  0  0  0  0  0
   -0.7795  -50.9845  -18.1026 H   0  0  0  0  0  0  0  0  0  0  0  0
    1.4043  -50.2446  -16.9425 C   0  0  0  0  0  0  0  0  0  0  0  0
    0.4010  -49.3283  -16.7536 C   0  0  0  0  0  0  0  0  0  0  0  0
    0.4009  -48.4380  -15.6886 C   0  0  0  0  0  0  0  0  0  0  0  0
    1.4608  -48.5211  -14.8365 C   0  0  0  0  0  0  0  0  0  0  0  0
    2.5065  -49.4114  -14.9596 C   0  0  0  0  0  0  0  0  0  0  0  0
    2.4400  -50.2762  -16.0487 C   0  0  0  0  0  0  0  0  0  0  0  0
    3.6235  -49.4276  -13.9928 C   0  0  0  0  0  0  0  0  0  0  0  0
    4.5879  -48.4988  -14.3738 F   0  0  0  0  0  0  0  0  0  0  0  0
    3.1200  -49.1032  -12.7340 F   0  0  0  0  0  0  0  0  0  0  0  0
    4.2149  -50.6720  -13.9241 F   0  0  0  0  0  0  0  0  0  0  0  0
  1  2  1  0  0  0
  2  3  2  0  0  0
  3  4  1  0  0  0
  4  5  2  0  0  0
  5 25  1  0  0  0
 25 26  1  0  0  0
 26 27  2  0  0  0
 26 29  1  0  0  0
 29 30  2  0  0  0
 30 31  1  0  0  0
 31 32  2  0  0  0
 32 33  1  0  0  0
 33 34  2  0  0  0
 33 35  1  0  0  0
 35 36  1  0  0  0
 35 37  1  0  0  0
 35 38  1  0  0  0
  5  6  1  0  0  0
  6  7  2  0  0  0
  7  8  1  0  0  0
  8  9  2  0  0  0
  9 10  1  0  0  0
 10 11  2  0  0  0
 11 20  1  0  0  0
 20 21  1  0  0  0
 21 22  1  0  0  0
 22 23  1  0  0  0
 11 12  1  0  0  0
 12 13  2  0  0  0
 12 14  1  0  0  0
 14 15  1  0  0  0
 15 16  1  0  0  0
 16 17  1  0  0  0
 17 18  1  0  0  0
 18 19  1  0  0  0
  7  2  1  0  0  0
 13  8  1  0  0  0
 19 14  1  0  0  0
 34 29  1  0  0  0
 25 28  1  0  0  0
 23 24  1  0  0  0
M  END
> <minimizedAffinity>
-8.01229

> <CNNscore>
0.6114934683

> <CNNaffinity>
7.0179662704

> <CNN_VS>
4.2914404869

> <CNNaffinity_variance>
0.1779378653

$$$$
[H]OC([H])([H])C([H])([H])Oc1nc([H])c(-c2c(C([H])([H])[H])nc([H])c(N([H])C(=O)c3c([H])c([H])c([H])c(C(F)(F)F)c3[H])c2[H])c([H])c1N1C([H])([H])C([H])([H])OC([H])([H])C1([H])[H]


 38 41  0  0  0  0  0  0  0  0999 V2000
   -0.2760  -54.6858  -24.8998 C   0  0  0  0  0  0  0  0  0  0  0  0
   -0.5328  -54.2043  -23.5256 C   0  0  0  0  0  0  0  0  0  0  0  0
   -1.3505  -54.8946  -22.7258 N   0  0  0  0  0  0  0  0  0  0  0  0
   -1.6314  -54.5423  -21.4691 C   0  0  0  0  0  0  0  0  0  0  0  0
   -1.0664  -53.3927  -20.9038 C   0  0  0  0  0  0  0  0  0  0  0  0
   -0.2334  -52.6916  -21.7263 C   0  0  0  0  0  0  0  0  0  0  0  0
    0.0564  -53.0598  -23.0265 C   0  0  0  0  0  0  0  0  0  0  0  0
    0.9457  -52.2579  -23.8546 C   0  0  0  0  0  0  0  0  0  0  0  0
    0.5574  -51.7785  -25.0845 C   0  0  0  0  0  0  0  0  0  0  0  0
    1.4332  -51.0398  -25.7839 N   0  0  0  0  0  0  0  0  0  0  0  0
    2.6692  -50.7320  -25.3648 C   0  0  0  0  0  0  0  0  0  0  0  0
    3.1132  -51.2008  -24.1134 C   0  0  0  0  0  0  0  0  0  0  0  0
    2.2292  -51.9517  -23.3962 C   0  0  0  0  0  0  0  0  0  0  0  0
    4.4196  -50.8875  -23.6750 N   0  0  0  0  0  0  0  0  0  0  0  0
    5.5805  -51.6553  -24.0585 C   0  0  0  0  0  0  0  0  0  0  0  0
    6.7432  -50.7126  -24.2435 C   0  0  0  0  0  0  0  0  0  0  0  0
    6.2009  -49.4395  -24.5549 O   0  0  0  0  0  0  0  0  0  0  0  0
    5.8408  -48.9036  -23.3092 C   0  0  0  0  0  0  0  0  0  0  0  0
    4.6564  -49.7349  -22.7969 C   0  0  0  0  0  0  0  0  0  0  0  0
    3.5876  -49.9814  -26.0496 O   0  0  0  0  0  0  0  0  0  0  0  0
    3.3886  -48.6625  -26.4375 C   0  0  0  0  0  0  0  0  0  0  0  0
    4.3452  -48.1643  -27.5059 C   0  0  0  0  0  0  0  0  0  0  0  0
    5.5902  -48.8204  -27.3378 O   0  0  0  0  0  0  0  0  0  0  0  0
    6.3169  -48.2355  -27.7006 H   0  0  0  0  0  0  0  0  0  0  0  0
   -1.4042  -53.0820  -19.5726 N   0  0  0  0  0  0  0  0  0  0  0  0
   -0.5763  -52.4746  -18.6181 C   0  0  0  0  0  0  0  0  0  0  0  0
    0.6062  -52.0966  -18.7698 O   0  0  0  0  0  0  0  0  0  0  0  0
   -2.3880  -53.3218  -19.2401 H   0  0  0  0  0  0  0  0  0  0  0  0
   -1.1253  -52.2365  -17.2678 C   0  0  0  0  0  0  0  0  0  0  0  0
   -0.2746  -51.7429  -16.3115 C   0  0  0  0  0  0  0  0  0  0  0  0
   -0.6863  -51.4963  -15.0090 C   0  0  0  0  0  0  0  0  0  0  0  0
   -1.9897  -51.7765  -14.7281 C   0  0  0  0  0  0  0  0  0  0  0  0
   -2.9039  -52.2752  -15.6320 C   0  0  0  0  0  0  0  0  0  0  0  0
   -2.4230  -52.4957  -16.9198 C   0  0  0  0  0  0  0  0  0  0  0  0
   -4.2995  -52.5600  -15.2399 C   0  0  0  0  0  0  0  0  0  0  0  0
   -4.3335  -53.0238  -13.9278 F   0  0  0  0  0  0  0  0  0  0  0  0
   -5.0358  -51.3811  -15.3482 F   0  0  0  0  0  0  0  0  0  0  0  0
   -4.8701  -53.5132  -16.0577 F   0  0  0  0  0  0  0  0  0  0  0  0
  1  2  1  0  0  0
  2  3  2  0  0  0
  3  4  1  0  0  0
  4  5  2  0  0  0
  5 25  1  0  0  0
 25 26  1  0  0  0
 26 27  2  0  0  0
 26 29  1  0  0  0
 29 30  2  0  0  0
 30 31  1  0  0  0
 31 32  2  0  0  0
 32 33  1  0  0  0
 33 34  2  0  0  0
 33 35  1  0  0  0
 35 36  1  0  0  0
 35 37  1  0  0  0
 35 38  1  0  0  0
  5  6  1  0  0  0
  6  7  2  0  0  0
  7  8  1  0  0  0
  8  9  2  0  0  0
  9 10  1  0  0  0
 10 11  2  0  0  0
 11 20  1  0  0  0
 20 21  1  0  0  0
 21 22  1  0  0  0
 22 23  1  0  0  0
 11 12  1  0  0  0
 12 13  2  0  0  0
 12 14  1  0  0  0
 14 15  1  0  0  0
 15 16  1  0  0  0
 16 17  1  0  0  0
 17 18  1  0  0  0
 18 19  1  0  0  0
  7  2  1  0  0  0
 13  8  1  0  0  0
 19 14  1  0  0  0
 34 29  1  0  0  0
 25 28  1  0  0  0
 23 24  1  0  0  0
M  END
> <minimizedAffinity>
-7.58153

> <CNNscore>
0.5800727606

> <CNNaffinity>
6.8389921188

> <CNN_VS>
3.9671130180

> <CNNaffinity_variance>
0.1047940105

$$$$
[H]OC([H])([H])C([H])([H])Oc1nc([H])c(-c2c(C([H])([H])[H])nc([H])c(N([H])C(=O)c3c([H])c([H])c([H])c(C(F)(F)F)c3[H])c2[H])c([H])c1N1C([H])([H])C([H])([H])OC([H])([H])C1([H])[H]


 38 41  0  0  0  0  0  0  0  0999 V2000
   -0.7357  -54.4431  -23.9411 C   0  0  0  0  0  0  0  0  0  0  0  0
   -0.6905  -53.8956  -22.5683 C   0  0  0  0  0  0  0  0  0  0  0  0
   -1.4166  -54.4687  -21.6043 N   0  0  0  0  0  0  0  0  0  0  0  0
   -1.4293  -54.0505  -20.3366 C   0  0  0  0  0  0  0  0  0  0  0  0
   -0.6579  -52.9525  -19.9364 C   0  0  0  0  0  0  0  0  0  0  0  0
    0.0800  -52.3711  -20.9259 C   0  0  0  0  0  0  0  0  0  0  0  0
    0.0920  -52.8074  -22.2372 C   0  0  0  0  0  0  0  0  0  0  0  0
    0.8943  -52.1320  -23.2472 C   0  0  0  0  0  0  0  0  0  0  0  0
    1.7551  -51.1078  -22.9257 C   0  0  0  0  0  0  0  0  0  0  0  0
    2.4656  -50.5413  -23.9136 N   0  0  0  0  0  0  0  0  0  0  0  0
    2.3967  -50.9068  -25.2019 C   0  0  0  0  0  0  0  0  0  0  0  0
    1.5291  -51.9491  -25.5808 C   0  0  0  0  0  0  0  0  0  0  0  0
    0.8038  -52.5304  -24.5829 C   0  0  0  0  0  0  0  0  0  0  0  0
    1.4462  -52.3281  -26.9397 N   0  0  0  0  0  0  0  0  0  0  0  0
    2.5803  -52.8163  -27.6880 C   0  0  0  0  0  0  0  0  0  0  0  0
    2.1075  -53.8907  -28.6350 C   0  0  0  0  0  0  0  0  0  0  0  0
    0.9239  -54.4421  -28.0809 O   0  0  0  0  0  0  0  0  0  0  0  0
   -0.0838  -53.5386  -28.4507 C   0  0  0  0  0  0  0  0  0  0  0  0
    0.1703  -52.2468  -27.6613 C   0  0  0  0  0  0  0  0  0  0  0  0
    3.1062  -50.3535  -26.2345 O   0  0  0  0  0  0  0  0  0  0  0  0
    3.2612  -48.9878  -26.4352 C   0  0  0  0  0  0  0  0  0  0  0  0
    4.6525  -48.4570  -26.1396 C   0  0  0  0  0  0  0  0  0  0  0  0
    5.0331  -48.8867  -24.8437 O   0  0  0  0  0  0  0  0  0  0  0  0
    5.6918  -48.2346  -24.4659 H   0  0  0  0  0  0  0  0  0  0  0  0
   -0.7171  -52.5672  -18.5833 N   0  0  0  0  0  0  0  0  0  0  0  0
   -0.0501  -51.4861  -17.9902 C   0  0  0  0  0  0  0  0  0  0  0  0
    0.7141  -50.6678  -18.5475 O   0  0  0  0  0  0  0  0  0  0  0  0
   -1.3310  -53.1421  -17.9288 H   0  0  0  0  0  0  0  0  0  0  0  0
   -0.2455  -51.2530  -16.5449 C   0  0  0  0  0  0  0  0  0  0  0  0
    0.8605  -50.9475  -15.7930 C   0  0  0  0  0  0  0  0  0  0  0  0
    0.7882  -50.7229  -14.4252 C   0  0  0  0  0  0  0  0  0  0  0  0
   -0.4492  -50.8267  -13.8644 C   0  0  0  0  0  0  0  0  0  0  0  0
   -1.6056  -51.1310  -14.5510 C   0  0  0  0  0  0  0  0  0  0  0  0
   -1.4594  -51.3408  -15.9195 C   0  0  0  0  0  0  0  0  0  0  0  0
   -2.9081  -51.2326  -13.8611 C   0  0  0  0  0  0  0  0  0  0  0  0
   -3.0841  -50.1331  -13.0257 F   0  0  0  0  0  0  0  0  0  0  0  0
   -3.9147  -51.2651  -14.8251 F   0  0  0  0  0  0  0  0  0  0  0  0
   -2.9891  -52.3802  -13.0999 F   0  0  0  0  0  0  0  0  0  0  0  0
  1  2  1  0  0  0
  2  3  2  0  0  0
  3  4  1  0  0  0
  4  5  2  0  0  0
  5 25  1  0  0  0
 25 26  1  0  0  0
 26 27  2  0  0  0
 26 29  1  0  0  0
 29 30  2  0  0  0
 30 31  1  0  0  0
 31 32  2  0  0  0
 32 33  1  0  0  0
 33 34  2  0  0  0
 33 35  1  0  0  0
 35 36  1  0  0  0
 35 37  1  0  0  0
 35 38  1  0  0  0
  5  6  1  0  0  0
  6  7  2  0  0  0
  7  8  1  0  0  0
  8  9  2  0  0  0
  9 10  1  0  0  0
 10 11  2  0  0  0
 11 20  1  0  0  0
 20 21  1  0  0  0
 21 22  1  0  0  0
 22 23  1  0  0  0
 11 12  1  0  0  0
 12 13  2  0  0  0
 12 14  1  0  0  0
 14 15  1  0  0  0
 15 16  1  0  0  0
 16 17  1  0  0  0
 17 18  1  0  0  0
 18 19  1  0  0  0
  7  2  1  0  0  0
 13  8  1  0  0  0
 19 14  1  0  0  0
 34 29  1  0  0  0
 25 28  1  0  0  0
 23 24  1  0  0  0
M  END
> <minimizedAffinity>
-7.77313

> <CNNscore>
0.5672532916

> <CNNaffinity>
6.9819335938

> <CNN_VS>
3.9605247974

> <CNNaffinity_variance>
0.1322344244

$$$$
[H]OC([H])([H])C([H])([H])Oc1nc([H])c(-c2c(C([H])([H])[H])nc([H])c(N([H])C(=O)c3c([H])c([H])c([H])c(C(F)(F)F)c3[H])c2[H])c([H])c1N1C([H])([H])C([H])([H])OC([H])([H])C1([H])[H]


 38 41  0  0  0  0  0  0  0  0999 V2000
   -0.6600  -54.3631  -23.7203 C   0  0  0  0  0  0  0  0  0  0  0  0
   -0.6065  -53.7336  -22.3835 C   0  0  0  0  0  0  0  0  0  0  0  0
   -1.2663  -54.2908  -21.3641 N   0  0  0  0  0  0  0  0  0  0  0  0
   -1.2659  -53.7998  -20.1227 C   0  0  0  0  0  0  0  0  0  0  0  0
   -0.5514  -52.6362  -19.8125 C   0  0  0  0  0  0  0  0  0  0  0  0
    0.1190  -52.0715  -20.8582 C   0  0  0  0  0  0  0  0  0  0  0  0
    0.1176  -52.5832  -22.1420 C   0  0  0  0  0  0  0  0  0  0  0  0
    0.8458  -51.9222  -23.2157 C   0  0  0  0  0  0  0  0  0  0  0  0
    1.6578  -50.8363  -22.9816 C   0  0  0  0  0  0  0  0  0  0  0  0
    2.3013  -50.2878  -24.0241 N   0  0  0  0  0  0  0  0  0  0  0  0
    2.2095  -50.7276  -25.2875 C   0  0  0  0  0  0  0  0  0  0  0  0
    1.3897  -51.8351  -25.5776 C   0  0  0  0  0  0  0  0  0  0  0  0
    0.7327  -52.3987  -24.5239 C   0  0  0  0  0  0  0  0  0  0  0  0
    1.2824  -52.2930  -26.9102 N   0  0  0  0  0  0  0  0  0  0  0  0
    2.4097  -52.7943  -27.6602 C   0  0  0  0  0  0  0  0  0  0  0  0
    1.9417  -53.9326  -28.5319 C   0  0  0  0  0  0  0  0  0  0  0  0
    0.7879  -54.4812  -27.9158 O   0  0  0  0  0  0  0  0  0  0  0  0
   -0.2528  -53.6261  -28.3087 C   0  0  0  0  0  0  0  0  0  0  0  0
   -0.0133  -52.2853  -27.6006 C   0  0  0  0  0  0  0  0  0  0  0  0
    2.8512  -50.1947  -26.3738 O   0  0  0  0  0  0  0  0  0  0  0  0
    3.1833  -48.8525  -26.5068 C   0  0  0  0  0  0  0  0  0  0  0  0
    4.6742  -48.5660  -26.5178 C   0  0  0  0  0  0  0  0  0  0  0  0
    5.1846  -48.8826  -27.8015 O   0  0  0  0  0  0  0  0  0  0  0  0
    6.1529  -49.1213  -27.7160 H   0  0  0  0  0  0  0  0  0  0  0  0
   -0.5927  -52.1757  -18.4824 N   0  0  0  0  0  0  0  0  0  0  0  0
    0.3458  -51.3453  -17.8539 C   0  0  0  0  0  0  0  0  0  0  0  0
    1.3852  -50.8609  -18.3531 O   0  0  0  0  0  0  0  0  0  0  0  0
   -1.4175  -52.4754  -17.8777 H   0  0  0  0  0  0  0  0  0  0  0  0
    0.1177  -50.9776  -16.4417 C   0  0  0  0  0  0  0  0  0  0  0  0
   -0.6627  -51.8128  -15.6833 C   0  0  0  0  0  0  0  0  0  0  0  0
   -0.9492  -51.5524  -14.3503 C   0  0  0  0  0  0  0  0  0  0  0  0
   -0.4126  -50.4120  -13.8326 C   0  0  0  0  0  0  0  0  0  0  0  0
    0.3783  -49.5230  -14.5294 C   0  0  0  0  0  0  0  0  0  0  0  0
    0.6269  -49.8485  -15.8600 C   0  0  0  0  0  0  0  0  0  0  0  0
    0.9130  -48.3024  -13.8915 C   0  0  0  0  0  0  0  0  0  0  0  0
    1.0297  -47.2895  -14.8393 F   0  0  0  0  0  0  0  0  0  0  0  0
    0.0335  -47.9124  -12.8825 F   0  0  0  0  0  0  0  0  0  0  0  0
    2.1542  -48.5262  -13.3325 F   0  0  0  0  0  0  0  0  0  0  0  0
  1  2  1  0  0  0
  2  3  2  0  0  0
  3  4  1  0  0  0
  4  5  2  0  0  0
  5 25  1  0  0  0
 25 26  1  0  0  0
 26 27  2  0  0  0
 26 29  1  0  0  0
 29 30  2  0  0  0
 30 31  1  0  0  0
 31 32  2  0  0  0
 32 33  1  0  0  0
 33 34  2  0  0  0
 33 35  1  0  0  0
 35 36  1  0  0  0
 35 37  1  0  0  0
 35 38  1  0  0  0
  5  6  1  0  0  0
  6  7  2  0  0  0
  7  8  1  0  0  0
  8  9  2  0  0  0
  9 10  1  0  0  0
 10 11  2  0  0  0
 11 20  1  0  0  0
 20 21  1  0  0  0
 21 22  1  0  0  0
 22 23  1  0  0  0
 11 12  1  0  0  0
 12 13  2  0  0  0
 12 14  1  0  0  0
 14 15  1  0  0  0
 15 16  1  0  0  0
 16 17  1  0  0  0
 17 18  1  0  0  0
 18 19  1  0  0  0
  7  2  1  0  0  0
 13  8  1  0  0  0
 19 14  1  0  0  0
 34 29  1  0  0  0
 25 28  1  0  0  0
 23 24  1  0  0  0
M  END
> <minimizedAffinity>
-7.53256

> <CNNscore>
0.5478149056

> <CNNaffinity>
6.9700431824

> <CNN_VS>
3.8182935715

> <CNNaffinity_variance>
0.1739564687

$$$$
[H]OC([H])([H])C([H])([H])Oc1nc([H])c(-c2c(C([H])([H])[H])nc([H])c(N([H])C(=O)c3c([H])c([H])c([H])c(C(F)(F)F)c3[H])c2[H])c([H])c1N1C([H])([H])C([H])([H])OC([H])([H])C1([H])[H]


 38 41  0  0  0  0  0  0  0  0999 V2000
   -0.9970  -52.6642  -17.8091 C   0  0  0  0  0  0  0  0  0  0  0  0
   -0.7019  -52.7028  -19.2574 C   0  0  0  0  0  0  0  0  0  0  0  0
   -1.2976  -53.6166  -20.0288 N   0  0  0  0  0  0  0  0  0  0  0  0
   -1.1007  -53.7187  -21.3453 C   0  0  0  0  0  0  0  0  0  0  0  0
   -0.2306  -52.8457  -22.0097 C   0  0  0  0  0  0  0  0  0  0  0  0
    0.3754  -51.9159  -21.2160 C   0  0  0  0  0  0  0  0  0  0  0  0
    0.1684  -51.8120  -19.8534 C   0  0  0  0  0  0  0  0  0  0  0  0
    0.8584  -50.8026  -19.0629 C   0  0  0  0  0  0  0  0  0  0  0  0
    1.2106  -49.5818  -19.5911 C   0  0  0  0  0  0  0  0  0  0  0  0
    1.8379  -48.7021  -18.7946 N   0  0  0  0  0  0  0  0  0  0  0  0
    2.1468  -48.9298  -17.5098 C   0  0  0  0  0  0  0  0  0  0  0  0
    1.8084  -50.1650  -16.9244 C   0  0  0  0  0  0  0  0  0  0  0  0
    1.1702  -51.0643  -17.7267 C   0  0  0  0  0  0  0  0  0  0  0  0
    2.1434  -50.4115  -15.5738 N   0  0  0  0  0  0  0  0  0  0  0  0
    1.2521  -50.1129  -14.4779 C   0  0  0  0  0  0  0  0  0  0  0  0
    1.4026  -51.1848  -13.4276 C   0  0  0  0  0  0  0  0  0  0  0  0
    1.8709  -52.3502  -14.0867 O   0  0  0  0  0  0  0  0  0  0  0  0
    3.2531  -52.1442  -14.2116 C   0  0  0  0  0  0  0  0  0  0  0  0
    3.4399  -51.0037  -15.2220 C   0  0  0  0  0  0  0  0  0  0  0  0
    2.7840  -48.0570  -16.6684 O   0  0  0  0  0  0  0  0  0  0  0  0
    3.8353  -47.2314  -17.0458 C   0  0  0  0  0  0  0  0  0  0  0  0
    3.4353  -45.8035  -17.3714 C   0  0  0  0  0  0  0  0  0  0  0  0
    3.0072  -45.7520  -18.7215 O   0  0  0  0  0  0  0  0  0  0  0  0
    3.1583  -44.8278  -19.0749 H   0  0  0  0  0  0  0  0  0  0  0  0
   -0.0722  -53.0087  -23.3993 N   0  0  0  0  0  0  0  0  0  0  0  0
    0.5452  -52.1123  -24.2829 C   0  0  0  0  0  0  0  0  0  0  0  0
    1.0679  -51.0108  -24.0042 O   0  0  0  0  0  0  0  0  0  0  0  0
   -0.4503  -53.9015  -23.8418 H   0  0  0  0  0  0  0  0  0  0  0  0
    0.6058  -52.4725  -25.7140 C   0  0  0  0  0  0  0  0  0  0  0  0
    1.8130  -52.8871  -26.2166 C   0  0  0  0  0  0  0  0  0  0  0  0
    1.9807  -53.2360  -27.5496 C   0  0  0  0  0  0  0  0  0  0  0  0
    0.8743  -53.1402  -28.3390 C   0  0  0  0  0  0  0  0  0  0  0  0
   -0.3705  -52.7310  -27.9096 C   0  0  0  0  0  0  0  0  0  0  0  0
   -0.4665  -52.3995  -26.5608 C   0  0  0  0  0  0  0  0  0  0  0  0
   -1.5173  -52.6472  -28.8372 C   0  0  0  0  0  0  0  0  0  0  0  0
   -2.7056  -52.6097  -28.1129 F   0  0  0  0  0  0  0  0  0  0  0  0
   -1.3846  -51.4854  -29.5963 F   0  0  0  0  0  0  0  0  0  0  0  0
   -1.5572  -53.7299  -29.6912 F   0  0  0  0  0  0  0  0  0  0  0  0
  1  2  1  0  0  0
  2  3  2  0  0  0
  3  4  1  0  0  0
  4  5  2  0  0  0
  5 25  1  0  0  0
 25 26  1  0  0  0
 26 27  2  0  0  0
 26 29  1  0  0  0
 29 30  2  0  0  0
 30 31  1  0  0  0
 31 32  2  0  0  0
 32 33  1  0  0  0
 33 34  2  0  0  0
 33 35  1  0  0  0
 35 36  1  0  0  0
 35 37  1  0  0  0
 35 38  1  0  0  0
  5  6  1  0  0  0
  6  7  2  0  0  0
  7  8  1  0  0  0
  8  9  2  0  0  0
  9 10  1  0  0  0
 10 11  2  0  0  0
 11 20  1  0  0  0
 20 21  1  0  0  0
 21 22  1  0  0  0
 22 23  1  0  0  0
 11 12  1  0  0  0
 12 13  2  0  0  0
 12 14  1  0  0  0
 14 15  1  0  0  0
 15 16  1  0  0  0
 16 17  1  0  0  0
 17 18  1  0  0  0
 18 19  1  0  0  0
  7  2  1  0  0  0
 13  8  1  0  0  0
 19 14  1  0  0  0
 34 29  1  0  0  0
 25 28  1  0  0  0
 23 24  1  0  0  0
M  END
> <minimizedAffinity>
-8.24092

> <CNNscore>
0.5447860956

> <CNNaffinity>
6.8026976585

> <CNN_VS>
3.7060151100

> <CNNaffinity_variance>
0.1787032336

$$$$
[H]OC([H])([H])C([H])([H])Oc1nc([H])c(-c2c(C([H])([H])[H])nc([H])c(N([H])C(=O)c3c([H])c([H])c([H])c(C(F)(F)F)c3[H])c2[H])c([H])c1N1C([H])([H])C([H])([H])OC([H])([H])C1([H])[H]


 38 41  0  0  0  0  0  0  0  0999 V2000
   -1.5312  -53.1321  -17.8780 C   0  0  0  0  0  0  0  0  0  0  0  0
   -1.1255  -53.0140  -19.2950 C   0  0  0  0  0  0  0  0  0  0  0  0
   -1.6402  -53.8498  -20.2013 N   0  0  0  0  0  0  0  0  0  0  0  0
   -1.3412  -53.8101  -21.5018 C   0  0  0  0  0  0  0  0  0  0  0  0
   -0.4422  -52.8601  -22.0017 C   0  0  0  0  0  0  0  0  0  0  0  0
    0.0809  -52.0106  -21.0708 C   0  0  0  0  0  0  0  0  0  0  0  0
   -0.2319  -52.0535  -19.7253 C   0  0  0  0  0  0  0  0  0  0  0  0
    0.3732  -51.1235  -18.7826 C   0  0  0  0  0  0  0  0  0  0  0  0
   -0.1093  -50.9688  -17.5034 C   0  0  0  0  0  0  0  0  0  0  0  0
    0.5092  -50.0963  -16.6922 N   0  0  0  0  0  0  0  0  0  0  0  0
    1.5736  -49.3598  -17.0425 C   0  0  0  0  0  0  0  0  0  0  0  0
    2.1031  -49.4817  -18.3416 C   0  0  0  0  0  0  0  0  0  0  0  0
    1.4808  -50.3665  -19.1719 C   0  0  0  0  0  0  0  0  0  0  0  0
    3.2176  -48.6979  -18.7166 N   0  0  0  0  0  0  0  0  0  0  0  0
    4.5646  -49.2164  -18.7514 C   0  0  0  0  0  0  0  0  0  0  0  0
    5.2906  -48.5960  -19.9187 C   0  0  0  0  0  0  0  0  0  0  0  0
    4.3064  -48.2198  -20.8683 O   0  0  0  0  0  0  0  0  0  0  0  0
    3.8209  -46.9918  -20.3943 C   0  0  0  0  0  0  0  0  0  0  0  0
    3.0458  -47.2922  -19.1037 C   0  0  0  0  0  0  0  0  0  0  0  0
    2.2298  -48.4624  -16.2426 O   0  0  0  0  0  0  0  0  0  0  0  0
    3.3265  -48.7755  -15.4497 C   0  0  0  0  0  0  0  0  0  0  0  0
    3.3099  -50.1782  -14.8692 C   0  0  0  0  0  0  0  0  0  0  0  0
    4.1621  -50.9991  -15.6494 O   0  0  0  0  0  0  0  0  0  0  0  0
    3.8492  -51.9476  -15.5828 H   0  0  0  0  0  0  0  0  0  0  0  0
   -0.1745  -52.8737  -23.3841 N   0  0  0  0  0  0  0  0  0  0  0  0
    1.0812  -52.7518  -23.9955 C   0  0  0  0  0  0  0  0  0  0  0  0
    2.1891  -52.6114  -23.4323 O   0  0  0  0  0  0  0  0  0  0  0  0
   -0.9986  -52.9926  -24.0493 H   0  0  0  0  0  0  0  0  0  0  0  0
    1.1462  -52.7884  -25.4706 C   0  0  0  0  0  0  0  0  0  0  0  0
    2.3876  -52.8164  -26.0537 C   0  0  0  0  0  0  0  0  0  0  0  0
    2.5595  -52.8389  -27.4309 C   0  0  0  0  0  0  0  0  0  0  0  0
    1.4204  -52.8277  -28.1783 C   0  0  0  0  0  0  0  0  0  0  0  0
    0.1398  -52.7981  -27.6678 C   0  0  0  0  0  0  0  0  0  0  0  0
    0.0423  -52.7797  -26.2791 C   0  0  0  0  0  0  0  0  0  0  0  0
   -1.0430  -52.7787  -28.5528 C   0  0  0  0  0  0  0  0  0  0  0  0
   -0.8343  -51.8812  -29.5962 F   0  0  0  0  0  0  0  0  0  0  0  0
   -1.2338  -54.0633  -29.0596 F   0  0  0  0  0  0  0  0  0  0  0  0
   -2.1801  -52.4009  -27.8690 F   0  0  0  0  0  0  0  0  0  0  0  0
  1  2  1  0  0  0
  2  3  2  0  0  0
  3  4  1  0  0  0
  4  5  2  0  0  0
  5 25  1  0  0  0
 25 26  1  0  0  0
 26 27  2  0  0  0
 26 29  1  0  0  0
 29 30  2  0  0  0
 30 31  1  0  0  0
 31 32  2  0  0  0
 32 33  1  0  0  0
 33 34  2  0  0  0
 33 35  1  0  0  0
 35 36  1  0  0  0
 35 37  1  0  0  0
 35 38  1  0  0  0
  5  6  1  0  0  0
  6  7  2  0  0  0
  7  8  1  0  0  0
  8  9  2  0  0  0
  9 10  1  0  0  0
 10 11  2  0  0  0
 11 20  1  0  0  0
 20 21  1  0  0  0
 21 22  1  0  0  0
 22 23  1  0  0  0
 11 12  1  0  0  0
 12 13  2  0  0  0
 12 14  1  0  0  0
 14 15  1  0  0  0
 15 16  1  0  0  0
 16 17  1  0  0  0
 17 18  1  0  0  0
 18 19  1  0  0  0
  7  2  1  0  0  0
 13  8  1  0  0  0
 19 14  1  0  0  0
 34 29  1  0  0  0
 25 28  1  0  0  0
 23 24  1  0  0  0
M  END
> <minimizedAffinity>
-8.00857

> <CNNscore>
0.5054334998

> <CNNaffinity>
6.9194145203

> <CNN_VS>
3.4973039627

> <CNNaffinity_variance>
0.1956815720

$$$$
[H]OC([H])([H])C([H])([H])Oc1nc([H])c(-c2c(C([H])([H])[H])nc([H])c(N([H])C(=O)c3c([H])c([H])c([H])c(C(F)(F)F)c3[H])c2[H])c([H])c1N1C([H])([H])C([H])([H])OC([H])([H])C1([H])[H]


 38 41  0  0  0  0  0  0  0  0999 V2000
   -1.5568  -53.4158  -18.0435 C   0  0  0  0  0  0  0  0  0  0  0  0
   -1.1564  -53.2790  -19.4603 C   0  0  0  0  0  0  0  0  0  0  0  0
   -1.7667  -54.0151  -20.3933 N   0  0  0  0  0  0  0  0  0  0  0  0
   -1.4793  -53.9500  -21.6954 C   0  0  0  0  0  0  0  0  0  0  0  0
   -0.4901  -53.0792  -22.1683 C   0  0  0  0  0  0  0  0  0  0  0  0
    0.1302  -52.3315  -21.2103 C   0  0  0  0  0  0  0  0  0  0  0  0
   -0.1707  -52.4002  -19.8631 C   0  0  0  0  0  0  0  0  0  0  0  0
    0.5400  -51.5816  -18.8912 C   0  0  0  0  0  0  0  0  0  0  0  0
    1.8741  -51.2771  -19.0349 C   0  0  0  0  0  0  0  0  0  0  0  0
    2.4551  -50.5098  -18.0992 N   0  0  0  0  0  0  0  0  0  0  0  0
    1.8220  -50.0138  -17.0263 C   0  0  0  0  0  0  0  0  0  0  0  0
    0.4565  -50.2990  -16.8344 C   0  0  0  0  0  0  0  0  0  0  0  0
   -0.1415  -51.0775  -17.7810 C   0  0  0  0  0  0  0  0  0  0  0  0
   -0.2098  -49.7869  -15.6983 N   0  0  0  0  0  0  0  0  0  0  0  0
   -0.8221  -48.4796  -15.6714 C   0  0  0  0  0  0  0  0  0  0  0  0
   -2.0869  -48.5558  -14.8533 C   0  0  0  0  0  0  0  0  0  0  0  0
   -2.5325  -49.9016  -14.9006 O   0  0  0  0  0  0  0  0  0  0  0  0
   -1.7543  -50.5569  -13.9344 C   0  0  0  0  0  0  0  0  0  0  0  0
   -0.3165  -50.5864  -14.4715 C   0  0  0  0  0  0  0  0  0  0  0  0
    2.3812  -49.2281  -16.0537 O   0  0  0  0  0  0  0  0  0  0  0  0
    3.5333  -49.5542  -15.3496 C   0  0  0  0  0  0  0  0  0  0  0  0
    3.6011  -50.9951  -14.8763 C   0  0  0  0  0  0  0  0  0  0  0  0
    4.3245  -51.7503  -15.8329 O   0  0  0  0  0  0  0  0  0  0  0  0
    4.0231  -52.7038  -15.7891 H   0  0  0  0  0  0  0  0  0  0  0  0
   -0.2404  -53.0601  -23.5540 N   0  0  0  0  0  0  0  0  0  0  0  0
    1.0005  -52.8740  -24.1792 C   0  0  0  0  0  0  0  0  0  0  0  0
    2.1085  -52.6935  -23.6278 O   0  0  0  0  0  0  0  0  0  0  0  0
   -1.0674  -53.2052  -24.2105 H   0  0  0  0  0  0  0  0  0  0  0  0
    1.0474  -52.8854  -25.6553 C   0  0  0  0  0  0  0  0  0  0  0  0
    2.2793  -52.9658  -26.2536 C   0  0  0  0  0  0  0  0  0  0  0  0
    2.4348  -52.9706  -27.6329 C   0  0  0  0  0  0  0  0  0  0  0  0
    1.2897  -52.8866  -28.3664 C   0  0  0  0  0  0  0  0  0  0  0  0
    0.0180  -52.8011  -27.8403 C   0  0  0  0  0  0  0  0  0  0  0  0
   -0.0633  -52.8045  -26.4504 C   0  0  0  0  0  0  0  0  0  0  0  0
   -1.1718  -52.7040  -28.7106 C   0  0  0  0  0  0  0  0  0  0  0  0
   -1.3468  -53.8994  -29.4021 F   0  0  0  0  0  0  0  0  0  0  0  0
   -2.2835  -52.4498  -27.9087 F   0  0  0  0  0  0  0  0  0  0  0  0
   -1.0458  -51.6806  -29.6272 F   0  0  0  0  0  0  0  0  0  0  0  0
  1  2  1  0  0  0
  2  3  2  0  0  0
  3  4  1  0  0  0
  4  5  2  0  0  0
  5 25  1  0  0  0
 25 26  1  0  0  0
 26 27  2  0  0  0
 26 29  1  0  0  0
 29 30  2  0  0  0
 30 31  1  0  0  0
 31 32  2  0  0  0
 32 33  1  0  0  0
 33 34  2  0  0  0
 33 35  1  0  0  0
 35 36  1  0  0  0
 35 37  1  0  0  0
 35 38  1  0  0  0
  5  6  1  0  0  0
  6  7  2  0  0  0
  7  8  1  0  0  0
  8  9  2  0  0  0
  9 10  1  0  0  0
 10 11  2  0  0  0
 11 20  1  0  0  0
 20 21  1  0  0  0
 21 22  1  0  0  0
 22 23  1  0  0  0
 11 12  1  0  0  0
 12 13  2  0  0  0
 12 14  1  0  0  0
 14 15  1  0  0  0
 15 16  1  0  0  0
 16 17  1  0  0  0
 17 18  1  0  0  0
 18 19  1  0  0  0
  7  2  1  0  0  0
 13  8  1  0  0  0
 19 14  1  0  0  0
 34 29  1  0  0  0
 25 28  1  0  0  0
 23 24  1  0  0  0
M  END
> <minimizedAffinity>
-8.27783

> <CNNscore>
0.4958542883

> <CNNaffinity>
6.7913331985

> <CNN_VS>
3.3675117493

> <CNNaffinity_variance>
0.1326479167

$$$$
[H]OC([H])([H])C([H])([H])Oc1nc([H])c(-c2c(C([H])([H])[H])nc([H])c(N([H])C(=O)c3c([H])c([H])c([H])c(C(F)(F)F)c3[H])c2[H])c([H])c1N1C([H])([H])C([H])([H])OC([H])([H])C1([H])[H]


 38 41  0  0  0  0  0  0  0  0999 V2000
   -0.3468  -54.4893  -21.4795 C   0  0  0  0  0  0  0  0  0  0  0  0
   -0.2694  -53.3768  -20.5085 C   0  0  0  0  0  0  0  0  0  0  0  0
   -0.6263  -53.5832  -19.2378 N   0  0  0  0  0  0  0  0  0  0  0  0
   -0.5786  -52.6427  -18.2914 C   0  0  0  0  0  0  0  0  0  0  0  0
   -0.1385  -51.3474  -18.5898 C   0  0  0  0  0  0  0  0  0  0  0  0
    0.2232  -51.1431  -19.8895 C   0  0  0  0  0  0  0  0  0  0  0  0
    0.1739  -52.1193  -20.8666 C   0  0  0  0  0  0  0  0  0  0  0  0
    0.5634  -51.8296  -22.2393 C   0  0  0  0  0  0  0  0  0  0  0  0
    1.5910  -50.9638  -22.5355 C   0  0  0  0  0  0  0  0  0  0  0  0
    1.8940  -50.7555  -23.8265 N   0  0  0  0  0  0  0  0  0  0  0  0
    1.2623  -51.3373  -24.8563 C   0  0  0  0  0  0  0  0  0  0  0  0
    0.2028  -52.2300  -24.6040 C   0  0  0  0  0  0  0  0  0  0  0  0
   -0.1111  -52.4475  -23.2949 C   0  0  0  0  0  0  0  0  0  0  0  0
   -0.4720  -52.8352  -25.6881 N   0  0  0  0  0  0  0  0  0  0  0  0
   -1.5657  -52.1996  -26.3841 C   0  0  0  0  0  0  0  0  0  0  0  0
   -1.4709  -52.5444  -27.8493 C   0  0  0  0  0  0  0  0  0  0  0  0
   -0.1103  -52.8399  -28.1199 O   0  0  0  0  0  0  0  0  0  0  0  0
    0.0445  -54.1693  -27.6988 C   0  0  0  0  0  0  0  0  0  0  0  0
   -0.0730  -54.1640  -26.1682 C   0  0  0  0  0  0  0  0  0  0  0  0
    1.5445  -51.1498  -26.1833 O   0  0  0  0  0  0  0  0  0  0  0  0
    2.8215  -51.2017  -26.7275 C   0  0  0  0  0  0  0  0  0  0  0  0
    3.2480  -52.5747  -27.2150 C   0  0  0  0  0  0  0  0  0  0  0  0
    2.9157  -52.6889  -28.5881 O   0  0  0  0  0  0  0  0  0  0  0  0
    2.7752  -53.6551  -28.8088 H   0  0  0  0  0  0  0  0  0  0  0  0
   -0.1112  -50.4061  -17.5429 N   0  0  0  0  0  0  0  0  0  0  0  0
    1.0024  -50.0404  -16.7739 C   0  0  0  0  0  0  0  0  0  0  0  0
    2.1703  -50.4766  -16.8743 O   0  0  0  0  0  0  0  0  0  0  0  0
   -1.0207  -49.9068  -17.2991 H   0  0  0  0  0  0  0  0  0  0  0  0
    0.8175  -49.0281  -15.7144 C   0  0  0  0  0  0  0  0  0  0  0  0
    1.8266  -48.8721  -14.7983 C   0  0  0  0  0  0  0  0  0  0  0  0
    1.7473  -47.9585  -13.7563 C   0  0  0  0  0  0  0  0  0  0  0  0
    0.6031  -47.2219  -13.6895 C   0  0  0  0  0  0  0  0  0  0  0  0
   -0.4542  -47.3217  -14.5691 C   0  0  0  0  0  0  0  0  0  0  0  0
   -0.3053  -48.2558  -15.5907 C   0  0  0  0  0  0  0  0  0  0  0  0
   -1.6648  -46.4885  -14.4176 C   0  0  0  0  0  0  0  0  0  0  0  0
   -2.0598  -46.4723  -13.0828 F   0  0  0  0  0  0  0  0  0  0  0  0
   -1.3640  -45.1950  -14.8417 F   0  0  0  0  0  0  0  0  0  0  0  0
   -2.7092  -46.9708  -15.1790 F   0  0  0  0  0  0  0  0  0  0  0  0
  1  2  1  0  0  0
  2  3  2  0  0  0
  3  4  1  0  0  0
  4  5  2  0  0  0
  5 25  1  0  0  0
 25 26  1  0  0  0
 26 27  2  0  0  0
 26 29  1  0  0  0
 29 30  2  0  0  0
 30 31  1  0  0  0
 31 32  2  0  0  0
 32 33  1  0  0  0
 33 34  2  0  0  0
 33 35  1  0  0  0
 35 36  1  0  0  0
 35 37  1  0  0  0
 35 38  1  0  0  0
  5  6  1  0  0  0
  6  7  2  0  0  0
  7  8  1  0  0  0
  8  9  2  0  0  0
  9 10  1  0  0  0
 10 11  2  0  0  0
 11 20  1  0  0  0
 20 21  1  0  0  0
 21 22  1  0  0  0
 22 23  1  0  0  0
 11 12  1  0  0  0
 12 13  2  0  0  0
 12 14  1  0  0  0
 14 15  1  0  0  0
 15 16  1  0  0  0
 16 17  1  0  0  0
 17 18  1  0  0  0
 18 19  1  0  0  0
  7  2  1  0  0  0
 13  8  1  0  0  0
 19 14  1  0  0  0
 34 29  1  0  0  0
 25 28  1  0  0  0
 23 24  1  0  0  0
M  END
> <minimizedAffinity>
-7.77962

> <CNNscore>
0.4631748796

> <CNNaffinity>
6.9201416969

> <CNN_VS>
3.2052357197

> <CNNaffinity_variance>
0.1550341249

$$$$
[H]c1nc(N2C([H])([H])[C@@]3([H])N(C([H])([H])[H])C([H])([H])[C@@]2([H])C3([H])[H])c([H])c([H])c1-c1c([H])c([H])c(C(F)(F)F)c([H])c1[H]


 24 27  0  0  0  0  0  0  0  0999 V2000
    3.5429  -48.0594  -19.8963 C   0  0  0  0  0  0  0  0  0  0  0  0
    2.2182  -48.0957  -20.5991 C   0  0  0  0  0  0  0  0  0  0  0  0
    2.1450  -47.8384  -22.0751 C   0  0  0  0  0  0  0  0  0  0  0  0
    3.3964  -47.5449  -22.8482 C   0  0  0  0  0  0  0  0  0  0  0  0
    4.7211  -47.5086  -22.1454 C   0  0  0  0  0  0  0  0  0  0  0  0
    4.7944  -47.7658  -20.6695 N   0  0  0  0  0  0  0  0  0  0  0  0
    3.7875  -49.5744  -13.8817 C   0  0  0  0  0  0  0  0  0  0  0  0
    3.7142  -49.3172  -15.3576 N   0  0  0  0  0  0  0  0  0  0  0  0
    3.5203  -50.3534  -16.4247 C   0  0  0  0  0  0  0  0  0  0  0  0
    3.5083  -49.6552  -17.7522 C   0  0  0  0  0  0  0  0  0  0  0  0
    3.6948  -48.1874  -17.5057 C   0  0  0  0  0  0  0  0  0  0  0  0
    3.8221  -47.9785  -16.0258 C   0  0  0  0  0  0  0  0  0  0  0  0
    3.8101  -47.2803  -17.3533 C   0  0  0  0  0  0  0  0  0  0  0  0
    3.6161  -48.3166  -18.4204 N   0  0  0  0  0  0  0  0  0  0  0  0
    3.3232  -47.2877  -24.3242 C   0  0  0  0  0  0  0  0  0  0  0  0
    2.9851  -45.9169  -24.8308 C   0  0  0  0  0  0  0  0  0  0  0  0
    2.9118  -45.6597  -26.3067 C   0  0  0  0  0  0  0  0  0  0  0  0
    3.1767  -46.7733  -27.2761 C   0  0  0  0  0  0  0  0  0  0  0  0
    3.5148  -48.1441  -26.7696 C   0  0  0  0  0  0  0  0  0  0  0  0
    3.5880  -48.4013  -25.2936 C   0  0  0  0  0  0  0  0  0  0  0  0
    3.1034  -46.5160  -28.7521 C   0  0  0  0  0  0  0  0  0  0  0  0
    3.0302  -46.2588  -30.2281 F   0  0  0  0  0  0  0  0  0  0  0  0
    2.2789  -45.2891  -28.4974 F   0  0  0  0  0  0  0  0  0  0  0  0
    3.9279  -47.7429  -29.0068 F   0  0  0  0  0  0  0  0  0  0  0  0
  7  8  1  0  0  0
  8  9  1  0  0  0
  9 10  1  0  0  0
 10 11  1  0  0  0
 11 12  1  0  0  0
 12 13  1  0  0  0
 13 14  1  0  0  0
 14  1  1  0  0  0
  1  2  2  0  0  0
  2  3  1  0  0  0
  3  4  2  0  0  0
  4  5  1  0  0  0
  5  6  2  0  0  0
  4 15  1  0  0  0
 15 16  2  0  0  0
 16 17  1  0  0  0
 17 18  2  0  0  0
 18 19  1  0  0  0
 19 20  2  0  0  0
 18 21  1  0  0  0
 21 22  1  0  0  0
 21 23  1  0  0  0
 21 24  1  0  0  0
 12  8  1  0  0  0
  6  1  1  0  0  0
 20 15  1  0  0  0
 14 10  1  0  0  0
M  END
> <minimizedAffinity>
-4.69360

> <CNNscore>
0.4410214424

> <CNNaffinity>
4.9172329903

> <CNN_VS>
2.1686050892

> <CNNaffinity_variance>
0.4512611032

$$$$
[H]c1nc(N2C([H])([H])[C@@]3([H])N(C([H])([H])[H])C([H])([H])[C@@]2([H])C3([H])[H])c([H])c([H])c1-c1c([H])c([H])c(C(F)(F)F)c([H])c1[H]


 24 27  0  0  0  0  0  0  0  0999 V2000
   -0.0035  -51.9786  -19.9908 C   0  0  0  0  0  0  0  0  0  0  0  0
    0.6937  -50.9628  -20.8463 C   0  0  0  0  0  0  0  0  0  0  0  0
    0.7111  -51.1232  -22.3376 C   0  0  0  0  0  0  0  0  0  0  0  0
    0.0312  -52.2994  -22.9734 C   0  0  0  0  0  0  0  0  0  0  0  0
   -0.6661  -53.3153  -22.1179 C   0  0  0  0  0  0  0  0  0  0  0  0
   -0.6834  -53.1549  -20.6266 N   0  0  0  0  0  0  0  0  0  0  0  0
    0.3010  -51.0468  -13.8614 C   0  0  0  0  0  0  0  0  0  0  0  0
    0.3183  -51.2071  -15.3527 N   0  0  0  0  0  0  0  0  0  0  0  0
    1.3125  -50.5943  -16.2939 C   0  0  0  0  0  0  0  0  0  0  0  0
    0.9531  -51.0169  -17.6875 C   0  0  0  0  0  0  0  0  0  0  0  0
   -0.2633  -51.8909  -17.6077 C   0  0  0  0  0  0  0  0  0  0  0  0
   -0.6556  -52.0085  -16.1647 C   0  0  0  0  0  0  0  0  0  0  0  0
   -1.0151  -52.4312  -17.5583 C   0  0  0  0  0  0  0  0  0  0  0  0
   -0.0208  -51.8183  -18.4995 N   0  0  0  0  0  0  0  0  0  0  0  0
    0.0485  -52.4597  -24.4647 C   0  0  0  0  0  0  0  0  0  0  0  0
    1.2551  -53.0377  -25.1429 C   0  0  0  0  0  0  0  0  0  0  0  0
    1.2724  -53.1981  -26.6342 C   0  0  0  0  0  0  0  0  0  0  0  0
    0.0831  -52.7805  -27.4473 C   0  0  0  0  0  0  0  0  0  0  0  0
   -1.1236  -52.2025  -26.7691 C   0  0  0  0  0  0  0  0  0  0  0  0
   -1.1409  -52.0421  -25.2778 C   0  0  0  0  0  0  0  0  0  0  0  0
    0.1004  -52.9408  -28.9386 C   0  0  0  0  0  0  0  0  0  0  0  0
    0.1177  -53.1012  -30.4299 F   0  0  0  0  0  0  0  0  0  0  0  0
    1.3616  -53.7466  -28.8373 F   0  0  0  0  0  0  0  0  0  0  0  0
   -1.1607  -52.1351  -29.0399 F   0  0  0  0  0  0  0  0  0  0  0  0
  7  8  1  0  0  0
  8  9  1  0  0  0
  9 10  1  0  0  0
 10 11  1  0  0  0
 11 12  1  0  0  0
 12 13  1  0  0  0
 13 14  1  0  0  0
 14  1  1  0  0  0
  1  2  2  0  0  0
  2  3  1  0  0  0
  3  4  2  0  0  0
  4  5  1  0  0  0
  5  6  2  0  0  0
  4 15  1  0  0  0
 15 16  2  0  0  0
 16 17  1  0  0  0
 17 18  2  0  0  0
 18 19  1  0  0  0
 19 20  2  0  0  0
 18 21  1  0  0  0
 21 22  1  0  0  0
 21 23  1  0  0  0
 21 24  1  0  0  0
 12  8  1  0  0  0
  6  1  1  0  0  0
 20 15  1  0  0  0
 14 10  1  0  0  0
M  END
> <minimizedAffinity>
-8.17236

> <CNNscore>
0.4389114976

> <CNNaffinity>
5.4789099693

> <CNN_VS>
2.4047565460

> <CNNaffinity_variance>
0.2102867663

$$$$
[H]c1nc(N2C([H])([H])[C@@]3([H])N(C([H])([H])[H])C([H])([H])[C@@]2([H])C3([H])[H])c([H])c([H])c1-c1c([H])c([H])c(C(F)(F)F)c([H])c1[H]


 24 27  0  0  0  0  0  0  0  0999 V2000
    0.0275  -51.9472  -19.9499 C   0  0  0  0  0  0  0  0  0  0  0  0
    0.6989  -50.9199  -20.8124 C   0  0  0  0  0  0  0  0  0  0  0  0
    0.7130  -51.0856  -22.3032 C   0  0  0  0  0  0  0  0  0  0  0  0
    0.0557  -52.2786  -22.9314 C   0  0  0  0  0  0  0  0  0  0  0  0
   -0.6157  -53.3059  -22.0689 C   0  0  0  0  0  0  0  0  0  0  0  0
   -0.6298  -53.1402  -20.5782 N   0  0  0  0  0  0  0  0  0  0  0  0
    0.3422  -50.9895  -13.8250 C   0  0  0  0  0  0  0  0  0  0  0  0
    0.3563  -51.1552  -15.3158 N   0  0  0  0  0  0  0  0  0  0  0  0
    1.3410  -50.5354  -16.2625 C   0  0  0  0  0  0  0  0  0  0  0  0
    0.9815  -50.9669  -17.6534 C   0  0  0  0  0  0  0  0  0  0  0  0
   -0.2254  -51.8534  -17.5663 C   0  0  0  0  0  0  0  0  0  0  0  0
   -0.6118  -51.9697  -16.1215 C   0  0  0  0  0  0  0  0  0  0  0  0
   -0.9714  -52.4013  -17.5124 C   0  0  0  0  0  0  0  0  0  0  0  0
    0.0134  -51.7815  -18.4592 N   0  0  0  0  0  0  0  0  0  0  0  0
    0.0698  -52.4443  -24.4222 C   0  0  0  0  0  0  0  0  0  0  0  0
   -1.1287  -52.0478  -25.2323 C   0  0  0  0  0  0  0  0  0  0  0  0
   -1.1146  -52.2135  -26.7230 C   0  0  0  0  0  0  0  0  0  0  0  0
    0.0980  -52.7757  -27.4037 C   0  0  0  0  0  0  0  0  0  0  0  0
    1.2967  -53.1722  -26.5936 C   0  0  0  0  0  0  0  0  0  0  0  0
    1.2826  -53.0065  -25.1029 C   0  0  0  0  0  0  0  0  0  0  0  0
    0.1121  -52.9414  -28.8944 C   0  0  0  0  0  0  0  0  0  0  0  0
    0.1263  -53.1071  -30.3852 F   0  0  0  0  0  0  0  0  0  0  0  0
    1.3769  -53.7416  -28.7935 F   0  0  0  0  0  0  0  0  0  0  0  0
   -1.1526  -52.1412  -28.9954 F   0  0  0  0  0  0  0  0  0  0  0  0
  7  8  1  0  0  0
  8  9  1  0  0  0
  9 10  1  0  0  0
 10 11  1  0  0  0
 11 12  1  0  0  0
 12 13  1  0  0  0
 13 14  1  0  0  0
 14  1  1  0  0  0
  1  2  2  0  0  0
  2  3  1  0  0  0
  3  4  2  0  0  0
  4  5  1  0  0  0
  5  6  2  0  0  0
  4 15  1  0  0  0
 15 16  2  0  0  0
 16 17  1  0  0  0
 17 18  2  0  0  0
 18 19  1  0  0  0
 19 20  2  0  0  0
 18 21  1  0  0  0
 21 22  1  0  0  0
 21 23  1  0  0  0
 21 24  1  0  0  0
 12  8  1  0  0  0
  6  1  1  0  0  0
 20 15  1  0  0  0
 14 10  1  0  0  0
M  END
> <minimizedAffinity>
-8.15093

> <CNNscore>
0.4313431680

> <CNNaffinity>
5.4692363739

> <CNN_VS>
2.3591177464

> <CNNaffinity_variance>
0.2123746127

$$$$
[H]c1nc(N2C([H])([H])[C@@]3([H])N(C([H])([H])[H])C([H])([H])[C@@]2([H])C3([H])[H])c([H])c([H])c1-c1c([H])c([H])c(C(F)(F)F)c([H])c1[H]


 24 27  0  0  0  0  0  0  0  0999 V2000
    3.4397  -48.0049  -19.9353 C   0  0  0  0  0  0  0  0  0  0  0  0
    2.1739  -48.0296  -20.7397 C   0  0  0  0  0  0  0  0  0  0  0  0
    2.2330  -47.9218  -22.2346 C   0  0  0  0  0  0  0  0  0  0  0  0
    3.5579  -47.7894  -22.9252 C   0  0  0  0  0  0  0  0  0  0  0  0
    4.8238  -47.7647  -22.1208 C   0  0  0  0  0  0  0  0  0  0  0  0
    4.7647  -47.8724  -20.6259 N   0  0  0  0  0  0  0  0  0  0  0  0
    3.2144  -47.9876  -13.7321 C   0  0  0  0  0  0  0  0  0  0  0  0
    3.2736  -47.8799  -15.2270 N   0  0  0  0  0  0  0  0  0  0  0  0
    3.3574  -46.6073  -16.0167 C   0  0  0  0  0  0  0  0  0  0  0  0
    3.3949  -46.9667  -17.4725 C   0  0  0  0  0  0  0  0  0  0  0  0
    3.3342  -48.4614  -17.5826 C   0  0  0  0  0  0  0  0  0  0  0  0
    3.2592  -49.0258  -16.1949 C   0  0  0  0  0  0  0  0  0  0  0  0
    3.2967  -49.3853  -17.6507 C   0  0  0  0  0  0  0  0  0  0  0  0
    3.3805  -48.1126  -18.4403 N   0  0  0  0  0  0  0  0  0  0  0  0
    3.6170  -47.6817  -24.4202 C   0  0  0  0  0  0  0  0  0  0  0  0
    4.4058  -48.6809  -25.2135 C   0  0  0  0  0  0  0  0  0  0  0  0
    4.4649  -48.5731  -26.7085 C   0  0  0  0  0  0  0  0  0  0  0  0
    3.7353  -47.4662  -27.4101 C   0  0  0  0  0  0  0  0  0  0  0  0
    2.9465  -46.4669  -26.6167 C   0  0  0  0  0  0  0  0  0  0  0  0
    2.8874  -46.5746  -25.1218 C   0  0  0  0  0  0  0  0  0  0  0  0
    3.7944  -47.3584  -28.9050 C   0  0  0  0  0  0  0  0  0  0  0  0
    3.8535  -47.2507  -30.4000 F   0  0  0  0  0  0  0  0  0  0  0  0
    4.8963  -48.3757  -28.9348 F   0  0  0  0  0  0  0  0  0  0  0  0
    2.6925  -46.3412  -28.8753 F   0  0  0  0  0  0  0  0  0  0  0  0
  7  8  1  0  0  0
  8  9  1  0  0  0
  9 10  1  0  0  0
 10 11  1  0  0  0
 11 12  1  0  0  0
 12 13  1  0  0  0
 13 14  1  0  0  0
 14  1  1  0  0  0
  1  2  2  0  0  0
  2  3  1  0  0  0
  3  4  2  0  0  0
  4  5  1  0  0  0
  5  6  2  0  0  0
  4 15  1  0  0  0
 15 16  2  0  0  0
 16 17  1  0  0  0
 17 18  2  0  0  0
 18 19  1  0  0  0
 19 20  2  0  0  0
 18 21  1  0  0  0
 21 22  1  0  0  0
 21 23  1  0  0  0
 21 24  1  0  0  0
 12  8  1  0  0  0
  6  1  1  0  0  0
 20 15  1  0  0  0
 14 10  1  0  0  0
M  END
> <minimizedAffinity>
-4.13704

> <CNNscore>
0.4105603695

> <CNNaffinity>
4.8880314827

> <CNN_VS>
2.0068321228

> <CNNaffinity_variance>
0.6802610755

$$$$
[H]c1nc(N2C([H])([H])[C@@]3([H])N(C([H])([H])[H])C([H])([H])[C@@]2([H])C3([H])[H])c([H])c([H])c1-c1c([H])c([H])c(C(F)(F)F)c([H])c1[H]


 24 27  0  0  0  0  0  0  0  0999 V2000
    0.1263  -52.3711  -23.3161 C   0  0  0  0  0  0  0  0  0  0  0  0
    0.8224  -51.1976  -22.6931 C   0  0  0  0  0  0  0  0  0  0  0  0
    0.7991  -51.0155  -21.2043 C   0  0  0  0  0  0  0  0  0  0  0  0
    0.0797  -52.0069  -20.3387 C   0  0  0  0  0  0  0  0  0  0  0  0
   -0.6165  -53.1805  -20.9617 C   0  0  0  0  0  0  0  0  0  0  0  0
   -0.5932  -53.3626  -22.4505 N   0  0  0  0  0  0  0  0  0  0  0  0
   -0.2184  -52.9813  -29.4838 C   0  0  0  0  0  0  0  0  0  0  0  0
   -0.2417  -52.7993  -27.9950 N   0  0  0  0  0  0  0  0  0  0  0  0
   -1.4097  -52.3232  -27.1832 C   0  0  0  0  0  0  0  0  0  0  0  0
   -0.9910  -52.2910  -25.7432 C   0  0  0  0  0  0  0  0  0  0  0  0
    0.4358  -52.7473  -25.6650 C   0  0  0  0  0  0  0  0  0  0  0  0
    0.8989  -53.0614  -27.0568 C   0  0  0  0  0  0  0  0  0  0  0  0
    1.3177  -53.0293  -25.6167 C   0  0  0  0  0  0  0  0  0  0  0  0
    0.1496  -52.5531  -24.8049 N   0  0  0  0  0  0  0  0  0  0  0  0
    0.0563  -51.8249  -18.8500 C   0  0  0  0  0  0  0  0  0  0  0  0
    1.0096  -50.8689  -18.1962 C   0  0  0  0  0  0  0  0  0  0  0  0
    0.9863  -50.6869  -16.7075 C   0  0  0  0  0  0  0  0  0  0  0  0
    0.0097  -51.4608  -15.8725 C   0  0  0  0  0  0  0  0  0  0  0  0
   -0.9436  -52.4168  -16.5262 C   0  0  0  0  0  0  0  0  0  0  0  0
   -0.9203  -52.5989  -18.0149 C   0  0  0  0  0  0  0  0  0  0  0  0
   -0.0136  -51.2787  -14.3838 C   0  0  0  0  0  0  0  0  0  0  0  0
   -0.0369  -51.0967  -12.8950 F   0  0  0  0  0  0  0  0  0  0  0  0
   -0.5068  -49.8736  -14.5633 F   0  0  0  0  0  0  0  0  0  0  0  0
    0.4796  -52.6839  -14.2042 F   0  0  0  0  0  0  0  0  0  0  0  0
  7  8  1  0  0  0
  8  9  1  0  0  0
  9 10  1  0  0  0
 10 11  1  0  0  0
 11 12  1  0  0  0
 12 13  1  0  0  0
 13 14  1  0  0  0
 14  1  1  0  0  0
  1  2  2  0  0  0
  2  3  1  0  0  0
  3  4  2  0  0  0
  4  5  1  0  0  0
  5  6  2  0  0  0
  4 15  1  0  0  0
 15 16  2  0  0  0
 16 17  1  0  0  0
 17 18  2  0  0  0
 18 19  1  0  0  0
 19 20  2  0  0  0
 18 21  1  0  0  0
 21 22  1  0  0  0
 21 23  1  0  0  0
 21 24  1  0  0  0
 12  8  1  0  0  0
  6  1  1  0  0  0
 20 15  1  0  0  0
 14 10  1  0  0  0
M  END
> <minimizedAffinity>
-7.12672

> <CNNscore>
0.3925073445

> <CNNaffinity>
5.8655271530

> <CNN_VS>
2.3022625446

> <CNNaffinity_variance>
0.0873907581

$$$$
[H]c1nc(N2C([H])([H])[C@@]3([H])N(C([H])([H])[H])C([H])([H])[C@@]2([H])C3([H])[H])c([H])c([H])c1-c1c([H])c([H])c(C(F)(F)F)c([H])c1[H]


 24 27  0  0  0  0  0  0  0  0999 V2000
   -0.0656  -52.1887  -23.4227 C   0  0  0  0  0  0  0  0  0  0  0  0
    0.8254  -51.1341  -22.8364 C   0  0  0  0  0  0  0  0  0  0  0  0
    0.9050  -50.9618  -21.3485 C   0  0  0  0  0  0  0  0  0  0  0  0
    0.0935  -51.8440  -20.4468 C   0  0  0  0  0  0  0  0  0  0  0  0
   -0.7976  -52.8987  -21.0331 C   0  0  0  0  0  0  0  0  0  0  0  0
   -0.8772  -53.0711  -22.5210 N   0  0  0  0  0  0  0  0  0  0  0  0
    0.0411  -53.0601  -29.5676 C   0  0  0  0  0  0  0  0  0  0  0  0
    0.1206  -52.8877  -28.0797 N   0  0  0  0  0  0  0  0  0  0  0  0
    1.3061  -53.2056  -27.2174 C   0  0  0  0  0  0  0  0  0  0  0  0
    0.9468  -52.8816  -25.7976 C   0  0  0  0  0  0  0  0  0  0  0  0
   -0.4608  -52.3635  -25.7823 C   0  0  0  0  0  0  0  0  0  0  0  0
   -0.9714  -52.3673  -27.1927 C   0  0  0  0  0  0  0  0  0  0  0  0
   -1.3308  -52.0432  -25.7729 C   0  0  0  0  0  0  0  0  0  0  0  0
   -0.1452  -52.3611  -24.9106 N   0  0  0  0  0  0  0  0  0  0  0  0
    0.1730  -51.6716  -18.9589 C   0  0  0  0  0  0  0  0  0  0  0  0
   -0.7600  -52.4331  -18.0647 C   0  0  0  0  0  0  0  0  0  0  0  0
   -0.6804  -52.2608  -16.5768 C   0  0  0  0  0  0  0  0  0  0  0  0
    0.3321  -51.3269  -15.9830 C   0  0  0  0  0  0  0  0  0  0  0  0
    1.2652  -50.5654  -16.8772 C   0  0  0  0  0  0  0  0  0  0  0  0
    1.1857  -50.7377  -18.3651 C   0  0  0  0  0  0  0  0  0  0  0  0
    0.4117  -51.1546  -14.4950 C   0  0  0  0  0  0  0  0  0  0  0  0
    0.4912  -50.9822  -13.0071 F   0  0  0  0  0  0  0  0  0  0  0  0
    0.3118  -49.6672  -14.6620 F   0  0  0  0  0  0  0  0  0  0  0  0
    0.5115  -52.6419  -14.3281 F   0  0  0  0  0  0  0  0  0  0  0  0
  7  8  1  0  0  0
  8  9  1  0  0  0
  9 10  1  0  0  0
 10 11  1  0  0  0
 11 12  1  0  0  0
 12 13  1  0  0  0
 13 14  1  0  0  0
 14  1  1  0  0  0
  1  2  2  0  0  0
  2  3  1  0  0  0
  3  4  2  0  0  0
  4  5  1  0  0  0
  5  6  2  0  0  0
  4 15  1  0  0  0
 15 16  2  0  0  0
 16 17  1  0  0  0
 17 18  2  0  0  0
 18 19  1  0  0  0
 19 20  2  0  0  0
 18 21  1  0  0  0
 21 22  1  0  0  0
 21 23  1  0  0  0
 21 24  1  0  0  0
 12  8  1  0  0  0
  6  1  1  0  0  0
 20 15  1  0  0  0
 14 10  1  0  0  0
M  END
> <minimizedAffinity>
-7.09708

> <CNNscore>
0.3868376017

> <CNNaffinity>
5.8659901619

> <CNN_VS>
2.2691855431

> <CNNaffinity_variance>
0.0961971879

$$$$
[H]c1nc(N2C([H])([H])[C@@]3([H])N(C([H])([H])[H])C([H])([H])[C@@]2([H])C3([H])[H])c([H])c([H])c1-c1c([H])c([H])c(C(F)(F)F)c([H])c1[H]


 24 27  0  0  0  0  0  0  0  0999 V2000
    5.1133  -47.3605  -27.9633 C   0  0  0  0  0  0  0  0  0  0  0  0
    5.5376  -46.8992  -26.6005 C   0  0  0  0  0  0  0  0  0  0  0  0
    5.0376  -47.6109  -25.3784 C   0  0  0  0  0  0  0  0  0  0  0  0
    4.1133  -48.7839  -25.5191 C   0  0  0  0  0  0  0  0  0  0  0  0
    3.6890  -49.2452  -26.8819 C   0  0  0  0  0  0  0  0  0  0  0  0
    4.1890  -48.5335  -28.1040 N   0  0  0  0  0  0  0  0  0  0  0  0
    7.5883  -44.6311  -32.9588 C   0  0  0  0  0  0  0  0  0  0  0  0
    7.0883  -45.3428  -31.7367 N   0  0  0  0  0  0  0  0  0  0  0  0
    7.8723  -46.3044  -30.8938 C   0  0  0  0  0  0  0  0  0  0  0  0
    6.9851  -46.7738  -29.7791 C   0  0  0  0  0  0  0  0  0  0  0  0
    5.6527  -46.1022  -29.9331 C   0  0  0  0  0  0  0  0  0  0  0  0
    5.7165  -45.2178  -31.1430 C   0  0  0  0  0  0  0  0  0  0  0  0
    4.8292  -45.6871  -30.0283 C   0  0  0  0  0  0  0  0  0  0  0  0
    5.6133  -46.6488  -29.1854 N   0  0  0  0  0  0  0  0  0  0  0  0
    3.6133  -49.4956  -24.2970 C   0  0  0  0  0  0  0  0  0  0  0  0
    3.9061  -50.9542  -24.1061 C   0  0  0  0  0  0  0  0  0  0  0  0
    3.4061  -51.6659  -22.8841 C   0  0  0  0  0  0  0  0  0  0  0  0
    2.6134  -50.9189  -21.8528 C   0  0  0  0  0  0  0  0  0  0  0  0
    2.3206  -49.4602  -22.0436 C   0  0  0  0  0  0  0  0  0  0  0  0
    2.8206  -48.7485  -23.2657 C   0  0  0  0  0  0  0  0  0  0  0  0
    2.1134  -51.6306  -20.6307 C   0  0  0  0  0  0  0  0  0  0  0  0
    1.6134  -52.3423  -19.4086 F   0  0  0  0  0  0  0  0  0  0  0  0
    3.5007  -52.1289  -20.3533 F   0  0  0  0  0  0  0  0  0  0  0  0
    0.7260  -51.1323  -20.9081 F   0  0  0  0  0  0  0  0  0  0  0  0
  7  8  1  0  0  0
  8  9  1  0  0  0
  9 10  1  0  0  0
 10 11  1  0  0  0
 11 12  1  0  0  0
 12 13  1  0  0  0
 13 14  1  0  0  0
 14  1  1  0  0  0
  1  2  2  0  0  0
  2  3  1  0  0  0
  3  4  2  0  0  0
  4  5  1  0  0  0
  5  6  2  0  0  0
  4 15  1  0  0  0
 15 16  2  0  0  0
 16 17  1  0  0  0
 17 18  2  0  0  0
 18 19  1  0  0  0
 19 20  2  0  0  0
 18 21  1  0  0  0
 21 22  1  0  0  0
 21 23  1  0  0  0
 21 24  1  0  0  0
 12  8  1  0  0  0
  6  1  1  0  0  0
 20 15  1  0  0  0
 14 10  1  0  0  0
M  END
> <minimizedAffinity>
-4.38669

> <CNNscore>
0.3467084169

> <CNNaffinity>
4.7334613800

> <CNN_VS>
1.6411309242

> <CNNaffinity_variance>
0.5057457089

$$$$
[H]c1nc(N2C([H])([H])[C@@]3([H])N(C([H])([H])[H])C([H])([H])[C@@]2([H])C3([H])[H])c([H])c([H])c1-c1c([H])c([H])c(C(F)(F)F)c([H])c1[H]


 24 27  0  0  0  0  0  0  0  0999 V2000
    0.5639  -52.6617  -22.8236 C   0  0  0  0  0  0  0  0  0  0  0  0
    0.7393  -51.2305  -22.4102 C   0  0  0  0  0  0  0  0  0  0  0  0
    0.5489  -50.8353  -20.9758 C   0  0  0  0  0  0  0  0  0  0  0  0
    0.1831  -51.8714  -19.9547 C   0  0  0  0  0  0  0  0  0  0  0  0
    0.0077  -53.3027  -20.3680 C   0  0  0  0  0  0  0  0  0  0  0  0
    0.1981  -53.6978  -21.8024 N   0  0  0  0  0  0  0  0  0  0  0  0
    1.7653  -54.0871  -28.7443 C   0  0  0  0  0  0  0  0  0  0  0  0
    1.5749  -53.6920  -27.3099 N   0  0  0  0  0  0  0  0  0  0  0  0
    2.5511  -52.9225  -26.4703 C   0  0  0  0  0  0  0  0  0  0  0  0
    1.9544  -52.7519  -25.1047 C   0  0  0  0  0  0  0  0  0  0  0  0
    0.6093  -53.4159  -25.1003 C   0  0  0  0  0  0  0  0  0  0  0  0
    0.3748  -53.9969  -26.4632 C   0  0  0  0  0  0  0  0  0  0  0  0
   -0.2220  -53.8263  -25.0976 C   0  0  0  0  0  0  0  0  0  0  0  0
    0.7543  -53.0568  -24.2580 N   0  0  0  0  0  0  0  0  0  0  0  0
   -0.0073  -51.4763  -18.5202 C   0  0  0  0  0  0  0  0  0  0  0  0
   -0.7895  -52.3615  -17.5959 C   0  0  0  0  0  0  0  0  0  0  0  0
   -0.9799  -51.9664  -16.1615 C   0  0  0  0  0  0  0  0  0  0  0  0
   -0.3881  -50.6860  -15.6514 C   0  0  0  0  0  0  0  0  0  0  0  0
    0.3942  -49.8006  -16.5757 C   0  0  0  0  0  0  0  0  0  0  0  0
    0.5846  -50.1958  -18.0101 C   0  0  0  0  0  0  0  0  0  0  0  0
   -0.5785  -50.2909  -14.2169 C   0  0  0  0  0  0  0  0  0  0  0  0
   -0.7689  -49.8957  -12.7825 F   0  0  0  0  0  0  0  0  0  0  0  0
   -2.0054  -49.9295  -14.5059 F   0  0  0  0  0  0  0  0  0  0  0  0
    0.8483  -50.6522  -13.9280 F   0  0  0  0  0  0  0  0  0  0  0  0
  7  8  1  0  0  0
  8  9  1  0  0  0
  9 10  1  0  0  0
 10 11  1  0  0  0
 11 12  1  0  0  0
 12 13  1  0  0  0
 13 14  1  0  0  0
 14  1  1  0  0  0
  1  2  2  0  0  0
  2  3  1  0  0  0
  3  4  2  0  0  0
  4  5  1  0  0  0
  5  6  2  0  0  0
  4 15  1  0  0  0
 15 16  2  0  0  0
 16 17  1  0  0  0
 17 18  2  0  0  0
 18 19  1  0  0  0
 19 20  2  0  0  0
 18 21  1  0  0  0
 21 22  1  0  0  0
 21 23  1  0  0  0
 21 24  1  0  0  0
 12  8  1  0  0  0
  6  1  1  0  0  0
 20 15  1  0  0  0
 14 10  1  0  0  0
M  END
> <minimizedAffinity>
-7.02777

> <CNNscore>
0.3249735832

> <CNNaffinity>
5.7422132492

> <CNN_VS>
1.8660676479

> <CNNaffinity_variance>
0.2070780545

$$$$
[H]c1nc(N2C([H])([H])[C@@]3([H])N(C([H])([H])[H])C([H])([H])[C@@]2([H])C3([H])[H])c([H])c([H])c1-c1c([H])c([H])c(C(F)(F)F)c([H])c1[H]


 24 27  0  0  0  0  0  0  0  0999 V2000
    0.1105  -52.3967  -23.3541 C   0  0  0  0  0  0  0  0  0  0  0  0
   -0.5543  -53.4285  -22.4919 C   0  0  0  0  0  0  0  0  0  0  0  0
   -0.5930  -53.2498  -21.0031 C   0  0  0  0  0  0  0  0  0  0  0  0
    0.0330  -52.0392  -20.3765 C   0  0  0  0  0  0  0  0  0  0  0  0
    0.6978  -51.0074  -21.2387 C   0  0  0  0  0  0  0  0  0  0  0  0
    0.7365  -51.1861  -22.7276 N   0  0  0  0  0  0  0  0  0  0  0  0
   -0.1737  -53.0042  -29.5251 C   0  0  0  0  0  0  0  0  0  0  0  0
   -0.2124  -52.8254  -28.0363 N   0  0  0  0  0  0  0  0  0  0  0  0
   -1.3976  -52.3792  -27.2324 C   0  0  0  0  0  0  0  0  0  0  0  0
   -0.9904  -52.3395  -25.7892 C   0  0  0  0  0  0  0  0  0  0  0  0
    0.4464  -52.7611  -25.7012 C   0  0  0  0  0  0  0  0  0  0  0  0
    0.9272  -53.0614  -27.0900 C   0  0  0  0  0  0  0  0  0  0  0  0
    1.3344  -53.0217  -25.6468 C   0  0  0  0  0  0  0  0  0  0  0  0
    0.1492  -52.5755  -24.8429 N   0  0  0  0  0  0  0  0  0  0  0  0
   -0.0057  -51.8604  -18.8877 C   0  0  0  0  0  0  0  0  0  0  0  0
   -0.9584  -52.6707  -18.0595 C   0  0  0  0  0  0  0  0  0  0  0  0
   -0.9971  -52.4919  -16.5707 C   0  0  0  0  0  0  0  0  0  0  0  0
   -0.0832  -51.5029  -15.9101 C   0  0  0  0  0  0  0  0  0  0  0  0
    0.8696  -50.6926  -16.7382 C   0  0  0  0  0  0  0  0  0  0  0  0
    0.9083  -50.8714  -18.2270 C   0  0  0  0  0  0  0  0  0  0  0  0
   -0.1219  -51.3241  -14.4213 C   0  0  0  0  0  0  0  0  0  0  0  0
   -0.1606  -51.1454  -12.9325 F   0  0  0  0  0  0  0  0  0  0  0  0
   -0.7939  -49.9949  -14.5984 F   0  0  0  0  0  0  0  0  0  0  0  0
    0.5502  -52.6534  -14.2442 F   0  0  0  0  0  0  0  0  0  0  0  0
  7  8  1  0  0  0
  8  9  1  0  0  0
  9 10  1  0  0  0
 10 11  1  0  0  0
 11 12  1  0  0  0
 12 13  1  0  0  0
 13 14  1  0  0  0
 14  1  1  0  0  0
  1  2  2  0  0  0
  2  3  1  0  0  0
  3  4  2  0  0  0
  4  5  1  0  0  0
  5  6  2  0  0  0
  4 15  1  0  0  0
 15 16  2  0  0  0
 16 17  1  0  0  0
 17 18  2  0  0  0
 18 19  1  0  0  0
 19 20  2  0  0  0
 18 21  1  0  0  0
 21 22  1  0  0  0
 21 23  1  0  0  0
 21 24  1  0  0  0
 12  8  1  0  0  0
  6  1  1  0  0  0
 20 15  1  0  0  0
 14 10  1  0  0  0
M  END
> <minimizedAffinity>
-7.22605

> <CNNscore>
0.2707761526

> <CNNaffinity>
5.4639697075

> <CNN_VS>
1.4795126915

> <CNNaffinity_variance>
0.1885901392

$$$$
[H]c1c(C(=O)O[C@]([H])(c2c([H])c([H])c(OC([H])([H])[H])c(OC([H])([H])[H])c2[H])C([H])([H])c2c(Cl)c([H])[n+]([O-])c([H])c2Cl)sc(C([H])([H])N2C([H])([H])C([H])([H])OC([H])([H])C2([H])[H])c1[H]


 36 39  0  0  0  0  0  0  0  0999 V2000
    0.9327  -52.5158  -22.0090 C   0  0  0  0  0  0  0  0  0  0  0  0
    2.8246  -48.9168  -20.7858 C   0  0  0  0  0  0  0  0  0  0  0  0
    1.5091  -48.9002  -21.1875 C   0  0  0  0  0  0  0  0  0  0  0  0
    0.9101  -50.1013  -21.5854 C   0  0  0  0  0  0  0  0  0  0  0  0
    1.6123  -51.2836  -21.5798 C   0  0  0  0  0  0  0  0  0  0  0  0
    2.9193  -51.2451  -21.1710 C   0  0  0  0  0  0  0  0  0  0  0  0
    3.5548  -50.0962  -20.7710 C   0  0  0  0  0  0  0  0  0  0  0  0
    3.2835  -47.1268  -19.1455 C   0  0  0  0  0  0  0  0  0  0  0  0
    3.4860  -47.7558  -20.3759 O   0  0  0  0  0  0  0  0  0  0  0  0
    4.9025  -50.0873  -20.3547 O   0  0  0  0  0  0  0  0  0  0  0  0
    5.8551  -50.5048  -21.3131 C   0  0  0  0  0  0  0  0  0  0  0  0
   -0.1202  -52.2635  -23.0509 C   0  0  0  0  0  0  0  0  0  0  0  0
    0.1182  -52.9122  -24.3522 C   0  0  0  0  0  0  0  0  0  0  0  0
   -0.2965  -54.1952  -24.6304 C   0  0  0  0  0  0  0  0  0  0  0  0
   -1.2483  -55.1295  -23.4662 Cl  0  0  0  0  0  0  0  0  0  0  0  0
    0.0143  -54.7237  -25.8602 C   0  0  0  0  0  0  0  0  0  0  0  0
    0.6974  -54.0523  -26.7982 N   0  0  0  0  0  0  0  0  0  0  0  0
    0.9941  -54.6188  -28.0322 O   0  0  0  0  0  0  0  0  0  0  0  0
    1.1129  -52.8039  -26.5596 C   0  0  0  0  0  0  0  0  0  0  0  0
    0.8184  -52.2391  -25.3303 C   0  0  0  0  0  0  0  0  0  0  0  0
    1.3639  -50.6119  -25.0304 Cl  0  0  0  0  0  0  0  0  0  0  0  0
    0.4531  -53.3467  -21.0139 O   0  0  0  0  0  0  0  0  0  0  0  0
   -0.6405  -53.0590  -20.2125 C   0  0  0  0  0  0  0  0  0  0  0  0
   -1.7651  -53.2637  -20.7248 O   0  0  0  0  0  0  0  0  0  0  0  0
   -0.5121  -52.5417  -18.8330 C   0  0  0  0  0  0  0  0  0  0  0  0
   -1.3306  -52.7929  -17.7640 C   0  0  0  0  0  0  0  0  0  0  0  0
   -1.0127  -52.2097  -16.5978 C   0  0  0  0  0  0  0  0  0  0  0  0
    0.0979  -51.4156  -16.5716 C   0  0  0  0  0  0  0  0  0  0  0  0
    0.6690  -51.5032  -18.1733 S   0  0  0  0  0  0  0  0  0  0  0  0
    0.6622  -50.6594  -15.3954 C   0  0  0  0  0  0  0  0  0  0  0  0
    2.0573  -50.9036  -15.1939 N   0  0  0  0  0  0  0  0  0  0  0  0
    2.7280  -49.6216  -15.1780 C   0  0  0  0  0  0  0  0  0  0  0  0
    3.8664  -49.5832  -14.1773 C   0  0  0  0  0  0  0  0  0  0  0  0
    3.4283  -49.8127  -12.8931 O   0  0  0  0  0  0  0  0  0  0  0  0
    2.5203  -50.8381  -12.7724 C   0  0  0  0  0  0  0  0  0  0  0  0
    2.3834  -51.6673  -14.0329 C   0  0  0  0  0  0  0  0  0  0  0  0
  8  9  1  0  0  0
  9  2  1  0  0  0
  2  3  2  0  0  0
  3  4  1  0  0  0
  4  5  2  0  0  0
  5  6  1  0  0  0
  6  7  2  0  0  0
  7 10  1  0  0  0
 10 11  1  0  0  0
  5  1  1  0  0  0
  1 12  1  0  0  0
 12 13  1  0  0  0
 13 14  2  0  0  0
 14 15  1  0  0  0
 14 16  1  0  0  0
 16 17  2  0  0  0
 17 18  1  0  0  0
 17 19  1  0  0  0
 19 20  2  0  0  0
 20 21  1  0  0  0
  1 22  1  0  0  0
 22 23  1  0  0  0
 23 24  2  0  0  0
 23 25  1  0  0  0
 25 26  2  0  0  0
 26 27  1  0  0  0
 27 28  2  0  0  0
 28 30  1  0  0  0
 30 31  1  0  0  0
 31 32  1  0  0  0
 32 33  1  0  0  0
 33 34  1  0  0  0
 34 35  1  0  0  0
 35 36  1  0  0  0
 28 29  1  0  0  0
  7  2  1  0  0  0
 20 13  1  0  0  0
 29 25  1  0  0  0
 36 31  1  0  0  0
M  CHG 1  17   1
M  CHG 1  18  -1
M  END
> <minimizedAffinity>
-7.18906

> <CNNscore>
0.6277920008

> <CNNaffinity>
7.2009468079

> <CNN_VS>
4.5206966400

> <CNNaffinity_variance>
0.2572363317

$$$$
[H]c1c(C(=O)O[C@]([H])(c2c([H])c([H])c(OC([H])([H])[H])c(OC([H])([H])[H])c2[H])C([H])([H])c2c(Cl)c([H])[n+]([O-])c([H])c2Cl)sc(C([H])([H])N2C([H])([H])C([H])([H])OC([H])([H])C2([H])[H])c1[H]


 36 39  0  0  0  0  0  0  0  0999 V2000
    0.0838  -51.8690  -22.8177 C   0  0  0  0  0  0  0  0  0  0  0  0
   -0.1580  -53.2654  -26.8202 C   0  0  0  0  0  0  0  0  0  0  0  0
   -0.0913  -51.9152  -26.5656 C   0  0  0  0  0  0  0  0  0  0  0  0
   -0.0120  -51.4825  -25.2366 C   0  0  0  0  0  0  0  0  0  0  0  0
   -0.0001  -52.3799  -24.1947 C   0  0  0  0  0  0  0  0  0  0  0  0
   -0.0685  -53.7130  -24.5029 C   0  0  0  0  0  0  0  0  0  0  0  0
   -0.1475  -54.1910  -25.7870 C   0  0  0  0  0  0  0  0  0  0  0  0
   -0.3666  -52.9763  -29.2652 C   0  0  0  0  0  0  0  0  0  0  0  0
   -0.2390  -53.7680  -28.1217 O   0  0  0  0  0  0  0  0  0  0  0  0
   -0.2167  -55.5704  -26.0738 O   0  0  0  0  0  0  0  0  0  0  0  0
   -0.7240  -56.3977  -25.0449 C   0  0  0  0  0  0  0  0  0  0  0  0
    1.4894  -51.8643  -22.2864 C   0  0  0  0  0  0  0  0  0  0  0  0
    2.3518  -50.7884  -22.8057 C   0  0  0  0  0  0  0  0  0  0  0  0
    2.1782  -49.4661  -22.4639 C   0  0  0  0  0  0  0  0  0  0  0  0
    0.9573  -48.9722  -21.2809 Cl  0  0  0  0  0  0  0  0  0  0  0  0
    3.0094  -48.5345  -23.0380 C   0  0  0  0  0  0  0  0  0  0  0  0
    3.9777  -48.8505  -23.9096 N   0  0  0  0  0  0  0  0  0  0  0  0
    4.8006  -47.8811  -24.4710 O   0  0  0  0  0  0  0  0  0  0  0  0
    4.1730  -50.1258  -24.2609 C   0  0  0  0  0  0  0  0  0  0  0  0
    3.3534  -51.0920  -23.7028 C   0  0  0  0  0  0  0  0  0  0  0  0
    3.6171  -52.7504  -24.1670 Cl  0  0  0  0  0  0  0  0  0  0  0  0
   -0.7911  -52.4091  -21.8939 O   0  0  0  0  0  0  0  0  0  0  0  0
   -0.4065  -53.1796  -20.8079 C   0  0  0  0  0  0  0  0  0  0  0  0
   -0.0724  -54.3596  -21.0631 O   0  0  0  0  0  0  0  0  0  0  0  0
   -0.3830  -52.6615  -19.4229 C   0  0  0  0  0  0  0  0  0  0  0  0
   -1.1919  -53.0237  -18.3787 C   0  0  0  0  0  0  0  0  0  0  0  0
   -0.9831  -52.4144  -17.2013 C   0  0  0  0  0  0  0  0  0  0  0  0
    0.0160  -51.4855  -17.1400 C   0  0  0  0  0  0  0  0  0  0  0  0
    0.6373  -51.4865  -18.7253 S   0  0  0  0  0  0  0  0  0  0  0  0
    0.4466  -50.6732  -15.9448 C   0  0  0  0  0  0  0  0  0  0  0  0
    1.7114  -51.0850  -15.4182 N   0  0  0  0  0  0  0  0  0  0  0  0
    2.5657  -49.9183  -15.3693 C   0  0  0  0  0  0  0  0  0  0  0  0
    3.4654  -49.9179  -14.1489 C   0  0  0  0  0  0  0  0  0  0  0  0
    2.7418  -49.9236  -12.9784 O   0  0  0  0  0  0  0  0  0  0  0  0
    1.6726  -50.7881  -12.9702 C   0  0  0  0  0  0  0  0  0  0  0  0
    1.6628  -51.7384  -14.1501 C   0  0  0  0  0  0  0  0  0  0  0  0
  8  9  1  0  0  0
  9  2  1  0  0  0
  2  3  2  0  0  0
  3  4  1  0  0  0
  4  5  2  0  0  0
  5  6  1  0  0  0
  6  7  2  0  0  0
  7 10  1  0  0  0
 10 11  1  0  0  0
  5  1  1  0  0  0
  1 12  1  0  0  0
 12 13  1  0  0  0
 13 14  2  0  0  0
 14 15  1  0  0  0
 14 16  1  0  0  0
 16 17  2  0  0  0
 17 18  1  0  0  0
 17 19  1  0  0  0
 19 20  2  0  0  0
 20 21  1  0  0  0
  1 22  1  0  0  0
 22 23  1  0  0  0
 23 24  2  0  0  0
 23 25  1  0  0  0
 25 26  2  0  0  0
 26 27  1  0  0  0
 27 28  2  0  0  0
 28 30  1  0  0  0
 30 31  1  0  0  0
 31 32  1  0  0  0
 32 33  1  0  0  0
 33 34  1  0  0  0
 34 35  1  0  0  0
 35 36  1  0  0  0
 28 29  1  0  0  0
  7  2  1  0  0  0
 20 13  1  0  0  0
 29 25  1  0  0  0
 36 31  1  0  0  0
M  CHG 1  17   1
M  CHG 1  18  -1
M  END
> <minimizedAffinity>
-7.59796

> <CNNscore>
0.3957024217

> <CNNaffinity>
7.1231813431

> <CNN_VS>
2.8186600208

> <CNNaffinity_variance>
0.1713169515

$$$$
[H]c1c(C(=O)O[C@]([H])(c2c([H])c([H])c(OC([H])([H])[H])c(OC([H])([H])[H])c2[H])C([H])([H])c2c(Cl)c([H])[n+]([O-])c([H])c2Cl)sc(C([H])([H])N2C([H])([H])C([H])([H])OC([H])([H])C2([H])[H])c1[H]


 36 39  0  0  0  0  0  0  0  0999 V2000
    0.1541  -52.0676  -21.9869 C   0  0  0  0  0  0  0  0  0  0  0  0
    2.8759  -48.8111  -21.8619 C   0  0  0  0  0  0  0  0  0  0  0  0
    1.6166  -48.6761  -21.3250 C   0  0  0  0  0  0  0  0  0  0  0  0
    0.7396  -49.7658  -21.3796 C   0  0  0  0  0  0  0  0  0  0  0  0
    1.1169  -50.9557  -21.9566 C   0  0  0  0  0  0  0  0  0  0  0  0
    2.3818  -51.0374  -22.4764 C   0  0  0  0  0  0  0  0  0  0  0  0
    3.2808  -50.0007  -22.4494 C   0  0  0  0  0  0  0  0  0  0  0  0
    3.5757  -46.5016  -22.3927 C   0  0  0  0  0  0  0  0  0  0  0  0
    3.8026  -47.7652  -21.8425 O   0  0  0  0  0  0  0  0  0  0  0  0
    4.5775  -50.1145  -22.9930 O   0  0  0  0  0  0  0  0  0  0  0  0
    5.5396  -50.7620  -22.1834 C   0  0  0  0  0  0  0  0  0  0  0  0
   -0.7269  -52.0377  -23.2038 C   0  0  0  0  0  0  0  0  0  0  0  0
   -0.4620  -53.0952  -24.1950 C   0  0  0  0  0  0  0  0  0  0  0  0
   -0.7728  -54.4178  -23.9721 C   0  0  0  0  0  0  0  0  0  0  0  0
   -1.6177  -54.9317  -22.5037 Cl  0  0  0  0  0  0  0  0  0  0  0  0
   -0.4445  -55.3326  -24.9435 C   0  0  0  0  0  0  0  0  0  0  0  0
    0.1596  -55.0000  -26.0932 N   0  0  0  0  0  0  0  0  0  0  0  0
    0.4770  -55.9526  -27.0542 O   0  0  0  0  0  0  0  0  0  0  0  0
    0.4733  -53.7239  -26.3405 C   0  0  0  0  0  0  0  0  0  0  0  0
    0.1581  -52.7744  -25.3835 C   0  0  0  0  0  0  0  0  0  0  0  0
    0.5707  -51.1148  -25.7165 Cl  0  0  0  0  0  0  0  0  0  0  0  0
   -0.5915  -52.2830  -20.8431 O   0  0  0  0  0  0  0  0  0  0  0  0
   -0.0926  -52.8398  -19.6761 C   0  0  0  0  0  0  0  0  0  0  0  0
    0.5235  -53.9229  -19.8045 O   0  0  0  0  0  0  0  0  0  0  0  0
   -0.2641  -52.2112  -18.3484 C   0  0  0  0  0  0  0  0  0  0  0  0
   -1.0879  -52.6132  -17.3307 C   0  0  0  0  0  0  0  0  0  0  0  0
   -1.0744  -51.8817  -16.2056 C   0  0  0  0  0  0  0  0  0  0  0  0
   -0.2429  -50.7993  -16.1666 C   0  0  0  0  0  0  0  0  0  0  0  0
    0.4978  -50.8302  -17.6996 S   0  0  0  0  0  0  0  0  0  0  0  0
   -0.0446  -49.8303  -15.0284 C   0  0  0  0  0  0  0  0  0  0  0  0
    1.2599  -49.2433  -15.0177 N   0  0  0  0  0  0  0  0  0  0  0  0
    1.1061  -47.8305  -15.2894 C   0  0  0  0  0  0  0  0  0  0  0  0
    2.0841  -46.9851  -14.4971 C   0  0  0  0  0  0  0  0  0  0  0  0
    1.9174  -47.1442  -13.1403 O   0  0  0  0  0  0  0  0  0  0  0  0
    1.7392  -48.4456  -12.7339 C   0  0  0  0  0  0  0  0  0  0  0  0
    2.0174  -49.4571  -13.8270 C   0  0  0  0  0  0  0  0  0  0  0  0
  8  9  1  0  0  0
  9  2  1  0  0  0
  2  3  2  0  0  0
  3  4  1  0  0  0
  4  5  2  0  0  0
  5  6  1  0  0  0
  6  7  2  0  0  0
  7 10  1  0  0  0
 10 11  1  0  0  0
  5  1  1  0  0  0
  1 12  1  0  0  0
 12 13  1  0  0  0
 13 14  2  0  0  0
 14 15  1  0  0  0
 14 16  1  0  0  0
 16 17  2  0  0  0
 17 18  1  0  0  0
 17 19  1  0  0  0
 19 20  2  0  0  0
 20 21  1  0  0  0
  1 22  1  0  0  0
 22 23  1  0  0  0
 23 24  2  0  0  0
 23 25  1  0  0  0
 25 26  2  0  0  0
 26 27  1  0  0  0
 27 28  2  0  0  0
 28 30  1  0  0  0
 30 31  1  0  0  0
 31 32  1  0  0  0
 32 33  1  0  0  0
 33 34  1  0  0  0
 34 35  1  0  0  0
 35 36  1  0  0  0
 28 29  1  0  0  0
  7  2  1  0  0  0
 20 13  1  0  0  0
 29 25  1  0  0  0
 36 31  1  0  0  0
M  CHG 1  17   1
M  CHG 1  18  -1
M  END
> <minimizedAffinity>
-6.84884

> <CNNscore>
0.3854438663

> <CNNaffinity>
6.9566345215

> <CNN_VS>
2.6813921928

> <CNNaffinity_variance>
0.2327298820

$$$$
[H]c1c(C(=O)O[C@]([H])(c2c([H])c([H])c(OC([H])([H])[H])c(OC([H])([H])[H])c2[H])C([H])([H])c2c(Cl)c([H])[n+]([O-])c([H])c2Cl)sc(C([H])([H])N2C([H])([H])C([H])([H])OC([H])([H])C2([H])[H])c1[H]


 36 39  0  0  0  0  0  0  0  0999 V2000
    0.0921  -51.9404  -22.6941 C   0  0  0  0  0  0  0  0  0  0  0  0
   -0.1219  -53.2548  -26.7258 C   0  0  0  0  0  0  0  0  0  0  0  0
   -0.0118  -51.9127  -26.4448 C   0  0  0  0  0  0  0  0  0  0  0  0
    0.0572  -51.5071  -25.1067 C   0  0  0  0  0  0  0  0  0  0  0  0
    0.0167  -52.4230  -24.0818 C   0  0  0  0  0  0  0  0  0  0  0  0
   -0.0936  -53.7471  -24.4161 C   0  0  0  0  0  0  0  0  0  0  0  0
   -0.1647  -54.1986  -25.7102 C   0  0  0  0  0  0  0  0  0  0  0  0
   -0.3933  -52.9216  -29.1591 C   0  0  0  0  0  0  0  0  0  0  0  0
   -0.1956  -53.7306  -28.0379 O   0  0  0  0  0  0  0  0  0  0  0  0
   -0.2778  -55.5692  -26.0240 O   0  0  0  0  0  0  0  0  0  0  0  0
   -0.7227  -56.4143  -24.9808 C   0  0  0  0  0  0  0  0  0  0  0  0
    1.5010  -51.8906  -22.1741 C   0  0  0  0  0  0  0  0  0  0  0  0
    2.3125  -50.7654  -22.6705 C   0  0  0  0  0  0  0  0  0  0  0  0
    2.0705  -49.4587  -22.3109 C   0  0  0  0  0  0  0  0  0  0  0  0
    0.8175  -49.0439  -21.1310 Cl  0  0  0  0  0  0  0  0  0  0  0  0
    2.8584  -48.4783  -22.8643 C   0  0  0  0  0  0  0  0  0  0  0  0
    3.8479  -48.7325  -23.7324 N   0  0  0  0  0  0  0  0  0  0  0  0
    4.6256  -47.7151  -24.2726 O   0  0  0  0  0  0  0  0  0  0  0  0
    4.1094  -49.9911  -24.1006 C   0  0  0  0  0  0  0  0  0  0  0  0
    3.3348  -51.0052  -23.5635 C   0  0  0  0  0  0  0  0  0  0  0  0
    3.6845  -52.6413  -24.0496 Cl  0  0  0  0  0  0  0  0  0  0  0  0
   -0.7519  -52.5364  -21.7760 O   0  0  0  0  0  0  0  0  0  0  0  0
   -0.3269  -53.1912  -20.6308 C   0  0  0  0  0  0  0  0  0  0  0  0
    0.1138  -54.3522  -20.7941 O   0  0  0  0  0  0  0  0  0  0  0  0
   -0.3799  -52.5761  -19.2869 C   0  0  0  0  0  0  0  0  0  0  0  0
    0.4006  -51.5626  -18.7975 C   0  0  0  0  0  0  0  0  0  0  0  0
    0.1680  -51.1631  -17.5375 C   0  0  0  0  0  0  0  0  0  0  0  0
   -0.8252  -51.7975  -16.8477 C   0  0  0  0  0  0  0  0  0  0  0  0
   -1.4079  -52.9338  -17.9739 S   0  0  0  0  0  0  0  0  0  0  0  0
   -1.2785  -51.5335  -15.4339 C   0  0  0  0  0  0  0  0  0  0  0  0
   -2.2848  -50.5201  -15.3519 N   0  0  0  0  0  0  0  0  0  0  0  0
   -3.5727  -51.1768  -15.4116 C   0  0  0  0  0  0  0  0  0  0  0  0
   -4.5976  -50.5101  -14.5148 C   0  0  0  0  0  0  0  0  0  0  0  0
   -4.2103  -50.5249  -13.1943 O   0  0  0  0  0  0  0  0  0  0  0  0
   -2.8892  -50.2091  -12.9812 C   0  0  0  0  0  0  0  0  0  0  0  0
   -2.1985  -49.6627  -14.2141 C   0  0  0  0  0  0  0  0  0  0  0  0
  8  9  1  0  0  0
  9  2  1  0  0  0
  2  3  2  0  0  0
  3  4  1  0  0  0
  4  5  2  0  0  0
  5  6  1  0  0  0
  6  7  2  0  0  0
  7 10  1  0  0  0
 10 11  1  0  0  0
  5  1  1  0  0  0
  1 12  1  0  0  0
 12 13  1  0  0  0
 13 14  2  0  0  0
 14 15  1  0  0  0
 14 16  1  0  0  0
 16 17  2  0  0  0
 17 18  1  0  0  0
 17 19  1  0  0  0
 19 20  2  0  0  0
 20 21  1  0  0  0
  1 22  1  0  0  0
 22 23  1  0  0  0
 23 24  2  0  0  0
 23 25  1  0  0  0
 25 26  2  0  0  0
 26 27  1  0  0  0
 27 28  2  0  0  0
 28 30  1  0  0  0
 30 31  1  0  0  0
 31 32  1  0  0  0
 32 33  1  0  0  0
 33 34  1  0  0  0
 34 35  1  0  0  0
 35 36  1  0  0  0
 28 29  1  0  0  0
  7  2  1  0  0  0
 20 13  1  0  0  0
 29 25  1  0  0  0
 36 31  1  0  0  0
M  CHG 1  17   1
M  CHG 1  18  -1
M  END
> <minimizedAffinity>
-7.61730

> <CNNscore>
0.3770695627

> <CNNaffinity>
7.0059690475

> <CNN_VS>
2.6417376995

> <CNNaffinity_variance>
0.1521453112

$$$$
[H]c1c(C(=O)O[C@]([H])(c2c([H])c([H])c(OC([H])([H])[H])c(OC([H])([H])[H])c2[H])C([H])([H])c2c(Cl)c([H])[n+]([O-])c([H])c2Cl)sc(C([H])([H])N2C([H])([H])C([H])([H])OC([H])([H])C2([H])[H])c1[H]


 36 39  0  0  0  0  0  0  0  0999 V2000
    0.0652  -51.9090  -22.8422 C   0  0  0  0  0  0  0  0  0  0  0  0
   -0.1674  -53.2478  -26.8648 C   0  0  0  0  0  0  0  0  0  0  0  0
   -0.1673  -51.9006  -26.5872 C   0  0  0  0  0  0  0  0  0  0  0  0
   -0.0894  -51.4869  -25.2521 C   0  0  0  0  0  0  0  0  0  0  0  0
   -0.0140  -52.4001  -24.2267 C   0  0  0  0  0  0  0  0  0  0  0  0
   -0.0176  -53.7296  -24.5575 C   0  0  0  0  0  0  0  0  0  0  0  0
   -0.0921  -54.1891  -25.8486 C   0  0  0  0  0  0  0  0  0  0  0  0
   -0.2726  -52.9229  -29.3120 C   0  0  0  0  0  0  0  0  0  0  0  0
   -0.2429  -53.7318  -28.1738 O   0  0  0  0  0  0  0  0  0  0  0  0
   -0.0937  -55.5652  -26.1589 O   0  0  0  0  0  0  0  0  0  0  0  0
   -0.6146  -56.4285  -25.1672 C   0  0  0  0  0  0  0  0  0  0  0  0
    1.4711  -51.8955  -22.3121 C   0  0  0  0  0  0  0  0  0  0  0  0
    2.3522  -50.8711  -22.8995 C   0  0  0  0  0  0  0  0  0  0  0  0
    3.3469  -51.1747  -23.8017 C   0  0  0  0  0  0  0  0  0  0  0  0
    3.5720  -52.8234  -24.4059 Cl  0  0  0  0  0  0  0  0  0  0  0  0
    4.1426  -50.1509  -24.2569 C   0  0  0  0  0  0  0  0  0  0  0  0
    3.9962  -48.8765  -23.8675 N   0  0  0  0  0  0  0  0  0  0  0  0
    4.8199  -47.8659  -24.3491 O   0  0  0  0  0  0  0  0  0  0  0  0
    3.0386  -48.5487  -22.9936 C   0  0  0  0  0  0  0  0  0  0  0  0
    2.2181  -49.5549  -22.5127 C   0  0  0  0  0  0  0  0  0  0  0  0
    0.9734  -49.1164  -21.3753 Cl  0  0  0  0  0  0  0  0  0  0  0  0
   -0.8023  -52.4735  -21.9260 O   0  0  0  0  0  0  0  0  0  0  0  0
   -0.4050  -53.2193  -20.8274 C   0  0  0  0  0  0  0  0  0  0  0  0
   -0.0083  -54.3827  -21.0686 O   0  0  0  0  0  0  0  0  0  0  0  0
   -0.4379  -52.6944  -19.4452 C   0  0  0  0  0  0  0  0  0  0  0  0
   -1.2317  -53.1101  -18.4093 C   0  0  0  0  0  0  0  0  0  0  0  0
   -1.0836  -52.4816  -17.2328 C   0  0  0  0  0  0  0  0  0  0  0  0
   -0.1562  -51.4817  -17.1640 C   0  0  0  0  0  0  0  0  0  0  0  0
    0.4843  -51.4444  -18.7412 S   0  0  0  0  0  0  0  0  0  0  0  0
    0.1980  -50.6344  -15.9679 C   0  0  0  0  0  0  0  0  0  0  0  0
    0.0924  -49.2317  -16.2285 N   0  0  0  0  0  0  0  0  0  0  0  0
   -1.1322  -48.7640  -15.6160 C   0  0  0  0  0  0  0  0  0  0  0  0
   -0.9840  -47.3743  -15.0280 C   0  0  0  0  0  0  0  0  0  0  0  0
   -0.0155  -47.3313  -14.0512 O   0  0  0  0  0  0  0  0  0  0  0  0
    1.1402  -48.0090  -14.3605 C   0  0  0  0  0  0  0  0  0  0  0  0
    1.2080  -48.4459  -15.8096 C   0  0  0  0  0  0  0  0  0  0  0  0
  8  9  1  0  0  0
  9  2  1  0  0  0
  2  3  2  0  0  0
  3  4  1  0  0  0
  4  5  2  0  0  0
  5  6  1  0  0  0
  6  7  2  0  0  0
  7 10  1  0  0  0
 10 11  1  0  0  0
  5  1  1  0  0  0
  1 12  1  0  0  0
 12 13  1  0  0  0
 13 14  2  0  0  0
 14 15  1  0  0  0
 14 16  1  0  0  0
 16 17  2  0  0  0
 17 18  1  0  0  0
 17 19  1  0  0  0
 19 20  2  0  0  0
 20 21  1  0  0  0
  1 22  1  0  0  0
 22 23  1  0  0  0
 23 24  2  0  0  0
 23 25  1  0  0  0
 25 26  2  0  0  0
 26 27  1  0  0  0
 27 28  2  0  0  0
 28 30  1  0  0  0
 30 31  1  0  0  0
 31 32  1  0  0  0
 32 33  1  0  0  0
 33 34  1  0  0  0
 34 35  1  0  0  0
 35 36  1  0  0  0
 28 29  1  0  0  0
  7  2  1  0  0  0
 20 13  1  0  0  0
 29 25  1  0  0  0
 36 31  1  0  0  0
M  CHG 1  17   1
M  CHG 1  18  -1
M  END
> <minimizedAffinity>
-7.52858

> <CNNscore>
0.3555694520

> <CNNaffinity>
7.1031913757

> <CNN_VS>
2.5256779194

> <CNNaffinity_variance>
0.1970127821

$$$$
[H]c1c(C(=O)O[C@]([H])(c2c([H])c([H])c(OC([H])([H])[H])c(OC([H])([H])[H])c2[H])C([H])([H])c2c(Cl)c([H])[n+]([O-])c([H])c2Cl)sc(C([H])([H])N2C([H])([H])C([H])([H])OC([H])([H])C2([H])[H])c1[H]


 36 39  0  0  0  0  0  0  0  0999 V2000
    0.3154  -52.5314  -22.3527 C   0  0  0  0  0  0  0  0  0  0  0  0
    3.4302  -49.6876  -21.8642 C   0  0  0  0  0  0  0  0  0  0  0  0
    2.1194  -49.3090  -21.6887 C   0  0  0  0  0  0  0  0  0  0  0  0
    1.1124  -50.2671  -21.8556 C   0  0  0  0  0  0  0  0  0  0  0  0
    1.4139  -51.5667  -22.1891 C   0  0  0  0  0  0  0  0  0  0  0  0
    2.7349  -51.8913  -22.3522 C   0  0  0  0  0  0  0  0  0  0  0  0
    3.7606  -50.9922  -22.2006 C   0  0  0  0  0  0  0  0  0  0  0  0
    4.8196  -47.8002  -22.6471 C   0  0  0  0  0  0  0  0  0  0  0  0
    4.4859  -48.7842  -21.7137 O   0  0  0  0  0  0  0  0  0  0  0  0
    5.1123  -51.3558  -22.3750 O   0  0  0  0  0  0  0  0  0  0  0  0
    5.5443  -51.5331  -23.7100 C   0  0  0  0  0  0  0  0  0  0  0  0
   -0.5171  -52.2595  -23.5737 C   0  0  0  0  0  0  0  0  0  0  0  0
   -0.0626  -52.9307  -24.8040 C   0  0  0  0  0  0  0  0  0  0  0  0
   -0.2766  -54.2695  -25.0430 C   0  0  0  0  0  0  0  0  0  0  0  0
   -1.2157  -55.2677  -23.9223 Cl  0  0  0  0  0  0  0  0  0  0  0  0
    0.2263  -54.8087  -26.2026 C   0  0  0  0  0  0  0  0  0  0  0  0
    0.9108  -54.0963  -27.1088 N   0  0  0  0  0  0  0  0  0  0  0  0
    1.4052  -54.6751  -28.2717 O   0  0  0  0  0  0  0  0  0  0  0  0
    1.1343  -52.7934  -26.9069 C   0  0  0  0  0  0  0  0  0  0  0  0
    0.6427  -52.2162  -25.7485 C   0  0  0  0  0  0  0  0  0  0  0  0
    0.9390  -50.5180  -25.4960 Cl  0  0  0  0  0  0  0  0  0  0  0  0
   -0.4860  -52.7623  -21.2504 O   0  0  0  0  0  0  0  0  0  0  0  0
   -0.0174  -53.1810  -20.0150 C   0  0  0  0  0  0  0  0  0  0  0  0
    0.6019  -54.2697  -20.0033 O   0  0  0  0  0  0  0  0  0  0  0  0
   -0.2232  -52.4057  -18.7725 C   0  0  0  0  0  0  0  0  0  0  0  0
    0.4439  -51.2806  -18.3663 C   0  0  0  0  0  0  0  0  0  0  0  0
    0.0810  -50.7431  -17.1914 C   0  0  0  0  0  0  0  0  0  0  0  0
   -0.9210  -51.3596  -16.4981 C   0  0  0  0  0  0  0  0  0  0  0  0
   -1.3303  -52.6720  -17.5029 S   0  0  0  0  0  0  0  0  0  0  0  0
   -1.5070  -50.9537  -15.1693 C   0  0  0  0  0  0  0  0  0  0  0  0
   -2.5245  -49.9556  -15.2911 N   0  0  0  0  0  0  0  0  0  0  0  0
   -3.7967  -50.5938  -15.0306 C   0  0  0  0  0  0  0  0  0  0  0  0
   -4.7479  -49.6874  -14.2739 C   0  0  0  0  0  0  0  0  0  0  0  0
   -4.2379  -49.3153  -13.0511 O   0  0  0  0  0  0  0  0  0  0  0  0
   -2.9103  -48.9579  -13.0689 C   0  0  0  0  0  0  0  0  0  0  0  0
   -2.3516  -48.8020  -14.4685 C   0  0  0  0  0  0  0  0  0  0  0  0
  8  9  1  0  0  0
  9  2  1  0  0  0
  2  3  2  0  0  0
  3  4  1  0  0  0
  4  5  2  0  0  0
  5  6  1  0  0  0
  6  7  2  0  0  0
  7 10  1  0  0  0
 10 11  1  0  0  0
  5  1  1  0  0  0
  1 12  1  0  0  0
 12 13  1  0  0  0
 13 14  2  0  0  0
 14 15  1  0  0  0
 14 16  1  0  0  0
 16 17  2  0  0  0
 17 18  1  0  0  0
 17 19  1  0  0  0
 19 20  2  0  0  0
 20 21  1  0  0  0
  1 22  1  0  0  0
 22 23  1  0  0  0
 23 24  2  0  0  0
 23 25  1  0  0  0
 25 26  2  0  0  0
 26 27  1  0  0  0
 27 28  2  0  0  0
 28 30  1  0  0  0
 30 31  1  0  0  0
 31 32  1  0  0  0
 32 33  1  0  0  0
 33 34  1  0  0  0
 34 35  1  0  0  0
 35 36  1  0  0  0
 28 29  1  0  0  0
  7  2  1  0  0  0
 20 13  1  0  0  0
 29 25  1  0  0  0
 36 31  1  0  0  0
M  CHG 1  17   1
M  CHG 1  18  -1
M  END
> <minimizedAffinity>
-7.16126

> <CNNscore>
0.3460737765

> <CNNaffinity>
6.8957796097

> <CNN_VS>
2.3864483833

> <CNNaffinity_variance>
0.2930038273

$$$$
[H]c1c(C(=O)O[C@]([H])(c2c([H])c([H])c(OC([H])([H])[H])c(OC([H])([H])[H])c2[H])C([H])([H])c2c(Cl)c([H])[n+]([O-])c([H])c2Cl)sc(C([H])([H])N2C([H])([H])C([H])([H])OC([H])([H])C2([H])[H])c1[H]


 36 39  0  0  0  0  0  0  0  0999 V2000
    1.3344  -52.2384  -23.3581 C   0  0  0  0  0  0  0  0  0  0  0  0
   -0.8127  -52.8677  -26.9667 C   0  0  0  0  0  0  0  0  0  0  0  0
   -1.2876  -51.9796  -26.0297 C   0  0  0  0  0  0  0  0  0  0  0  0
   -0.5596  -51.7912  -24.8490 C   0  0  0  0  0  0  0  0  0  0  0  0
    0.6108  -52.4750  -24.6169 C   0  0  0  0  0  0  0  0  0  0  0  0
    1.0396  -53.3475  -25.5821 C   0  0  0  0  0  0  0  0  0  0  0  0
    0.3652  -53.5698  -26.7566 C   0  0  0  0  0  0  0  0  0  0  0  0
   -2.7757  -52.6460  -28.4509 C   0  0  0  0  0  0  0  0  0  0  0  0
   -1.4875  -53.1053  -28.1673 O   0  0  0  0  0  0  0  0  0  0  0  0
    0.8317  -54.4749  -27.7328 O   0  0  0  0  0  0  0  0  0  0  0  0
    1.8372  -53.9923  -28.6025 C   0  0  0  0  0  0  0  0  0  0  0  0
    2.8154  -52.0866  -23.5612 C   0  0  0  0  0  0  0  0  0  0  0  0
    3.3478  -50.7368  -23.3050 C   0  0  0  0  0  0  0  0  0  0  0  0
    3.3655  -49.7500  -24.2648 C   0  0  0  0  0  0  0  0  0  0  0  0
    2.6461  -50.0045  -25.8623 Cl  0  0  0  0  0  0  0  0  0  0  0  0
    3.9242  -48.5381  -23.9372 C   0  0  0  0  0  0  0  0  0  0  0  0
    4.4489  -48.2715  -22.7327 N   0  0  0  0  0  0  0  0  0  0  0  0
    5.0061  -47.0332  -22.4359 O   0  0  0  0  0  0  0  0  0  0  0  0
    4.4458  -49.2081  -21.7783 C   0  0  0  0  0  0  0  0  0  0  0  0
    3.8916  -50.4421  -22.0731 C   0  0  0  0  0  0  0  0  0  0  0  0
    3.8921  -51.6547  -20.8221 Cl  0  0  0  0  0  0  0  0  0  0  0  0
    1.0656  -53.0975  -22.3091 O   0  0  0  0  0  0  0  0  0  0  0  0
    0.0163  -52.9409  -21.4173 C   0  0  0  0  0  0  0  0  0  0  0  0
   -1.0423  -53.5461  -21.7039 O   0  0  0  0  0  0  0  0  0  0  0  0
    0.1172  -52.1153  -20.1945 C   0  0  0  0  0  0  0  0  0  0  0  0
    0.5866  -50.8332  -20.0852 C   0  0  0  0  0  0  0  0  0  0  0  0
    0.5811  -50.2804  -18.8623 C   0  0  0  0  0  0  0  0  0  0  0  0
    0.1093  -51.0386  -17.8292 C   0  0  0  0  0  0  0  0  0  0  0  0
   -0.3138  -52.5017  -18.5904 S   0  0  0  0  0  0  0  0  0  0  0  0
   -0.0027  -50.6491  -16.3767 C   0  0  0  0  0  0  0  0  0  0  0  0
   -0.5015  -51.7074  -15.5534 N   0  0  0  0  0  0  0  0  0  0  0  0
    0.4758  -51.9511  -14.5147 C   0  0  0  0  0  0  0  0  0  0  0  0
   -0.1723  -52.2960  -13.1881 C   0  0  0  0  0  0  0  0  0  0  0  0
   -0.9828  -51.2807  -12.7339 O   0  0  0  0  0  0  0  0  0  0  0  0
   -1.7848  -50.7141  -13.6964 C   0  0  0  0  0  0  0  0  0  0  0  0
   -1.7980  -51.4907  -14.9972 C   0  0  0  0  0  0  0  0  0  0  0  0
  8  9  1  0  0  0
  9  2  1  0  0  0
  2  3  2  0  0  0
  3  4  1  0  0  0
  4  5  2  0  0  0
  5  6  1  0  0  0
  6  7  2  0  0  0
  7 10  1  0  0  0
 10 11  1  0  0  0
  5  1  1  0  0  0
  1 12  1  0  0  0
 12 13  1  0  0  0
 13 14  2  0  0  0
 14 15  1  0  0  0
 14 16  1  0  0  0
 16 17  2  0  0  0
 17 18  1  0  0  0
 17 19  1  0  0  0
 19 20  2  0  0  0
 20 21  1  0  0  0
  1 22  1  0  0  0
 22 23  1  0  0  0
 23 24  2  0  0  0
 23 25  1  0  0  0
 25 26  2  0  0  0
 26 27  1  0  0  0
 27 28  2  0  0  0
 28 30  1  0  0  0
 30 31  1  0  0  0
 31 32  1  0  0  0
 32 33  1  0  0  0
 33 34  1  0  0  0
 34 35  1  0  0  0
 35 36  1  0  0  0
 28 29  1  0  0  0
  7  2  1  0  0  0
 20 13  1  0  0  0
 29 25  1  0  0  0
 36 31  1  0  0  0
M  CHG 1  17   1
M  CHG 1  18  -1
M  END
> <minimizedAffinity>
-7.20396

> <CNNscore>
0.3107537627

> <CNNaffinity>
7.0351653099

> <CNN_VS>
2.1862041950

> <CNNaffinity_variance>
0.4324993193

$$$$
[H]c1c(C(=O)O[C@]([H])(c2c([H])c([H])c(OC([H])([H])[H])c(OC([H])([H])[H])c2[H])C([H])([H])c2c(Cl)c([H])[n+]([O-])c([H])c2Cl)sc(C([H])([H])N2C([H])([H])C([H])([H])OC([H])([H])C2([H])[H])c1[H]


 36 39  0  0  0  0  0  0  0  0999 V2000
    0.1448  -51.7701  -18.9987 C   0  0  0  0  0  0  0  0  0  0  0  0
    2.5887  -49.2034  -21.3371 C   0  0  0  0  0  0  0  0  0  0  0  0
    1.2623  -48.8976  -21.1387 C   0  0  0  0  0  0  0  0  0  0  0  0
    0.4796  -49.7612  -20.3632 C   0  0  0  0  0  0  0  0  0  0  0  0
    1.0140  -50.8981  -19.8039 C   0  0  0  0  0  0  0  0  0  0  0  0
    2.3400  -51.1563  -20.0322 C   0  0  0  0  0  0  0  0  0  0  0  0
    3.1518  -50.3441  -20.7838 C   0  0  0  0  0  0  0  0  0  0  0  0
    2.9877  -47.3201  -22.8860 C   0  0  0  0  0  0  0  0  0  0  0  0
    3.4284  -48.3870  -22.0997 O   0  0  0  0  0  0  0  0  0  0  0  0
    4.5146  -50.6359  -21.0016 O   0  0  0  0  0  0  0  0  0  0  0  0
    4.7927  -51.6553  -21.9416 C   0  0  0  0  0  0  0  0  0  0  0  0
    0.4592  -51.7048  -17.5308 C   0  0  0  0  0  0  0  0  0  0  0  0
   -0.3295  -50.7243  -16.7642 C   0  0  0  0  0  0  0  0  0  0  0  0
    0.1415  -49.4673  -16.4584 C   0  0  0  0  0  0  0  0  0  0  0  0
    1.7053  -48.8967  -17.0609 Cl  0  0  0  0  0  0  0  0  0  0  0  0
   -0.6559  -48.6438  -15.7006 C   0  0  0  0  0  0  0  0  0  0  0  0
   -1.8656  -49.0037  -15.2484 N   0  0  0  0  0  0  0  0  0  0  0  0
   -2.6456  -48.1440  -14.4839 O   0  0  0  0  0  0  0  0  0  0  0  0
   -2.3523  -50.2170  -15.5295 C   0  0  0  0  0  0  0  0  0  0  0  0
   -1.5757  -51.0742  -16.2904 C   0  0  0  0  0  0  0  0  0  0  0  0
   -2.2199  -52.6523  -16.6513 Cl  0  0  0  0  0  0  0  0  0  0  0  0
    0.0107  -53.0807  -19.4168 O   0  0  0  0  0  0  0  0  0  0  0  0
   -0.9488  -53.5225  -20.3140 C   0  0  0  0  0  0  0  0  0  0  0  0
   -2.0466  -53.8663  -19.8183 O   0  0  0  0  0  0  0  0  0  0  0  0
   -0.7140  -53.5917  -21.7725 C   0  0  0  0  0  0  0  0  0  0  0  0
   -1.0189  -54.6213  -22.6228 C   0  0  0  0  0  0  0  0  0  0  0  0
   -0.7121  -54.4574  -23.9190 C   0  0  0  0  0  0  0  0  0  0  0  0
   -0.1228  -53.2810  -24.2841 C   0  0  0  0  0  0  0  0  0  0  0  0
   -0.0120  -52.4349  -22.8107 S   0  0  0  0  0  0  0  0  0  0  0  0
    0.3110  -52.8575  -25.6648 C   0  0  0  0  0  0  0  0  0  0  0  0
   -0.4458  -53.4860  -26.7035 N   0  0  0  0  0  0  0  0  0  0  0  0
   -1.2393  -52.4618  -27.3475 C   0  0  0  0  0  0  0  0  0  0  0  0
   -1.3557  -52.6832  -28.8430 C   0  0  0  0  0  0  0  0  0  0  0  0
   -0.1257  -52.6727  -29.4601 O   0  0  0  0  0  0  0  0  0  0  0  0
    0.8544  -53.3719  -28.7960 C   0  0  0  0  0  0  0  0  0  0  0  0
    0.3191  -54.2192  -27.6598 C   0  0  0  0  0  0  0  0  0  0  0  0
  8  9  1  0  0  0
  9  2  1  0  0  0
  2  3  2  0  0  0
  3  4  1  0  0  0
  4  5  2  0  0  0
  5  6  1  0  0  0
  6  7  2  0  0  0
  7 10  1  0  0  0
 10 11  1  0  0  0
  5  1  1  0  0  0
  1 12  1  0  0  0
 12 13  1  0  0  0
 13 14  2  0  0  0
 14 15  1  0  0  0
 14 16  1  0  0  0
 16 17  2  0  0  0
 17 18  1  0  0  0
 17 19  1  0  0  0
 19 20  2  0  0  0
 20 21  1  0  0  0
  1 22  1  0  0  0
 22 23  1  0  0  0
 23 24  2  0  0  0
 23 25  1  0  0  0
 25 26  2  0  0  0
 26 27  1  0  0  0
 27 28  2  0  0  0
 28 30  1  0  0  0
 30 31  1  0  0  0
 31 32  1  0  0  0
 32 33  1  0  0  0
 33 34  1  0  0  0
 34 35  1  0  0  0
 35 36  1  0  0  0
 28 29  1  0  0  0
  7  2  1  0  0  0
 20 13  1  0  0  0
 29 25  1  0  0  0
 36 31  1  0  0  0
M  CHG 1  17   1
M  CHG 1  18  -1
M  END
> <minimizedAffinity>
-7.73112

> <CNNscore>
0.3057808578

> <CNNaffinity>
6.9432401657

> <CNN_VS>
2.1231098175

> <CNNaffinity_variance>
0.1551652253

$$$$
[H]c1c(C(=O)O[C@]([H])(c2c([H])c([H])c(OC([H])([H])[H])c(OC([H])([H])[H])c2[H])C([H])([H])c2c(Cl)c([H])[n+]([O-])c([H])c2Cl)sc(C([H])([H])N2C([H])([H])C([H])([H])OC([H])([H])C2([H])[H])c1[H]


 36 39  0  0  0  0  0  0  0  0999 V2000
    0.8563  -52.6757  -23.2633 C   0  0  0  0  0  0  0  0  0  0  0  0
   -0.7019  -53.0946  -27.1907 C   0  0  0  0  0  0  0  0  0  0  0  0
   -1.3383  -52.2822  -26.2813 C   0  0  0  0  0  0  0  0  0  0  0  0
   -0.8028  -52.1621  -24.9934 C   0  0  0  0  0  0  0  0  0  0  0  0
    0.3383  -52.8384  -24.6306 C   0  0  0  0  0  0  0  0  0  0  0  0
    0.9331  -53.6342  -25.5739 C   0  0  0  0  0  0  0  0  0  0  0  0
    0.4505  -53.7874  -26.8496 C   0  0  0  0  0  0  0  0  0  0  0  0
   -0.8499  -52.4306  -29.5661 C   0  0  0  0  0  0  0  0  0  0  0  0
   -1.1805  -53.2614  -28.4932 O   0  0  0  0  0  0  0  0  0  0  0  0
    1.0850  -54.6143  -27.8001 O   0  0  0  0  0  0  0  0  0  0  0  0
    2.1505  -54.0303  -28.5239 C   0  0  0  0  0  0  0  0  0  0  0  0
    0.1999  -51.5426  -22.5264 C   0  0  0  0  0  0  0  0  0  0  0  0
    0.1287  -51.7044  -21.0637 C   0  0  0  0  0  0  0  0  0  0  0  0
   -0.2510  -52.8840  -20.4638 C   0  0  0  0  0  0  0  0  0  0  0  0
   -0.5840  -54.3379  -21.4173 Cl  0  0  0  0  0  0  0  0  0  0  0  0
   -0.3273  -52.9175  -19.0921 C   0  0  0  0  0  0  0  0  0  0  0  0
   -0.0494  -51.8619  -18.3139 N   0  0  0  0  0  0  0  0  0  0  0  0
   -0.1371  -51.9320  -16.9285 O   0  0  0  0  0  0  0  0  0  0  0  0
    0.3238  -50.7024  -18.8656 C   0  0  0  0  0  0  0  0  0  0  0  0
    0.4107  -50.6315  -20.2455 C   0  0  0  0  0  0  0  0  0  0  0  0
    0.8985  -49.1162  -20.9537 Cl  0  0  0  0  0  0  0  0  0  0  0  0
    2.2298  -52.6316  -23.1141 O   0  0  0  0  0  0  0  0  0  0  0  0
    3.0011  -51.4941  -23.2935 C   0  0  0  0  0  0  0  0  0  0  0  0
    3.0880  -51.0698  -24.4688 O   0  0  0  0  0  0  0  0  0  0  0  0
    3.6886  -50.8055  -22.1798 C   0  0  0  0  0  0  0  0  0  0  0  0
    3.8661  -51.2550  -20.8982 C   0  0  0  0  0  0  0  0  0  0  0  0
    4.5296  -50.4511  -20.0528 C   0  0  0  0  0  0  0  0  0  0  0  0
    4.9727  -49.2538  -20.5373 C   0  0  0  0  0  0  0  0  0  0  0  0
    4.4525  -49.2808  -22.1584 S   0  0  0  0  0  0  0  0  0  0  0  0
    5.7381  -48.1866  -19.7964 C   0  0  0  0  0  0  0  0  0  0  0  0
    4.9632  -47.0073  -19.5613 N   0  0  0  0  0  0  0  0  0  0  0  0
    4.3236  -47.1541  -18.2717 C   0  0  0  0  0  0  0  0  0  0  0  0
    4.2523  -45.8420  -17.5152 C   0  0  0  0  0  0  0  0  0  0  0  0
    5.5026  -45.3194  -17.2758 O   0  0  0  0  0  0  0  0  0  0  0  0
    6.3637  -45.3813  -18.3460 C   0  0  0  0  0  0  0  0  0  0  0  0
    5.6822  -45.7768  -19.6400 C   0  0  0  0  0  0  0  0  0  0  0  0
  8  9  1  0  0  0
  9  2  1  0  0  0
  2  3  2  0  0  0
  3  4  1  0  0  0
  4  5  2  0  0  0
  5  6  1  0  0  0
  6  7  2  0  0  0
  7 10  1  0  0  0
 10 11  1  0  0  0
  5  1  1  0  0  0
  1 12  1  0  0  0
 12 13  1  0  0  0
 13 14  2  0  0  0
 14 15  1  0  0  0
 14 16  1  0  0  0
 16 17  2  0  0  0
 17 18  1  0  0  0
 17 19  1  0  0  0
 19 20  2  0  0  0
 20 21  1  0  0  0
  1 22  1  0  0  0
 22 23  1  0  0  0
 23 24  2  0  0  0
 23 25  1  0  0  0
 25 26  2  0  0  0
 26 27  1  0  0  0
 27 28  2  0  0  0
 28 30  1  0  0  0
 30 31  1  0  0  0
 31 32  1  0  0  0
 32 33  1  0  0  0
 33 34  1  0  0  0
 34 35  1  0  0  0
 35 36  1  0  0  0
 28 29  1  0  0  0
  7  2  1  0  0  0
 20 13  1  0  0  0
 29 25  1  0  0  0
 36 31  1  0  0  0
M  CHG 1  17   1
M  CHG 1  18  -1
M  END
> <minimizedAffinity>
-7.01025

> <CNNscore>
0.2867411375

> <CNNaffinity>
6.7521071434

> <CNN_VS>
1.9361069202

> <CNNaffinity_variance>
0.3890107572

$$$$
[H]c1nc(N([H])c2c([H])c([H])c(N3C([H])([H])C([H])([H])C([H])(N4C(=O)c5c([H])c([H])c([H])c([H])c5C4=O)C([H])([H])C3([H])[H])c([H])c2OC([H])([H])[H])nc(N([H])c2c([H])c([H])c([H])c([H])c2S(=O)(=O)C([H])(C([H])([H])[H])C([H])([H])[H])c1Cl


 48 53  0  0  0  0  0  0  0  0999 V2000
    0.4592  -51.2803  -18.7228 C   0  0  0  0  0  0  0  0  0  0  0  0
    1.4657  -50.4172  -18.4013 C   0  0  0  0  0  0  0  0  0  0  0  0
    2.0239  -49.5109  -19.2947 C   0  0  0  0  0  0  0  0  0  0  0  0
    1.4882  -49.5242  -20.5620 C   0  0  0  0  0  0  0  0  0  0  0  0
    0.4625  -50.3953  -20.9144 C   0  0  0  0  0  0  0  0  0  0  0  0
   -0.0866  -51.2984  -20.0276 C   0  0  0  0  0  0  0  0  0  0  0  0
    3.1275  -48.7187  -18.9439 N   0  0  0  0  0  0  0  0  0  0  0  0
    3.0164  -47.3995  -18.3888 C   0  0  0  0  0  0  0  0  0  0  0  0
    4.1829  -46.5827  -18.9765 C   0  0  0  0  0  0  0  0  0  0  0  0
    4.3219  -47.0893  -20.4093 C   0  0  0  0  0  0  0  0  0  0  0  0
    5.0870  -48.3710  -20.3538 C   0  0  0  0  0  0  0  0  0  0  0  0
    4.4699  -49.1924  -19.2044 C   0  0  0  0  0  0  0  0  0  0  0  0
    4.8829  -46.1039  -21.3099 N   0  0  0  0  0  0  0  0  0  0  0  0
    4.3702  -45.8027  -22.6316 C   0  0  0  0  0  0  0  0  0  0  0  0
    3.3705  -46.3481  -23.1313 O   0  0  0  0  0  0  0  0  0  0  0  0
    5.2103  -44.7840  -23.2406 C   0  0  0  0  0  0  0  0  0  0  0  0
    5.1612  -44.1451  -24.4783 C   0  0  0  0  0  0  0  0  0  0  0  0
    6.0915  -43.1922  -24.8271 C   0  0  0  0  0  0  0  0  0  0  0  0
    7.1086  -42.8339  -23.9633 C   0  0  0  0  0  0  0  0  0  0  0  0
    7.1444  -43.4782  -22.7333 C   0  0  0  0  0  0  0  0  0  0  0  0
    6.2326  -44.4359  -22.3487 C   0  0  0  0  0  0  0  0  0  0  0  0
    6.0134  -45.2600  -21.1638 C   0  0  0  0  0  0  0  0  0  0  0  0
    6.7594  -45.2068  -20.1418 O   0  0  0  0  0  0  0  0  0  0  0  0
   -0.8387  -51.6177  -16.7272 C   0  0  0  0  0  0  0  0  0  0  0  0
   -0.0410  -52.1558  -17.7576 O   0  0  0  0  0  0  0  0  0  0  0  0
   -1.0811  -52.2455  -20.3353 N   0  0  0  0  0  0  0  0  0  0  0  0
   -1.9504  -52.2185  -19.7165 H   0  0  0  0  0  0  0  0  0  0  0  0
   -1.0048  -53.1929  -21.3764 C   0  0  0  0  0  0  0  0  0  0  0  0
   -1.6895  -54.3163  -21.4523 N   0  0  0  0  0  0  0  0  0  0  0  0
   -1.6743  -55.1556  -22.5003 C   0  0  0  0  0  0  0  0  0  0  0  0
   -0.9008  -54.8640  -23.6033 C   0  0  0  0  0  0  0  0  0  0  0  0
   -0.8347  -55.9070  -24.9844 Cl  0  0  0  0  0  0  0  0  0  0  0  0
   -0.1468  -53.6667  -23.5664 C   0  0  0  0  0  0  0  0  0  0  0  0
   -0.2377  -52.9201  -22.4819 N   0  0  0  0  0  0  0  0  0  0  0  0
    0.5468  -53.2870  -24.7302 N   0  0  0  0  0  0  0  0  0  0  0  0
    0.3946  -53.9239  -25.5902 H   0  0  0  0  0  0  0  0  0  0  0  0
    1.4091  -52.2145  -24.9792 C   0  0  0  0  0  0  0  0  0  0  0  0
    1.8408  -51.4242  -23.9228 C   0  0  0  0  0  0  0  0  0  0  0  0
    2.7377  -50.4002  -24.1205 C   0  0  0  0  0  0  0  0  0  0  0  0
    3.2025  -50.1741  -25.4007 C   0  0  0  0  0  0  0  0  0  0  0  0
    2.7858  -50.9474  -26.4600 C   0  0  0  0  0  0  0  0  0  0  0  0
    1.8967  -51.9562  -26.2428 C   0  0  0  0  0  0  0  0  0  0  0  0
    1.3309  -52.9667  -27.5731 S   0  0  0  0  0  0  0  0  0  0  0  0
    2.3371  -52.8964  -28.7258 O   0  0  0  0  0  0  0  0  0  0  0  0
    1.2151  -54.3981  -27.1807 O   0  0  0  0  0  0  0  0  0  0  0  0
   -0.1856  -52.4155  -28.2458 C   0  0  0  0  0  0  0  0  0  0  0  0
   -0.3605  -52.8455  -29.6618 C   0  0  0  0  0  0  0  0  0  0  0  0
   -1.3920  -52.6967  -27.3640 C   0  0  0  0  0  0  0  0  0  0  0  0
 24 25  1  0  0  0
 25  1  1  0  0  0
  1  2  2  0  0  0
  2  3  1  0  0  0
  3  4  2  0  0  0
  4  5  1  0  0  0
  5  6  2  0  0  0
  6 26  1  0  0  0
 26 28  1  0  0  0
 28 29  2  0  0  0
 29 30  1  0  0  0
 30 31  2  0  0  0
 31 32  1  0  0  0
 31 33  1  0  0  0
 33 35  1  0  0  0
 35 37  1  0  0  0
 37 38  2  0  0  0
 38 39  1  0  0  0
 39 40  2  0  0  0
 40 41  1  0  0  0
 41 42  2  0  0  0
 42 43  1  0  0  0
 43 44  2  0  0  0
 43 45  2  0  0  0
 43 46  1  0  0  0
 46 47  1  0  0  0
 46 48  1  0  0  0
 33 34  2  0  0  0
  3  7  1  0  0  0
  7  8  1  0  0  0
  8  9  1  0  0  0
  9 10  1  0  0  0
 10 11  1  0  0  0
 11 12  1  0  0  0
 10 13  1  0  0  0
 13 14  1  0  0  0
 14 15  2  0  0  0
 14 16  1  0  0  0
 16 17  2  0  0  0
 17 18  1  0  0  0
 18 19  2  0  0  0
 19 20  1  0  0  0
 20 21  2  0  0  0
 21 22  1  0  0  0
 22 23  2  0  0  0
  6  1  1  0  0  0
 34 28  1  0  0  0
 12  7  1  0  0  0
 22 13  1  0  0  0
 42 37  1  0  0  0
 21 16  1  0  0  0
 26 27  1  0  0  0
 35 36  1  0  0  0
M  END
> <minimizedAffinity>
-7.67110

> <CNNscore>
0.5377163291

> <CNNaffinity>
8.1779356003

> <CNN_VS>
4.3974094391

> <CNNaffinity_variance>
0.0946864039

$$$$
[H]c1nc(N([H])c2c([H])c([H])c(N3C([H])([H])C([H])([H])C([H])(N4C(=O)c5c([H])c([H])c([H])c([H])c5C4=O)C([H])([H])C3([H])[H])c([H])c2OC([H])([H])[H])nc(N([H])c2c([H])c([H])c([H])c([H])c2S(=O)(=O)C([H])(C([H])([H])[H])C([H])([H])[H])c1Cl


 48 53  0  0  0  0  0  0  0  0999 V2000
    3.0513  -49.8904  -20.9005 C   0  0  0  0  0  0  0  0  0  0  0  0
    3.6866  -48.8978  -21.5879 C   0  0  0  0  0  0  0  0  0  0  0  0
    3.0657  -47.7290  -22.0114 C   0  0  0  0  0  0  0  0  0  0  0  0
    1.7334  -47.6165  -21.6866 C   0  0  0  0  0  0  0  0  0  0  0  0
    1.0633  -48.6150  -20.9873 C   0  0  0  0  0  0  0  0  0  0  0  0
    1.6800  -49.7775  -20.5726 C   0  0  0  0  0  0  0  0  0  0  0  0
    3.7368  -46.7872  -22.8059 N   0  0  0  0  0  0  0  0  0  0  0  0
    3.1597  -45.5399  -23.2208 C   0  0  0  0  0  0  0  0  0  0  0  0
    3.6765  -45.2771  -24.6480 C   0  0  0  0  0  0  0  0  0  0  0  0
    3.7249  -46.6569  -25.2983 C   0  0  0  0  0  0  0  0  0  0  0  0
    4.9800  -47.3212  -24.8351 C   0  0  0  0  0  0  0  0  0  0  0  0
    5.0594  -47.0808  -23.3144 C   0  0  0  0  0  0  0  0  0  0  0  0
    3.5749  -46.6136  -26.7378 N   0  0  0  0  0  0  0  0  0  0  0  0
    2.4247  -46.0738  -27.4349 C   0  0  0  0  0  0  0  0  0  0  0  0
    1.4423  -45.5648  -26.8670 O   0  0  0  0  0  0  0  0  0  0  0  0
    2.6256  -46.2324  -28.8663 C   0  0  0  0  0  0  0  0  0  0  0  0
    1.8431  -45.8874  -29.9669 C   0  0  0  0  0  0  0  0  0  0  0  0
    2.2643  -46.1470  -31.2516 C   0  0  0  0  0  0  0  0  0  0  0  0
    3.4781  -46.7594  -31.4977 C   0  0  0  0  0  0  0  0  0  0  0  0
    4.2474  -47.0966  -30.3915 C   0  0  0  0  0  0  0  0  0  0  0  0
    3.8605  -46.8536  -29.0924 C   0  0  0  0  0  0  0  0  0  0  0  0
    4.4310  -47.0802  -27.7679 C   0  0  0  0  0  0  0  0  0  0  0  0
    5.5579  -47.6298  -27.5896 O   0  0  0  0  0  0  0  0  0  0  0  0
    4.7682  -51.5055  -21.3745 C   0  0  0  0  0  0  0  0  0  0  0  0
    3.7576  -51.0306  -20.5139 O   0  0  0  0  0  0  0  0  0  0  0  0
    1.0473  -50.8499  -19.9167 N   0  0  0  0  0  0  0  0  0  0  0  0
    0.9944  -50.7732  -18.8535 H   0  0  0  0  0  0  0  0  0  0  0  0
    0.4950  -51.9790  -20.5550 C   0  0  0  0  0  0  0  0  0  0  0  0
   -0.4523  -52.7561  -20.0700 N   0  0  0  0  0  0  0  0  0  0  0  0
   -1.0325  -53.7673  -20.7364 C   0  0  0  0  0  0  0  0  0  0  0  0
   -0.6427  -54.0527  -22.0273 C   0  0  0  0  0  0  0  0  0  0  0  0
   -1.3486  -55.3454  -22.9386 Cl  0  0  0  0  0  0  0  0  0  0  0  0
    0.3733  -53.2440  -22.5902 C   0  0  0  0  0  0  0  0  0  0  0  0
    0.8729  -52.2797  -21.8402 N   0  0  0  0  0  0  0  0  0  0  0  0
    0.6944  -53.4355  -23.9466 N   0  0  0  0  0  0  0  0  0  0  0  0
    0.2771  -54.3228  -24.4017 H   0  0  0  0  0  0  0  0  0  0  0  0
    1.4660  -52.6704  -24.8268 C   0  0  0  0  0  0  0  0  0  0  0  0
    2.6784  -52.1484  -24.3973 C   0  0  0  0  0  0  0  0  0  0  0  0
    3.4932  -51.4443  -25.2531 C   0  0  0  0  0  0  0  0  0  0  0  0
    3.0764  -51.2672  -26.5574 C   0  0  0  0  0  0  0  0  0  0  0  0
    1.8780  -51.7775  -27.0010 C   0  0  0  0  0  0  0  0  0  0  0  0
    1.0856  -52.4714  -26.1372 C   0  0  0  0  0  0  0  0  0  0  0  0
   -0.4613  -53.1362  -26.6622 S   0  0  0  0  0  0  0  0  0  0  0  0
   -0.3047  -54.6372  -26.9241 O   0  0  0  0  0  0  0  0  0  0  0  0
   -1.5193  -52.9814  -25.6263 O   0  0  0  0  0  0  0  0  0  0  0  0
   -1.0137  -52.4557  -28.1748 C   0  0  0  0  0  0  0  0  0  0  0  0
   -0.2298  -52.9613  -29.3369 C   0  0  0  0  0  0  0  0  0  0  0  0
   -2.5199  -52.5259  -28.3713 C   0  0  0  0  0  0  0  0  0  0  0  0
 24 25  1  0  0  0
 25  1  1  0  0  0
  1  2  2  0  0  0
  2  3  1  0  0  0
  3  4  2  0  0  0
  4  5  1  0  0  0
  5  6  2  0  0  0
  6 26  1  0  0  0
 26 28  1  0  0  0
 28 29  2  0  0  0
 29 30  1  0  0  0
 30 31  2  0  0  0
 31 32  1  0  0  0
 31 33  1  0  0  0
 33 35  1  0  0  0
 35 37  1  0  0  0
 37 38  2  0  0  0
 38 39  1  0  0  0
 39 40  2  0  0  0
 40 41  1  0  0  0
 41 42  2  0  0  0
 42 43  1  0  0  0
 43 44  2  0  0  0
 43 45  2  0  0  0
 43 46  1  0  0  0
 46 47  1  0  0  0
 46 48  1  0  0  0
 33 34  2  0  0  0
  3  7  1  0  0  0
  7  8  1  0  0  0
  8  9  1  0  0  0
  9 10  1  0  0  0
 10 11  1  0  0  0
 11 12  1  0  0  0
 10 13  1  0  0  0
 13 14  1  0  0  0
 14 15  2  0  0  0
 14 16  1  0  0  0
 16 17  2  0  0  0
 17 18  1  0  0  0
 18 19  2  0  0  0
 19 20  1  0  0  0
 20 21  2  0  0  0
 21 22  1  0  0  0
 22 23  2  0  0  0
  6  1  1  0  0  0
 34 28  1  0  0  0
 12  7  1  0  0  0
 22 13  1  0  0  0
 42 37  1  0  0  0
 21 16  1  0  0  0
 26 27  1  0  0  0
 35 36  1  0  0  0
M  END
> <minimizedAffinity>
-9.85662

> <CNNscore>
0.2989649475

> <CNNaffinity>
7.7718839645

> <CNN_VS>
2.3235208988

> <CNNaffinity_variance>
0.6386007071

$$$$
[H]c1nc(N([H])c2c([H])c([H])c(N3C([H])([H])C([H])([H])C([H])(N4C(=O)c5c([H])c([H])c([H])c([H])c5C4=O)C([H])([H])C3([H])[H])c([H])c2OC([H])([H])[H])nc(N([H])c2c([H])c([H])c([H])c([H])c2S(=O)(=O)C([H])(C([H])([H])[H])C([H])([H])[H])c1Cl


 48 53  0  0  0  0  0  0  0  0999 V2000
    3.2429  -50.0148  -20.9817 C   0  0  0  0  0  0  0  0  0  0  0  0
    3.8335  -48.9169  -21.5358 C   0  0  0  0  0  0  0  0  0  0  0  0
    3.1539  -47.7448  -21.8449 C   0  0  0  0  0  0  0  0  0  0  0  0
    1.8102  -47.7452  -21.5488 C   0  0  0  0  0  0  0  0  0  0  0  0
    1.1849  -48.8524  -20.9847 C   0  0  0  0  0  0  0  0  0  0  0  0
    1.8602  -50.0173  -20.6836 C   0  0  0  0  0  0  0  0  0  0  0  0
    3.7856  -46.6831  -22.5100 N   0  0  0  0  0  0  0  0  0  0  0  0
    3.1289  -45.4523  -22.8485 C   0  0  0  0  0  0  0  0  0  0  0  0
    3.6992  -45.0180  -24.2120 C   0  0  0  0  0  0  0  0  0  0  0  0
    3.8996  -46.3232  -24.9770 C   0  0  0  0  0  0  0  0  0  0  0  0
    5.1790  -46.9263  -24.4968 C   0  0  0  0  0  0  0  0  0  0  0  0
    5.1542  -46.8227  -22.9588 C   0  0  0  0  0  0  0  0  0  0  0  0
    3.8258  -46.1584  -26.4137 N   0  0  0  0  0  0  0  0  0  0  0  0
    2.5996  -45.9769  -27.1647 C   0  0  0  0  0  0  0  0  0  0  0  0
    1.4693  -45.9211  -26.6491 O   0  0  0  0  0  0  0  0  0  0  0  0
    2.9249  -45.8767  -28.5785 C   0  0  0  0  0  0  0  0  0  0  0  0
    2.1342  -45.6968  -29.7120 C   0  0  0  0  0  0  0  0  0  0  0  0
    2.6926  -45.6307  -30.9686 C   0  0  0  0  0  0  0  0  0  0  0  0
    4.0576  -45.7407  -31.1528 C   0  0  0  0  0  0  0  0  0  0  0  0
    4.8328  -45.9188  -30.0142 C   0  0  0  0  0  0  0  0  0  0  0  0
    4.3114  -45.9899  -28.7416 C   0  0  0  0  0  0  0  0  0  0  0  0
    4.8494  -46.1625  -27.3955 C   0  0  0  0  0  0  0  0  0  0  0  0
    6.0868  -46.2972  -27.1617 O   0  0  0  0  0  0  0  0  0  0  0  0
    5.2473  -51.2880  -21.3587 C   0  0  0  0  0  0  0  0  0  0  0  0
    4.0067  -51.1495  -20.7035 O   0  0  0  0  0  0  0  0  0  0  0  0
    1.2777  -51.1909  -20.1696 N   0  0  0  0  0  0  0  0  0  0  0  0
    1.2801  -51.2788  -19.1059 H   0  0  0  0  0  0  0  0  0  0  0  0
    0.7077  -52.2207  -20.9455 C   0  0  0  0  0  0  0  0  0  0  0  0
    0.2051  -53.3486  -20.4855 N   0  0  0  0  0  0  0  0  0  0  0  0
   -0.4217  -54.2715  -21.2329 C   0  0  0  0  0  0  0  0  0  0  0  0
   -0.5764  -54.0693  -22.5875 C   0  0  0  0  0  0  0  0  0  0  0  0
   -1.3712  -55.2224  -23.6065 Cl  0  0  0  0  0  0  0  0  0  0  0  0
   -0.0513  -52.8707  -23.1268 C   0  0  0  0  0  0  0  0  0  0  0  0
    0.5475  -52.0374  -22.2968 N   0  0  0  0  0  0  0  0  0  0  0  0
   -0.3111  -52.5860  -24.4800 N   0  0  0  0  0  0  0  0  0  0  0  0
   -1.1120  -51.8830  -24.6612 H   0  0  0  0  0  0  0  0  0  0  0  0
    0.2926  -53.0540  -25.6515 C   0  0  0  0  0  0  0  0  0  0  0  0
   -0.4067  -53.9173  -26.4838 C   0  0  0  0  0  0  0  0  0  0  0  0
    0.1302  -54.3484  -27.6745 C   0  0  0  0  0  0  0  0  0  0  0  0
    1.3879  -53.9007  -28.0264 C   0  0  0  0  0  0  0  0  0  0  0  0
    2.0958  -53.0447  -27.2142 C   0  0  0  0  0  0  0  0  0  0  0  0
    1.5462  -52.6301  -26.0389 C   0  0  0  0  0  0  0  0  0  0  0  0
    2.4218  -51.5391  -24.9648 S   0  0  0  0  0  0  0  0  0  0  0  0
    1.4847  -50.4162  -24.5099 O   0  0  0  0  0  0  0  0  0  0  0  0
    2.9057  -52.2286  -23.7372 O   0  0  0  0  0  0  0  0  0  0  0  0
    3.7586  -50.7369  -25.7558 C   0  0  0  0  0  0  0  0  0  0  0  0
    3.3064  -49.6021  -26.6091 C   0  0  0  0  0  0  0  0  0  0  0  0
    4.9082  -50.3862  -24.8243 C   0  0  0  0  0  0  0  0  0  0  0  0
 24 25  1  0  0  0
 25  1  1  0  0  0
  1  2  2  0  0  0
  2  3  1  0  0  0
  3  4  2  0  0  0
  4  5  1  0  0  0
  5  6  2  0  0  0
  6 26  1  0  0  0
 26 28  1  0  0  0
 28 29  2  0  0  0
 29 30  1  0  0  0
 30 31  2  0  0  0
 31 32  1  0  0  0
 31 33  1  0  0  0
 33 35  1  0  0  0
 35 37  1  0  0  0
 37 38  2  0  0  0
 38 39  1  0  0  0
 39 40  2  0  0  0
 40 41  1  0  0  0
 41 42  2  0  0  0
 42 43  1  0  0  0
 43 44  2  0  0  0
 43 45  2  0  0  0
 43 46  1  0  0  0
 46 47  1  0  0  0
 46 48  1  0  0  0
 33 34  2  0  0  0
  3  7  1  0  0  0
  7  8  1  0  0  0
  8  9  1  0  0  0
  9 10  1  0  0  0
 10 11  1  0  0  0
 11 12  1  0  0  0
 10 13  1  0  0  0
 13 14  1  0  0  0
 14 15  2  0  0  0
 14 16  1  0  0  0
 16 17  2  0  0  0
 17 18  1  0  0  0
 18 19  2  0  0  0
 19 20  1  0  0  0
 20 21  2  0  0  0
 21 22  1  0  0  0
 22 23  2  0  0  0
  6  1  1  0  0  0
 34 28  1  0  0  0
 12  7  1  0  0  0
 22 13  1  0  0  0
 42 37  1  0  0  0
 21 16  1  0  0  0
 26 27  1  0  0  0
 35 36  1  0  0  0
M  END
> <minimizedAffinity>
-8.08066

> <CNNscore>
0.1820375621

> <CNNaffinity>
7.3528122902

> <CNN_VS>
1.3384879827

> <CNNaffinity_variance>
0.7330585122

$$$$
[H]c1nc(N([H])c2c([H])c([H])c(N3C([H])([H])C([H])([H])C([H])(N4C(=O)c5c([H])c([H])c([H])c([H])c5C4=O)C([H])([H])C3([H])[H])c([H])c2OC([H])([H])[H])nc(N([H])c2c([H])c([H])c([H])c([H])c2S(=O)(=O)C([H])(C([H])([H])[H])C([H])([H])[H])c1Cl


 48 53  0  0  0  0  0  0  0  0999 V2000
   -0.2412  -53.5928  -21.0280 C   0  0  0  0  0  0  0  0  0  0  0  0
    0.5420  -53.1320  -22.0457 C   0  0  0  0  0  0  0  0  0  0  0  0
    1.4223  -52.0638  -21.9230 C   0  0  0  0  0  0  0  0  0  0  0  0
    1.4702  -51.4773  -20.6793 C   0  0  0  0  0  0  0  0  0  0  0  0
    0.6809  -51.9282  -19.6262 C   0  0  0  0  0  0  0  0  0  0  0  0
   -0.1967  -52.9854  -19.7514 C   0  0  0  0  0  0  0  0  0  0  0  0
    2.1272  -51.5625  -23.0277 N   0  0  0  0  0  0  0  0  0  0  0  0
    3.1375  -52.3023  -23.7299 C   0  0  0  0  0  0  0  0  0  0  0  0
    4.2132  -51.2803  -24.1442 C   0  0  0  0  0  0  0  0  0  0  0  0
    4.2787  -50.2985  -22.9776 C   0  0  0  0  0  0  0  0  0  0  0  0
    3.1390  -49.3460  -23.1356 C   0  0  0  0  0  0  0  0  0  0  0  0
    1.9033  -50.2040  -23.4729 C   0  0  0  0  0  0  0  0  0  0  0  0
    5.5706  -49.6584  -22.8439 N   0  0  0  0  0  0  0  0  0  0  0  0
    6.2807  -48.9933  -23.9180 C   0  0  0  0  0  0  0  0  0  0  0  0
    5.8431  -48.8806  -25.0767 O   0  0  0  0  0  0  0  0  0  0  0  0
    7.5507  -48.5018  -23.4082 C   0  0  0  0  0  0  0  0  0  0  0  0
    8.5946  -47.8011  -24.0098 C   0  0  0  0  0  0  0  0  0  0  0  0
    9.7161  -47.4405  -23.2975 C   0  0  0  0  0  0  0  0  0  0  0  0
    9.8488  -47.7602  -21.9598 C   0  0  0  0  0  0  0  0  0  0  0  0
    8.8004  -48.4577  -21.3736 C   0  0  0  0  0  0  0  0  0  0  0  0
    7.6636  -48.8358  -22.0526 C   0  0  0  0  0  0  0  0  0  0  0  0
    6.4326  -49.5481  -21.7230 C   0  0  0  0  0  0  0  0  0  0  0  0
    6.1899  -50.0021  -20.5659 O   0  0  0  0  0  0  0  0  0  0  0  0
   -1.4343  -54.9952  -22.5742 C   0  0  0  0  0  0  0  0  0  0  0  0
   -1.0962  -54.6748  -21.2435 O   0  0  0  0  0  0  0  0  0  0  0  0
   -1.0647  -53.4512  -18.7463 N   0  0  0  0  0  0  0  0  0  0  0  0
   -1.4103  -54.4542  -18.8643 H   0  0  0  0  0  0  0  0  0  0  0  0
   -1.4890  -52.7025  -17.6297 C   0  0  0  0  0  0  0  0  0  0  0  0
   -2.6798  -52.7577  -17.0680 N   0  0  0  0  0  0  0  0  0  0  0  0
   -3.0304  -52.1091  -15.9458 C   0  0  0  0  0  0  0  0  0  0  0  0
   -2.1110  -51.3141  -15.2957 C   0  0  0  0  0  0  0  0  0  0  0  0
   -2.5019  -50.4486  -13.8473 Cl  0  0  0  0  0  0  0  0  0  0  0  0
   -0.8177  -51.2239  -15.8634 C   0  0  0  0  0  0  0  0  0  0  0  0
   -0.5873  -51.9038  -16.9709 N   0  0  0  0  0  0  0  0  0  0  0  0
    0.1703  -50.5229  -15.1478 N   0  0  0  0  0  0  0  0  0  0  0  0
    0.0697  -49.4467  -15.1500 H   0  0  0  0  0  0  0  0  0  0  0  0
    1.2750  -50.9758  -14.4196 C   0  0  0  0  0  0  0  0  0  0  0  0
    1.1233  -52.0328  -13.5327 C   0  0  0  0  0  0  0  0  0  0  0  0
    2.1993  -52.5457  -12.8463 C   0  0  0  0  0  0  0  0  0  0  0  0
    3.4418  -51.9830  -13.0602 C   0  0  0  0  0  0  0  0  0  0  0  0
    3.6112  -50.9349  -13.9356 C   0  0  0  0  0  0  0  0  0  0  0  0
    2.5325  -50.4413  -14.6050 C   0  0  0  0  0  0  0  0  0  0  0  0
    2.7038  -49.0942  -15.7305 S   0  0  0  0  0  0  0  0  0  0  0  0
    1.5355  -48.1225  -15.5388 O   0  0  0  0  0  0  0  0  0  0  0  0
    3.9560  -48.3236  -15.4971 O   0  0  0  0  0  0  0  0  0  0  0  0
    2.6227  -49.5940  -17.4038 C   0  0  0  0  0  0  0  0  0  0  0  0
    2.5617  -48.4317  -18.3342 C   0  0  0  0  0  0  0  0  0  0  0  0
    3.6605  -50.6365  -17.7889 C   0  0  0  0  0  0  0  0  0  0  0  0
 24 25  1  0  0  0
 25  1  1  0  0  0
  1  2  2  0  0  0
  2  3  1  0  0  0
  3  4  2  0  0  0
  4  5  1  0  0  0
  5  6  2  0  0  0
  6 26  1  0  0  0
 26 28  1  0  0  0
 28 29  2  0  0  0
 29 30  1  0  0  0
 30 31  2  0  0  0
 31 32  1  0  0  0
 31 33  1  0  0  0
 33 35  1  0  0  0
 35 37  1  0  0  0
 37 38  2  0  0  0
 38 39  1  0  0  0
 39 40  2  0  0  0
 40 41  1  0  0  0
 41 42  2  0  0  0
 42 43  1  0  0  0
 43 44  2  0  0  0
 43 45  2  0  0  0
 43 46  1  0  0  0
 46 47  1  0  0  0
 46 48  1  0  0  0
 33 34  2  0  0  0
  3  7  1  0  0  0
  7  8  1  0  0  0
  8  9  1  0  0  0
  9 10  1  0  0  0
 10 11  1  0  0  0
 11 12  1  0  0  0
 10 13  1  0  0  0
 13 14  1  0  0  0
 14 15  2  0  0  0
 14 16  1  0  0  0
 16 17  2  0  0  0
 17 18  1  0  0  0
 18 19  2  0  0  0
 19 20  1  0  0  0
 20 21  2  0  0  0
 21 22  1  0  0  0
 22 23  2  0  0  0
  6  1  1  0  0  0
 34 28  1  0  0  0
 12  7  1  0  0  0
 22 13  1  0  0  0
 42 37  1  0  0  0
 21 16  1  0  0  0
 26 27  1  0  0  0
 35 36  1  0  0  0
M  END
> <minimizedAffinity>
-7.93794

> <CNNscore>
0.1481284052

> <CNNaffinity>
7.3576340675

> <CNN_VS>
1.0898746252

> <CNNaffinity_variance>
0.1683374345

$$$$
[H]c1nc(N([H])c2c([H])c([H])c(N3C([H])([H])C([H])([H])C([H])(N4C(=O)c5c([H])c([H])c([H])c([H])c5C4=O)C([H])([H])C3([H])[H])c([H])c2OC([H])([H])[H])nc(N([H])c2c([H])c([H])c([H])c([H])c2S(=O)(=O)C([H])(C([H])([H])[H])C([H])([H])[H])c1Cl


 48 53  0  0  0  0  0  0  0  0999 V2000
    2.8235  -50.0899  -25.2548 C   0  0  0  0  0  0  0  0  0  0  0  0
    3.0871  -48.8129  -25.6564 C   0  0  0  0  0  0  0  0  0  0  0  0
    3.6599  -47.8464  -24.8386 C   0  0  0  0  0  0  0  0  0  0  0  0
    3.9636  -48.2576  -23.5612 C   0  0  0  0  0  0  0  0  0  0  0  0
    3.7037  -49.5537  -23.1278 C   0  0  0  0  0  0  0  0  0  0  0  0
    3.1297  -50.5104  -23.9395 C   0  0  0  0  0  0  0  0  0  0  0  0
    3.8134  -46.5191  -25.2669 N   0  0  0  0  0  0  0  0  0  0  0  0
    2.7161  -45.6678  -25.6302 C   0  0  0  0  0  0  0  0  0  0  0  0
    3.2103  -44.8017  -26.8043 C   0  0  0  0  0  0  0  0  0  0  0  0
    4.1051  -45.7329  -27.6175 C   0  0  0  0  0  0  0  0  0  0  0  0
    5.4325  -45.7801  -26.9344 C   0  0  0  0  0  0  0  0  0  0  0  0
    5.1383  -45.9609  -25.4319 C   0  0  0  0  0  0  0  0  0  0  0  0
    4.1734  -45.3764  -29.0193 N   0  0  0  0  0  0  0  0  0  0  0  0
    3.8819  -46.2757  -30.1178 C   0  0  0  0  0  0  0  0  0  0  0  0
    3.5172  -47.4558  -29.9733 O   0  0  0  0  0  0  0  0  0  0  0  0
    4.0878  -45.5683  -31.3715 C   0  0  0  0  0  0  0  0  0  0  0  0
    3.9484  -45.9587  -32.7022 C   0  0  0  0  0  0  0  0  0  0  0  0
    4.2070  -45.0841  -33.7335 C   0  0  0  0  0  0  0  0  0  0  0  0
    4.6145  -43.7870  -33.4877 C   0  0  0  0  0  0  0  0  0  0  0  0
    4.7482  -43.4119  -32.1570 C   0  0  0  0  0  0  0  0  0  0  0  0
    4.4992  -44.2574  -31.0990 C   0  0  0  0  0  0  0  0  0  0  0  0
    4.5455  -44.1583  -29.6432 C   0  0  0  0  0  0  0  0  0  0  0  0
    4.8812  -43.0984  -29.0367 O   0  0  0  0  0  0  0  0  0  0  0  0
    3.0617  -51.5280  -27.1669 C   0  0  0  0  0  0  0  0  0  0  0  0
    2.2468  -50.9946  -26.1476 O   0  0  0  0  0  0  0  0  0  0  0  0
    2.7861  -51.8173  -23.5463 N   0  0  0  0  0  0  0  0  0  0  0  0
    3.5174  -52.5674  -23.7509 H   0  0  0  0  0  0  0  0  0  0  0  0
    1.5789  -52.1844  -22.9175 C   0  0  0  0  0  0  0  0  0  0  0  0
    0.4641  -52.5344  -23.5268 N   0  0  0  0  0  0  0  0  0  0  0  0
   -0.6434  -52.9750  -22.9085 C   0  0  0  0  0  0  0  0  0  0  0  0
   -0.6649  -53.0878  -21.5349 C   0  0  0  0  0  0  0  0  0  0  0  0
   -2.0628  -53.6454  -20.6778 Cl  0  0  0  0  0  0  0  0  0  0  0  0
    0.5111  -52.7221  -20.8373 C   0  0  0  0  0  0  0  0  0  0  0  0
    1.5385  -52.2998  -21.5500 N   0  0  0  0  0  0  0  0  0  0  0  0
    0.5539  -52.9510  -19.4497 N   0  0  0  0  0  0  0  0  0  0  0  0
    1.2438  -53.7179  -19.1267 H   0  0  0  0  0  0  0  0  0  0  0  0
   -0.1444  -52.3528  -18.3961 C   0  0  0  0  0  0  0  0  0  0  0  0
   -1.3060  -52.9461  -17.9210 C   0  0  0  0  0  0  0  0  0  0  0  0
   -1.9849  -52.4211  -16.8461 C   0  0  0  0  0  0  0  0  0  0  0  0
   -1.4825  -51.2838  -16.2457 C   0  0  0  0  0  0  0  0  0  0  0  0
   -0.3325  -50.6821  -16.7028 C   0  0  0  0  0  0  0  0  0  0  0  0
    0.3244  -51.2178  -17.7690 C   0  0  0  0  0  0  0  0  0  0  0  0
    1.7977  -50.4745  -18.3916 S   0  0  0  0  0  0  0  0  0  0  0  0
    2.8657  -51.5547  -18.5884 O   0  0  0  0  0  0  0  0  0  0  0  0
    1.5834  -49.8258  -19.7144 O   0  0  0  0  0  0  0  0  0  0  0  0
    2.4999  -49.3242  -17.2781 C   0  0  0  0  0  0  0  0  0  0  0  0
    3.3137  -49.9904  -16.2223 C   0  0  0  0  0  0  0  0  0  0  0  0
    3.2049  -48.1593  -17.9549 C   0  0  0  0  0  0  0  0  0  0  0  0
 24 25  1  0  0  0
 25  1  1  0  0  0
  1  2  2  0  0  0
  2  3  1  0  0  0
  3  4  2  0  0  0
  4  5  1  0  0  0
  5  6  2  0  0  0
  6 26  1  0  0  0
 26 28  1  0  0  0
 28 29  2  0  0  0
 29 30  1  0  0  0
 30 31  2  0  0  0
 31 32  1  0  0  0
 31 33  1  0  0  0
 33 35  1  0  0  0
 35 37  1  0  0  0
 37 38  2  0  0  0
 38 39  1  0  0  0
 39 40  2  0  0  0
 40 41  1  0  0  0
 41 42  2  0  0  0
 42 43  1  0  0  0
 43 44  2  0  0  0
 43 45  2  0  0  0
 43 46  1  0  0  0
 46 47  1  0  0  0
 46 48  1  0  0  0
 33 34  2  0  0  0
  3  7  1  0  0  0
  7  8  1  0  0  0
  8  9  1  0  0  0
  9 10  1  0  0  0
 10 11  1  0  0  0
 11 12  1  0  0  0
 10 13  1  0  0  0
 13 14  1  0  0  0
 14 15  2  0  0  0
 14 16  1  0  0  0
 16 17  2  0  0  0
 17 18  1  0  0  0
 18 19  2  0  0  0
 19 20  1  0  0  0
 20 21  2  0  0  0
 21 22  1  0  0  0
 22 23  2  0  0  0
  6  1  1  0  0  0
 34 28  1  0  0  0
 12  7  1  0  0  0
 22 13  1  0  0  0
 42 37  1  0  0  0
 21 16  1  0  0  0
 26 27  1  0  0  0
 35 36  1  0  0  0
M  END
> <minimizedAffinity>
-8.04705

> <CNNscore>
0.1457723975

> <CNNaffinity>
6.8471231461

> <CNN_VS>
0.9981215596

> <CNNaffinity_variance>
0.2620481253

$$$$
[H]c1nc(N([H])c2c([H])c([H])c(N3C([H])([H])C([H])([H])C([H])(N4C(=O)c5c([H])c([H])c([H])c([H])c5C4=O)C([H])([H])C3([H])[H])c([H])c2OC([H])([H])[H])nc(N([H])c2c([H])c([H])c([H])c([H])c2S(=O)(=O)C([H])(C([H])([H])[H])C([H])([H])[H])c1Cl


 48 53  0  0  0  0  0  0  0  0999 V2000
    4.4973  -49.1871  -22.8650 C   0  0  0  0  0  0  0  0  0  0  0  0
    4.6199  -48.0503  -23.6094 C   0  0  0  0  0  0  0  0  0  0  0  0
    3.7158  -46.9959  -23.5676 C   0  0  0  0  0  0  0  0  0  0  0  0
    2.6571  -47.1590  -22.7040 C   0  0  0  0  0  0  0  0  0  0  0  0
    2.5096  -48.3090  -21.9353 C   0  0  0  0  0  0  0  0  0  0  0  0
    3.4053  -49.3574  -21.9823 C   0  0  0  0  0  0  0  0  0  0  0  0
    3.8307  -45.8953  -24.4302 N   0  0  0  0  0  0  0  0  0  0  0  0
    2.7076  -45.2387  -25.0371 C   0  0  0  0  0  0  0  0  0  0  0  0
    3.1606  -44.8226  -26.4495 C   0  0  0  0  0  0  0  0  0  0  0  0
    4.0623  -45.9628  -26.9142 C   0  0  0  0  0  0  0  0  0  0  0  0
    5.4024  -45.7507  -26.2895 C   0  0  0  0  0  0  0  0  0  0  0  0
    5.1391  -45.4073  -24.8098 C   0  0  0  0  0  0  0  0  0  0  0  0
    4.0975  -46.1102  -28.3543 N   0  0  0  0  0  0  0  0  0  0  0  0
    4.1793  -45.0130  -29.2976 C   0  0  0  0  0  0  0  0  0  0  0  0
    4.2505  -43.8158  -28.9683 O   0  0  0  0  0  0  0  0  0  0  0  0
    4.1627  -45.5520  -30.6480 C   0  0  0  0  0  0  0  0  0  0  0  0
    4.2207  -44.9441  -31.9009 C   0  0  0  0  0  0  0  0  0  0  0  0
    4.1903  -45.6895  -33.0579 C   0  0  0  0  0  0  0  0  0  0  0  0
    4.1007  -47.0678  -33.0202 C   0  0  0  0  0  0  0  0  0  0  0  0
    4.0446  -47.6595  -31.7648 C   0  0  0  0  0  0  0  0  0  0  0  0
    4.0724  -46.9483  -30.5859 C   0  0  0  0  0  0  0  0  0  0  0  0
    4.0338  -47.2735  -29.1632 C   0  0  0  0  0  0  0  0  0  0  0  0
    3.9532  -48.4613  -28.7315 O   0  0  0  0  0  0  0  0  0  0  0  0
    6.0288  -50.4320  -24.2382 C   0  0  0  0  0  0  0  0  0  0  0  0
    5.4571  -50.1950  -22.9715 O   0  0  0  0  0  0  0  0  0  0  0  0
    3.2828  -50.5700  -21.2784 N   0  0  0  0  0  0  0  0  0  0  0  0
    4.1772  -50.9287  -20.8193 H   0  0  0  0  0  0  0  0  0  0  0  0
    2.0925  -51.3132  -21.1437 C   0  0  0  0  0  0  0  0  0  0  0  0
    1.4574  -51.5596  -20.0156 N   0  0  0  0  0  0  0  0  0  0  0  0
    0.2731  -52.1855  -19.9219 C   0  0  0  0  0  0  0  0  0  0  0  0
   -0.3661  -52.6211  -21.0627 C   0  0  0  0  0  0  0  0  0  0  0  0
   -1.8924  -53.4380  -21.0089 Cl  0  0  0  0  0  0  0  0  0  0  0  0
    0.2794  -52.3788  -22.2987 C   0  0  0  0  0  0  0  0  0  0  0  0
    1.4431  -51.7568  -22.2691 N   0  0  0  0  0  0  0  0  0  0  0  0
   -0.4142  -52.6994  -23.4801 N   0  0  0  0  0  0  0  0  0  0  0  0
   -1.1513  -51.9750  -23.7969 H   0  0  0  0  0  0  0  0  0  0  0  0
   -0.3176  -53.8030  -24.3336 C   0  0  0  0  0  0  0  0  0  0  0  0
   -0.7460  -55.0479  -23.8935 C   0  0  0  0  0  0  0  0  0  0  0  0
   -0.7245  -56.1429  -24.7256 C   0  0  0  0  0  0  0  0  0  0  0  0
   -0.2650  -55.9758  -26.0168 C   0  0  0  0  0  0  0  0  0  0  0  0
    0.1634  -54.7494  -26.4706 C   0  0  0  0  0  0  0  0  0  0  0  0
    0.1345  -53.6778  -25.6302 C   0  0  0  0  0  0  0  0  0  0  0  0
    0.6811  -52.0897  -26.1686 S   0  0  0  0  0  0  0  0  0  0  0  0
    0.9475  -52.1302  -27.6764 O   0  0  0  0  0  0  0  0  0  0  0  0
   -0.3425  -51.0345  -25.9339 O   0  0  0  0  0  0  0  0  0  0  0  0
    2.1974  -51.6119  -25.4414 C   0  0  0  0  0  0  0  0  0  0  0  0
    3.1729  -52.7371  -25.3873 C   0  0  0  0  0  0  0  0  0  0  0  0
    2.7751  -50.3235  -26.0057 C   0  0  0  0  0  0  0  0  0  0  0  0
 24 25  1  0  0  0
 25  1  1  0  0  0
  1  2  2  0  0  0
  2  3  1  0  0  0
  3  4  2  0  0  0
  4  5  1  0  0  0
  5  6  2  0  0  0
  6 26  1  0  0  0
 26 28  1  0  0  0
 28 29  2  0  0  0
 29 30  1  0  0  0
 30 31  2  0  0  0
 31 32  1  0  0  0
 31 33  1  0  0  0
 33 35  1  0  0  0
 35 37  1  0  0  0
 37 38  2  0  0  0
 38 39  1  0  0  0
 39 40  2  0  0  0
 40 41  1  0  0  0
 41 42  2  0  0  0
 42 43  1  0  0  0
 43 44  2  0  0  0
 43 45  2  0  0  0
 43 46  1  0  0  0
 46 47  1  0  0  0
 46 48  1  0  0  0
 33 34  2  0  0  0
  3  7  1  0  0  0
  7  8  1  0  0  0
  8  9  1  0  0  0
  9 10  1  0  0  0
 10 11  1  0  0  0
 11 12  1  0  0  0
 10 13  1  0  0  0
 13 14  1  0  0  0
 14 15  2  0  0  0
 14 16  1  0  0  0
 16 17  2  0  0  0
 17 18  1  0  0  0
 18 19  2  0  0  0
 19 20  1  0  0  0
 20 21  2  0  0  0
 21 22  1  0  0  0
 22 23  2  0  0  0
  6  1  1  0  0  0
 34 28  1  0  0  0
 12  7  1  0  0  0
 22 13  1  0  0  0
 42 37  1  0  0  0
 21 16  1  0  0  0
 26 27  1  0  0  0
 35 36  1  0  0  0
M  END
> <minimizedAffinity>
-8.41088

> <CNNscore>
0.1225996241

> <CNNaffinity>
7.1914396286

> <CNN_VS>
0.8816677928

> <CNNaffinity_variance>
0.8120244741

$$$$
[H]c1nc(N([H])c2c([H])c([H])c(N3C([H])([H])C([H])([H])C([H])(N4C(=O)c5c([H])c([H])c([H])c([H])c5C4=O)C([H])([H])C3([H])[H])c([H])c2OC([H])([H])[H])nc(N([H])c2c([H])c([H])c([H])c([H])c2S(=O)(=O)C([H])(C([H])([H])[H])C([H])([H])[H])c1Cl


 48 53  0  0  0  0  0  0  0  0999 V2000
    1.0823  -51.5064  -24.9806 C   0  0  0  0  0  0  0  0  0  0  0  0
    1.8982  -50.5006  -25.4098 C   0  0  0  0  0  0  0  0  0  0  0  0
    3.2054  -50.3240  -24.9729 C   0  0  0  0  0  0  0  0  0  0  0  0
    3.6530  -51.2494  -24.0582 C   0  0  0  0  0  0  0  0  0  0  0  0
    2.8400  -52.2831  -23.6046 C   0  0  0  0  0  0  0  0  0  0  0  0
    1.5404  -52.4536  -24.0354 C   0  0  0  0  0  0  0  0  0  0  0  0
    3.9672  -49.2130  -25.3655 N   0  0  0  0  0  0  0  0  0  0  0  0
    5.3944  -49.1384  -25.2301 C   0  0  0  0  0  0  0  0  0  0  0  0
    5.7191  -47.6770  -24.8669 C   0  0  0  0  0  0  0  0  0  0  0  0
    4.5737  -47.2449  -23.9556 C   0  0  0  0  0  0  0  0  0  0  0  0
    3.4161  -46.8976  -24.8333 C   0  0  0  0  0  0  0  0  0  0  0  0
    3.3100  -48.0289  -25.8752 C   0  0  0  0  0  0  0  0  0  0  0  0
    4.9480  -46.1981  -23.0279 N   0  0  0  0  0  0  0  0  0  0  0  0
    6.1462  -46.2031  -22.2127 C   0  0  0  0  0  0  0  0  0  0  0  0
    7.0016  -47.1055  -22.2381 O   0  0  0  0  0  0  0  0  0  0  0  0
    6.1609  -45.0031  -21.3915 C   0  0  0  0  0  0  0  0  0  0  0  0
    7.0694  -44.5223  -20.4502 C   0  0  0  0  0  0  0  0  0  0  0  0
    6.8543  -43.3312  -19.7942 C   0  0  0  0  0  0  0  0  0  0  0  0
    5.7297  -42.5684  -20.0443 C   0  0  0  0  0  0  0  0  0  0  0  0
    4.8339  -43.0597  -20.9852 C   0  0  0  0  0  0  0  0  0  0  0  0
    5.0140  -44.2457  -21.6613 C   0  0  0  0  0  0  0  0  0  0  0  0
    4.2790  -44.9987  -22.6733 C   0  0  0  0  0  0  0  0  0  0  0  0
    3.1780  -44.6041  -23.1589 O   0  0  0  0  0  0  0  0  0  0  0  0
   -0.3889  -52.0837  -26.7926 C   0  0  0  0  0  0  0  0  0  0  0  0
   -0.2185  -51.6064  -25.4771 O   0  0  0  0  0  0  0  0  0  0  0  0
    0.6481  -53.4387  -23.5728 N   0  0  0  0  0  0  0  0  0  0  0  0
    0.5028  -54.2715  -24.2244 H   0  0  0  0  0  0  0  0  0  0  0  0
   -0.0397  -53.3972  -22.3430 C   0  0  0  0  0  0  0  0  0  0  0  0
   -1.2124  -53.9439  -22.0932 N   0  0  0  0  0  0  0  0  0  0  0  0
   -1.8035  -53.9766  -20.8879 C   0  0  0  0  0  0  0  0  0  0  0  0
   -1.1762  -53.4099  -19.7993 C   0  0  0  0  0  0  0  0  0  0  0  0
   -1.8873  -53.4154  -18.2200 Cl  0  0  0  0  0  0  0  0  0  0  0  0
    0.0864  -52.8097  -20.0201 C   0  0  0  0  0  0  0  0  0  0  0  0
    0.5689  -52.8349  -21.2482 N   0  0  0  0  0  0  0  0  0  0  0  0
    0.7994  -52.3409  -18.9015 N   0  0  0  0  0  0  0  0  0  0  0  0
    1.6082  -52.9753  -18.5670 H   0  0  0  0  0  0  0  0  0  0  0  0
    0.6496  -51.1814  -18.1341 C   0  0  0  0  0  0  0  0  0  0  0  0
   -0.3372  -51.1288  -17.1592 C   0  0  0  0  0  0  0  0  0  0  0  0
   -0.4737  -50.0298  -16.3435 C   0  0  0  0  0  0  0  0  0  0  0  0
    0.3980  -48.9731  -16.5162 C   0  0  0  0  0  0  0  0  0  0  0  0
    1.3823  -49.0076  -17.4771 C   0  0  0  0  0  0  0  0  0  0  0  0
    1.5001  -50.1052  -18.2750 C   0  0  0  0  0  0  0  0  0  0  0  0
    2.7428  -50.1879  -19.5239 S   0  0  0  0  0  0  0  0  0  0  0  0
    3.4927  -51.5181  -19.4048 O   0  0  0  0  0  0  0  0  0  0  0  0
    2.1653  -50.1330  -20.8949 O   0  0  0  0  0  0  0  0  0  0  0  0
    3.9637  -48.9489  -19.3487 C   0  0  0  0  0  0  0  0  0  0  0  0
    5.3121  -49.4271  -19.7655 C   0  0  0  0  0  0  0  0  0  0  0  0
    3.5741  -47.6073  -19.9490 C   0  0  0  0  0  0  0  0  0  0  0  0
 24 25  1  0  0  0
 25  1  1  0  0  0
  1  2  2  0  0  0
  2  3  1  0  0  0
  3  4  2  0  0  0
  4  5  1  0  0  0
  5  6  2  0  0  0
  6 26  1  0  0  0
 26 28  1  0  0  0
 28 29  2  0  0  0
 29 30  1  0  0  0
 30 31  2  0  0  0
 31 32  1  0  0  0
 31 33  1  0  0  0
 33 35  1  0  0  0
 35 37  1  0  0  0
 37 38  2  0  0  0
 38 39  1  0  0  0
 39 40  2  0  0  0
 40 41  1  0  0  0
 41 42  2  0  0  0
 42 43  1  0  0  0
 43 44  2  0  0  0
 43 45  2  0  0  0
 43 46  1  0  0  0
 46 47  1  0  0  0
 46 48  1  0  0  0
 33 34  2  0  0  0
  3  7  1  0  0  0
  7  8  1  0  0  0
  8  9  1  0  0  0
  9 10  1  0  0  0
 10 11  1  0  0  0
 11 12  1  0  0  0
 10 13  1  0  0  0
 13 14  1  0  0  0
 14 15  2  0  0  0
 14 16  1  0  0  0
 16 17  2  0  0  0
 17 18  1  0  0  0
 18 19  2  0  0  0
 19 20  1  0  0  0
 20 21  2  0  0  0
 21 22  1  0  0  0
 22 23  2  0  0  0
  6  1  1  0  0  0
 34 28  1  0  0  0
 12  7  1  0  0  0
 22 13  1  0  0  0
 42 37  1  0  0  0
 21 16  1  0  0  0
 26 27  1  0  0  0
 35 36  1  0  0  0
M  END
> <minimizedAffinity>
-7.34679

> <CNNscore>
0.1182220653

> <CNNaffinity>
7.3004431725

> <CNN_VS>
0.8630734682

> <CNNaffinity_variance>
0.3192616105

$$$$
[H]c1nc(N([H])c2c([H])c([H])c(N3C([H])([H])C([H])([H])C([H])(N4C(=O)c5c([H])c([H])c([H])c([H])c5C4=O)C([H])([H])C3([H])[H])c([H])c2OC([H])([H])[H])nc(N([H])c2c([H])c([H])c([H])c([H])c2S(=O)(=O)C([H])(C([H])([H])[H])C([H])([H])[H])c1Cl


 48 53  0  0  0  0  0  0  0  0999 V2000
    2.0756  -50.3180  -18.3635 C   0  0  0  0  0  0  0  0  0  0  0  0
    3.1692  -49.5121  -18.4896 C   0  0  0  0  0  0  0  0  0  0  0  0
    3.4482  -48.7565  -19.6220 C   0  0  0  0  0  0  0  0  0  0  0  0
    2.5315  -48.8612  -20.6429 C   0  0  0  0  0  0  0  0  0  0  0  0
    1.4093  -49.6767  -20.5387 C   0  0  0  0  0  0  0  0  0  0  0  0
    1.1370  -50.4305  -19.4157 C   0  0  0  0  0  0  0  0  0  0  0  0
    4.6399  -48.0259  -19.7422 N   0  0  0  0  0  0  0  0  0  0  0  0
    4.6965  -46.5914  -19.7557 C   0  0  0  0  0  0  0  0  0  0  0  0
    5.8138  -46.2114  -20.7458 C   0  0  0  0  0  0  0  0  0  0  0  0
    5.7079  -47.2490  -21.8600 C   0  0  0  0  0  0  0  0  0  0  0  0
    6.3890  -48.4878  -21.3780 C   0  0  0  0  0  0  0  0  0  0  0  0
    5.8962  -48.7176  -19.9354 C   0  0  0  0  0  0  0  0  0  0  0  0
    6.1924  -46.7657  -23.1361 N   0  0  0  0  0  0  0  0  0  0  0  0
    5.6220  -47.1104  -24.4231 C   0  0  0  0  0  0  0  0  0  0  0  0
    4.6319  -47.8484  -24.5705 O   0  0  0  0  0  0  0  0  0  0  0  0
    6.3936  -46.4580  -25.4689 C   0  0  0  0  0  0  0  0  0  0  0  0
    6.2734  -46.4520  -26.8574 C   0  0  0  0  0  0  0  0  0  0  0  0
    7.1468  -45.7379  -27.6463 C   0  0  0  0  0  0  0  0  0  0  0  0
    8.1751  -45.0009  -27.0910 C   0  0  0  0  0  0  0  0  0  0  0  0
    8.2819  -45.0156  -25.7062 C   0  0  0  0  0  0  0  0  0  0  0  0
    7.4285  -45.7172  -24.8842 C   0  0  0  0  0  0  0  0  0  0  0  0
    7.2874  -45.9190  -23.4452 C   0  0  0  0  0  0  0  0  0  0  0  0
    8.0644  -45.3888  -22.5972 O   0  0  0  0  0  0  0  0  0  0  0  0
    1.5798  -50.3196  -16.0108 C   0  0  0  0  0  0  0  0  0  0  0  0
    1.8760  -51.0401  -17.1858 O   0  0  0  0  0  0  0  0  0  0  0  0
    0.0554  -51.3192  -19.2696 N   0  0  0  0  0  0  0  0  0  0  0  0
   -0.5526  -51.1669  -18.4057 H   0  0  0  0  0  0  0  0  0  0  0  0
   -0.2659  -52.3600  -20.1645 C   0  0  0  0  0  0  0  0  0  0  0  0
   -1.1988  -53.2735  -19.9862 N   0  0  0  0  0  0  0  0  0  0  0  0
   -1.5544  -54.1956  -20.8952 C   0  0  0  0  0  0  0  0  0  0  0  0
   -0.9265  -54.2295  -22.1217 C   0  0  0  0  0  0  0  0  0  0  0  0
   -1.3361  -55.3957  -23.3349 Cl  0  0  0  0  0  0  0  0  0  0  0  0
    0.0837  -53.2667  -22.3581 C   0  0  0  0  0  0  0  0  0  0  0  0
    0.3511  -52.4106  -21.3900 N   0  0  0  0  0  0  0  0  0  0  0  0
    0.6459  -53.2021  -23.6463 N   0  0  0  0  0  0  0  0  0  0  0  0
    0.0741  -53.6833  -24.4272 H   0  0  0  0  0  0  0  0  0  0  0  0
    1.8290  -52.6149  -24.1059 C   0  0  0  0  0  0  0  0  0  0  0  0
    2.6881  -52.0074  -23.2004 C   0  0  0  0  0  0  0  0  0  0  0  0
    3.8895  -51.4749  -23.6067 C   0  0  0  0  0  0  0  0  0  0  0  0
    4.2249  -51.5586  -24.9433 C   0  0  0  0  0  0  0  0  0  0  0  0
    3.3861  -52.1573  -25.8552 C   0  0  0  0  0  0  0  0  0  0  0  0
    2.2006  -52.6779  -25.4323 C   0  0  0  0  0  0  0  0  0  0  0  0
    1.0926  -53.4473  -26.5686 S   0  0  0  0  0  0  0  0  0  0  0  0
    1.8671  -53.8786  -27.8177 O   0  0  0  0  0  0  0  0  0  0  0  0
    0.4652  -54.6714  -25.9992 O   0  0  0  0  0  0  0  0  0  0  0  0
   -0.1505  -52.3614  -27.1445 C   0  0  0  0  0  0  0  0  0  0  0  0
   -0.5421  -52.6531  -28.5524 C   0  0  0  0  0  0  0  0  0  0  0  0
   -1.3297  -52.2125  -26.1961 C   0  0  0  0  0  0  0  0  0  0  0  0
 24 25  1  0  0  0
 25  1  1  0  0  0
  1  2  2  0  0  0
  2  3  1  0  0  0
  3  4  2  0  0  0
  4  5  1  0  0  0
  5  6  2  0  0  0
  6 26  1  0  0  0
 26 28  1  0  0  0
 28 29  2  0  0  0
 29 30  1  0  0  0
 30 31  2  0  0  0
 31 32  1  0  0  0
 31 33  1  0  0  0
 33 35  1  0  0  0
 35 37  1  0  0  0
 37 38  2  0  0  0
 38 39  1  0  0  0
 39 40  2  0  0  0
 40 41  1  0  0  0
 41 42  2  0  0  0
 42 43  1  0  0  0
 43 44  2  0  0  0
 43 45  2  0  0  0
 43 46  1  0  0  0
 46 47  1  0  0  0
 46 48  1  0  0  0
 33 34  2  0  0  0
  3  7  1  0  0  0
  7  8  1  0  0  0
  8  9  1  0  0  0
  9 10  1  0  0  0
 10 11  1  0  0  0
 11 12  1  0  0  0
 10 13  1  0  0  0
 13 14  1  0  0  0
 14 15  2  0  0  0
 14 16  1  0  0  0
 16 17  2  0  0  0
 17 18  1  0  0  0
 18 19  2  0  0  0
 19 20  1  0  0  0
 20 21  2  0  0  0
 21 22  1  0  0  0
 22 23  2  0  0  0
  6  1  1  0  0  0
 34 28  1  0  0  0
 12  7  1  0  0  0
 22 13  1  0  0  0
 42 37  1  0  0  0
 21 16  1  0  0  0
 26 27  1  0  0  0
 35 36  1  0  0  0
M  END
> <minimizedAffinity>
-7.85748

> <CNNscore>
0.0951371938

> <CNNaffinity>
7.5569128990

> <CNN_VS>
0.7189434767

> <CNNaffinity_variance>
0.2127238214

$$$$
[H]c1nc(N([H])c2c([H])c([H])c(N3C([H])([H])C([H])([H])C([H])(N4C(=O)c5c([H])c([H])c([H])c([H])c5C4=O)C([H])([H])C3([H])[H])c([H])c2OC([H])([H])[H])nc(N([H])c2c([H])c([H])c([H])c([H])c2S(=O)(=O)C([H])(C([H])([H])[H])C([H])([H])[H])c1Cl


 48 53  0  0  0  0  0  0  0  0999 V2000
    1.0071  -51.4856  -25.2240 C   0  0  0  0  0  0  0  0  0  0  0  0
    1.8516  -50.5334  -25.7153 C   0  0  0  0  0  0  0  0  0  0  0  0
    3.1830  -50.4092  -25.3370 C   0  0  0  0  0  0  0  0  0  0  0  0
    3.6235  -51.3300  -24.4143 C   0  0  0  0  0  0  0  0  0  0  0  0
    2.7816  -52.3096  -23.8979 C   0  0  0  0  0  0  0  0  0  0  0  0
    1.4584  -52.4278  -24.2705 C   0  0  0  0  0  0  0  0  0  0  0  0
    3.9801  -49.3483  -25.7927 N   0  0  0  0  0  0  0  0  0  0  0  0
    5.4108  -49.3211  -25.6780 C   0  0  0  0  0  0  0  0  0  0  0  0
    5.7944  -47.8570  -25.3910 C   0  0  0  0  0  0  0  0  0  0  0  0
    4.6783  -47.3381  -24.4887 C   0  0  0  0  0  0  0  0  0  0  0  0
    3.5226  -46.9905  -25.3688 C   0  0  0  0  0  0  0  0  0  0  0  0
    3.3604  -48.1664  -26.3524 C   0  0  0  0  0  0  0  0  0  0  0  0
    5.1037  -46.2621  -23.6181 N   0  0  0  0  0  0  0  0  0  0  0  0
    5.6229  -46.4381  -22.2765 C   0  0  0  0  0  0  0  0  0  0  0  0
    5.7809  -47.5445  -21.7309 O   0  0  0  0  0  0  0  0  0  0  0  0
    5.9129  -45.1308  -21.7096 C   0  0  0  0  0  0  0  0  0  0  0  0
    6.4230  -44.7371  -20.4737 C   0  0  0  0  0  0  0  0  0  0  0  0
    6.6121  -43.4076  -20.1704 C   0  0  0  0  0  0  0  0  0  0  0  0
    6.3029  -42.4142  -21.0797 C   0  0  0  0  0  0  0  0  0  0  0  0
    5.7963  -42.8217  -22.3071 C   0  0  0  0  0  0  0  0  0  0  0  0
    5.5931  -44.1406  -22.6471 C   0  0  0  0  0  0  0  0  0  0  0  0
    5.0963  -44.8579  -23.8175 C   0  0  0  0  0  0  0  0  0  0  0  0
    4.7115  -44.2706  -24.8715 O   0  0  0  0  0  0  0  0  0  0  0  0
   -0.5839  -52.1942  -26.8816 C   0  0  0  0  0  0  0  0  0  0  0  0
   -0.3166  -51.5352  -25.6643 O   0  0  0  0  0  0  0  0  0  0  0  0
    0.5399  -53.3548  -23.7433 N   0  0  0  0  0  0  0  0  0  0  0  0
    0.2767  -54.1617  -24.3905 H   0  0  0  0  0  0  0  0  0  0  0  0
   -0.0318  -53.2881  -22.4565 C   0  0  0  0  0  0  0  0  0  0  0  0
   -0.7864  -54.2117  -21.8960 N   0  0  0  0  0  0  0  0  0  0  0  0
   -1.2388  -54.1712  -20.6324 C   0  0  0  0  0  0  0  0  0  0  0  0
   -0.9164  -53.1047  -19.8209 C   0  0  0  0  0  0  0  0  0  0  0  0
   -1.4715  -52.9912  -18.1842 Cl  0  0  0  0  0  0  0  0  0  0  0  0
   -0.1075  -52.0871  -20.3807 C   0  0  0  0  0  0  0  0  0  0  0  0
    0.2767  -52.2321  -21.6350 N   0  0  0  0  0  0  0  0  0  0  0  0
    0.3384  -51.0566  -19.5329 N   0  0  0  0  0  0  0  0  0  0  0  0
    0.0187  -51.1315  -18.5031 H   0  0  0  0  0  0  0  0  0  0  0  0
    1.1363  -49.9364  -19.7865 C   0  0  0  0  0  0  0  0  0  0  0  0
    1.4077  -49.5725  -21.0984 C   0  0  0  0  0  0  0  0  0  0  0  0
    2.1360  -48.4419  -21.3870 C   0  0  0  0  0  0  0  0  0  0  0  0
    2.5940  -47.6716  -20.3367 C   0  0  0  0  0  0  0  0  0  0  0  0
    2.3346  -48.0165  -19.0302 C   0  0  0  0  0  0  0  0  0  0  0  0
    1.6119  -49.1405  -18.7659 C   0  0  0  0  0  0  0  0  0  0  0  0
    1.2627  -49.6232  -17.1059 S   0  0  0  0  0  0  0  0  0  0  0  0
    1.4770  -48.4261  -16.1747 O   0  0  0  0  0  0  0  0  0  0  0  0
   -0.1492  -50.0630  -16.9344 O   0  0  0  0  0  0  0  0  0  0  0  0
    2.3426  -50.8669  -16.5199 C   0  0  0  0  0  0  0  0  0  0  0  0
    3.6535  -50.8511  -17.2282 C   0  0  0  0  0  0  0  0  0  0  0  0
    2.4624  -50.9186  -15.0049 C   0  0  0  0  0  0  0  0  0  0  0  0
 24 25  1  0  0  0
 25  1  1  0  0  0
  1  2  2  0  0  0
  2  3  1  0  0  0
  3  4  2  0  0  0
  4  5  1  0  0  0
  5  6  2  0  0  0
  6 26  1  0  0  0
 26 28  1  0  0  0
 28 29  2  0  0  0
 29 30  1  0  0  0
 30 31  2  0  0  0
 31 32  1  0  0  0
 31 33  1  0  0  0
 33 35  1  0  0  0
 35 37  1  0  0  0
 37 38  2  0  0  0
 38 39  1  0  0  0
 39 40  2  0  0  0
 40 41  1  0  0  0
 41 42  2  0  0  0
 42 43  1  0  0  0
 43 44  2  0  0  0
 43 45  2  0  0  0
 43 46  1  0  0  0
 46 47  1  0  0  0
 46 48  1  0  0  0
 33 34  2  0  0  0
  3  7  1  0  0  0
  7  8  1  0  0  0
  8  9  1  0  0  0
  9 10  1  0  0  0
 10 11  1  0  0  0
 11 12  1  0  0  0
 10 13  1  0  0  0
 13 14  1  0  0  0
 14 15  2  0  0  0
 14 16  1  0  0  0
 16 17  2  0  0  0
 17 18  1  0  0  0
 18 19  2  0  0  0
 19 20  1  0  0  0
 20 21  2  0  0  0
 21 22  1  0  0  0
 22 23  2  0  0  0
  6  1  1  0  0  0
 34 28  1  0  0  0
 12  7  1  0  0  0
 22 13  1  0  0  0
 42 37  1  0  0  0
 21 16  1  0  0  0
 26 27  1  0  0  0
 35 36  1  0  0  0
M  END
> <minimizedAffinity>
-7.05779

> <CNNscore>
0.0868409723

> <CNNaffinity>
7.3647165298

> <CNN_VS>
0.6395591497

> <CNNaffinity_variance>
0.1251413673

$$$$
[H]C1=C(C(=O)[O-])N2C(=O)/C(=C(\[H])c3c([H])c([H])c([H])c([H])c3[H])[C@@]2([H])S1


 18 20  0  0  0  0  0  0  0  0999 V2000
    1.8400  -52.5159  -23.7448 C   0  0  0  0  0  0  0  0  0  0  0  0
    2.5795  -51.6395  -23.0935 C   0  0  0  0  0  0  0  0  0  0  0  0
    1.7828  -51.3633  -21.5182 S   0  0  0  0  0  0  0  0  0  0  0  0
    0.1905  -52.0488  -22.0797 C   0  0  0  0  0  0  0  0  0  0  0  0
    0.7085  -52.9745  -23.0791 N   0  0  0  0  0  0  0  0  0  0  0  0
   -0.3538  -53.8382  -22.7150 C   0  0  0  0  0  0  0  0  0  0  0  0
   -1.0495  -54.7553  -23.2730 O   0  0  0  0  0  0  0  0  0  0  0  0
   -0.3140  -53.2157  -21.3876 C   0  0  0  0  0  0  0  0  0  0  0  0
   -0.6260  -53.6438  -20.1895 C   0  0  0  0  0  0  0  0  0  0  0  0
   -0.4679  -52.7609  -19.0496 C   0  0  0  0  0  0  0  0  0  0  0  0
   -1.2317  -52.8782  -17.9173 C   0  0  0  0  0  0  0  0  0  0  0  0
   -1.1109  -52.0601  -16.8306 C   0  0  0  0  0  0  0  0  0  0  0  0
   -0.1792  -51.0500  -16.8399 C   0  0  0  0  0  0  0  0  0  0  0  0
    0.6128  -50.8929  -17.9564 C   0  0  0  0  0  0  0  0  0  0  0  0
    0.4691  -51.7459  -19.0569 C   0  0  0  0  0  0  0  0  0  0  0  0
    3.3952  -52.3656  -25.6271 O   0  0  0  0  0  0  0  0  0  0  0  0
    2.2590  -52.9342  -25.0862 C   0  0  0  0  0  0  0  0  0  0  0  0
    1.6444  -53.7775  -25.7675 O   0  0  0  0  0  0  0  0  0  0  0  0
 16 17  1  0  0  0
 17 18  2  0  0  0
 17  1  1  0  0  0
  1  2  2  0  0  0
  2  3  1  0  0  0
  3  4  1  0  0  0
  4  5  1  0  0  0
  5  6  1  0  0  0
  6  7  2  0  0  0
  6  8  1  0  0  0
  8  9  2  0  0  0
  9 10  1  0  0  0
 10 11  2  0  0  0
 11 12  1  0  0  0
 12 13  2  0  0  0
 13 14  1  0  0  0
 14 15  2  0  0  0
  5  1  1  0  0  0
 15 10  1  0  0  0
  8  4  1  0  0  0
M  CHG 1  16  -1
M  END
> <minimizedAffinity>
-6.46959

> <CNNscore>
0.4557916522

> <CNNaffinity>
4.9975194931

> <CNN_VS>
2.2778277397

> <CNNaffinity_variance>
0.0911946446

$$$$
[H]C1=C(C(=O)[O-])N2C(=O)/C(=C(\[H])c3c([H])c([H])c([H])c([H])c3[H])[C@@]2([H])S1


 18 20  0  0  0  0  0  0  0  0999 V2000
    1.5370  -51.2648  -21.3095 C   0  0  0  0  0  0  0  0  0  0  0  0
    1.9023  -50.3974  -22.2332 C   0  0  0  0  0  0  0  0  0  0  0  0
    1.4968  -51.1265  -23.8132 S   0  0  0  0  0  0  0  0  0  0  0  0
    1.3609  -52.8084  -23.1254 C   0  0  0  0  0  0  0  0  0  0  0  0
    0.9619  -52.4432  -21.7721 N   0  0  0  0  0  0  0  0  0  0  0  0
    0.1673  -53.6162  -21.7746 C   0  0  0  0  0  0  0  0  0  0  0  0
   -0.2831  -54.4452  -20.9106 O   0  0  0  0  0  0  0  0  0  0  0  0
    0.0779  -53.4701  -23.2312 C   0  0  0  0  0  0  0  0  0  0  0  0
   -0.8236  -53.8274  -24.1121 C   0  0  0  0  0  0  0  0  0  0  0  0
   -0.6117  -53.5284  -25.5155 C   0  0  0  0  0  0  0  0  0  0  0  0
   -1.1810  -52.4434  -26.1302 C   0  0  0  0  0  0  0  0  0  0  0  0
   -1.0053  -52.1381  -27.4496 C   0  0  0  0  0  0  0  0  0  0  0  0
   -0.2182  -52.9451  -28.2355 C   0  0  0  0  0  0  0  0  0  0  0  0
    0.3762  -54.0479  -27.6618 C   0  0  0  0  0  0  0  0  0  0  0  0
    0.1804  -54.3379  -26.3065 C   0  0  0  0  0  0  0  0  0  0  0  0
    2.6672  -51.6715  -19.1785 O   0  0  0  0  0  0  0  0  0  0  0  0
    1.7544  -50.9272  -19.8993 C   0  0  0  0  0  0  0  0  0  0  0  0
    1.1589  -50.0026  -19.3132 O   0  0  0  0  0  0  0  0  0  0  0  0
 16 17  1  0  0  0
 17 18  2  0  0  0
 17  1  1  0  0  0
  1  2  2  0  0  0
  2  3  1  0  0  0
  3  4  1  0  0  0
  4  5  1  0  0  0
  5  6  1  0  0  0
  6  7  2  0  0  0
  6  8  1  0  0  0
  8  9  2  0  0  0
  9 10  1  0  0  0
 10 11  2  0  0  0
 11 12  1  0  0  0
 12 13  2  0  0  0
 13 14  1  0  0  0
 14 15  2  0  0  0
  5  1  1  0  0  0
 15 10  1  0  0  0
  8  4  1  0  0  0
M  CHG 1  16  -1
M  END
> <minimizedAffinity>
-6.55609

> <CNNscore>
0.4414115548

> <CNNaffinity>
5.0909795761

> <CNN_VS>
2.2472171783

> <CNNaffinity_variance>
0.1166126132

$$$$
[H]C1=C(C(=O)[O-])N2C(=O)/C(=C(\[H])c3c([H])c([H])c([H])c([H])c3[H])[C@@]2([H])S1


 18 20  0  0  0  0  0  0  0  0999 V2000
    0.1847  -53.2768  -24.8490 C   0  0  0  0  0  0  0  0  0  0  0  0
    1.0577  -52.2904  -24.9126 C   0  0  0  0  0  0  0  0  0  0  0  0
    1.2341  -51.6513  -23.2534 S   0  0  0  0  0  0  0  0  0  0  0  0
   -0.3166  -52.4153  -22.6769 C   0  0  0  0  0  0  0  0  0  0  0  0
   -0.3347  -53.5520  -23.5888 N   0  0  0  0  0  0  0  0  0  0  0  0
   -0.9178  -54.2911  -22.5301 C   0  0  0  0  0  0  0  0  0  0  0  0
   -1.6988  -55.2970  -22.4080 O   0  0  0  0  0  0  0  0  0  0  0  0
   -0.2239  -53.3864  -21.6076 C   0  0  0  0  0  0  0  0  0  0  0  0
    0.2245  -53.5276  -20.3848 C   0  0  0  0  0  0  0  0  0  0  0  0
    0.8842  -52.4137  -19.7307 C   0  0  0  0  0  0  0  0  0  0  0  0
    2.2267  -52.1720  -19.8660 C   0  0  0  0  0  0  0  0  0  0  0  0
    2.8776  -51.1359  -19.2595 C   0  0  0  0  0  0  0  0  0  0  0  0
    2.1756  -50.2664  -18.4599 C   0  0  0  0  0  0  0  0  0  0  0  0
    0.8227  -50.4683  -18.2939 C   0  0  0  0  0  0  0  0  0  0  0  0
    0.1795  -51.5379  -18.9277 C   0  0  0  0  0  0  0  0  0  0  0  0
    0.4399  -55.2151  -26.3194 O   0  0  0  0  0  0  0  0  0  0  0  0
   -0.1598  -53.9945  -26.0803 C   0  0  0  0  0  0  0  0  0  0  0  0
   -0.9666  -53.5624  -26.9260 O   0  0  0  0  0  0  0  0  0  0  0  0
 16 17  1  0  0  0
 17 18  2  0  0  0
 17  1  1  0  0  0
  1  2  2  0  0  0
  2  3  1  0  0  0
  3  4  1  0  0  0
  4  5  1  0  0  0
  5  6  1  0  0  0
  6  7  2  0  0  0
  6  8  1  0  0  0
  8  9  2  0  0  0
  9 10  1  0  0  0
 10 11  2  0  0  0
 11 12  1  0  0  0
 12 13  2  0  0  0
 13 14  1  0  0  0
 14 15  2  0  0  0
  5  1  1  0  0  0
 15 10  1  0  0  0
  8  4  1  0  0  0
M  CHG 1  16  -1
M  END
> <minimizedAffinity>
-7.07530

> <CNNscore>
0.4148481786

> <CNNaffinity>
5.1108083725

> <CNN_VS>
2.1202094555

> <CNNaffinity_variance>
0.0567441285

$$$$
[H]C1=C(C(=O)[O-])N2C(=O)/C(=C(\[H])c3c([H])c([H])c([H])c([H])c3[H])[C@@]2([H])S1


 18 20  0  0  0  0  0  0  0  0999 V2000
    0.2034  -53.5637  -24.8271 C   0  0  0  0  0  0  0  0  0  0  0  0
    1.1315  -52.6469  -25.0201 C   0  0  0  0  0  0  0  0  0  0  0  0
    1.3686  -51.8172  -23.4555 S   0  0  0  0  0  0  0  0  0  0  0  0
   -0.2155  -52.4092  -22.7770 C   0  0  0  0  0  0  0  0  0  0  0  0
   -0.3131  -53.6478  -23.5388 N   0  0  0  0  0  0  0  0  0  0  0  0
   -0.9230  -54.2127  -22.3917 C   0  0  0  0  0  0  0  0  0  0  0  0
   -1.7596  -55.1470  -22.1389 O   0  0  0  0  0  0  0  0  0  0  0  0
   -0.1643  -53.2429  -21.5949 C   0  0  0  0  0  0  0  0  0  0  0  0
    0.2925  -53.2567  -20.3672 C   0  0  0  0  0  0  0  0  0  0  0  0
    1.0254  -52.1112  -19.8627 C   0  0  0  0  0  0  0  0  0  0  0  0
    0.3989  -50.9827  -19.4009 C   0  0  0  0  0  0  0  0  0  0  0  0
    1.0601  -49.8867  -18.9251 C   0  0  0  0  0  0  0  0  0  0  0  0
    2.4339  -49.8818  -18.8936 C   0  0  0  0  0  0  0  0  0  0  0  0
    3.1085  -50.9944  -19.3470 C   0  0  0  0  0  0  0  0  0  0  0  0
    2.4064  -52.1052  -19.8291 C   0  0  0  0  0  0  0  0  0  0  0  0
   -0.5916  -53.7934  -27.1292 O   0  0  0  0  0  0  0  0  0  0  0  0
   -0.2000  -54.4078  -25.9562 C   0  0  0  0  0  0  0  0  0  0  0  0
   -0.2091  -55.6533  -25.9156 O   0  0  0  0  0  0  0  0  0  0  0  0
 16 17  1  0  0  0
 17 18  2  0  0  0
 17  1  1  0  0  0
  1  2  2  0  0  0
  2  3  1  0  0  0
  3  4  1  0  0  0
  4  5  1  0  0  0
  5  6  1  0  0  0
  6  7  2  0  0  0
  6  8  1  0  0  0
  8  9  2  0  0  0
  9 10  1  0  0  0
 10 11  2  0  0  0
 11 12  1  0  0  0
 12 13  2  0  0  0
 13 14  1  0  0  0
 14 15  2  0  0  0
  5  1  1  0  0  0
 15 10  1  0  0  0
  8  4  1  0  0  0
M  CHG 1  16  -1
M  END
> <minimizedAffinity>
-6.94204

> <CNNscore>
0.4087617397

> <CNNaffinity>
5.1158843040

> <CNN_VS>
2.0911777020

> <CNNaffinity_variance>
0.0601300225

$$$$
[H]C1=C(C(=O)[O-])N2C(=O)/C(=C(\[H])c3c([H])c([H])c([H])c([H])c3[H])[C@@]2([H])S1


 18 20  0  0  0  0  0  0  0  0999 V2000
    1.8351  -51.5547  -21.8421 C   0  0  0  0  0  0  0  0  0  0  0  0
    2.1491  -50.4573  -21.1814 C   0  0  0  0  0  0  0  0  0  0  0  0
    1.0650  -50.3826  -19.7630 S   0  0  0  0  0  0  0  0  0  0  0  0
   -0.1214  -51.5714  -20.4699 C   0  0  0  0  0  0  0  0  0  0  0  0
    0.8130  -52.3240  -21.2972 N   0  0  0  0  0  0  0  0  0  0  0  0
    0.0306  -53.4676  -21.0019 C   0  0  0  0  0  0  0  0  0  0  0  0
   -0.2445  -54.5849  -21.5608 O   0  0  0  0  0  0  0  0  0  0  0  0
   -0.3391  -52.8060  -19.7463 C   0  0  0  0  0  0  0  0  0  0  0  0
   -0.6887  -53.2570  -18.5671 C   0  0  0  0  0  0  0  0  0  0  0  0
   -0.9993  -52.3195  -17.5047 C   0  0  0  0  0  0  0  0  0  0  0  0
   -0.1158  -51.3554  -17.0934 C   0  0  0  0  0  0  0  0  0  0  0  0
   -0.3762  -50.4624  -16.0936 C   0  0  0  0  0  0  0  0  0  0  0  0
   -1.5846  -50.5054  -15.4409 C   0  0  0  0  0  0  0  0  0  0  0  0
   -2.5059  -51.4573  -15.8198 C   0  0  0  0  0  0  0  0  0  0  0  0
   -2.2142  -52.3606  -16.8486 C   0  0  0  0  0  0  0  0  0  0  0  0
    1.9749  -52.7034  -23.9973 O   0  0  0  0  0  0  0  0  0  0  0  0
    2.5728  -51.8754  -23.0680 C   0  0  0  0  0  0  0  0  0  0  0  0
    3.7135  -51.4407  -23.3185 O   0  0  0  0  0  0  0  0  0  0  0  0
 16 17  1  0  0  0
 17 18  2  0  0  0
 17  1  1  0  0  0
  1  2  2  0  0  0
  2  3  1  0  0  0
  3  4  1  0  0  0
  4  5  1  0  0  0
  5  6  1  0  0  0
  6  7  2  0  0  0
  6  8  1  0  0  0
  8  9  2  0  0  0
  9 10  1  0  0  0
 10 11  2  0  0  0
 11 12  1  0  0  0
 12 13  2  0  0  0
 13 14  1  0  0  0
 14 15  2  0  0  0
  5  1  1  0  0  0
 15 10  1  0  0  0
  8  4  1  0  0  0
M  CHG 1  16  -1
M  END
> <minimizedAffinity>
-5.32669

> <CNNscore>
0.3673651516

> <CNNaffinity>
4.4148015976

> <CNN_VS>
1.6218442917

> <CNNaffinity_variance>
0.0617961884

$$$$
[H]C1=C(C(=O)[O-])N2C(=O)/C(=C(\[H])c3c([H])c([H])c([H])c([H])c3[H])[C@@]2([H])S1


 18 20  0  0  0  0  0  0  0  0999 V2000
   -0.2152  -53.5791  -22.2822 C   0  0  0  0  0  0  0  0  0  0  0  0
   -0.0820  -53.7063  -20.9763 C   0  0  0  0  0  0  0  0  0  0  0  0
    1.0534  -52.4317  -20.4482 S   0  0  0  0  0  0  0  0  0  0  0  0
    1.7011  -52.1593  -22.1295 C   0  0  0  0  0  0  0  0  0  0  0  0
    0.5095  -52.5495  -22.8723 N   0  0  0  0  0  0  0  0  0  0  0  0
    0.8628  -51.5485  -23.8106 C   0  0  0  0  0  0  0  0  0  0  0  0
    0.6933  -51.3332  -25.0602 O   0  0  0  0  0  0  0  0  0  0  0  0
    1.5236  -50.8439  -22.7070 C   0  0  0  0  0  0  0  0  0  0  0  0
    1.7732  -49.5788  -22.4758 C   0  0  0  0  0  0  0  0  0  0  0  0
    2.4617  -49.1954  -21.2581 C   0  0  0  0  0  0  0  0  0  0  0  0
    1.7986  -48.7157  -20.1584 C   0  0  0  0  0  0  0  0  0  0  0  0
    2.4181  -48.3417  -19.0003 C   0  0  0  0  0  0  0  0  0  0  0  0
    3.7850  -48.4389  -18.8980 C   0  0  0  0  0  0  0  0  0  0  0  0
    4.4952  -48.9165  -19.9777 C   0  0  0  0  0  0  0  0  0  0  0  0
    3.8356  -49.2940  -21.1532 C   0  0  0  0  0  0  0  0  0  0  0  0
   -1.0333  -54.5497  -24.3733 O   0  0  0  0  0  0  0  0  0  0  0  0
   -1.0994  -54.5067  -22.9947 C   0  0  0  0  0  0  0  0  0  0  0  0
   -1.9101  -55.2610  -22.4231 O   0  0  0  0  0  0  0  0  0  0  0  0
 16 17  1  0  0  0
 17 18  2  0  0  0
 17  1  1  0  0  0
  1  2  2  0  0  0
  2  3  1  0  0  0
  3  4  1  0  0  0
  4  5  1  0  0  0
  5  6  1  0  0  0
  6  7  2  0  0  0
  6  8  1  0  0  0
  8  9  2  0  0  0
  9 10  1  0  0  0
 10 11  2  0  0  0
 11 12  1  0  0  0
 12 13  2  0  0  0
 13 14  1  0  0  0
 14 15  2  0  0  0
  5  1  1  0  0  0
 15 10  1  0  0  0
  8  4  1  0  0  0
M  CHG 1  16  -1
M  END
> <minimizedAffinity>
-5.46965

> <CNNscore>
0.3234387636

> <CNNaffinity>
4.6393098831

> <CNN_VS>
1.5005326271

> <CNNaffinity_variance>
0.1049667150

$$$$
[H]C1=C(C(=O)[O-])N2C(=O)/C(=C(\[H])c3c([H])c([H])c([H])c([H])c3[H])[C@@]2([H])S1


 18 20  0  0  0  0  0  0  0  0999 V2000
    0.9154  -53.5896  -26.9872 C   0  0  0  0  0  0  0  0  0  0  0  0
    0.0766  -54.5043  -26.5414 C   0  0  0  0  0  0  0  0  0  0  0  0
   -0.0302  -54.2858  -24.7713 S   0  0  0  0  0  0  0  0  0  0  0  0
    1.5079  -53.3122  -24.6886 C   0  0  0  0  0  0  0  0  0  0  0  0
    1.4600  -52.7418  -26.0289 N   0  0  0  0  0  0  0  0  0  0  0  0
    2.0459  -51.5794  -25.4696 C   0  0  0  0  0  0  0  0  0  0  0  0
    2.7937  -50.6215  -25.8693 O   0  0  0  0  0  0  0  0  0  0  0  0
    1.4108  -51.9526  -24.2014 C   0  0  0  0  0  0  0  0  0  0  0  0
    0.9922  -51.2581  -23.1725 C   0  0  0  0  0  0  0  0  0  0  0  0
    0.3912  -51.9419  -22.0433 C   0  0  0  0  0  0  0  0  0  0  0  0
   -0.9348  -52.2885  -22.0146 C   0  0  0  0  0  0  0  0  0  0  0  0
   -1.5311  -52.9274  -20.9653 C   0  0  0  0  0  0  0  0  0  0  0  0
   -0.7872  -53.2563  -19.8577 C   0  0  0  0  0  0  0  0  0  0  0  0
    0.5510  -52.9288  -19.8404 C   0  0  0  0  0  0  0  0  0  0  0  0
    1.1379  -52.2745  -20.9298 C   0  0  0  0  0  0  0  0  0  0  0  0
    2.2236  -54.3139  -28.9232 O   0  0  0  0  0  0  0  0  0  0  0  0
    1.1995  -53.5334  -28.4246 C   0  0  0  0  0  0  0  0  0  0  0  0
    0.5655  -52.8177  -29.2240 O   0  0  0  0  0  0  0  0  0  0  0  0
 16 17  1  0  0  0
 17 18  2  0  0  0
 17  1  1  0  0  0
  1  2  2  0  0  0
  2  3  1  0  0  0
  3  4  1  0  0  0
  4  5  1  0  0  0
  5  6  1  0  0  0
  6  7  2  0  0  0
  6  8  1  0  0  0
  8  9  2  0  0  0
  9 10  1  0  0  0
 10 11  2  0  0  0
 11 12  1  0  0  0
 12 13  2  0  0  0
 13 14  1  0  0  0
 14 15  2  0  0  0
  5  1  1  0  0  0
 15 10  1  0  0  0
  8  4  1  0  0  0
M  CHG 1  16  -1
M  END
> <minimizedAffinity>
-6.57822

> <CNNscore>
0.3185950518

> <CNNaffinity>
5.3526277542

> <CNN_VS>
1.7053207159

> <CNNaffinity_variance>
0.0590435751

$$$$
[H]C1=C(C(=O)[O-])N2C(=O)/C(=C(\[H])c3c([H])c([H])c([H])c([H])c3[H])[C@@]2([H])S1


 18 20  0  0  0  0  0  0  0  0999 V2000
    0.5024  -52.7863  -25.6175 C   0  0  0  0  0  0  0  0  0  0  0  0
    1.2944  -51.7603  -25.3743 C   0  0  0  0  0  0  0  0  0  0  0  0
    1.2236  -51.4611  -23.6142 S   0  0  0  0  0  0  0  0  0  0  0  0
   -0.3172  -52.4111  -23.4041 C   0  0  0  0  0  0  0  0  0  0  0  0
   -0.1369  -53.3392  -24.5133 N   0  0  0  0  0  0  0  0  0  0  0  0
   -0.7782  -54.3084  -23.7031 C   0  0  0  0  0  0  0  0  0  0  0  0
   -1.4845  -55.3601  -23.8811 O   0  0  0  0  0  0  0  0  0  0  0  0
   -0.2721  -53.5717  -22.5403 C   0  0  0  0  0  0  0  0  0  0  0  0
    0.0402  -53.9319  -21.3201 C   0  0  0  0  0  0  0  0  0  0  0  0
    0.5270  -52.9383  -20.3822 C   0  0  0  0  0  0  0  0  0  0  0  0
   -0.3037  -52.2755  -19.5162 C   0  0  0  0  0  0  0  0  0  0  0  0
    0.1227  -51.3319  -18.6259 C   0  0  0  0  0  0  0  0  0  0  0  0
    1.4559  -51.0037  -18.5690 C   0  0  0  0  0  0  0  0  0  0  0  0
    2.3301  -51.6441  -19.4200 C   0  0  0  0  0  0  0  0  0  0  0  0
    1.8670  -52.6083  -20.3228 C   0  0  0  0  0  0  0  0  0  0  0  0
    0.4825  -54.6115  -27.2461 O   0  0  0  0  0  0  0  0  0  0  0  0
    0.3631  -53.2583  -26.9987 C   0  0  0  0  0  0  0  0  0  0  0  0
    0.1423  -52.5031  -27.9651 O   0  0  0  0  0  0  0  0  0  0  0  0
 16 17  1  0  0  0
 17 18  2  0  0  0
 17  1  1  0  0  0
  1  2  2  0  0  0
  2  3  1  0  0  0
  3  4  1  0  0  0
  4  5  1  0  0  0
  5  6  1  0  0  0
  6  7  2  0  0  0
  6  8  1  0  0  0
  8  9  2  0  0  0
  9 10  1  0  0  0
 10 11  2  0  0  0
 11 12  1  0  0  0
 12 13  2  0  0  0
 13 14  1  0  0  0
 14 15  2  0  0  0
  5  1  1  0  0  0
 15 10  1  0  0  0
  8  4  1  0  0  0
M  CHG 1  16  -1
M  END
> <minimizedAffinity>
-6.48938

> <CNNscore>
0.3032498956

> <CNNaffinity>
5.1554522514

> <CNN_VS>
1.5633903742

> <CNNaffinity_variance>
0.1270477474

$$$$
[H]C1=C(C(=O)[O-])N2C(=O)/C(=C(\[H])c3c([H])c([H])c([H])c([H])c3[H])[C@@]2([H])S1


 18 20  0  0  0  0  0  0  0  0999 V2000
    3.0692  -50.6328  -21.9993 C   0  0  0  0  0  0  0  0  0  0  0  0
    3.9518  -51.4126  -21.4061 C   0  0  0  0  0  0  0  0  0  0  0  0
    3.9528  -50.9659  -19.6761 S   0  0  0  0  0  0  0  0  0  0  0  0
    3.1445  -49.3608  -19.9775 C   0  0  0  0  0  0  0  0  0  0  0  0
    2.4052  -49.7277  -21.1787 N   0  0  0  0  0  0  0  0  0  0  0  0
    1.3834  -48.8607  -20.7191 C   0  0  0  0  0  0  0  0  0  0  0  0
    0.4556  -48.1480  -21.2367 O   0  0  0  0  0  0  0  0  0  0  0  0
    1.8554  -49.1370  -19.3583 C   0  0  0  0  0  0  0  0  0  0  0  0
    1.2626  -49.1430  -18.1901 C   0  0  0  0  0  0  0  0  0  0  0  0
    2.0268  -49.4674  -17.0007 C   0  0  0  0  0  0  0  0  0  0  0  0
    2.8091  -48.5452  -16.3552 C   0  0  0  0  0  0  0  0  0  0  0  0
    3.5438  -48.8207  -15.2375 C   0  0  0  0  0  0  0  0  0  0  0  0
    3.5202  -50.0863  -14.7029 C   0  0  0  0  0  0  0  0  0  0  0  0
    2.7474  -51.0478  -15.3168 C   0  0  0  0  0  0  0  0  0  0  0  0
    2.0029  -50.7389  -16.4612 C   0  0  0  0  0  0  0  0  0  0  0  0
    3.9511  -50.7005  -24.2801 O   0  0  0  0  0  0  0  0  0  0  0  0
    2.8560  -50.7790  -23.4426 C   0  0  0  0  0  0  0  0  0  0  0  0
    1.7373  -50.9709  -23.9572 O   0  0  0  0  0  0  0  0  0  0  0  0
 16 17  1  0  0  0
 17 18  2  0  0  0
 17  1  1  0  0  0
  1  2  2  0  0  0
  2  3  1  0  0  0
  3  4  1  0  0  0
  4  5  1  0  0  0
  5  6  1  0  0  0
  6  7  2  0  0  0
  6  8  1  0  0  0
  8  9  2  0  0  0
  9 10  1  0  0  0
 10 11  2  0  0  0
 11 12  1  0  0  0
 12 13  2  0  0  0
 13 14  1  0  0  0
 14 15  2  0  0  0
  5  1  1  0  0  0
 15 10  1  0  0  0
  8  4  1  0  0  0
M  CHG 1  16  -1
M  END
> <minimizedAffinity>
-3.65692

> <CNNscore>
0.2868117690

> <CNNaffinity>
4.2658853531

> <CNN_VS>
1.2235060930

> <CNNaffinity_variance>
0.4926489294

$$$$
[H]C([H])=C([H])C(=O)N([H])[C@]1([H])C([H])([H])C([H])([H])[C@]([H])(n2c([H])c(-c3c([H])c([H])c(Oc4c([H])c([H])c([H])c([H])c4[H])c([H])c3[H])c3c(N([H])[H])nc([H])nc32)C([H])([H])C1([H])[H]


 37 41  0  0  0  0  0  0  0  0999 V2000
   -1.8514  -53.7293  -19.4647 N   0  0  0  0  0  0  0  0  0  0  0  0
   -1.3920  -53.8751  -20.7974 C   0  0  0  0  0  0  0  0  0  0  0  0
   -1.9571  -54.7371  -21.6558 N   0  0  0  0  0  0  0  0  0  0  0  0
   -1.4896  -54.8758  -22.9021 C   0  0  0  0  0  0  0  0  0  0  0  0
   -0.4449  -54.1750  -23.3646 N   0  0  0  0  0  0  0  0  0  0  0  0
    0.1391  -53.3053  -22.5266 C   0  0  0  0  0  0  0  0  0  0  0  0
    1.1908  -52.4873  -22.7007 N   0  0  0  0  0  0  0  0  0  0  0  0
    1.4198  -51.8116  -21.5877 C   0  0  0  0  0  0  0  0  0  0  0  0
    0.4872  -52.1795  -20.6095 C   0  0  0  0  0  0  0  0  0  0  0  0
   -0.3133  -53.1190  -21.2045 C   0  0  0  0  0  0  0  0  0  0  0  0
   -2.7581  -53.3468  -19.1741 H   0  0  0  0  0  0  0  0  0  0  0  0
   -1.2010  -54.0432  -18.6976 H   0  0  0  0  0  0  0  0  0  0  0  0
    0.3746  -51.6345  -19.2711 C   0  0  0  0  0  0  0  0  0  0  0  0
   -0.1057  -52.3223  -18.1766 C   0  0  0  0  0  0  0  0  0  0  0  0
   -0.1987  -51.7977  -16.9086 C   0  0  0  0  0  0  0  0  0  0  0  0
    0.2055  -50.5006  -16.6778 C   0  0  0  0  0  0  0  0  0  0  0  0
    0.6904  -49.7792  -17.7410 C   0  0  0  0  0  0  0  0  0  0  0  0
    0.7765  -50.3181  -18.9996 C   0  0  0  0  0  0  0  0  0  0  0  0
    0.1177  -49.9493  -15.3912 O   0  0  0  0  0  0  0  0  0  0  0  0
   -0.6154  -48.7845  -15.2160 C   0  0  0  0  0  0  0  0  0  0  0  0
   -0.0276  -47.5612  -14.9601 C   0  0  0  0  0  0  0  0  0  0  0  0
   -0.7995  -46.4243  -14.7920 C   0  0  0  0  0  0  0  0  0  0  0  0
   -2.1771  -46.4676  -14.8730 C   0  0  0  0  0  0  0  0  0  0  0  0
   -2.7649  -47.6809  -15.1271 C   0  0  0  0  0  0  0  0  0  0  0  0
   -1.9918  -48.8290  -15.2971 C   0  0  0  0  0  0  0  0  0  0  0  0
    1.9616  -52.3557  -23.9124 C   0  0  0  0  0  0  0  0  0  0  0  0
    3.4190  -52.1464  -23.7144 C   0  0  0  0  0  0  0  0  0  0  0  0
    4.0331  -52.1233  -25.1281 C   0  0  0  0  0  0  0  0  0  0  0  0
    3.7743  -50.7509  -25.7059 C   0  0  0  0  0  0  0  0  0  0  0  0
    2.5234  -50.2012  -25.0907 C   0  0  0  0  0  0  0  0  0  0  0  0
    1.4633  -51.2467  -24.8195 C   0  0  0  0  0  0  0  0  0  0  0  0
    4.8707  -49.8524  -25.4679 N   0  0  0  0  0  0  0  0  0  0  0  0
    4.9186  -48.9411  -24.3817 C   0  0  0  0  0  0  0  0  0  0  0  0
    3.9498  -48.9208  -23.5872 O   0  0  0  0  0  0  0  0  0  0  0  0
    5.6716  -49.8675  -26.1222 H   0  0  0  0  0  0  0  0  0  0  0  0
    6.0275  -48.0378  -24.1487 C   0  0  0  0  0  0  0  0  0  0  0  0
    6.8463  -47.7085  -25.1270 C   0  0  0  0  0  0  0  0  0  0  0  0
  1  2  1  0  0  0
  2  3  2  0  0  0
  3  4  1  0  0  0
  4  5  2  0  0  0
  5  6  1  0  0  0
  6  7  1  0  0  0
  7  8  1  0  0  0
  8  9  2  0  0  0
  9 13  1  0  0  0
 13 14  2  0  0  0
 14 15  1  0  0  0
 15 16  2  0  0  0
 16 19  1  0  0  0
 19 20  1  0  0  0
 20 21  2  0  0  0
 21 22  1  0  0  0
 22 23  2  0  0  0
 23 24  1  0  0  0
 24 25  2  0  0  0
 16 17  1  0  0  0
 17 18  2  0  0  0
  9 10  1  0  0  0
  7 26  1  0  0  0
 26 27  1  0  0  0
 27 28  1  0  0  0
 28 29  1  0  0  0
 29 30  1  0  0  0
 30 31  1  0  0  0
 29 32  1  0  0  0
 32 33  1  0  0  0
 33 34  2  0  0  0
 33 36  1  0  0  0
 36 37  2  0  0  0
 10  2  1  0  0  0
 31 26  1  0  0  0
 10  6  2  0  0  0
 18 13  1  0  0  0
 25 20  1  0  0  0
  1 11  1  0  0  0
  1 12  1  0  0  0
 32 35  1  0  0  0
M  END
> <minimizedAffinity>
-8.30292

> <CNNscore>
0.8849923015

> <CNNaffinity>
7.3529343605

> <CNN_VS>
6.5072903633

> <CNNaffinity_variance>
0.1117011309

$$$$
[H]C([H])=C([H])C(=O)N([H])[C@]1([H])C([H])([H])C([H])([H])[C@]([H])(n2c([H])c(-c3c([H])c([H])c(Oc4c([H])c([H])c([H])c([H])c4[H])c([H])c3[H])c3c(N([H])[H])nc([H])nc32)C([H])([H])C1([H])[H]


 37 41  0  0  0  0  0  0  0  0999 V2000
   -1.8418  -53.9829  -19.6887 N   0  0  0  0  0  0  0  0  0  0  0  0
   -1.2749  -53.9226  -20.9862 C   0  0  0  0  0  0  0  0  0  0  0  0
   -1.6742  -54.7342  -21.9767 N   0  0  0  0  0  0  0  0  0  0  0  0
   -1.1062  -54.6761  -23.1872 C   0  0  0  0  0  0  0  0  0  0  0  0
   -0.1193  -53.8187  -23.4824 N   0  0  0  0  0  0  0  0  0  0  0  0
    0.2992  -52.9951  -22.5097 C   0  0  0  0  0  0  0  0  0  0  0  0
    1.2590  -52.0548  -22.5059 N   0  0  0  0  0  0  0  0  0  0  0  0
    1.3286  -51.4927  -21.3113 C   0  0  0  0  0  0  0  0  0  0  0  0
    0.3776  -52.0695  -20.4600 C   0  0  0  0  0  0  0  0  0  0  0  0
   -0.2646  -53.0134  -21.2177 C   0  0  0  0  0  0  0  0  0  0  0  0
   -2.8050  -53.7358  -19.4355 H   0  0  0  0  0  0  0  0  0  0  0  0
   -1.2157  -54.3127  -18.9081 H   0  0  0  0  0  0  0  0  0  0  0  0
    0.1077  -51.6992  -19.0848 C   0  0  0  0  0  0  0  0  0  0  0  0
   -0.5675  -52.4840  -18.1740 C   0  0  0  0  0  0  0  0  0  0  0  0
   -0.8090  -52.1262  -16.8681 C   0  0  0  0  0  0  0  0  0  0  0  0
   -0.3615  -50.9088  -16.4026 C   0  0  0  0  0  0  0  0  0  0  0  0
    0.3159  -50.0952  -17.2772 C   0  0  0  0  0  0  0  0  0  0  0  0
    0.5484  -50.4680  -18.5769 C   0  0  0  0  0  0  0  0  0  0  0  0
   -0.5989  -50.5275  -15.0739 O   0  0  0  0  0  0  0  0  0  0  0  0
   -1.9113  -50.3671  -14.6531 C   0  0  0  0  0  0  0  0  0  0  0  0
   -2.5243  -51.2310  -13.7668 C   0  0  0  0  0  0  0  0  0  0  0  0
   -3.8369  -51.0316  -13.3746 C   0  0  0  0  0  0  0  0  0  0  0  0
   -4.5798  -49.9693  -13.8500 C   0  0  0  0  0  0  0  0  0  0  0  0
   -3.9745  -49.1089  -14.7305 C   0  0  0  0  0  0  0  0  0  0  0  0
   -2.6525  -49.3053  -15.1287 C   0  0  0  0  0  0  0  0  0  0  0  0
    2.0937  -51.7015  -23.6276 C   0  0  0  0  0  0  0  0  0  0  0  0
    1.3747  -51.1279  -24.7942 C   0  0  0  0  0  0  0  0  0  0  0  0
    2.4674  -50.7539  -25.8152 C   0  0  0  0  0  0  0  0  0  0  0  0
    2.8771  -52.0272  -26.5186 C   0  0  0  0  0  0  0  0  0  0  0  0
    2.6538  -53.1805  -25.5884 C   0  0  0  0  0  0  0  0  0  0  0  0
    2.9320  -52.8590  -24.1359 C   0  0  0  0  0  0  0  0  0  0  0  0
    2.1380  -52.2309  -27.7346 N   0  0  0  0  0  0  0  0  0  0  0  0
    0.9711  -53.0331  -27.8201 C   0  0  0  0  0  0  0  0  0  0  0  0
    0.5644  -53.5938  -26.7759 O   0  0  0  0  0  0  0  0  0  0  0  0
    2.4716  -51.7688  -28.5976 H   0  0  0  0  0  0  0  0  0  0  0  0
    0.2315  -53.2340  -29.0499 C   0  0  0  0  0  0  0  0  0  0  0  0
   -0.9406  -52.6609  -29.2335 C   0  0  0  0  0  0  0  0  0  0  0  0
  1  2  1  0  0  0
  2  3  2  0  0  0
  3  4  1  0  0  0
  4  5  2  0  0  0
  5  6  1  0  0  0
  6  7  1  0  0  0
  7  8  1  0  0  0
  8  9  2  0  0  0
  9 13  1  0  0  0
 13 14  2  0  0  0
 14 15  1  0  0  0
 15 16  2  0  0  0
 16 19  1  0  0  0
 19 20  1  0  0  0
 20 21  2  0  0  0
 21 22  1  0  0  0
 22 23  2  0  0  0
 23 24  1  0  0  0
 24 25  2  0  0  0
 16 17  1  0  0  0
 17 18  2  0  0  0
  9 10  1  0  0  0
  7 26  1  0  0  0
 26 27  1  0  0  0
 27 28  1  0  0  0
 28 29  1  0  0  0
 29 30  1  0  0  0
 30 31  1  0  0  0
 29 32  1  0  0  0
 32 33  1  0  0  0
 33 34  2  0  0  0
 33 36  1  0  0  0
 36 37  2  0  0  0
 10  2  1  0  0  0
 31 26  1  0  0  0
 10  6  2  0  0  0
 18 13  1  0  0  0
 25 20  1  0  0  0
  1 11  1  0  0  0
  1 12  1  0  0  0
 32 35  1  0  0  0
M  END
> <minimizedAffinity>
-9.66811

> <CNNscore>
0.8345068097

> <CNNaffinity>
7.4627161026

> <CNN_VS>
6.2276873589

> <CNNaffinity_variance>
0.0960972756

$$$$
[H]C([H])=C([H])C(=O)N([H])[C@]1([H])C([H])([H])C([H])([H])[C@]([H])(n2c([H])c(-c3c([H])c([H])c(Oc4c([H])c([H])c([H])c([H])c4[H])c([H])c3[H])c3c(N([H])[H])nc([H])nc32)C([H])([H])C1([H])[H]


 37 41  0  0  0  0  0  0  0  0999 V2000
   -1.7514  -53.9269  -19.9349 N   0  0  0  0  0  0  0  0  0  0  0  0
   -1.2322  -53.9291  -21.2535 C   0  0  0  0  0  0  0  0  0  0  0  0
   -1.6887  -54.7653  -22.1978 N   0  0  0  0  0  0  0  0  0  0  0  0
   -1.1652  -54.7668  -23.4295 C   0  0  0  0  0  0  0  0  0  0  0  0
   -0.1685  -53.9474  -23.7925 N   0  0  0  0  0  0  0  0  0  0  0  0
    0.3068  -53.1003  -22.8672 C   0  0  0  0  0  0  0  0  0  0  0  0
    1.2897  -52.1865  -22.9337 N   0  0  0  0  0  0  0  0  0  0  0  0
    1.4182  -51.5833  -21.7643 C   0  0  0  0  0  0  0  0  0  0  0  0
    0.4854  -52.1030  -20.8578 C   0  0  0  0  0  0  0  0  0  0  0  0
   -0.2085  -53.0564  -21.5557 C   0  0  0  0  0  0  0  0  0  0  0  0
   -2.6978  -53.6451  -19.6562 H   0  0  0  0  0  0  0  0  0  0  0  0
   -1.1051  -54.2446  -19.1659 H   0  0  0  0  0  0  0  0  0  0  0  0
    0.2768  -51.6756  -19.4885 C   0  0  0  0  0  0  0  0  0  0  0  0
   -0.2727  -52.4559  -18.4932 C   0  0  0  0  0  0  0  0  0  0  0  0
   -0.4567  -52.0429  -17.1943 C   0  0  0  0  0  0  0  0  0  0  0  0
   -0.0789  -50.7700  -16.8254 C   0  0  0  0  0  0  0  0  0  0  0  0
    0.4727  -49.9588  -17.7864 C   0  0  0  0  0  0  0  0  0  0  0  0
    0.6493  -50.3870  -19.0777 C   0  0  0  0  0  0  0  0  0  0  0  0
   -0.2593  -50.3319  -15.5053 O   0  0  0  0  0  0  0  0  0  0  0  0
    0.7477  -50.5730  -14.5818 C   0  0  0  0  0  0  0  0  0  0  0  0
    0.7605  -51.6834  -13.7606 C   0  0  0  0  0  0  0  0  0  0  0  0
    1.7866  -51.8830  -12.8530 C   0  0  0  0  0  0  0  0  0  0  0  0
    2.8303  -50.9870  -12.7336 C   0  0  0  0  0  0  0  0  0  0  0  0
    2.8214  -49.8828  -13.5475 C   0  0  0  0  0  0  0  0  0  0  0  0
    1.7900  -49.6771  -14.4634 C   0  0  0  0  0  0  0  0  0  0  0  0
    2.0905  -51.8968  -24.0975 C   0  0  0  0  0  0  0  0  0  0  0  0
    1.3778  -51.1953  -25.1961 C   0  0  0  0  0  0  0  0  0  0  0  0
    2.4429  -50.9207  -26.2760 C   0  0  0  0  0  0  0  0  0  0  0  0
    2.6448  -52.2075  -27.0427 C   0  0  0  0  0  0  0  0  0  0  0  0
    2.3369  -53.3587  -26.1342 C   0  0  0  0  0  0  0  0  0  0  0  0
    2.7434  -53.1289  -24.6947 C   0  0  0  0  0  0  0  0  0  0  0  0
    1.8115  -52.2723  -28.2122 N   0  0  0  0  0  0  0  0  0  0  0  0
    0.4685  -52.7290  -28.1960 C   0  0  0  0  0  0  0  0  0  0  0  0
   -0.0156  -53.0952  -27.0997 O   0  0  0  0  0  0  0  0  0  0  0  0
    2.2088  -51.9703  -29.1180 H   0  0  0  0  0  0  0  0  0  0  0  0
   -0.3652  -52.7919  -29.3795 C   0  0  0  0  0  0  0  0  0  0  0  0
   -1.6279  -53.1589  -29.2964 C   0  0  0  0  0  0  0  0  0  0  0  0
  1  2  1  0  0  0
  2  3  2  0  0  0
  3  4  1  0  0  0
  4  5  2  0  0  0
  5  6  1  0  0  0
  6  7  1  0  0  0
  7  8  1  0  0  0
  8  9  2  0  0  0
  9 13  1  0  0  0
 13 14  2  0  0  0
 14 15  1  0  0  0
 15 16  2  0  0  0
 16 19  1  0  0  0
 19 20  1  0  0  0
 20 21  2  0  0  0
 21 22  1  0  0  0
 22 23  2  0  0  0
 23 24  1  0  0  0
 24 25  2  0  0  0
 16 17  1  0  0  0
 17 18  2  0  0  0
  9 10  1  0  0  0
  7 26  1  0  0  0
 26 27  1  0  0  0
 27 28  1  0  0  0
 28 29  1  0  0  0
 29 30  1  0  0  0
 30 31  1  0  0  0
 29 32  1  0  0  0
 32 33  1  0  0  0
 33 34  2  0  0  0
 33 36  1  0  0  0
 36 37  2  0  0  0
 10  2  1  0  0  0
 31 26  1  0  0  0
 10  6  2  0  0  0
 18 13  1  0  0  0
 25 20  1  0  0  0
  1 11  1  0  0  0
  1 12  1  0  0  0
 32 35  1  0  0  0
M  END
> <minimizedAffinity>
-9.07313

> <CNNscore>
0.7084656954

> <CNNaffinity>
7.3672790527

> <CNN_VS>
5.2194643021

> <CNNaffinity_variance>
0.1340520382

$$$$
[H]C([H])=C([H])C(=O)N([H])[C@]1([H])C([H])([H])C([H])([H])[C@]([H])(n2c([H])c(-c3c([H])c([H])c(Oc4c([H])c([H])c([H])c([H])c4[H])c([H])c3[H])c3c(N([H])[H])nc([H])nc32)C([H])([H])C1([H])[H]


 37 41  0  0  0  0  0  0  0  0999 V2000
   -0.9723  -53.2241  -18.7444 N   0  0  0  0  0  0  0  0  0  0  0  0
   -0.7864  -53.4639  -20.1288 C   0  0  0  0  0  0  0  0  0  0  0  0
   -1.5188  -54.3646  -20.8007 N   0  0  0  0  0  0  0  0  0  0  0  0
   -1.3078  -54.5922  -22.1026 C   0  0  0  0  0  0  0  0  0  0  0  0
   -0.3675  -53.9465  -22.8063 N   0  0  0  0  0  0  0  0  0  0  0  0
    0.3795  -53.0397  -22.1586 C   0  0  0  0  0  0  0  0  0  0  0  0
    1.3848  -52.2592  -22.5893 N   0  0  0  0  0  0  0  0  0  0  0  0
    1.8359  -51.5205  -21.5899 C   0  0  0  0  0  0  0  0  0  0  0  0
    1.1108  -51.8044  -20.4257 C   0  0  0  0  0  0  0  0  0  0  0  0
    0.1988  -52.7603  -20.7886 C   0  0  0  0  0  0  0  0  0  0  0  0
   -1.7998  -52.8030  -18.3076 H   0  0  0  0  0  0  0  0  0  0  0  0
   -0.1868  -53.5044  -18.1008 H   0  0  0  0  0  0  0  0  0  0  0  0
    1.2701  -51.1740  -19.1302 C   0  0  0  0  0  0  0  0  0  0  0  0
    0.3092  -50.4122  -18.4995 C   0  0  0  0  0  0  0  0  0  0  0  0
    0.4681  -49.8270  -17.2650 C   0  0  0  0  0  0  0  0  0  0  0  0
    1.6540  -49.9905  -16.5824 C   0  0  0  0  0  0  0  0  0  0  0  0
    2.6388  -50.7422  -17.1747 C   0  0  0  0  0  0  0  0  0  0  0  0
    2.4634  -51.3192  -18.4070 C   0  0  0  0  0  0  0  0  0  0  0  0
    1.8335  -49.4008  -15.3225 O   0  0  0  0  0  0  0  0  0  0  0  0
    2.7540  -48.3705  -15.1963 C   0  0  0  0  0  0  0  0  0  0  0  0
    3.9244  -48.4965  -14.4739 C   0  0  0  0  0  0  0  0  0  0  0  0
    4.8144  -47.4407  -14.3751 C   0  0  0  0  0  0  0  0  0  0  0  0
    4.5695  -46.2290  -14.9901 C   0  0  0  0  0  0  0  0  0  0  0  0
    3.4080  -46.0998  -15.7085 C   0  0  0  0  0  0  0  0  0  0  0  0
    2.5082  -47.1603  -15.8112 C   0  0  0  0  0  0  0  0  0  0  0  0
    1.9028  -52.2220  -23.9346 C   0  0  0  0  0  0  0  0  0  0  0  0
    3.3685  -52.0044  -24.0414 C   0  0  0  0  0  0  0  0  0  0  0  0
    3.6945  -52.0898  -25.5456 C   0  0  0  0  0  0  0  0  0  0  0  0
    3.3133  -50.7635  -26.1620 C   0  0  0  0  0  0  0  0  0  0  0  0
    2.2008  -50.1642  -25.3568 C   0  0  0  0  0  0  0  0  0  0  0  0
    1.2253  -51.1820  -24.8066 C   0  0  0  0  0  0  0  0  0  0  0  0
    4.4255  -49.8542  -26.2103 N   0  0  0  0  0  0  0  0  0  0  0  0
    4.5970  -48.8753  -27.2227 C   0  0  0  0  0  0  0  0  0  0  0  0
    3.7289  -48.8016  -28.1233 O   0  0  0  0  0  0  0  0  0  0  0  0
    5.1431  -49.9130  -25.4678 H   0  0  0  0  0  0  0  0  0  0  0  0
    5.7215  -47.9623  -27.2649 C   0  0  0  0  0  0  0  0  0  0  0  0
    6.5998  -48.0187  -28.2454 C   0  0  0  0  0  0  0  0  0  0  0  0
  1  2  1  0  0  0
  2  3  2  0  0  0
  3  4  1  0  0  0
  4  5  2  0  0  0
  5  6  1  0  0  0
  6  7  1  0  0  0
  7  8  1  0  0  0
  8  9  2  0  0  0
  9 13  1  0  0  0
 13 14  2  0  0  0
 14 15  1  0  0  0
 15 16  2  0  0  0
 16 19  1  0  0  0
 19 20  1  0  0  0
 20 21  2  0  0  0
 21 22  1  0  0  0
 22 23  2  0  0  0
 23 24  1  0  0  0
 24 25  2  0  0  0
 16 17  1  0  0  0
 17 18  2  0  0  0
  9 10  1  0  0  0
  7 26  1  0  0  0
 26 27  1  0  0  0
 27 28  1  0  0  0
 28 29  1  0  0  0
 29 30  1  0  0  0
 30 31  1  0  0  0
 29 32  1  0  0  0
 32 33  1  0  0  0
 33 34  2  0  0  0
 33 36  1  0  0  0
 36 37  2  0  0  0
 10  2  1  0  0  0
 31 26  1  0  0  0
 10  6  2  0  0  0
 18 13  1  0  0  0
 25 20  1  0  0  0
  1 11  1  0  0  0
  1 12  1  0  0  0
 32 35  1  0  0  0
M  END
> <minimizedAffinity>
-7.34820

> <CNNscore>
0.5846126080

> <CNNaffinity>
7.1168489456

> <CNN_VS>
4.1605997086

> <CNNaffinity_variance>
0.4272182584

$$$$
[H]C([H])=C([H])C(=O)N([H])[C@]1([H])C([H])([H])C([H])([H])[C@]([H])(n2c([H])c(-c3c([H])c([H])c(Oc4c([H])c([H])c([H])c([H])c4[H])c([H])c3[H])c3c(N([H])[H])nc([H])nc32)C([H])([H])C1([H])[H]


 37 41  0  0  0  0  0  0  0  0999 V2000
   -1.7718  -53.8741  -20.7340 N   0  0  0  0  0  0  0  0  0  0  0  0
   -1.0278  -53.7454  -21.9334 C   0  0  0  0  0  0  0  0  0  0  0  0
   -1.3667  -54.3973  -23.0556 N   0  0  0  0  0  0  0  0  0  0  0  0
   -0.6339  -54.2800  -24.1694 C   0  0  0  0  0  0  0  0  0  0  0  0
    0.4663  -53.5173  -24.2340 N   0  0  0  0  0  0  0  0  0  0  0  0
    0.8278  -52.8539  -23.1255 C   0  0  0  0  0  0  0  0  0  0  0  0
    1.8684  -52.0373  -22.8892 N   0  0  0  0  0  0  0  0  0  0  0  0
    1.8289  -51.6148  -21.6371 C   0  0  0  0  0  0  0  0  0  0  0  0
    0.7158  -52.1624  -20.9869 C   0  0  0  0  0  0  0  0  0  0  0  0
    0.0919  -52.9409  -21.9261 C   0  0  0  0  0  0  0  0  0  0  0  0
   -2.7306  -53.5443  -20.5767 H   0  0  0  0  0  0  0  0  0  0  0  0
   -1.2964  -54.3541  -19.9256 H   0  0  0  0  0  0  0  0  0  0  0  0
    0.2974  -51.9085  -19.6225 C   0  0  0  0  0  0  0  0  0  0  0  0
    0.5385  -50.7425  -18.9269 C   0  0  0  0  0  0  0  0  0  0  0  0
    0.1277  -50.5090  -17.6353 C   0  0  0  0  0  0  0  0  0  0  0  0
   -0.5743  -51.4827  -16.9583 C   0  0  0  0  0  0  0  0  0  0  0  0
   -0.8360  -52.6604  -17.6142 C   0  0  0  0  0  0  0  0  0  0  0  0
   -0.4189  -52.8767  -18.9031 C   0  0  0  0  0  0  0  0  0  0  0  0
   -1.0009  -51.2618  -15.6406 O   0  0  0  0  0  0  0  0  0  0  0  0
   -2.2308  -50.6539  -15.4334 C   0  0  0  0  0  0  0  0  0  0  0  0
   -2.3595  -49.3225  -15.0897 C   0  0  0  0  0  0  0  0  0  0  0  0
   -3.6081  -48.7580  -14.8926 C   0  0  0  0  0  0  0  0  0  0  0  0
   -4.7656  -49.4978  -15.0310 C   0  0  0  0  0  0  0  0  0  0  0  0
   -4.6421  -50.8207  -15.3724 C   0  0  0  0  0  0  0  0  0  0  0  0
   -3.3866  -51.3941  -15.5719 C   0  0  0  0  0  0  0  0  0  0  0  0
    2.8817  -51.6687  -23.8468 C   0  0  0  0  0  0  0  0  0  0  0  0
    4.1697  -51.2159  -23.2610 C   0  0  0  0  0  0  0  0  0  0  0  0
    5.1075  -50.9653  -24.4585 C   0  0  0  0  0  0  0  0  0  0  0  0
    4.7403  -49.6195  -25.0402 C   0  0  0  0  0  0  0  0  0  0  0  0
    3.2910  -49.3583  -24.7634 C   0  0  0  0  0  0  0  0  0  0  0  0
    2.4237  -50.5972  -24.8180 C   0  0  0  0  0  0  0  0  0  0  0  0
    5.5410  -48.5600  -24.4901 N   0  0  0  0  0  0  0  0  0  0  0  0
    6.9009  -48.3442  -24.8313 C   0  0  0  0  0  0  0  0  0  0  0  0
    7.4308  -49.1218  -25.6588 O   0  0  0  0  0  0  0  0  0  0  0  0
    5.1057  -47.9168  -23.8071 H   0  0  0  0  0  0  0  0  0  0  0  0
    7.7018  -47.2739  -24.2719 C   0  0  0  0  0  0  0  0  0  0  0  0
    8.9290  -47.5000  -23.8490 C   0  0  0  0  0  0  0  0  0  0  0  0
  1  2  1  0  0  0
  2  3  2  0  0  0
  3  4  1  0  0  0
  4  5  2  0  0  0
  5  6  1  0  0  0
  6  7  1  0  0  0
  7  8  1  0  0  0
  8  9  2  0  0  0
  9 13  1  0  0  0
 13 14  2  0  0  0
 14 15  1  0  0  0
 15 16  2  0  0  0
 16 19  1  0  0  0
 19 20  1  0  0  0
 20 21  2  0  0  0
 21 22  1  0  0  0
 22 23  2  0  0  0
 23 24  1  0  0  0
 24 25  2  0  0  0
 16 17  1  0  0  0
 17 18  2  0  0  0
  9 10  1  0  0  0
  7 26  1  0  0  0
 26 27  1  0  0  0
 27 28  1  0  0  0
 28 29  1  0  0  0
 29 30  1  0  0  0
 30 31  1  0  0  0
 29 32  1  0  0  0
 32 33  1  0  0  0
 33 34  2  0  0  0
 33 36  1  0  0  0
 36 37  2  0  0  0
 10  2  1  0  0  0
 31 26  1  0  0  0
 10  6  2  0  0  0
 18 13  1  0  0  0
 25 20  1  0  0  0
  1 11  1  0  0  0
  1 12  1  0  0  0
 32 35  1  0  0  0
M  END
> <minimizedAffinity>
-8.40662

> <CNNscore>
0.5775489211

> <CNNaffinity>
7.1043710709

> <CNN_VS>
4.1031217575

> <CNNaffinity_variance>
0.3825920522

$$$$
[H]C([H])=C([H])C(=O)N([H])[C@]1([H])C([H])([H])C([H])([H])[C@]([H])(n2c([H])c(-c3c([H])c([H])c(Oc4c([H])c([H])c([H])c([H])c4[H])c([H])c3[H])c3c(N([H])[H])nc([H])nc32)C([H])([H])C1([H])[H]


 37 41  0  0  0  0  0  0  0  0999 V2000
   -1.5705  -53.9529  -21.0714 N   0  0  0  0  0  0  0  0  0  0  0  0
   -0.7917  -53.6653  -22.2200 C   0  0  0  0  0  0  0  0  0  0  0  0
   -1.0262  -54.2493  -23.4045 N   0  0  0  0  0  0  0  0  0  0  0  0
   -0.2610  -53.9810  -24.4693 C   0  0  0  0  0  0  0  0  0  0  0  0
    0.7707  -53.1268  -24.4215 N   0  0  0  0  0  0  0  0  0  0  0  0
    1.0273  -52.5284  -23.2486 C   0  0  0  0  0  0  0  0  0  0  0  0
    1.9826  -51.6502  -22.8998 N   0  0  0  0  0  0  0  0  0  0  0  0
    1.8550  -51.3360  -21.6219 C   0  0  0  0  0  0  0  0  0  0  0  0
    0.7676  -52.0255  -21.0706 C   0  0  0  0  0  0  0  0  0  0  0  0
    0.2529  -52.7739  -22.0964 C   0  0  0  0  0  0  0  0  0  0  0  0
   -2.5600  -53.7178  -20.9351 H   0  0  0  0  0  0  0  0  0  0  0  0
   -1.0890  -54.4561  -20.2809 H   0  0  0  0  0  0  0  0  0  0  0  0
    0.2730  -51.9195  -19.7122 C   0  0  0  0  0  0  0  0  0  0  0  0
   -0.4493  -52.8943  -19.0569 C   0  0  0  0  0  0  0  0  0  0  0  0
   -0.9051  -52.7866  -17.7637 C   0  0  0  0  0  0  0  0  0  0  0  0
   -0.6419  -51.6419  -17.0429 C   0  0  0  0  0  0  0  0  0  0  0  0
    0.0748  -50.6450  -17.6580 C   0  0  0  0  0  0  0  0  0  0  0  0
    0.5221  -50.7691  -18.9489 C   0  0  0  0  0  0  0  0  0  0  0  0
   -1.0990  -51.5148  -15.7231 O   0  0  0  0  0  0  0  0  0  0  0  0
   -2.2783  -50.8213  -15.4922 C   0  0  0  0  0  0  0  0  0  0  0  0
   -2.3039  -49.4958  -15.1050 C   0  0  0  0  0  0  0  0  0  0  0  0
   -3.5053  -48.8437  -14.8856 C   0  0  0  0  0  0  0  0  0  0  0  0
   -4.7164  -49.4874  -15.0441 C   0  0  0  0  0  0  0  0  0  0  0  0
   -4.6953  -50.8041  -15.4287 C   0  0  0  0  0  0  0  0  0  0  0  0
   -3.4878  -51.4655  -15.6510 C   0  0  0  0  0  0  0  0  0  0  0  0
    2.9988  -51.1218  -23.7760 C   0  0  0  0  0  0  0  0  0  0  0  0
    3.0935  -49.6396  -23.8119 C   0  0  0  0  0  0  0  0  0  0  0  0
    4.2870  -49.3200  -24.7337 C   0  0  0  0  0  0  0  0  0  0  0  0
    3.8024  -49.4614  -26.1583 C   0  0  0  0  0  0  0  0  0  0  0  0
    2.6863  -50.4609  -26.1867 C   0  0  0  0  0  0  0  0  0  0  0  0
    2.8608  -51.6021  -25.2082 C   0  0  0  0  0  0  0  0  0  0  0  0
    3.3494  -48.2086  -26.6984 N   0  0  0  0  0  0  0  0  0  0  0  0
    3.6390  -47.7701  -28.0160 C   0  0  0  0  0  0  0  0  0  0  0  0
    4.3280  -48.5187  -28.7475 O   0  0  0  0  0  0  0  0  0  0  0  0
    2.7803  -47.5892  -26.0966 H   0  0  0  0  0  0  0  0  0  0  0  0
    3.1791  -46.5053  -28.5533 C   0  0  0  0  0  0  0  0  0  0  0  0
    2.3310  -45.7549  -27.8798 C   0  0  0  0  0  0  0  0  0  0  0  0
  1  2  1  0  0  0
  2  3  2  0  0  0
  3  4  1  0  0  0
  4  5  2  0  0  0
  5  6  1  0  0  0
  6  7  1  0  0  0
  7  8  1  0  0  0
  8  9  2  0  0  0
  9 13  1  0  0  0
 13 14  2  0  0  0
 14 15  1  0  0  0
 15 16  2  0  0  0
 16 19  1  0  0  0
 19 20  1  0  0  0
 20 21  2  0  0  0
 21 22  1  0  0  0
 22 23  2  0  0  0
 23 24  1  0  0  0
 24 25  2  0  0  0
 16 17  1  0  0  0
 17 18  2  0  0  0
  9 10  1  0  0  0
  7 26  1  0  0  0
 26 27  1  0  0  0
 27 28  1  0  0  0
 28 29  1  0  0  0
 29 30  1  0  0  0
 30 31  1  0  0  0
 29 32  1  0  0  0
 32 33  1  0  0  0
 33 34  2  0  0  0
 33 36  1  0  0  0
 36 37  2  0  0  0
 10  2  1  0  0  0
 31 26  1  0  0  0
 10  6  2  0  0  0
 18 13  1  0  0  0
 25 20  1  0  0  0
  1 11  1  0  0  0
  1 12  1  0  0  0
 32 35  1  0  0  0
M  END
> <minimizedAffinity>
-9.22180

> <CNNscore>
0.4615791738

> <CNNaffinity>
7.0263428688

> <CNN_VS>
3.2432136536

> <CNNaffinity_variance>
0.4253794551

$$$$
[H]C([H])=C([H])C(=O)N([H])[C@]1([H])C([H])([H])C([H])([H])[C@]([H])(n2c([H])c(-c3c([H])c([H])c(Oc4c([H])c([H])c([H])c([H])c4[H])c([H])c3[H])c3c(N([H])[H])nc([H])nc32)C([H])([H])C1([H])[H]


 37 41  0  0  0  0  0  0  0  0999 V2000
   -0.5964  -52.7587  -18.6309 N   0  0  0  0  0  0  0  0  0  0  0  0
   -0.6060  -53.1912  -19.9804 C   0  0  0  0  0  0  0  0  0  0  0  0
   -1.4928  -54.0892  -20.4347 N   0  0  0  0  0  0  0  0  0  0  0  0
   -1.4663  -54.5018  -21.7076 C   0  0  0  0  0  0  0  0  0  0  0  0
   -0.5677  -54.0524  -22.5948 N   0  0  0  0  0  0  0  0  0  0  0  0
    0.3310  -53.1530  -22.1667 C   0  0  0  0  0  0  0  0  0  0  0  0
    1.3397  -52.5425  -22.8111 N   0  0  0  0  0  0  0  0  0  0  0  0
    1.9750  -51.7333  -21.9808 C   0  0  0  0  0  0  0  0  0  0  0  0
    1.3782  -51.7894  -20.7149 C   0  0  0  0  0  0  0  0  0  0  0  0
    0.3475  -52.6838  -20.8374 C   0  0  0  0  0  0  0  0  0  0  0  0
   -1.3228  -52.2016  -18.1674 H   0  0  0  0  0  0  0  0  0  0  0  0
    0.2354  -53.0347  -18.0462 H   0  0  0  0  0  0  0  0  0  0  0  0
    1.7524  -51.0188  -19.5455 C   0  0  0  0  0  0  0  0  0  0  0  0
    2.8063  -51.3171  -18.7078 C   0  0  0  0  0  0  0  0  0  0  0  0
    3.1582  -50.5725  -17.6062 C   0  0  0  0  0  0  0  0  0  0  0  0
    2.4318  -49.4460  -17.2864 C   0  0  0  0  0  0  0  0  0  0  0  0
    1.3729  -49.1125  -18.0946 C   0  0  0  0  0  0  0  0  0  0  0  0
    1.0356  -49.8665  -19.1900 C   0  0  0  0  0  0  0  0  0  0  0  0
    2.7764  -48.6749  -16.1666 O   0  0  0  0  0  0  0  0  0  0  0  0
    1.8489  -48.5370  -15.1440 C   0  0  0  0  0  0  0  0  0  0  0  0
    1.2578  -47.3297  -14.8271 C   0  0  0  0  0  0  0  0  0  0  0  0
    0.3368  -47.2391  -13.7975 C   0  0  0  0  0  0  0  0  0  0  0  0
   -0.0248  -48.3437  -13.0521 C   0  0  0  0  0  0  0  0  0  0  0  0
    0.5601  -49.5448  -13.3637 C   0  0  0  0  0  0  0  0  0  0  0  0
    1.4884  -49.6413  -14.4000 C   0  0  0  0  0  0  0  0  0  0  0  0
    1.6875  -52.7313  -24.1979 C   0  0  0  0  0  0  0  0  0  0  0  0
    3.0789  -52.3544  -24.5572 C   0  0  0  0  0  0  0  0  0  0  0  0
    3.2393  -52.7212  -26.0458 C   0  0  0  0  0  0  0  0  0  0  0  0
    2.5867  -51.6208  -26.8505 C   0  0  0  0  0  0  0  0  0  0  0  0
    1.4939  -51.0100  -26.0270 C   0  0  0  0  0  0  0  0  0  0  0  0
    0.7597  -52.0017  -25.1507 C   0  0  0  0  0  0  0  0  0  0  0  0
    3.5296  -50.6076  -27.2386 N   0  0  0  0  0  0  0  0  0  0  0  0
    3.7033  -49.3860  -26.5387 C   0  0  0  0  0  0  0  0  0  0  0  0
    2.9941  -49.1818  -25.5260 O   0  0  0  0  0  0  0  0  0  0  0  0
    4.1162  -50.7741  -28.0740 H   0  0  0  0  0  0  0  0  0  0  0  0
    4.6558  -48.3691  -26.9366 C   0  0  0  0  0  0  0  0  0  0  0  0
    4.9302  -48.1626  -28.2086 C   0  0  0  0  0  0  0  0  0  0  0  0
  1  2  1  0  0  0
  2  3  2  0  0  0
  3  4  1  0  0  0
  4  5  2  0  0  0
  5  6  1  0  0  0
  6  7  1  0  0  0
  7  8  1  0  0  0
  8  9  2  0  0  0
  9 13  1  0  0  0
 13 14  2  0  0  0
 14 15  1  0  0  0
 15 16  2  0  0  0
 16 19  1  0  0  0
 19 20  1  0  0  0
 20 21  2  0  0  0
 21 22  1  0  0  0
 22 23  2  0  0  0
 23 24  1  0  0  0
 24 25  2  0  0  0
 16 17  1  0  0  0
 17 18  2  0  0  0
  9 10  1  0  0  0
  7 26  1  0  0  0
 26 27  1  0  0  0
 27 28  1  0  0  0
 28 29  1  0  0  0
 29 30  1  0  0  0
 30 31  1  0  0  0
 29 32  1  0  0  0
 32 33  1  0  0  0
 33 34  2  0  0  0
 33 36  1  0  0  0
 36 37  2  0  0  0
 10  2  1  0  0  0
 31 26  1  0  0  0
 10  6  2  0  0  0
 18 13  1  0  0  0
 25 20  1  0  0  0
  1 11  1  0  0  0
  1 12  1  0  0  0
 32 35  1  0  0  0
M  END
> <minimizedAffinity>
-7.50827

> <CNNscore>
0.4570127130

> <CNNaffinity>
6.9693489075

> <CNN_VS>
3.1850810051

> <CNNaffinity_variance>
0.2821291089

$$$$
[H]C([H])=C([H])C(=O)N([H])[C@]1([H])C([H])([H])C([H])([H])[C@]([H])(n2c([H])c(-c3c([H])c([H])c(Oc4c([H])c([H])c([H])c([H])c4[H])c([H])c3[H])c3c(N([H])[H])nc([H])nc32)C([H])([H])C1([H])[H]


 37 41  0  0  0  0  0  0  0  0999 V2000
   -0.7954  -53.0733  -18.3898 N   0  0  0  0  0  0  0  0  0  0  0  0
   -0.5668  -53.1747  -19.7847 C   0  0  0  0  0  0  0  0  0  0  0  0
   -1.2658  -54.0151  -20.5622 N   0  0  0  0  0  0  0  0  0  0  0  0
   -1.0145  -54.1122  -21.8731 C   0  0  0  0  0  0  0  0  0  0  0  0
   -0.0650  -53.3889  -22.4829 N   0  0  0  0  0  0  0  0  0  0  0  0
    0.6490  -52.5400  -21.7284 C   0  0  0  0  0  0  0  0  0  0  0  0
    1.6537  -51.7083  -22.0515 N   0  0  0  0  0  0  0  0  0  0  0  0
    2.0649  -51.0647  -20.9723 C   0  0  0  0  0  0  0  0  0  0  0  0
    1.3118  -51.4699  -19.8631 C   0  0  0  0  0  0  0  0  0  0  0  0
    0.4254  -52.3976  -20.3438 C   0  0  0  0  0  0  0  0  0  0  0  0
   -1.6415  -52.7074  -17.9389 H   0  0  0  0  0  0  0  0  0  0  0  0
   -0.0240  -53.4047  -17.7533 H   0  0  0  0  0  0  0  0  0  0  0  0
    1.4245  -50.9666  -18.5084 C   0  0  0  0  0  0  0  0  0  0  0  0
    2.3923  -51.3474  -17.6029 C   0  0  0  0  0  0  0  0  0  0  0  0
    2.4954  -50.8553  -16.3227 C   0  0  0  0  0  0  0  0  0  0  0  0
    1.5884  -49.9173  -15.8794 C   0  0  0  0  0  0  0  0  0  0  0  0
    0.6071  -49.5100  -16.7495 C   0  0  0  0  0  0  0  0  0  0  0  0
    0.5189  -50.0112  -18.0235 C   0  0  0  0  0  0  0  0  0  0  0  0
    1.6784  -49.4047  -14.5770 O   0  0  0  0  0  0  0  0  0  0  0  0
    2.8924  -48.8868  -14.1493 C   0  0  0  0  0  0  0  0  0  0  0  0
    3.6582  -49.4861  -13.1685 C   0  0  0  0  0  0  0  0  0  0  0  0
    4.8641  -48.9331  -12.7729 C   0  0  0  0  0  0  0  0  0  0  0  0
    5.3458  -47.7695  -13.3390 C   0  0  0  0  0  0  0  0  0  0  0  0
    4.5881  -47.1711  -14.3136 C   0  0  0  0  0  0  0  0  0  0  0  0
    3.3726  -47.7242  -14.7155 C   0  0  0  0  0  0  0  0  0  0  0  0
    2.2088  -51.5336  -23.3709 C   0  0  0  0  0  0  0  0  0  0  0  0
    1.2982  -50.9033  -24.3611 C   0  0  0  0  0  0  0  0  0  0  0  0
    2.1289  -50.7440  -25.6498 C   0  0  0  0  0  0  0  0  0  0  0  0
    2.1606  -52.0926  -26.3312 C   0  0  0  0  0  0  0  0  0  0  0  0
    2.0288  -53.1592  -25.2869 C   0  0  0  0  0  0  0  0  0  0  0  0
    2.7169  -52.8263  -23.9808 C   0  0  0  0  0  0  0  0  0  0  0  0
    1.1099  -52.2284  -27.3027 N   0  0  0  0  0  0  0  0  0  0  0  0
    1.1427  -53.1617  -28.3706 C   0  0  0  0  0  0  0  0  0  0  0  0
    2.1444  -53.9080  -28.4696 O   0  0  0  0  0  0  0  0  0  0  0  0
    0.2820  -51.6137  -27.2228 H   0  0  0  0  0  0  0  0  0  0  0  0
    0.0795  -53.2923  -29.3466 C   0  0  0  0  0  0  0  0  0  0  0  0
   -1.0352  -52.6002  -29.2265 C   0  0  0  0  0  0  0  0  0  0  0  0
  1  2  1  0  0  0
  2  3  2  0  0  0
  3  4  1  0  0  0
  4  5  2  0  0  0
  5  6  1  0  0  0
  6  7  1  0  0  0
  7  8  1  0  0  0
  8  9  2  0  0  0
  9 13  1  0  0  0
 13 14  2  0  0  0
 14 15  1  0  0  0
 15 16  2  0  0  0
 16 19  1  0  0  0
 19 20  1  0  0  0
 20 21  2  0  0  0
 21 22  1  0  0  0
 22 23  2  0  0  0
 23 24  1  0  0  0
 24 25  2  0  0  0
 16 17  1  0  0  0
 17 18  2  0  0  0
  9 10  1  0  0  0
  7 26  1  0  0  0
 26 27  1  0  0  0
 27 28  1  0  0  0
 28 29  1  0  0  0
 29 30  1  0  0  0
 30 31  1  0  0  0
 29 32  1  0  0  0
 32 33  1  0  0  0
 33 34  2  0  0  0
 33 36  1  0  0  0
 36 37  2  0  0  0
 10  2  1  0  0  0
 31 26  1  0  0  0
 10  6  2  0  0  0
 18 13  1  0  0  0
 25 20  1  0  0  0
  1 11  1  0  0  0
  1 12  1  0  0  0
 32 35  1  0  0  0
M  END
> <minimizedAffinity>
-8.25655

> <CNNscore>
0.4505797029

> <CNNaffinity>
7.0443544388

> <CNN_VS>
3.1740431786

> <CNNaffinity_variance>
0.4460711479

$$$$
[H]C([H])=C([H])C(=O)N([H])[C@]1([H])C([H])([H])C([H])([H])[C@]([H])(n2c([H])c(-c3c([H])c([H])c(Oc4c([H])c([H])c([H])c([H])c4[H])c([H])c3[H])c3c(N([H])[H])nc([H])nc32)C([H])([H])C1([H])[H]


 37 41  0  0  0  0  0  0  0  0999 V2000
   -0.7953  -53.1123  -18.4759 N   0  0  0  0  0  0  0  0  0  0  0  0
   -0.5444  -53.2429  -19.8646 C   0  0  0  0  0  0  0  0  0  0  0  0
   -1.2034  -54.1275  -20.6277 N   0  0  0  0  0  0  0  0  0  0  0  0
   -0.9313  -54.2507  -21.9323 C   0  0  0  0  0  0  0  0  0  0  0  0
    0.0009  -53.5113  -22.5494 N   0  0  0  0  0  0  0  0  0  0  0  0
    0.6751  -52.6183  -21.8093 C   0  0  0  0  0  0  0  0  0  0  0  0
    1.6549  -51.7611  -22.1421 N   0  0  0  0  0  0  0  0  0  0  0  0
    2.0289  -51.0750  -21.0757 C   0  0  0  0  0  0  0  0  0  0  0  0
    1.2753  -51.4764  -19.9654 C   0  0  0  0  0  0  0  0  0  0  0  0
    0.4280  -52.4469  -20.4320 C   0  0  0  0  0  0  0  0  0  0  0  0
   -1.6594  -52.7641  -18.0458 H   0  0  0  0  0  0  0  0  0  0  0  0
   -0.0216  -53.3996  -17.8210 H   0  0  0  0  0  0  0  0  0  0  0  0
    1.3523  -50.9336  -18.6236 C   0  0  0  0  0  0  0  0  0  0  0  0
    2.3913  -51.1497  -17.7431 C   0  0  0  0  0  0  0  0  0  0  0  0
    2.4583  -50.6209  -16.4752 C   0  0  0  0  0  0  0  0  0  0  0  0
    1.4367  -49.8164  -16.0190 C   0  0  0  0  0  0  0  0  0  0  0  0
    0.3815  -49.5753  -16.8641 C   0  0  0  0  0  0  0  0  0  0  0  0
    0.3307  -50.1108  -18.1261 C   0  0  0  0  0  0  0  0  0  0  0  0
    1.4884  -49.2687  -14.7288 O   0  0  0  0  0  0  0  0  0  0  0  0
    1.2676  -47.9075  -14.5755 C   0  0  0  0  0  0  0  0  0  0  0  0
    0.1403  -47.3962  -13.9629 C   0  0  0  0  0  0  0  0  0  0  0  0
   -0.0380  -46.0295  -13.8321 C   0  0  0  0  0  0  0  0  0  0  0  0
    0.8969  -45.1302  -14.3049 C   0  0  0  0  0  0  0  0  0  0  0  0
    2.0180  -45.6342  -14.9140 C   0  0  0  0  0  0  0  0  0  0  0  0
    2.2024  -47.0099  -15.0483 C   0  0  0  0  0  0  0  0  0  0  0  0
    2.2214  -51.6025  -23.4587 C   0  0  0  0  0  0  0  0  0  0  0  0
    1.3563  -50.8954  -24.4378 C   0  0  0  0  0  0  0  0  0  0  0  0
    2.1967  -50.7713  -25.7240 C   0  0  0  0  0  0  0  0  0  0  0  0
    2.1374  -52.1075  -26.4278 C   0  0  0  0  0  0  0  0  0  0  0  0
    1.9329  -53.1799  -25.4014 C   0  0  0  0  0  0  0  0  0  0  0  0
    2.6411  -52.9163  -24.0902 C   0  0  0  0  0  0  0  0  0  0  0  0
    1.0806  -52.1555  -27.4010 N   0  0  0  0  0  0  0  0  0  0  0  0
    1.0020  -53.1306  -28.4284 C   0  0  0  0  0  0  0  0  0  0  0  0
    1.9053  -53.9969  -28.4881 O   0  0  0  0  0  0  0  0  0  0  0  0
    0.3338  -51.4416  -27.3535 H   0  0  0  0  0  0  0  0  0  0  0  0
   -0.0665  -53.1721  -29.4064 C   0  0  0  0  0  0  0  0  0  0  0  0
   -1.2660  -52.7115  -29.1149 C   0  0  0  0  0  0  0  0  0  0  0  0
  1  2  1  0  0  0
  2  3  2  0  0  0
  3  4  1  0  0  0
  4  5  2  0  0  0
  5  6  1  0  0  0
  6  7  1  0  0  0
  7  8  1  0  0  0
  8  9  2  0  0  0
  9 13  1  0  0  0
 13 14  2  0  0  0
 14 15  1  0  0  0
 15 16  2  0  0  0
 16 19  1  0  0  0
 19 20  1  0  0  0
 20 21  2  0  0  0
 21 22  1  0  0  0
 22 23  2  0  0  0
 23 24  1  0  0  0
 24 25  2  0  0  0
 16 17  1  0  0  0
 17 18  2  0  0  0
  9 10  1  0  0  0
  7 26  1  0  0  0
 26 27  1  0  0  0
 27 28  1  0  0  0
 28 29  1  0  0  0
 29 30  1  0  0  0
 30 31  1  0  0  0
 29 32  1  0  0  0
 32 33  1  0  0  0
 33 34  2  0  0  0
 33 36  1  0  0  0
 36 37  2  0  0  0
 10  2  1  0  0  0
 31 26  1  0  0  0
 10  6  2  0  0  0
 18 13  1  0  0  0
 25 20  1  0  0  0
  1 11  1  0  0  0
  1 12  1  0  0  0
 32 35  1  0  0  0
M  END
> <minimizedAffinity>
-8.22991

> <CNNscore>
0.4445548058

> <CNNaffinity>
7.0929336548

> <CNN_VS>
3.1531977654

> <CNNaffinity_variance>
0.4843090177

$$$$
[H]N=C(N([H])[H])N([H])C([H])([H])C([H])([H])C([H])([H])[C@@]([H])(C(=O)c1nc2c([H])c([H])c([H])c([H])c2s1)N([H])C(=O)[C@@]1([H])N(C(=O)[C@]([H])(N([H])S(=O)(=O)C([H])([H])c2c([H])c([H])c([H])c([H])c2[H])C([H])([H])c2c([H])c([H])c([H])c([H])c2[H])C([H])([H])C([H])([H])C1([H])[H]


 54 58  0  0  0  0  0  0  0  0999 V2000
    4.1208  -49.5203  -19.9707 N   0  0  0  0  0  0  0  0  0  0  0  0
    4.6617  -50.7546  -20.4916 C   0  0  0  0  0  0  0  0  0  0  0  0
    4.1077  -51.8003  -20.1455 O   0  0  0  0  0  0  0  0  0  0  0  0
    4.5133  -48.5841  -20.1904 H   0  0  0  0  0  0  0  0  0  0  0  0
    5.7900  -50.6710  -21.3653 C   0  0  0  0  0  0  0  0  0  0  0  0
    6.6165  -49.3788  -21.2382 C   0  0  0  0  0  0  0  0  0  0  0  0
    7.5018  -49.4094  -22.4801 C   0  0  0  0  0  0  0  0  0  0  0  0
    6.9223  -50.5701  -23.3017 C   0  0  0  0  0  0  0  0  0  0  0  0
    5.5370  -50.5824  -22.8187 N   0  0  0  0  0  0  0  0  0  0  0  0
    4.3089  -50.5006  -23.4820 C   0  0  0  0  0  0  0  0  0  0  0  0
    3.2580  -50.5098  -22.7526 O   0  0  0  0  0  0  0  0  0  0  0  0
    4.0346  -50.3953  -24.9337 C   0  0  0  0  0  0  0  0  0  0  0  0
    4.1444  -51.6902  -25.5589 N   0  0  0  0  0  0  0  0  0  0  0  0
    4.9923  -52.1735  -25.4174 H   0  0  0  0  0  0  0  0  0  0  0  0
    2.9768  -52.1620  -26.6536 S   0  0  0  0  0  0  0  0  0  0  0  0
    3.4240  -53.4576  -27.3305 O   0  0  0  0  0  0  0  0  0  0  0  0
    2.6246  -51.1584  -27.7069 O   0  0  0  0  0  0  0  0  0  0  0  0
    1.4450  -52.6321  -25.8201 C   0  0  0  0  0  0  0  0  0  0  0  0
    0.2960  -52.6631  -26.7463 C   0  0  0  0  0  0  0  0  0  0  0  0
   -0.9206  -52.2304  -26.2129 C   0  0  0  0  0  0  0  0  0  0  0  0
   -2.0375  -52.1753  -27.0038 C   0  0  0  0  0  0  0  0  0  0  0  0
   -2.0083  -52.5364  -28.3272 C   0  0  0  0  0  0  0  0  0  0  0  0
   -0.7847  -52.9617  -28.8211 C   0  0  0  0  0  0  0  0  0  0  0  0
    0.3543  -53.0291  -28.0560 C   0  0  0  0  0  0  0  0  0  0  0  0
    4.7573  -49.3399  -25.6777 C   0  0  0  0  0  0  0  0  0  0  0  0
    3.9732  -48.0622  -25.7423 C   0  0  0  0  0  0  0  0  0  0  0  0
    3.9189  -47.2305  -24.6609 C   0  0  0  0  0  0  0  0  0  0  0  0
    3.2133  -46.0316  -24.6810 C   0  0  0  0  0  0  0  0  0  0  0  0
    2.5532  -45.6797  -25.8281 C   0  0  0  0  0  0  0  0  0  0  0  0
    2.5944  -46.5155  -26.9481 C   0  0  0  0  0  0  0  0  0  0  0  0
    3.3051  -47.6967  -26.8886 C   0  0  0  0  0  0  0  0  0  0  0  0
    2.9666  -49.4944  -19.0644 C   0  0  0  0  0  0  0  0  0  0  0  0
    1.7052  -49.4327  -19.8427 C   0  0  0  0  0  0  0  0  0  0  0  0
    1.2862  -48.3094  -20.2058 O   0  0  0  0  0  0  0  0  0  0  0  0
    0.9229  -50.6216  -20.2101 C   0  0  0  0  0  0  0  0  0  0  0  0
    0.6895  -51.1281  -21.4063 N   0  0  0  0  0  0  0  0  0  0  0  0
   -0.0287  -52.1994  -21.5446 C   0  0  0  0  0  0  0  0  0  0  0  0
   -0.3360  -52.8237  -22.7769 C   0  0  0  0  0  0  0  0  0  0  0  0
   -1.1054  -53.9553  -22.7921 C   0  0  0  0  0  0  0  0  0  0  0  0
   -1.6103  -54.5372  -21.6640 C   0  0  0  0  0  0  0  0  0  0  0  0
   -1.3218  -53.9446  -20.4564 C   0  0  0  0  0  0  0  0  0  0  0  0
   -0.5327  -52.7805  -20.4145 C   0  0  0  0  0  0  0  0  0  0  0  0
    0.0753  -51.7220  -19.1990 S   0  0  0  0  0  0  0  0  0  0  0  0
    3.1074  -48.2628  -18.1595 C   0  0  0  0  0  0  0  0  0  0  0  0
    2.9685  -48.6952  -16.7040 C   0  0  0  0  0  0  0  0  0  0  0  0
    2.7863  -50.1714  -16.5577 C   0  0  0  0  0  0  0  0  0  0  0  0
    3.9478  -50.8552  -16.0594 N   0  0  0  0  0  0  0  0  0  0  0  0
    4.9038  -50.7685  -16.4501 H   0  0  0  0  0  0  0  0  0  0  0  0
    2.9180  -51.3413  -13.8714 N   0  0  0  0  0  0  0  0  0  0  0  0
    3.7755  -51.7314  -14.9327 C   0  0  0  0  0  0  0  0  0  0  0  0
    4.3820  -52.8489  -14.8742 N   0  0  0  0  0  0  0  0  0  0  0  0
    3.0820  -50.4782  -13.3062 H   0  0  0  0  0  0  0  0  0  0  0  0
    2.1052  -51.9814  -13.6937 H   0  0  0  0  0  0  0  0  0  0  0  0
    4.2422  -53.4707  -14.0422 H   0  0  0  0  0  0  0  0  0  0  0  0
 49 50  1  0  0  0
 50 51  2  0  0  0
 50 47  1  0  0  0
 47 46  1  0  0  0
 46 45  1  0  0  0
 45 44  1  0  0  0
 44 32  1  0  0  0
 32  1  1  0  0  0
  1  2  1  0  0  0
  2  3  2  0  0  0
  2  5  1  0  0  0
  5  6  1  0  0  0
  6  7  1  0  0  0
  7  8  1  0  0  0
  8  9  1  0  0  0
  9 10  1  0  0  0
 10 11  2  0  0  0
 10 12  1  0  0  0
 12 25  1  0  0  0
 25 26  1  0  0  0
 26 27  2  0  0  0
 27 28  1  0  0  0
 28 29  2  0  0  0
 29 30  1  0  0  0
 30 31  2  0  0  0
 12 13  1  0  0  0
 13 15  1  0  0  0
 15 16  2  0  0  0
 15 17  2  0  0  0
 15 18  1  0  0  0
 18 19  1  0  0  0
 19 20  2  0  0  0
 20 21  1  0  0  0
 21 22  2  0  0  0
 22 23  1  0  0  0
 23 24  2  0  0  0
 32 33  1  0  0  0
 33 34  2  0  0  0
 33 35  1  0  0  0
 35 36  2  0  0  0
 36 37  1  0  0  0
 37 38  2  0  0  0
 38 39  1  0  0  0
 39 40  2  0  0  0
 40 41  1  0  0  0
 41 42  2  0  0  0
 42 43  1  0  0  0
  9  5  1  0  0  0
 31 26  1  0  0  0
 24 19  1  0  0  0
 43 35  1  0  0  0
 42 37  1  0  0  0
 49 52  1  0  0  0
 49 53  1  0  0  0
 51 54  1  0  0  0
 47 48  1  0  0  0
  1  4  1  0  0  0
 13 14  1  0  0  0
M  END
> <minimizedAffinity>
-8.56485

> <CNNscore>
0.7386690378

> <CNNaffinity>
8.1953344345

> <CNN_VS>
6.0536398888

> <CNNaffinity_variance>
0.0967419297

$$$$
[H]N=C(N([H])[H])N([H])C([H])([H])C([H])([H])C([H])([H])[C@@]([H])(C(=O)c1nc2c([H])c([H])c([H])c([H])c2s1)N([H])C(=O)[C@@]1([H])N(C(=O)[C@]([H])(N([H])S(=O)(=O)C([H])([H])c2c([H])c([H])c([H])c([H])c2[H])C([H])([H])c2c([H])c([H])c([H])c([H])c2[H])C([H])([H])C([H])([H])C1([H])[H]


 54 58  0  0  0  0  0  0  0  0999 V2000
    2.4213  -51.6386  -23.0149 N   0  0  0  0  0  0  0  0  0  0  0  0
    3.8123  -51.5354  -22.6381 C   0  0  0  0  0  0  0  0  0  0  0  0
    4.1122  -51.8912  -21.4964 O   0  0  0  0  0  0  0  0  0  0  0  0
    2.0574  -51.3603  -23.9471 H   0  0  0  0  0  0  0  0  0  0  0  0
    4.7307  -51.0337  -23.6119 C   0  0  0  0  0  0  0  0  0  0  0  0
    6.2161  -51.2794  -23.2921 C   0  0  0  0  0  0  0  0  0  0  0  0
    6.9389  -50.3663  -24.2774 C   0  0  0  0  0  0  0  0  0  0  0  0
    5.8053  -49.5222  -24.8778 C   0  0  0  0  0  0  0  0  0  0  0  0
    4.8228  -49.5694  -23.7891 N   0  0  0  0  0  0  0  0  0  0  0  0
    4.1653  -48.5657  -23.0714 C   0  0  0  0  0  0  0  0  0  0  0  0
    3.3722  -48.9463  -22.1427 O   0  0  0  0  0  0  0  0  0  0  0  0
    4.2558  -47.0951  -23.2223 C   0  0  0  0  0  0  0  0  0  0  0  0
    3.3498  -46.6407  -24.2481 N   0  0  0  0  0  0  0  0  0  0  0  0
    3.1802  -47.2674  -24.9904 H   0  0  0  0  0  0  0  0  0  0  0  0
    2.8635  -45.0445  -24.2493 S   0  0  0  0  0  0  0  0  0  0  0  0
    3.4617  -44.3412  -23.0310 O   0  0  0  0  0  0  0  0  0  0  0  0
    1.3850  -44.8116  -24.2691 O   0  0  0  0  0  0  0  0  0  0  0  0
    3.5723  -44.1418  -25.6438 C   0  0  0  0  0  0  0  0  0  0  0  0
    3.7886  -45.0120  -26.8164 C   0  0  0  0  0  0  0  0  0  0  0  0
    2.6340  -45.4015  -27.4998 C   0  0  0  0  0  0  0  0  0  0  0  0
    2.7297  -46.1698  -28.6296 C   0  0  0  0  0  0  0  0  0  0  0  0
    3.9404  -46.5814  -29.1270 C   0  0  0  0  0  0  0  0  0  0  0  0
    5.0637  -46.1772  -28.4221 C   0  0  0  0  0  0  0  0  0  0  0  0
    5.0036  -45.4070  -27.2861 C   0  0  0  0  0  0  0  0  0  0  0  0
    5.6110  -46.5175  -23.3617 C   0  0  0  0  0  0  0  0  0  0  0  0
    6.4293  -46.6998  -22.1173 C   0  0  0  0  0  0  0  0  0  0  0  0
    6.0064  -46.1745  -20.9303 C   0  0  0  0  0  0  0  0  0  0  0  0
    6.7279  -46.3290  -19.7508 C   0  0  0  0  0  0  0  0  0  0  0  0
    7.9016  -47.0337  -19.7890 C   0  0  0  0  0  0  0  0  0  0  0  0
    8.3548  -47.5807  -20.9931 C   0  0  0  0  0  0  0  0  0  0  0  0
    7.6107  -47.4054  -22.1417 C   0  0  0  0  0  0  0  0  0  0  0  0
    1.3967  -52.1378  -22.0903 C   0  0  0  0  0  0  0  0  0  0  0  0
    0.4973  -53.0897  -22.7874 C   0  0  0  0  0  0  0  0  0  0  0  0
   -0.0507  -53.9914  -22.1123 O   0  0  0  0  0  0  0  0  0  0  0  0
    0.2161  -53.0283  -24.2288 C   0  0  0  0  0  0  0  0  0  0  0  0
   -0.9002  -52.6890  -24.8458 N   0  0  0  0  0  0  0  0  0  0  0  0
   -0.9680  -52.6875  -26.1412 C   0  0  0  0  0  0  0  0  0  0  0  0
   -2.1113  -52.3393  -26.8992 C   0  0  0  0  0  0  0  0  0  0  0  0
   -2.0573  -52.3755  -28.2660 C   0  0  0  0  0  0  0  0  0  0  0  0
   -0.9409  -52.7363  -28.9658 C   0  0  0  0  0  0  0  0  0  0  0  0
    0.1807  -53.0779  -28.2460 C   0  0  0  0  0  0  0  0  0  0  0  0
    0.1503  -53.0484  -26.8396 C   0  0  0  0  0  0  0  0  0  0  0  0
    1.2517  -53.3731  -25.5555 S   0  0  0  0  0  0  0  0  0  0  0  0
    0.6080  -50.9299  -21.5662 C   0  0  0  0  0  0  0  0  0  0  0  0
    1.1784  -50.5101  -20.2160 C   0  0  0  0  0  0  0  0  0  0  0  0
    0.2806  -50.8683  -19.0761 C   0  0  0  0  0  0  0  0  0  0  0  0
    0.3871  -52.2394  -18.6593 N   0  0  0  0  0  0  0  0  0  0  0  0
    1.2738  -52.7273  -18.4361 H   0  0  0  0  0  0  0  0  0  0  0  0
   -1.4180  -53.1791  -17.2655 N   0  0  0  0  0  0  0  0  0  0  0  0
   -0.8280  -52.9990  -18.5434 C   0  0  0  0  0  0  0  0  0  0  0  0
   -1.3790  -53.5122  -19.5697 N   0  0  0  0  0  0  0  0  0  0  0  0
   -0.9220  -53.6589  -16.4812 H   0  0  0  0  0  0  0  0  0  0  0  0
   -2.3897  -52.7955  -17.1624 H   0  0  0  0  0  0  0  0  0  0  0  0
   -2.2638  -54.0632  -19.4609 H   0  0  0  0  0  0  0  0  0  0  0  0
 49 50  1  0  0  0
 50 51  2  0  0  0
 50 47  1  0  0  0
 47 46  1  0  0  0
 46 45  1  0  0  0
 45 44  1  0  0  0
 44 32  1  0  0  0
 32  1  1  0  0  0
  1  2  1  0  0  0
  2  3  2  0  0  0
  2  5  1  0  0  0
  5  6  1  0  0  0
  6  7  1  0  0  0
  7  8  1  0  0  0
  8  9  1  0  0  0
  9 10  1  0  0  0
 10 11  2  0  0  0
 10 12  1  0  0  0
 12 25  1  0  0  0
 25 26  1  0  0  0
 26 27  2  0  0  0
 27 28  1  0  0  0
 28 29  2  0  0  0
 29 30  1  0  0  0
 30 31  2  0  0  0
 12 13  1  0  0  0
 13 15  1  0  0  0
 15 16  2  0  0  0
 15 17  2  0  0  0
 15 18  1  0  0  0
 18 19  1  0  0  0
 19 20  2  0  0  0
 20 21  1  0  0  0
 21 22  2  0  0  0
 22 23  1  0  0  0
 23 24  2  0  0  0
 32 33  1  0  0  0
 33 34  2  0  0  0
 33 35  1  0  0  0
 35 36  2  0  0  0
 36 37  1  0  0  0
 37 38  2  0  0  0
 38 39  1  0  0  0
 39 40  2  0  0  0
 40 41  1  0  0  0
 41 42  2  0  0  0
 42 43  1  0  0  0
  9  5  1  0  0  0
 31 26  1  0  0  0
 24 19  1  0  0  0
 43 35  1  0  0  0
 42 37  1  0  0  0
 49 52  1  0  0  0
 49 53  1  0  0  0
 51 54  1  0  0  0
 47 48  1  0  0  0
  1  4  1  0  0  0
 13 14  1  0  0  0
M  END
> <minimizedAffinity>
-7.56674

> <CNNscore>
0.2997570932

> <CNNaffinity>
7.7058601379

> <CNN_VS>
2.3098862171

> <CNNaffinity_variance>
0.1045195013

$$$$
[H]N=C(N([H])[H])N([H])C([H])([H])C([H])([H])C([H])([H])[C@@]([H])(C(=O)c1nc2c([H])c([H])c([H])c([H])c2s1)N([H])C(=O)[C@@]1([H])N(C(=O)[C@]([H])(N([H])S(=O)(=O)C([H])([H])c2c([H])c([H])c([H])c([H])c2[H])C([H])([H])c2c([H])c([H])c([H])c([H])c2[H])C([H])([H])C([H])([H])C1([H])[H]


 54 58  0  0  0  0  0  0  0  0999 V2000
    1.8163  -52.2792  -23.8488 N   0  0  0  0  0  0  0  0  0  0  0  0
    2.3451  -51.2247  -24.6829 C   0  0  0  0  0  0  0  0  0  0  0  0
    1.5404  -50.6056  -25.3824 O   0  0  0  0  0  0  0  0  0  0  0  0
    2.4041  -52.8680  -23.2270 H   0  0  0  0  0  0  0  0  0  0  0  0
    3.7524  -50.9785  -24.6331 C   0  0  0  0  0  0  0  0  0  0  0  0
    4.5867  -52.1016  -23.9915 C   0  0  0  0  0  0  0  0  0  0  0  0
    5.9419  -51.4397  -23.7625 C   0  0  0  0  0  0  0  0  0  0  0  0
    5.6699  -49.9587  -24.0632 C   0  0  0  0  0  0  0  0  0  0  0  0
    4.2343  -49.8792  -23.7709 N   0  0  0  0  0  0  0  0  0  0  0  0
    3.4925  -49.0576  -22.9168 C   0  0  0  0  0  0  0  0  0  0  0  0
    2.2312  -49.2656  -22.8686 O   0  0  0  0  0  0  0  0  0  0  0  0
    3.9574  -47.9629  -22.0341 C   0  0  0  0  0  0  0  0  0  0  0  0
    4.4940  -46.8797  -22.8204 N   0  0  0  0  0  0  0  0  0  0  0  0
    5.4766  -46.8360  -22.8913 H   0  0  0  0  0  0  0  0  0  0  0  0
    3.4701  -45.6644  -23.3291 S   0  0  0  0  0  0  0  0  0  0  0  0
    3.7633  -44.3978  -22.5250 O   0  0  0  0  0  0  0  0  0  0  0  0
    2.0062  -45.9657  -23.2468 O   0  0  0  0  0  0  0  0  0  0  0  0
    3.8267  -45.1725  -25.0300 C   0  0  0  0  0  0  0  0  0  0  0  0
    4.2573  -46.3150  -25.8597 C   0  0  0  0  0  0  0  0  0  0  0  0
    3.2423  -47.1895  -26.2557 C   0  0  0  0  0  0  0  0  0  0  0  0
    3.5299  -48.2545  -27.0674 C   0  0  0  0  0  0  0  0  0  0  0  0
    4.8027  -48.5021  -27.5161 C   0  0  0  0  0  0  0  0  0  0  0  0
    5.7837  -47.6145  -27.1018 C   0  0  0  0  0  0  0  0  0  0  0  0
    5.5300  -46.5369  -26.2885 C   0  0  0  0  0  0  0  0  0  0  0  0
    4.8381  -48.3395  -20.9061 C   0  0  0  0  0  0  0  0  0  0  0  0
    4.4268  -47.6728  -19.6264 C   0  0  0  0  0  0  0  0  0  0  0  0
    4.8044  -48.1960  -18.4233 C   0  0  0  0  0  0  0  0  0  0  0  0
    4.4546  -47.6045  -17.2137 C   0  0  0  0  0  0  0  0  0  0  0  0
    3.7060  -46.4580  -17.2380 C   0  0  0  0  0  0  0  0  0  0  0  0
    3.3074  -45.9038  -18.4581 C   0  0  0  0  0  0  0  0  0  0  0  0
    3.6743  -46.5204  -19.6365 C   0  0  0  0  0  0  0  0  0  0  0  0
    0.3878  -52.6153  -23.8266 C   0  0  0  0  0  0  0  0  0  0  0  0
    0.0199  -53.2029  -22.5150 C   0  0  0  0  0  0  0  0  0  0  0  0
   -0.4314  -54.3712  -22.4937 O   0  0  0  0  0  0  0  0  0  0  0  0
    0.1586  -52.4848  -21.2400 C   0  0  0  0  0  0  0  0  0  0  0  0
    0.6885  -51.2990  -21.0055 N   0  0  0  0  0  0  0  0  0  0  0  0
    0.7227  -50.8138  -19.8029 C   0  0  0  0  0  0  0  0  0  0  0  0
    1.2636  -49.5561  -19.4443 C   0  0  0  0  0  0  0  0  0  0  0  0
    1.2392  -49.1539  -18.1366 C   0  0  0  0  0  0  0  0  0  0  0  0
    0.7124  -49.9084  -17.1269 C   0  0  0  0  0  0  0  0  0  0  0  0
    0.1815  -51.1340  -17.4563 C   0  0  0  0  0  0  0  0  0  0  0  0
    0.1947  -51.5700  -18.7940 C   0  0  0  0  0  0  0  0  0  0  0  0
   -0.3290  -52.9619  -19.6633 S   0  0  0  0  0  0  0  0  0  0  0  0
    0.1223  -53.6129  -24.9624 C   0  0  0  0  0  0  0  0  0  0  0  0
   -0.6955  -52.9243  -26.0494 C   0  0  0  0  0  0  0  0  0  0  0  0
   -0.1605  -53.1810  -27.4211 C   0  0  0  0  0  0  0  0  0  0  0  0
    1.0708  -52.4961  -27.7038 N   0  0  0  0  0  0  0  0  0  0  0  0
    1.1941  -51.4670  -27.7031 H   0  0  0  0  0  0  0  0  0  0  0  0
    2.1347  -54.2823  -29.0310 N   0  0  0  0  0  0  0  0  0  0  0  0
    2.2242  -53.2958  -28.0149 C   0  0  0  0  0  0  0  0  0  0  0  0
    3.3216  -53.1319  -27.3910 N   0  0  0  0  0  0  0  0  0  0  0  0
    1.4659  -55.0831  -28.9780 H   0  0  0  0  0  0  0  0  0  0  0  0
    2.7883  -54.1510  -29.8419 H   0  0  0  0  0  0  0  0  0  0  0  0
    4.1489  -53.7275  -27.6339 H   0  0  0  0  0  0  0  0  0  0  0  0
 49 50  1  0  0  0
 50 51  2  0  0  0
 50 47  1  0  0  0
 47 46  1  0  0  0
 46 45  1  0  0  0
 45 44  1  0  0  0
 44 32  1  0  0  0
 32  1  1  0  0  0
  1  2  1  0  0  0
  2  3  2  0  0  0
  2  5  1  0  0  0
  5  6  1  0  0  0
  6  7  1  0  0  0
  7  8  1  0  0  0
  8  9  1  0  0  0
  9 10  1  0  0  0
 10 11  2  0  0  0
 10 12  1  0  0  0
 12 25  1  0  0  0
 25 26  1  0  0  0
 26 27  2  0  0  0
 27 28  1  0  0  0
 28 29  2  0  0  0
 29 30  1  0  0  0
 30 31  2  0  0  0
 12 13  1  0  0  0
 13 15  1  0  0  0
 15 16  2  0  0  0
 15 17  2  0  0  0
 15 18  1  0  0  0
 18 19  1  0  0  0
 19 20  2  0  0  0
 20 21  1  0  0  0
 21 22  2  0  0  0
 22 23  1  0  0  0
 23 24  2  0  0  0
 32 33  1  0  0  0
 33 34  2  0  0  0
 33 35  1  0  0  0
 35 36  2  0  0  0
 36 37  1  0  0  0
 37 38  2  0  0  0
 38 39  1  0  0  0
 39 40  2  0  0  0
 40 41  1  0  0  0
 41 42  2  0  0  0
 42 43  1  0  0  0
  9  5  1  0  0  0
 31 26  1  0  0  0
 24 19  1  0  0  0
 43 35  1  0  0  0
 42 37  1  0  0  0
 49 52  1  0  0  0
 49 53  1  0  0  0
 51 54  1  0  0  0
 47 48  1  0  0  0
  1  4  1  0  0  0
 13 14  1  0  0  0
M  END
> <minimizedAffinity>
-7.21960

> <CNNscore>
0.2780545652

> <CNNaffinity>
7.5952978134

> <CNN_VS>
2.1119072437

> <CNNaffinity_variance>
0.3107236326

$$$$
[H]N=C(N([H])[H])N([H])C([H])([H])C([H])([H])C([H])([H])[C@@]([H])(C(=O)c1nc2c([H])c([H])c([H])c([H])c2s1)N([H])C(=O)[C@@]1([H])N(C(=O)[C@]([H])(N([H])S(=O)(=O)C([H])([H])c2c([H])c([H])c([H])c([H])c2[H])C([H])([H])c2c([H])c([H])c([H])c([H])c2[H])C([H])([H])C([H])([H])C1([H])[H]


 54 58  0  0  0  0  0  0  0  0999 V2000
    4.6033  -49.2200  -20.6877 N   0  0  0  0  0  0  0  0  0  0  0  0
    4.6305  -50.6638  -20.6411 C   0  0  0  0  0  0  0  0  0  0  0  0
    4.2134  -51.1999  -19.6121 O   0  0  0  0  0  0  0  0  0  0  0  0
    4.9368  -48.6659  -21.5004 H   0  0  0  0  0  0  0  0  0  0  0  0
    5.1338  -51.3577  -21.7850 C   0  0  0  0  0  0  0  0  0  0  0  0
    6.0894  -50.5406  -22.6728 C   0  0  0  0  0  0  0  0  0  0  0  0
    6.1792  -51.3755  -23.9464 C   0  0  0  0  0  0  0  0  0  0  0  0
    5.0881  -52.4385  -23.7527 C   0  0  0  0  0  0  0  0  0  0  0  0
    4.1758  -51.7323  -22.8462 N   0  0  0  0  0  0  0  0  0  0  0  0
    2.8111  -51.4389  -22.9259 C   0  0  0  0  0  0  0  0  0  0  0  0
    2.3087  -50.7665  -21.9606 O   0  0  0  0  0  0  0  0  0  0  0  0
    1.8387  -51.7906  -23.9863 C   0  0  0  0  0  0  0  0  0  0  0  0
    2.2891  -51.2936  -25.2630 N   0  0  0  0  0  0  0  0  0  0  0  0
    2.3554  -50.3137  -25.3519 H   0  0  0  0  0  0  0  0  0  0  0  0
    2.4186  -52.3543  -26.5445 S   0  0  0  0  0  0  0  0  0  0  0  0
    3.6928  -53.1822  -26.3783 O   0  0  0  0  0  0  0  0  0  0  0  0
    2.4136  -51.7362  -27.9078 O   0  0  0  0  0  0  0  0  0  0  0  0
    1.1058  -53.5942  -26.5076 C   0  0  0  0  0  0  0  0  0  0  0  0
   -0.1251  -53.1195  -27.1698 C   0  0  0  0  0  0  0  0  0  0  0  0
   -0.1980  -53.3516  -28.5455 C   0  0  0  0  0  0  0  0  0  0  0  0
   -1.3193  -52.9925  -29.2451 C   0  0  0  0  0  0  0  0  0  0  0  0
   -2.3967  -52.4007  -28.6354 C   0  0  0  0  0  0  0  0  0  0  0  0
   -2.2879  -52.1848  -27.2703 C   0  0  0  0  0  0  0  0  0  0  0  0
   -1.1785  -52.5324  -26.5386 C   0  0  0  0  0  0  0  0  0  0  0  0
    0.4166  -51.4782  -23.7223 C   0  0  0  0  0  0  0  0  0  0  0  0
   -0.2485  -52.5433  -22.9009 C   0  0  0  0  0  0  0  0  0  0  0  0
   -0.8326  -52.2302  -21.7073 C   0  0  0  0  0  0  0  0  0  0  0  0
   -1.4694  -53.1838  -20.9195 C   0  0  0  0  0  0  0  0  0  0  0  0
   -1.5082  -54.4790  -21.3626 C   0  0  0  0  0  0  0  0  0  0  0  0
   -0.9167  -54.8234  -22.5817 C   0  0  0  0  0  0  0  0  0  0  0  0
   -0.2943  -53.8488  -23.3343 C   0  0  0  0  0  0  0  0  0  0  0  0
    4.1091  -48.4116  -19.5668 C   0  0  0  0  0  0  0  0  0  0  0  0
    2.6262  -48.3703  -19.5794 C   0  0  0  0  0  0  0  0  0  0  0  0
    2.0589  -47.6905  -20.4655 O   0  0  0  0  0  0  0  0  0  0  0  0
    1.7892  -49.0866  -18.6063 C   0  0  0  0  0  0  0  0  0  0  0  0
    1.0563  -50.1710  -18.7768 N   0  0  0  0  0  0  0  0  0  0  0  0
    0.3765  -50.6736  -17.7930 C   0  0  0  0  0  0  0  0  0  0  0  0
   -0.4359  -51.8300  -17.8679 C   0  0  0  0  0  0  0  0  0  0  0  0
   -1.1049  -52.2636  -16.7557 C   0  0  0  0  0  0  0  0  0  0  0  0
   -1.0379  -51.6353  -15.5445 C   0  0  0  0  0  0  0  0  0  0  0  0
   -0.2527  -50.5095  -15.4522 C   0  0  0  0  0  0  0  0  0  0  0  0
    0.4452  -50.0437  -16.5818 C   0  0  0  0  0  0  0  0  0  0  0  0
    1.5092  -48.7392  -16.9473 S   0  0  0  0  0  0  0  0  0  0  0  0
    4.6930  -46.9997  -19.7125 C   0  0  0  0  0  0  0  0  0  0  0  0
    5.6878  -46.9886  -20.8678 C   0  0  0  0  0  0  0  0  0  0  0  0
    5.3013  -46.0332  -21.9502 C   0  0  0  0  0  0  0  0  0  0  0  0
    4.9599  -46.6682  -23.1932 N   0  0  0  0  0  0  0  0  0  0  0  0
    5.6385  -46.9544  -23.9224 H   0  0  0  0  0  0  0  0  0  0  0  0
    2.7449  -45.8798  -23.9391 N   0  0  0  0  0  0  0  0  0  0  0  0
    3.5696  -46.9268  -23.4519 C   0  0  0  0  0  0  0  0  0  0  0  0
    3.0696  -48.0796  -23.2483 N   0  0  0  0  0  0  0  0  0  0  0  0
    2.5873  -44.9955  -23.4058 H   0  0  0  0  0  0  0  0  0  0  0  0
    2.3036  -46.0557  -24.8752 H   0  0  0  0  0  0  0  0  0  0  0  0
    2.0531  -48.2445  -23.4426 H   0  0  0  0  0  0  0  0  0  0  0  0
 49 50  1  0  0  0
 50 51  2  0  0  0
 50 47  1  0  0  0
 47 46  1  0  0  0
 46 45  1  0  0  0
 45 44  1  0  0  0
 44 32  1  0  0  0
 32  1  1  0  0  0
  1  2  1  0  0  0
  2  3  2  0  0  0
  2  5  1  0  0  0
  5  6  1  0  0  0
  6  7  1  0  0  0
  7  8  1  0  0  0
  8  9  1  0  0  0
  9 10  1  0  0  0
 10 11  2  0  0  0
 10 12  1  0  0  0
 12 25  1  0  0  0
 25 26  1  0  0  0
 26 27  2  0  0  0
 27 28  1  0  0  0
 28 29  2  0  0  0
 29 30  1  0  0  0
 30 31  2  0  0  0
 12 13  1  0  0  0
 13 15  1  0  0  0
 15 16  2  0  0  0
 15 17  2  0  0  0
 15 18  1  0  0  0
 18 19  1  0  0  0
 19 20  2  0  0  0
 20 21  1  0  0  0
 21 22  2  0  0  0
 22 23  1  0  0  0
 23 24  2  0  0  0
 32 33  1  0  0  0
 33 34  2  0  0  0
 33 35  1  0  0  0
 35 36  2  0  0  0
 36 37  1  0  0  0
 37 38  2  0  0  0
 38 39  1  0  0  0
 39 40  2  0  0  0
 40 41  1  0  0  0
 41 42  2  0  0  0
 42 43  1  0  0  0
  9  5  1  0  0  0
 31 26  1  0  0  0
 24 19  1  0  0  0
 43 35  1  0  0  0
 42 37  1  0  0  0
 49 52  1  0  0  0
 49 53  1  0  0  0
 51 54  1  0  0  0
 47 48  1  0  0  0
  1  4  1  0  0  0
 13 14  1  0  0  0
M  END
> <minimizedAffinity>
-8.14858

> <CNNscore>
0.2128913105

> <CNNaffinity>
7.4065375328

> <CNN_VS>
1.5767874718

> <CNNaffinity_variance>
0.7161461711

$$$$
[H]N=C(N([H])[H])N([H])C([H])([H])C([H])([H])C([H])([H])[C@@]([H])(C(=O)c1nc2c([H])c([H])c([H])c([H])c2s1)N([H])C(=O)[C@@]1([H])N(C(=O)[C@]([H])(N([H])S(=O)(=O)C([H])([H])c2c([H])c([H])c([H])c([H])c2[H])C([H])([H])c2c([H])c([H])c([H])c([H])c2[H])C([H])([H])C([H])([H])C1([H])[H]


 54 58  0  0  0  0  0  0  0  0999 V2000
    3.1773  -50.5538  -21.2035 N   0  0  0  0  0  0  0  0  0  0  0  0
    4.3233  -49.7266  -21.5032 C   0  0  0  0  0  0  0  0  0  0  0  0
    4.3748  -48.6210  -20.9599 O   0  0  0  0  0  0  0  0  0  0  0  0
    3.0290  -51.4978  -21.6107 H   0  0  0  0  0  0  0  0  0  0  0  0
    5.3061  -50.2497  -22.3998 C   0  0  0  0  0  0  0  0  0  0  0  0
    6.6359  -49.4752  -22.4307 C   0  0  0  0  0  0  0  0  0  0  0  0
    7.3267  -50.0212  -23.6764 C   0  0  0  0  0  0  0  0  0  0  0  0
    6.2304  -50.8558  -24.3544 C   0  0  0  0  0  0  0  0  0  0  0  0
    5.0259  -50.1872  -23.8495 N   0  0  0  0  0  0  0  0  0  0  0  0
    3.9284  -49.6117  -24.4969 C   0  0  0  0  0  0  0  0  0  0  0  0
    3.0387  -49.0714  -23.7534 O   0  0  0  0  0  0  0  0  0  0  0  0
    3.6370  -49.5245  -25.9465 C   0  0  0  0  0  0  0  0  0  0  0  0
    3.5191  -50.8452  -26.5135 N   0  0  0  0  0  0  0  0  0  0  0  0
    4.0358  -51.0156  -27.3360 H   0  0  0  0  0  0  0  0  0  0  0  0
    2.3598  -51.8837  -25.9119 S   0  0  0  0  0  0  0  0  0  0  0  0
    1.1064  -51.0814  -25.5623 O   0  0  0  0  0  0  0  0  0  0  0  0
    2.7649  -52.6972  -24.7225 O   0  0  0  0  0  0  0  0  0  0  0  0
    1.7820  -53.0312  -27.1812 C   0  0  0  0  0  0  0  0  0  0  0  0
    0.3616  -52.8150  -27.5201 C   0  0  0  0  0  0  0  0  0  0  0  0
    0.0686  -52.7612  -28.8851 C   0  0  0  0  0  0  0  0  0  0  0  0
   -1.2266  -52.6121  -29.3051 C   0  0  0  0  0  0  0  0  0  0  0  0
   -2.2696  -52.5108  -28.4194 C   0  0  0  0  0  0  0  0  0  0  0  0
   -1.9408  -52.5668  -27.0738 C   0  0  0  0  0  0  0  0  0  0  0  0
   -0.6532  -52.7155  -26.6185 C   0  0  0  0  0  0  0  0  0  0  0  0
    4.5015  -48.6334  -26.7517 C   0  0  0  0  0  0  0  0  0  0  0  0
    3.7056  -47.6008  -27.4944 C   0  0  0  0  0  0  0  0  0  0  0  0
    3.9087  -47.4020  -28.8297 C   0  0  0  0  0  0  0  0  0  0  0  0
    3.1856  -46.4635  -29.5591 C   0  0  0  0  0  0  0  0  0  0  0  0
    2.2391  -45.7172  -28.9091 C   0  0  0  0  0  0  0  0  0  0  0  0
    2.0136  -45.9031  -27.5419 C   0  0  0  0  0  0  0  0  0  0  0  0
    2.7515  -46.8438  -26.8533 C   0  0  0  0  0  0  0  0  0  0  0  0
    2.1099  -50.1113  -20.2986 C   0  0  0  0  0  0  0  0  0  0  0  0
    2.0513  -50.9919  -19.1060 C   0  0  0  0  0  0  0  0  0  0  0  0
    3.0337  -51.7307  -18.8650 O   0  0  0  0  0  0  0  0  0  0  0  0
    0.9003  -51.0409  -18.1932 C   0  0  0  0  0  0  0  0  0  0  0  0
   -0.0846  -51.9180  -18.1412 N   0  0  0  0  0  0  0  0  0  0  0  0
   -1.0260  -51.8067  -17.2557 C   0  0  0  0  0  0  0  0  0  0  0  0
   -2.1220  -52.6906  -17.1127 C   0  0  0  0  0  0  0  0  0  0  0  0
   -3.0525  -52.4664  -16.1348 C   0  0  0  0  0  0  0  0  0  0  0  0
   -2.9909  -51.4158  -15.2639 C   0  0  0  0  0  0  0  0  0  0  0  0
   -1.9323  -50.5459  -15.3873 C   0  0  0  0  0  0  0  0  0  0  0  0
   -0.9623  -50.7549  -16.3848 C   0  0  0  0  0  0  0  0  0  0  0  0
    0.4826  -49.9778  -16.9099 S   0  0  0  0  0  0  0  0  0  0  0  0
    0.7865  -50.1587  -21.0745 C   0  0  0  0  0  0  0  0  0  0  0  0
    0.8813  -51.2287  -22.1565 C   0  0  0  0  0  0  0  0  0  0  0  0
   -0.3619  -52.0515  -22.2619 C   0  0  0  0  0  0  0  0  0  0  0  0
   -0.1402  -53.4636  -22.1148 N   0  0  0  0  0  0  0  0  0  0  0  0
    0.2515  -54.0848  -22.8462 H   0  0  0  0  0  0  0  0  0  0  0  0
    0.5305  -54.3456  -19.9111 N   0  0  0  0  0  0  0  0  0  0  0  0
   -0.4894  -54.0677  -20.8578 C   0  0  0  0  0  0  0  0  0  0  0  0
   -1.6984  -54.3572  -20.5846 N   0  0  0  0  0  0  0  0  0  0  0  0
    1.3264  -54.9901  -20.1170 H   0  0  0  0  0  0  0  0  0  0  0  0
    0.4297  -53.8571  -18.9874 H   0  0  0  0  0  0  0  0  0  0  0  0
   -1.9292  -54.7984  -19.6624 H   0  0  0  0  0  0  0  0  0  0  0  0
 49 50  1  0  0  0
 50 51  2  0  0  0
 50 47  1  0  0  0
 47 46  1  0  0  0
 46 45  1  0  0  0
 45 44  1  0  0  0
 44 32  1  0  0  0
 32  1  1  0  0  0
  1  2  1  0  0  0
  2  3  2  0  0  0
  2  5  1  0  0  0
  5  6  1  0  0  0
  6  7  1  0  0  0
  7  8  1  0  0  0
  8  9  1  0  0  0
  9 10  1  0  0  0
 10 11  2  0  0  0
 10 12  1  0  0  0
 12 25  1  0  0  0
 25 26  1  0  0  0
 26 27  2  0  0  0
 27 28  1  0  0  0
 28 29  2  0  0  0
 29 30  1  0  0  0
 30 31  2  0  0  0
 12 13  1  0  0  0
 13 15  1  0  0  0
 15 16  2  0  0  0
 15 17  2  0  0  0
 15 18  1  0  0  0
 18 19  1  0  0  0
 19 20  2  0  0  0
 20 21  1  0  0  0
 21 22  2  0  0  0
 22 23  1  0  0  0
 23 24  2  0  0  0
 32 33  1  0  0  0
 33 34  2  0  0  0
 33 35  1  0  0  0
 35 36  2  0  0  0
 36 37  1  0  0  0
 37 38  2  0  0  0
 38 39  1  0  0  0
 39 40  2  0  0  0
 40 41  1  0  0  0
 41 42  2  0  0  0
 42 43  1  0  0  0
  9  5  1  0  0  0
 31 26  1  0  0  0
 24 19  1  0  0  0
 43 35  1  0  0  0
 42 37  1  0  0  0
 49 52  1  0  0  0
 49 53  1  0  0  0
 51 54  1  0  0  0
 47 48  1  0  0  0
  1  4  1  0  0  0
 13 14  1  0  0  0
M  END
> <minimizedAffinity>
-8.98114

> <CNNscore>
0.1980984360

> <CNNaffinity>
7.5555772781

> <CNN_VS>
1.4967480898

> <CNNaffinity_variance>
0.2089799345

$$$$
[H]N=C(N([H])[H])N([H])C([H])([H])C([H])([H])C([H])([H])[C@@]([H])(C(=O)c1nc2c([H])c([H])c([H])c([H])c2s1)N([H])C(=O)[C@@]1([H])N(C(=O)[C@]([H])(N([H])S(=O)(=O)C([H])([H])c2c([H])c([H])c([H])c([H])c2[H])C([H])([H])c2c([H])c([H])c([H])c([H])c2[H])C([H])([H])C([H])([H])C1([H])[H]


 54 58  0  0  0  0  0  0  0  0999 V2000
    2.0401  -51.3059  -22.0556 N   0  0  0  0  0  0  0  0  0  0  0  0
    3.4226  -51.3849  -21.6434 C   0  0  0  0  0  0  0  0  0  0  0  0
    3.6429  -51.7422  -20.4841 O   0  0  0  0  0  0  0  0  0  0  0  0
    1.7407  -51.0098  -23.0051 H   0  0  0  0  0  0  0  0  0  0  0  0
    4.4247  -51.0472  -22.6052 C   0  0  0  0  0  0  0  0  0  0  0  0
    5.8552  -51.4755  -22.2316 C   0  0  0  0  0  0  0  0  0  0  0  0
    6.7189  -50.7047  -23.2251 C   0  0  0  0  0  0  0  0  0  0  0  0
    5.7243  -49.7411  -23.8886 C   0  0  0  0  0  0  0  0  0  0  0  0
    4.7165  -49.6159  -22.8296 N   0  0  0  0  0  0  0  0  0  0  0  0
    4.1809  -48.5071  -22.1674 C   0  0  0  0  0  0  0  0  0  0  0  0
    3.3202  -48.7433  -21.2510 O   0  0  0  0  0  0  0  0  0  0  0  0
    4.4712  -47.0683  -22.3658 C   0  0  0  0  0  0  0  0  0  0  0  0
    3.7874  -46.5767  -23.5365 N   0  0  0  0  0  0  0  0  0  0  0  0
    3.6959  -47.2096  -24.2872 H   0  0  0  0  0  0  0  0  0  0  0  0
    3.4339  -44.9495  -23.6437 S   0  0  0  0  0  0  0  0  0  0  0  0
    3.6563  -44.3010  -22.2774 O   0  0  0  0  0  0  0  0  0  0  0  0
    2.0581  -44.6099  -24.1260 O   0  0  0  0  0  0  0  0  0  0  0  0
    4.6095  -44.0898  -24.7117 C   0  0  0  0  0  0  0  0  0  0  0  0
    4.7605  -44.7556  -26.0205 C   0  0  0  0  0  0  0  0  0  0  0  0
    3.8789  -44.3321  -27.0181 C   0  0  0  0  0  0  0  0  0  0  0  0
    3.9682  -44.8533  -28.2815 C   0  0  0  0  0  0  0  0  0  0  0  0
    4.9091  -45.7954  -28.6131 C   0  0  0  0  0  0  0  0  0  0  0  0
    5.7654  -46.1924  -27.5977 C   0  0  0  0  0  0  0  0  0  0  0  0
    5.7033  -45.6904  -26.3204 C   0  0  0  0  0  0  0  0  0  0  0  0
    5.8925  -46.6588  -22.3216 C   0  0  0  0  0  0  0  0  0  0  0  0
    6.5192  -46.9509  -20.9900 C   0  0  0  0  0  0  0  0  0  0  0  0
    7.4723  -47.9215  -20.8739 C   0  0  0  0  0  0  0  0  0  0  0  0
    8.0870  -48.2173  -19.6614 C   0  0  0  0  0  0  0  0  0  0  0  0
    7.7188  -47.5066  -18.5502 C   0  0  0  0  0  0  0  0  0  0  0  0
    6.7448  -46.5081  -18.6447 C   0  0  0  0  0  0  0  0  0  0  0  0
    6.1582  -46.2444  -19.8654 C   0  0  0  0  0  0  0  0  0  0  0  0
    0.9343  -51.6281  -21.1460 C   0  0  0  0  0  0  0  0  0  0  0  0
   -0.1741  -52.2705  -21.8942 C   0  0  0  0  0  0  0  0  0  0  0  0
   -1.2656  -52.4445  -21.3046 O   0  0  0  0  0  0  0  0  0  0  0  0
   -0.0572  -52.7122  -23.2912 C   0  0  0  0  0  0  0  0  0  0  0  0
    0.3884  -52.0469  -24.3404 N   0  0  0  0  0  0  0  0  0  0  0  0
    0.4245  -52.6027  -25.5120 C   0  0  0  0  0  0  0  0  0  0  0  0
    0.8844  -51.9813  -26.6974 C   0  0  0  0  0  0  0  0  0  0  0  0
    0.8743  -52.6756  -27.8765 C   0  0  0  0  0  0  0  0  0  0  0  0
    0.4366  -53.9650  -27.9868 C   0  0  0  0  0  0  0  0  0  0  0  0
   -0.0140  -54.5859  -26.8450 C   0  0  0  0  0  0  0  0  0  0  0  0
   -0.0135  -53.8931  -25.6203 C   0  0  0  0  0  0  0  0  0  0  0  0
   -0.4582  -54.2293  -23.9904 S   0  0  0  0  0  0  0  0  0  0  0  0
    0.4642  -50.3197  -20.4959 C   0  0  0  0  0  0  0  0  0  0  0  0
    0.7464  -50.3776  -18.9987 C   0  0  0  0  0  0  0  0  0  0  0  0
    1.4248  -49.1456  -18.4933 C   0  0  0  0  0  0  0  0  0  0  0  0
    2.3341  -49.3852  -17.4067 N   0  0  0  0  0  0  0  0  0  0  0  0
    2.1819  -49.0878  -16.4256 H   0  0  0  0  0  0  0  0  0  0  0  0
    4.5675  -49.4449  -18.4517 N   0  0  0  0  0  0  0  0  0  0  0  0
    3.5528  -50.0899  -17.6980 C   0  0  0  0  0  0  0  0  0  0  0  0
    3.7322  -51.2826  -17.2911 N   0  0  0  0  0  0  0  0  0  0  0  0
    4.4110  -49.1035  -19.4264 H   0  0  0  0  0  0  0  0  0  0  0  0
    5.4886  -49.3340  -17.9604 H   0  0  0  0  0  0  0  0  0  0  0  0
    4.6282  -51.7771  -17.5168 H   0  0  0  0  0  0  0  0  0  0  0  0
 49 50  1  0  0  0
 50 51  2  0  0  0
 50 47  1  0  0  0
 47 46  1  0  0  0
 46 45  1  0  0  0
 45 44  1  0  0  0
 44 32  1  0  0  0
 32  1  1  0  0  0
  1  2  1  0  0  0
  2  3  2  0  0  0
  2  5  1  0  0  0
  5  6  1  0  0  0
  6  7  1  0  0  0
  7  8  1  0  0  0
  8  9  1  0  0  0
  9 10  1  0  0  0
 10 11  2  0  0  0
 10 12  1  0  0  0
 12 25  1  0  0  0
 25 26  1  0  0  0
 26 27  2  0  0  0
 27 28  1  0  0  0
 28 29  2  0  0  0
 29 30  1  0  0  0
 30 31  2  0  0  0
 12 13  1  0  0  0
 13 15  1  0  0  0
 15 16  2  0  0  0
 15 17  2  0  0  0
 15 18  1  0  0  0
 18 19  1  0  0  0
 19 20  2  0  0  0
 20 21  1  0  0  0
 21 22  2  0  0  0
 22 23  1  0  0  0
 23 24  2  0  0  0
 32 33  1  0  0  0
 33 34  2  0  0  0
 33 35  1  0  0  0
 35 36  2  0  0  0
 36 37  1  0  0  0
 37 38  2  0  0  0
 38 39  1  0  0  0
 39 40  2  0  0  0
 40 41  1  0  0  0
 41 42  2  0  0  0
 42 43  1  0  0  0
  9  5  1  0  0  0
 31 26  1  0  0  0
 24 19  1  0  0  0
 43 35  1  0  0  0
 42 37  1  0  0  0
 49 52  1  0  0  0
 49 53  1  0  0  0
 51 54  1  0  0  0
 47 48  1  0  0  0
  1  4  1  0  0  0
 13 14  1  0  0  0
M  END
> <minimizedAffinity>
-6.58826

> <CNNscore>
0.1749765724

> <CNNaffinity>
7.1472916603

> <CNN_VS>
1.2506085634

> <CNNaffinity_variance>
0.2082305849

$$$$
[H]N=C(N([H])[H])N([H])C([H])([H])C([H])([H])C([H])([H])[C@@]([H])(C(=O)c1nc2c([H])c([H])c([H])c([H])c2s1)N([H])C(=O)[C@@]1([H])N(C(=O)[C@]([H])(N([H])S(=O)(=O)C([H])([H])c2c([H])c([H])c([H])c([H])c2[H])C([H])([H])c2c([H])c([H])c([H])c([H])c2[H])C([H])([H])C([H])([H])C1([H])[H]


 54 58  0  0  0  0  0  0  0  0999 V2000
    0.3774  -50.5486  -18.6323 N   0  0  0  0  0  0  0  0  0  0  0  0
    0.4843  -51.8694  -19.2080 C   0  0  0  0  0  0  0  0  0  0  0  0
    1.1679  -52.6940  -18.5974 O   0  0  0  0  0  0  0  0  0  0  0  0
   -0.1654  -49.7762  -19.0655 H   0  0  0  0  0  0  0  0  0  0  0  0
   -0.2080  -52.1199  -20.4333 C   0  0  0  0  0  0  0  0  0  0  0  0
   -0.5109  -53.6019  -20.7178 C   0  0  0  0  0  0  0  0  0  0  0  0
   -0.9162  -53.5973  -22.1884 C   0  0  0  0  0  0  0  0  0  0  0  0
   -0.5682  -52.1743  -22.6490 C   0  0  0  0  0  0  0  0  0  0  0  0
    0.4971  -51.8323  -21.6999 N   0  0  0  0  0  0  0  0  0  0  0  0
    1.8132  -51.3961  -21.8804 C   0  0  0  0  0  0  0  0  0  0  0  0
    2.5088  -51.2097  -20.8231 O   0  0  0  0  0  0  0  0  0  0  0  0
    2.5425  -51.1179  -23.1391 C   0  0  0  0  0  0  0  0  0  0  0  0
    2.7731  -52.3425  -23.8649 N   0  0  0  0  0  0  0  0  0  0  0  0
    3.3471  -53.0114  -23.4225 H   0  0  0  0  0  0  0  0  0  0  0  0
    2.2851  -52.4437  -25.4573 S   0  0  0  0  0  0  0  0  0  0  0  0
    3.4134  -53.0585  -26.2854 O   0  0  0  0  0  0  0  0  0  0  0  0
    1.8592  -51.1573  -26.0935 O   0  0  0  0  0  0  0  0  0  0  0  0
    0.9299  -53.6208  -25.6567 C   0  0  0  0  0  0  0  0  0  0  0  0
   -0.0447  -53.1785  -26.6733 C   0  0  0  0  0  0  0  0  0  0  0  0
    0.3128  -53.4280  -28.0006 C   0  0  0  0  0  0  0  0  0  0  0  0
   -0.5444  -53.0996  -29.0171 C   0  0  0  0  0  0  0  0  0  0  0  0
   -1.7661  -52.5224  -28.7784 C   0  0  0  0  0  0  0  0  0  0  0  0
   -2.0860  -52.2885  -27.4499 C   0  0  0  0  0  0  0  0  0  0  0  0
   -1.2502  -52.6054  -26.4067 C   0  0  0  0  0  0  0  0  0  0  0  0
    3.7561  -50.2772  -23.0389 C   0  0  0  0  0  0  0  0  0  0  0  0
    3.4899  -48.8572  -23.4442 C   0  0  0  0  0  0  0  0  0  0  0  0
    3.7352  -48.4471  -24.7230 C   0  0  0  0  0  0  0  0  0  0  0  0
    3.4925  -47.1435  -25.1442 C   0  0  0  0  0  0  0  0  0  0  0  0
    2.9900  -46.2463  -24.2398 C   0  0  0  0  0  0  0  0  0  0  0  0
    2.7310  -46.6433  -22.9245 C   0  0  0  0  0  0  0  0  0  0  0  0
    2.9852  -47.9453  -22.5453 C   0  0  0  0  0  0  0  0  0  0  0  0
    1.0505  -50.1858  -17.3795 C   0  0  0  0  0  0  0  0  0  0  0  0
    0.0747  -49.6104  -16.4215 C   0  0  0  0  0  0  0  0  0  0  0  0
    0.2799  -48.4529  -15.9887 O   0  0  0  0  0  0  0  0  0  0  0  0
   -1.1201  -50.3284  -15.9553 C   0  0  0  0  0  0  0  0  0  0  0  0
   -1.7750  -51.3182  -16.5326 N   0  0  0  0  0  0  0  0  0  0  0  0
   -2.8199  -51.8404  -15.9684 C   0  0  0  0  0  0  0  0  0  0  0  0
   -3.5899  -52.9027  -16.4990 C   0  0  0  0  0  0  0  0  0  0  0  0
   -4.6734  -53.3690  -15.8054 C   0  0  0  0  0  0  0  0  0  0  0  0
   -5.0712  -52.8615  -14.6010 C   0  0  0  0  0  0  0  0  0  0  0  0
   -4.3347  -51.8286  -14.0691 C   0  0  0  0  0  0  0  0  0  0  0  0
   -3.2161  -51.3316  -14.7631 C   0  0  0  0  0  0  0  0  0  0  0  0
   -2.0305  -50.1068  -14.5154 S   0  0  0  0  0  0  0  0  0  0  0  0
    2.1487  -49.1672  -17.7140 C   0  0  0  0  0  0  0  0  0  0  0  0
    3.4961  -49.7212  -17.2643 C   0  0  0  0  0  0  0  0  0  0  0  0
    3.3805  -51.0693  -16.6296 C   0  0  0  0  0  0  0  0  0  0  0  0
    4.0576  -51.1787  -15.3669 N   0  0  0  0  0  0  0  0  0  0  0  0
    4.7568  -50.5046  -15.0052 H   0  0  0  0  0  0  0  0  0  0  0  0
    2.4894  -52.3699  -13.8816 N   0  0  0  0  0  0  0  0  0  0  0  0
    3.7464  -52.3110  -14.5375 C   0  0  0  0  0  0  0  0  0  0  0  0
    4.5826  -53.2583  -14.3830 N   0  0  0  0  0  0  0  0  0  0  0  0
    2.1832  -51.6491  -13.1902 H   0  0  0  0  0  0  0  0  0  0  0  0
    1.8869  -53.1897  -14.1403 H   0  0  0  0  0  0  0  0  0  0  0  0
    4.3345  -54.0731  -13.7724 H   0  0  0  0  0  0  0  0  0  0  0  0
 49 50  1  0  0  0
 50 51  2  0  0  0
 50 47  1  0  0  0
 47 46  1  0  0  0
 46 45  1  0  0  0
 45 44  1  0  0  0
 44 32  1  0  0  0
 32  1  1  0  0  0
  1  2  1  0  0  0
  2  3  2  0  0  0
  2  5  1  0  0  0
  5  6  1  0  0  0
  6  7  1  0  0  0
  7  8  1  0  0  0
  8  9  1  0  0  0
  9 10  1  0  0  0
 10 11  2  0  0  0
 10 12  1  0  0  0
 12 25  1  0  0  0
 25 26  1  0  0  0
 26 27  2  0  0  0
 27 28  1  0  0  0
 28 29  2  0  0  0
 29 30  1  0  0  0
 30 31  2  0  0  0
 12 13  1  0  0  0
 13 15  1  0  0  0
 15 16  2  0  0  0
 15 17  2  0  0  0
 15 18  1  0  0  0
 18 19  1  0  0  0
 19 20  2  0  0  0
 20 21  1  0  0  0
 21 22  2  0  0  0
 22 23  1  0  0  0
 23 24  2  0  0  0
 32 33  1  0  0  0
 33 34  2  0  0  0
 33 35  1  0  0  0
 35 36  2  0  0  0
 36 37  1  0  0  0
 37 38  2  0  0  0
 38 39  1  0  0  0
 39 40  2  0  0  0
 40 41  1  0  0  0
 41 42  2  0  0  0
 42 43  1  0  0  0
  9  5  1  0  0  0
 31 26  1  0  0  0
 24 19  1  0  0  0
 43 35  1  0  0  0
 42 37  1  0  0  0
 49 52  1  0  0  0
 49 53  1  0  0  0
 51 54  1  0  0  0
 47 48  1  0  0  0
  1  4  1  0  0  0
 13 14  1  0  0  0
M  END
> <minimizedAffinity>
-8.34275

> <CNNscore>
0.1680298895

> <CNNaffinity>
7.4204130173

> <CNN_VS>
1.2468512058

> <CNNaffinity_variance>
0.3117041290

$$$$
[H]N=C(N([H])[H])N([H])C([H])([H])C([H])([H])C([H])([H])[C@@]([H])(C(=O)c1nc2c([H])c([H])c([H])c([H])c2s1)N([H])C(=O)[C@@]1([H])N(C(=O)[C@]([H])(N([H])S(=O)(=O)C([H])([H])c2c([H])c([H])c([H])c([H])c2[H])C([H])([H])c2c([H])c([H])c([H])c([H])c2[H])C([H])([H])C([H])([H])C1([H])[H]


 54 58  0  0  0  0  0  0  0  0999 V2000
    2.5595  -51.4483  -22.9429 N   0  0  0  0  0  0  0  0  0  0  0  0
    3.9655  -51.4291  -22.6108 C   0  0  0  0  0  0  0  0  0  0  0  0
    4.2885  -51.8828  -21.5108 O   0  0  0  0  0  0  0  0  0  0  0  0
    2.1764  -51.0854  -23.8375 H   0  0  0  0  0  0  0  0  0  0  0  0
    4.8708  -50.8908  -23.5772 C   0  0  0  0  0  0  0  0  0  0  0  0
    6.3008  -51.4569  -23.5147 C   0  0  0  0  0  0  0  0  0  0  0  0
    7.0962  -50.4874  -24.3833 C   0  0  0  0  0  0  0  0  0  0  0  0
    6.1025  -49.3462  -24.6444 C   0  0  0  0  0  0  0  0  0  0  0  0
    5.2358  -49.4630  -23.4663 N   0  0  0  0  0  0  0  0  0  0  0  0
    4.8608  -48.5459  -22.4799 C   0  0  0  0  0  0  0  0  0  0  0  0
    4.0975  -48.9798  -21.5496 O   0  0  0  0  0  0  0  0  0  0  0  0
    5.2277  -47.1176  -22.3420 C   0  0  0  0  0  0  0  0  0  0  0  0
    4.7728  -46.3711  -23.4890 N   0  0  0  0  0  0  0  0  0  0  0  0
    5.4054  -46.2981  -24.2420 H   0  0  0  0  0  0  0  0  0  0  0  0
    3.3587  -45.4928  -23.3742 S   0  0  0  0  0  0  0  0  0  0  0  0
    3.5678  -44.3393  -22.3931 O   0  0  0  0  0  0  0  0  0  0  0  0
    2.1416  -46.2636  -22.9676 O   0  0  0  0  0  0  0  0  0  0  0  0
    2.9755  -44.6565  -24.9284 C   0  0  0  0  0  0  0  0  0  0  0  0
    3.1672  -45.5392  -26.0959 C   0  0  0  0  0  0  0  0  0  0  0  0
    3.4158  -46.8823  -25.8023 C   0  0  0  0  0  0  0  0  0  0  0  0
    3.5603  -47.7924  -26.8156 C   0  0  0  0  0  0  0  0  0  0  0  0
    3.4692  -47.4295  -28.1357 C   0  0  0  0  0  0  0  0  0  0  0  0
    3.2233  -46.0888  -28.3886 C   0  0  0  0  0  0  0  0  0  0  0  0
    3.0733  -45.1501  -27.3969 C   0  0  0  0  0  0  0  0  0  0  0  0
    6.6326  -46.8176  -21.9870 C   0  0  0  0  0  0  0  0  0  0  0  0
    6.8276  -46.7211  -20.5024 C   0  0  0  0  0  0  0  0  0  0  0  0
    5.9435  -46.0195  -19.7344 C   0  0  0  0  0  0  0  0  0  0  0  0
    6.0801  -45.9136  -18.3539 C   0  0  0  0  0  0  0  0  0  0  0  0
    7.1399  -46.5373  -17.7513 C   0  0  0  0  0  0  0  0  0  0  0  0
    8.0584  -47.2615  -18.5173 C   0  0  0  0  0  0  0  0  0  0  0  0
    7.8885  -47.3429  -19.8841 C   0  0  0  0  0  0  0  0  0  0  0  0
    1.5465  -51.9763  -22.0214 C   0  0  0  0  0  0  0  0  0  0  0  0
    0.6812  -52.9587  -22.7192 C   0  0  0  0  0  0  0  0  0  0  0  0
    0.1658  -53.8799  -22.0449 O   0  0  0  0  0  0  0  0  0  0  0  0
    0.3974  -52.9057  -24.1604 C   0  0  0  0  0  0  0  0  0  0  0  0
    1.1985  -53.1641  -25.1771 N   0  0  0  0  0  0  0  0  0  0  0  0
    0.7721  -53.0687  -26.3985 C   0  0  0  0  0  0  0  0  0  0  0  0
    1.5450  -53.3249  -27.5560 C   0  0  0  0  0  0  0  0  0  0  0  0
    0.9788  -53.1905  -28.7945 C   0  0  0  0  0  0  0  0  0  0  0  0
   -0.3196  -52.8143  -28.9916 C   0  0  0  0  0  0  0  0  0  0  0  0
   -1.0867  -52.5612  -27.8781 C   0  0  0  0  0  0  0  0  0  0  0  0
   -0.5275  -52.6926  -26.5936 C   0  0  0  0  0  0  0  0  0  0  0  0
   -1.0628  -52.4970  -24.9680 S   0  0  0  0  0  0  0  0  0  0  0  0
    0.7175  -50.7919  -21.5059 C   0  0  0  0  0  0  0  0  0  0  0  0
    0.3725  -51.0258  -20.0394 C   0  0  0  0  0  0  0  0  0  0  0  0
    1.5861  -51.1755  -19.1800 C   0  0  0  0  0  0  0  0  0  0  0  0
    2.5007  -50.0705  -19.2659 N   0  0  0  0  0  0  0  0  0  0  0  0
    3.4411  -50.1075  -19.7000 H   0  0  0  0  0  0  0  0  0  0  0  0
    2.4602  -47.6056  -19.3483 N   0  0  0  0  0  0  0  0  0  0  0  0
    2.0849  -48.8136  -18.7053 C   0  0  0  0  0  0  0  0  0  0  0  0
    1.3877  -48.7706  -17.6412 N   0  0  0  0  0  0  0  0  0  0  0  0
    3.4584  -47.3307  -19.4872 H   0  0  0  0  0  0  0  0  0  0  0  0
    1.6632  -47.0060  -19.6759 H   0  0  0  0  0  0  0  0  0  0  0  0
    1.0973  -47.8427  -17.2499 H   0  0  0  0  0  0  0  0  0  0  0  0
 49 50  1  0  0  0
 50 51  2  0  0  0
 50 47  1  0  0  0
 47 46  1  0  0  0
 46 45  1  0  0  0
 45 44  1  0  0  0
 44 32  1  0  0  0
 32  1  1  0  0  0
  1  2  1  0  0  0
  2  3  2  0  0  0
  2  5  1  0  0  0
  5  6  1  0  0  0
  6  7  1  0  0  0
  7  8  1  0  0  0
  8  9  1  0  0  0
  9 10  1  0  0  0
 10 11  2  0  0  0
 10 12  1  0  0  0
 12 25  1  0  0  0
 25 26  1  0  0  0
 26 27  2  0  0  0
 27 28  1  0  0  0
 28 29  2  0  0  0
 29 30  1  0  0  0
 30 31  2  0  0  0
 12 13  1  0  0  0
 13 15  1  0  0  0
 15 16  2  0  0  0
 15 17  2  0  0  0
 15 18  1  0  0  0
 18 19  1  0  0  0
 19 20  2  0  0  0
 20 21  1  0  0  0
 21 22  2  0  0  0
 22 23  1  0  0  0
 23 24  2  0  0  0
 32 33  1  0  0  0
 33 34  2  0  0  0
 33 35  1  0  0  0
 35 36  2  0  0  0
 36 37  1  0  0  0
 37 38  2  0  0  0
 38 39  1  0  0  0
 39 40  2  0  0  0
 40 41  1  0  0  0
 41 42  2  0  0  0
 42 43  1  0  0  0
  9  5  1  0  0  0
 31 26  1  0  0  0
 24 19  1  0  0  0
 43 35  1  0  0  0
 42 37  1  0  0  0
 49 52  1  0  0  0
 49 53  1  0  0  0
 51 54  1  0  0  0
 47 48  1  0  0  0
  1  4  1  0  0  0
 13 14  1  0  0  0
M  END
> <minimizedAffinity>
-6.87400

> <CNNscore>
0.1523354799

> <CNNaffinity>
7.0643377304

> <CNN_VS>
1.0761492252

> <CNNaffinity_variance>
0.3222222328

$$$$
[H]N=C(N([H])[H])N([H])C([H])([H])C([H])([H])C([H])([H])[C@@]([H])(C(=O)c1nc2c([H])c([H])c([H])c([H])c2s1)N([H])C(=O)[C@@]1([H])N(C(=O)[C@]([H])(N([H])S(=O)(=O)C([H])([H])c2c([H])c([H])c([H])c([H])c2[H])C([H])([H])c2c([H])c([H])c([H])c([H])c2[H])C([H])([H])C([H])([H])C1([H])[H]


 54 58  0  0  0  0  0  0  0  0999 V2000
    1.4116  -52.3426  -22.9246 N   0  0  0  0  0  0  0  0  0  0  0  0
    2.6144  -52.0453  -22.1816 C   0  0  0  0  0  0  0  0  0  0  0  0
    2.6590  -52.4269  -21.0100 O   0  0  0  0  0  0  0  0  0  0  0  0
    1.2643  -52.0620  -23.9138 H   0  0  0  0  0  0  0  0  0  0  0  0
    3.6566  -51.3374  -22.8569 C   0  0  0  0  0  0  0  0  0  0  0  0
    5.0838  -51.6913  -22.4018 C   0  0  0  0  0  0  0  0  0  0  0  0
    5.9290  -50.5777  -23.0122 C   0  0  0  0  0  0  0  0  0  0  0  0
    4.8827  -49.5827  -23.5350 C   0  0  0  0  0  0  0  0  0  0  0  0
    3.7549  -49.8782  -22.6442 N   0  0  0  0  0  0  0  0  0  0  0  0
    2.9887  -49.0714  -21.7975 C   0  0  0  0  0  0  0  0  0  0  0  0
    2.0754  -49.6538  -21.1171 O   0  0  0  0  0  0  0  0  0  0  0  0
    3.0814  -47.6127  -21.5584 C   0  0  0  0  0  0  0  0  0  0  0  0
    2.7138  -47.3042  -20.1985 N   0  0  0  0  0  0  0  0  0  0  0  0
    1.7914  -46.9855  -20.0566 H   0  0  0  0  0  0  0  0  0  0  0  0
    3.9028  -47.2608  -19.0286 S   0  0  0  0  0  0  0  0  0  0  0  0
    4.5534  -48.6405  -18.9290 O   0  0  0  0  0  0  0  0  0  0  0  0
    3.4622  -46.8303  -17.6643 O   0  0  0  0  0  0  0  0  0  0  0  0
    5.2700  -46.1876  -19.5195 C   0  0  0  0  0  0  0  0  0  0  0  0
    6.4164  -46.9544  -20.0458 C   0  0  0  0  0  0  0  0  0  0  0  0
    6.5654  -46.9397  -21.4348 C   0  0  0  0  0  0  0  0  0  0  0  0
    7.6252  -47.5806  -22.0196 C   0  0  0  0  0  0  0  0  0  0  0  0
    8.5660  -48.2513  -21.2795 C   0  0  0  0  0  0  0  0  0  0  0  0
    8.3848  -48.2456  -19.9051 C   0  0  0  0  0  0  0  0  0  0  0  0
    7.3339  -47.6132  -19.2863 C   0  0  0  0  0  0  0  0  0  0  0  0
    2.4189  -46.7285  -22.5427 C   0  0  0  0  0  0  0  0  0  0  0  0
    3.4120  -45.9675  -23.3709 C   0  0  0  0  0  0  0  0  0  0  0  0
    3.6855  -46.3565  -24.6506 C   0  0  0  0  0  0  0  0  0  0  0  0
    4.5906  -45.6736  -25.4569 C   0  0  0  0  0  0  0  0  0  0  0  0
    5.2251  -44.5742  -24.9430 C   0  0  0  0  0  0  0  0  0  0  0  0
    4.9613  -44.1571  -23.6349 C   0  0  0  0  0  0  0  0  0  0  0  0
    4.0570  -44.8611  -22.8666 C   0  0  0  0  0  0  0  0  0  0  0  0
    0.2811  -53.0617  -22.3254 C   0  0  0  0  0  0  0  0  0  0  0  0
   -0.3626  -53.9372  -23.3354 C   0  0  0  0  0  0  0  0  0  0  0  0
   -0.9990  -54.9385  -22.9335 O   0  0  0  0  0  0  0  0  0  0  0  0
   -0.2925  -53.6893  -24.7825 C   0  0  0  0  0  0  0  0  0  0  0  0
   -1.2130  -53.1936  -25.5881 N   0  0  0  0  0  0  0  0  0  0  0  0
   -0.9732  -53.0388  -26.8535 C   0  0  0  0  0  0  0  0  0  0  0  0
   -1.8862  -52.5160  -27.8001 C   0  0  0  0  0  0  0  0  0  0  0  0
   -1.5133  -52.4001  -29.1116 C   0  0  0  0  0  0  0  0  0  0  0  0
   -0.2833  -52.7666  -29.5795 C   0  0  0  0  0  0  0  0  0  0  0  0
    0.6179  -53.2767  -28.6739 C   0  0  0  0  0  0  0  0  0  0  0  0
    0.2583  -53.4058  -27.3197 C   0  0  0  0  0  0  0  0  0  0  0  0
    1.0077  -53.9620  -25.8718 S   0  0  0  0  0  0  0  0  0  0  0  0
   -0.7133  -52.0181  -21.7984 C   0  0  0  0  0  0  0  0  0  0  0  0
   -1.2159  -52.4565  -20.4273 C   0  0  0  0  0  0  0  0  0  0  0  0
   -0.1371  -52.4582  -19.3930 C   0  0  0  0  0  0  0  0  0  0  0  0
    0.6122  -51.2336  -19.3307 N   0  0  0  0  0  0  0  0  0  0  0  0
    1.2512  -50.8876  -20.0697 H   0  0  0  0  0  0  0  0  0  0  0  0
   -0.2113  -50.9466  -17.0234 N   0  0  0  0  0  0  0  0  0  0  0  0
    0.4699  -50.4222  -18.1524 C   0  0  0  0  0  0  0  0  0  0  0  0
    0.9445  -49.2419  -18.1097 N   0  0  0  0  0  0  0  0  0  0  0  0
   -1.2107  -51.2482  -17.0615 H   0  0  0  0  0  0  0  0  0  0  0  0
    0.3603  -51.0109  -16.1452 H   0  0  0  0  0  0  0  0  0  0  0  0
    0.8275  -48.6683  -17.2404 H   0  0  0  0  0  0  0  0  0  0  0  0
 49 50  1  0  0  0
 50 51  2  0  0  0
 50 47  1  0  0  0
 47 46  1  0  0  0
 46 45  1  0  0  0
 45 44  1  0  0  0
 44 32  1  0  0  0
 32  1  1  0  0  0
  1  2  1  0  0  0
  2  3  2  0  0  0
  2  5  1  0  0  0
  5  6  1  0  0  0
  6  7  1  0  0  0
  7  8  1  0  0  0
  8  9  1  0  0  0
  9 10  1  0  0  0
 10 11  2  0  0  0
 10 12  1  0  0  0
 12 25  1  0  0  0
 25 26  1  0  0  0
 26 27  2  0  0  0
 27 28  1  0  0  0
 28 29  2  0  0  0
 29 30  1  0  0  0
 30 31  2  0  0  0
 12 13  1  0  0  0
 13 15  1  0  0  0
 15 16  2  0  0  0
 15 17  2  0  0  0
 15 18  1  0  0  0
 18 19  1  0  0  0
 19 20  2  0  0  0
 20 21  1  0  0  0
 21 22  2  0  0  0
 22 23  1  0  0  0
 23 24  2  0  0  0
 32 33  1  0  0  0
 33 34  2  0  0  0
 33 35  1  0  0  0
 35 36  2  0  0  0
 36 37  1  0  0  0
 37 38  2  0  0  0
 38 39  1  0  0  0
 39 40  2  0  0  0
 40 41  1  0  0  0
 41 42  2  0  0  0
 42 43  1  0  0  0
  9  5  1  0  0  0
 31 26  1  0  0  0
 24 19  1  0  0  0
 43 35  1  0  0  0
 42 37  1  0  0  0
 49 52  1  0  0  0
 49 53  1  0  0  0
 51 54  1  0  0  0
 47 48  1  0  0  0
  1  4  1  0  0  0
 13 14  1  0  0  0
M  END
> <minimizedAffinity>
-6.46654

> <CNNscore>
0.1195035949

> <CNNaffinity>
7.1903924942

> <CNN_VS>
0.8592777252

> <CNNaffinity_variance>
0.1319924295

$$$$
[H]c1c([H])c([H])c(C([H])([H])[C@@]2([H])C(=O)N([H])[C@]([H])(C([H])([H])c3c([H])c([H])c([H])c([H])c3[H])C(=O)N([H])[C@@]([H])(C([H])([H])C([H])([H])C([H])([H])C([H])([H])N([H])[H])C(=O)N([H])[C@@]([H])(C([H])(C([H])([H])[H])C([H])([H])[H])C(=O)N([H])[C@@]([H])(C([H])([H])c3c([H])n([H])c4c([H])c([H])c([H])c([H])c34)C(=O)N2[H])c([H])c1[H]


 60 64  0  0  0  0  0  0  0  0999 V2000
    4.0267  -48.6362  -21.1215 C   0  0  0  0  0  0  0  0  0  0  0  0
    3.8289  -47.9410  -22.3715 N   0  0  0  0  0  0  0  0  0  0  0  0
    3.6997  -48.5329  -23.6485 C   0  0  0  0  0  0  0  0  0  0  0  0
    2.9838  -47.8613  -24.4720 O   0  0  0  0  0  0  0  0  0  0  0  0
    4.2671  -49.7825  -24.1357 C   0  0  0  0  0  0  0  0  0  0  0  0
    3.4959  -50.9674  -23.9911 N   0  0  0  0  0  0  0  0  0  0  0  0
    2.3225  -51.3683  -24.6516 C   0  0  0  0  0  0  0  0  0  0  0  0
    2.3029  -52.4760  -25.3042 O   0  0  0  0  0  0  0  0  0  0  0  0
    1.0285  -50.6420  -24.6981 C   0  0  0  0  0  0  0  0  0  0  0  0
    0.0293  -51.6506  -24.3257 N   0  0  0  0  0  0  0  0  0  0  0  0
   -0.6297  -51.7726  -23.1262 C   0  0  0  0  0  0  0  0  0  0  0  0
   -1.8983  -51.9479  -23.1036 O   0  0  0  0  0  0  0  0  0  0  0  0
    0.0008  -51.7238  -21.7361 C   0  0  0  0  0  0  0  0  0  0  0  0
   -0.4536  -50.5055  -21.1080 N   0  0  0  0  0  0  0  0  0  0  0  0
    0.2512  -49.4581  -20.5250 C   0  0  0  0  0  0  0  0  0  0  0  0
    0.2803  -48.3343  -21.1579 O   0  0  0  0  0  0  0  0  0  0  0  0
    0.9923  -49.4256  -19.2519 C   0  0  0  0  0  0  0  0  0  0  0  0
    2.2318  -48.7402  -19.2147 N   0  0  0  0  0  0  0  0  0  0  0  0
    3.0161  -48.0774  -20.1533 C   0  0  0  0  0  0  0  0  0  0  0  0
    2.9067  -46.8065  -20.2446 O   0  0  0  0  0  0  0  0  0  0  0  0
    3.7850  -46.8754  -22.2596 H   0  0  0  0  0  0  0  0  0  0  0  0
    3.8487  -51.6893  -23.2721 H   0  0  0  0  0  0  0  0  0  0  0  0
   -0.1868  -52.3536  -25.1030 H   0  0  0  0  0  0  0  0  0  0  0  0
   -1.5381  -50.4314  -21.1367 H   0  0  0  0  0  0  0  0  0  0  0  0
    2.6323  -48.7595  -18.1789 H   0  0  0  0  0  0  0  0  0  0  0  0
    5.7370  -46.7842  -21.0289 C   0  0  0  0  0  0  0  0  0  0  0  0
    5.3628  -48.1341  -20.5215 C   0  0  0  0  0  0  0  0  0  0  0  0
    5.4272  -48.2374  -19.0370 C   0  0  0  0  0  0  0  0  0  0  0  0
    4.7572  -49.5855  -25.6071 C   0  0  0  0  0  0  0  0  0  0  0  0
    6.0233  -48.8150  -25.5483 C   0  0  0  0  0  0  0  0  0  0  0  0
    6.8578  -48.9380  -24.3242 C   0  0  0  0  0  0  0  0  0  0  0  0
    7.0613  -50.3333  -23.8474 C   0  0  0  0  0  0  0  0  0  0  0  0
    6.8259  -51.2904  -24.8751 N   0  0  0  0  0  0  0  0  0  0  0  0
    6.0136  -50.9563  -25.4540 H   0  0  0  0  0  0  0  0  0  0  0  0
    6.6292  -52.2546  -24.5198 H   0  0  0  0  0  0  0  0  0  0  0  0
    0.6836  -50.2605  -26.1283 C   0  0  0  0  0  0  0  0  0  0  0  0
    0.0501  -51.3485  -26.8793 C   0  0  0  0  0  0  0  0  0  0  0  0
   -1.3039  -51.4010  -27.1212 C   0  0  0  0  0  0  0  0  0  0  0  0
   -1.8522  -52.4490  -27.8247 C   0  0  0  0  0  0  0  0  0  0  0  0
   -1.0615  -53.4677  -28.3024 C   0  0  0  0  0  0  0  0  0  0  0  0
    0.2907  -53.4355  -28.0728 C   0  0  0  0  0  0  0  0  0  0  0  0
    0.8335  -52.3718  -27.3612 C   0  0  0  0  0  0  0  0  0  0  0  0
   -0.5276  -52.9880  -21.0924 C   0  0  0  0  0  0  0  0  0  0  0  0
    0.4367  -53.8892  -20.5121 C   0  0  0  0  0  0  0  0  0  0  0  0
    0.2005  -55.1885  -20.1324 C   0  0  0  0  0  0  0  0  0  0  0  0
    1.1816  -55.9969  -19.6002 C   0  0  0  0  0  0  0  0  0  0  0  0
    2.4604  -55.5212  -19.4260 C   0  0  0  0  0  0  0  0  0  0  0  0
    2.7232  -54.2220  -19.7981 C   0  0  0  0  0  0  0  0  0  0  0  0
    1.7456  -53.4398  -20.3210 C   0  0  0  0  0  0  0  0  0  0  0  0
   -0.0080  -48.7896  -18.2724 C   0  0  0  0  0  0  0  0  0  0  0  0
    0.2524  -48.9797  -16.8625 C   0  0  0  0  0  0  0  0  0  0  0  0
    1.3779  -48.5217  -16.1814 C   0  0  0  0  0  0  0  0  0  0  0  0
    1.2416  -48.8487  -14.9008 N   0  0  0  0  0  0  0  0  0  0  0  0
    0.0938  -49.5007  -14.6800 C   0  0  0  0  0  0  0  0  0  0  0  0
   -0.4715  -50.0481  -13.5359 C   0  0  0  0  0  0  0  0  0  0  0  0
   -1.6856  -50.7069  -13.5700 C   0  0  0  0  0  0  0  0  0  0  0  0
   -2.2953  -50.7847  -14.8062 C   0  0  0  0  0  0  0  0  0  0  0  0
   -1.7613  -50.2539  -15.9493 C   0  0  0  0  0  0  0  0  0  0  0  0
   -0.5430  -49.5972  -15.8847 C   0  0  0  0  0  0  0  0  0  0  0  0
    1.9459  -48.6226  -14.1667 H   0  0  0  0  0  0  0  0  0  0  0  0
 26 27  1  0  0  0
 27 28  1  0  0  0
 27  1  1  0  0  0
  1  2  1  0  0  0
  2  3  1  0  0  0
  3  4  2  0  0  0
  3  5  1  0  0  0
  5 29  1  0  0  0
 29 30  1  0  0  0
 30 31  1  0  0  0
 31 32  1  0  0  0
 32 33  1  0  0  0
  5  6  1  0  0  0
  6  7  1  0  0  0
  7  8  2  0  0  0
  7  9  1  0  0  0
  9 36  1  0  0  0
 36 37  1  0  0  0
 37 38  2  0  0  0
 38 39  1  0  0  0
 39 40  2  0  0  0
 40 41  1  0  0  0
 41 42  2  0  0  0
  9 10  1  0  0  0
 10 11  1  0  0  0
 11 12  2  0  0  0
 11 13  1  0  0  0
 13 43  1  0  0  0
 43 44  1  0  0  0
 44 45  2  0  0  0
 45 46  1  0  0  0
 46 47  2  0  0  0
 47 48  1  0  0  0
 48 49  2  0  0  0
 13 14  1  0  0  0
 14 15  1  0  0  0
 15 16  2  0  0  0
 15 17  1  0  0  0
 17 50  1  0  0  0
 50 51  1  0  0  0
 51 52  2  0  0  0
 52 53  1  0  0  0
 53 54  1  0  0  0
 54 55  2  0  0  0
 55 56  1  0  0  0
 56 57  2  0  0  0
 57 58  1  0  0  0
 58 59  2  0  0  0
 17 18  1  0  0  0
 18 19  1  0  0  0
 19 20  2  0  0  0
 19  1  1  0  0  0
 42 37  1  0  0  0
 49 44  1  0  0  0
 59 51  1  0  0  0
 59 54  1  0  0  0
  2 21  1  0  0  0
 33 34  1  0  0  0
 33 35  1  0  0  0
  6 22  1  0  0  0
 10 23  1  0  0  0
 14 24  1  0  0  0
 53 60  1  0  0  0
 18 25  1  0  0  0
M  END
> <minimizedAffinity>
9.87923

> <CNNscore>
0.3936026394

> <CNNaffinity>
6.9793043137

> <CNN_VS>
2.7470726967

> <CNNaffinity_variance>
1.1332114935

$$$$
[H]c1c([H])c([H])c(C([H])([H])[C@@]2([H])C(=O)N([H])[C@]([H])(C([H])([H])c3c([H])c([H])c([H])c([H])c3[H])C(=O)N([H])[C@@]([H])(C([H])([H])C([H])([H])C([H])([H])C([H])([H])N([H])[H])C(=O)N([H])[C@@]([H])(C([H])(C([H])([H])[H])C([H])([H])[H])C(=O)N([H])[C@@]([H])(C([H])([H])c3c([H])n([H])c4c([H])c([H])c([H])c([H])c34)C(=O)N2[H])c([H])c1[H]


 60 64  0  0  0  0  0  0  0  0999 V2000
    1.2212  -52.0343  -23.8953 C   0  0  0  0  0  0  0  0  0  0  0  0
   -0.1857  -52.2130  -23.6242 N   0  0  0  0  0  0  0  0  0  0  0  0
   -0.7465  -52.9452  -22.5531 C   0  0  0  0  0  0  0  0  0  0  0  0
   -1.8897  -52.5180  -22.1626 O   0  0  0  0  0  0  0  0  0  0  0  0
   -0.2006  -54.1000  -21.8536 C   0  0  0  0  0  0  0  0  0  0  0  0
    0.5975  -53.8669  -20.7010 N   0  0  0  0  0  0  0  0  0  0  0  0
    0.2307  -53.4041  -19.4263 C   0  0  0  0  0  0  0  0  0  0  0  0
    0.4863  -54.1192  -18.3886 O   0  0  0  0  0  0  0  0  0  0  0  0
   -0.4507  -52.1263  -19.0995 C   0  0  0  0  0  0  0  0  0  0  0  0
    0.3685  -51.5368  -18.0337 N   0  0  0  0  0  0  0  0  0  0  0  0
    1.2483  -50.4866  -18.1384 C   0  0  0  0  0  0  0  0  0  0  0  0
    1.2213  -49.5363  -17.2801 O   0  0  0  0  0  0  0  0  0  0  0  0
    2.3173  -50.3029  -19.2135 C   0  0  0  0  0  0  0  0  0  0  0  0
    1.9101  -49.1820  -20.0279 N   0  0  0  0  0  0  0  0  0  0  0  0
    1.7301  -49.0663  -21.4018 C   0  0  0  0  0  0  0  0  0  0  0  0
    0.5200  -48.9678  -21.8380 O   0  0  0  0  0  0  0  0  0  0  0  0
    2.7380  -49.0324  -22.4762 C   0  0  0  0  0  0  0  0  0  0  0  0
    2.4654  -49.7383  -23.6740 N   0  0  0  0  0  0  0  0  0  0  0  0
    1.4330  -50.5589  -24.1172 C   0  0  0  0  0  0  0  0  0  0  0  0
    0.5056  -50.0358  -24.8256 O   0  0  0  0  0  0  0  0  0  0  0  0
   -0.8188  -51.7223  -24.3371 H   0  0  0  0  0  0  0  0  0  0  0  0
    1.6514  -54.0752  -20.7925 H   0  0  0  0  0  0  0  0  0  0  0  0
    0.2380  -52.0030  -17.0794 H   0  0  0  0  0  0  0  0  0  0  0  0
    1.7026  -48.3080  -19.4150 H   0  0  0  0  0  0  0  0  0  0  0  0
    3.2903  -49.5675  -24.3979 H   0  0  0  0  0  0  0  0  0  0  0  0
    0.5538  -53.7160  -25.6532 C   0  0  0  0  0  0  0  0  0  0  0  0
    1.4967  -52.6168  -25.3032 C   0  0  0  0  0  0  0  0  0  0  0  0
    1.6049  -51.5805  -26.3677 C   0  0  0  0  0  0  0  0  0  0  0  0
   -1.3515  -55.1181  -21.5659 C   0  0  0  0  0  0  0  0  0  0  0  0
   -2.1281  -55.2685  -22.8207 C   0  0  0  0  0  0  0  0  0  0  0  0
   -1.3758  -55.4924  -24.0832 C   0  0  0  0  0  0  0  0  0  0  0  0
   -0.9330  -56.8964  -24.3032 C   0  0  0  0  0  0  0  0  0  0  0  0
   -1.1885  -57.3367  -25.6331 N   0  0  0  0  0  0  0  0  0  0  0  0
   -2.1099  -56.9327  -25.9405 H   0  0  0  0  0  0  0  0  0  0  0  0
   -1.2102  -58.3774  -25.7385 H   0  0  0  0  0  0  0  0  0  0  0  0
   -1.7998  -52.3931  -18.4522 C   0  0  0  0  0  0  0  0  0  0  0  0
   -1.8375  -52.0407  -17.0298 C   0  0  0  0  0  0  0  0  0  0  0  0
   -0.8999  -52.4831  -16.1244 C   0  0  0  0  0  0  0  0  0  0  0  0
   -0.9839  -52.1312  -14.7967 C   0  0  0  0  0  0  0  0  0  0  0  0
   -2.0053  -51.3298  -14.3431 C   0  0  0  0  0  0  0  0  0  0  0  0
   -2.9508  -50.8774  -15.2283 C   0  0  0  0  0  0  0  0  0  0  0  0
   -2.8556  -51.2392  -16.5672 C   0  0  0  0  0  0  0  0  0  0  0  0
    3.5657  -50.0535  -18.3944 C   0  0  0  0  0  0  0  0  0  0  0  0
    4.7621  -49.6793  -19.1069 C   0  0  0  0  0  0  0  0  0  0  0  0
    5.7090  -48.7807  -18.6780 C   0  0  0  0  0  0  0  0  0  0  0  0
    6.8400  -48.4879  -19.4089 C   0  0  0  0  0  0  0  0  0  0  0  0
    7.0661  -49.0980  -20.6208 C   0  0  0  0  0  0  0  0  0  0  0  0
    6.1319  -50.0024  -21.0736 C   0  0  0  0  0  0  0  0  0  0  0  0
    5.0240  -50.2794  -20.3410 C   0  0  0  0  0  0  0  0  0  0  0  0
    2.9080  -47.5305  -22.7591 C   0  0  0  0  0  0  0  0  0  0  0  0
    4.1337  -46.9168  -22.2979 C   0  0  0  0  0  0  0  0  0  0  0  0
    5.3021  -46.7882  -23.0453 C   0  0  0  0  0  0  0  0  0  0  0  0
    6.1919  -46.1372  -22.3037 N   0  0  0  0  0  0  0  0  0  0  0  0
    5.6933  -45.8223  -21.1023 C   0  0  0  0  0  0  0  0  0  0  0  0
    6.2346  -45.1732  -20.0005 C   0  0  0  0  0  0  0  0  0  0  0  0
    5.5085  -44.9847  -18.8400 C   0  0  0  0  0  0  0  0  0  0  0  0
    4.2199  -45.4800  -18.8475 C   0  0  0  0  0  0  0  0  0  0  0  0
    3.6612  -46.1229  -19.9190 C   0  0  0  0  0  0  0  0  0  0  0  0
    4.4125  -46.2961  -21.0702 C   0  0  0  0  0  0  0  0  0  0  0  0
    7.1558  -45.9057  -22.6251 H   0  0  0  0  0  0  0  0  0  0  0  0
 26 27  1  0  0  0
 27 28  1  0  0  0
 27  1  1  0  0  0
  1  2  1  0  0  0
  2  3  1  0  0  0
  3  4  2  0  0  0
  3  5  1  0  0  0
  5 29  1  0  0  0
 29 30  1  0  0  0
 30 31  1  0  0  0
 31 32  1  0  0  0
 32 33  1  0  0  0
  5  6  1  0  0  0
  6  7  1  0  0  0
  7  8  2  0  0  0
  7  9  1  0  0  0
  9 36  1  0  0  0
 36 37  1  0  0  0
 37 38  2  0  0  0
 38 39  1  0  0  0
 39 40  2  0  0  0
 40 41  1  0  0  0
 41 42  2  0  0  0
  9 10  1  0  0  0
 10 11  1  0  0  0
 11 12  2  0  0  0
 11 13  1  0  0  0
 13 43  1  0  0  0
 43 44  1  0  0  0
 44 45  2  0  0  0
 45 46  1  0  0  0
 46 47  2  0  0  0
 47 48  1  0  0  0
 48 49  2  0  0  0
 13 14  1  0  0  0
 14 15  1  0  0  0
 15 16  2  0  0  0
 15 17  1  0  0  0
 17 50  1  0  0  0
 50 51  1  0  0  0
 51 52  2  0  0  0
 52 53  1  0  0  0
 53 54  1  0  0  0
 54 55  2  0  0  0
 55 56  1  0  0  0
 56 57  2  0  0  0
 57 58  1  0  0  0
 58 59  2  0  0  0
 17 18  1  0  0  0
 18 19  1  0  0  0
 19 20  2  0  0  0
 19  1  1  0  0  0
 42 37  1  0  0  0
 49 44  1  0  0  0
 59 51  1  0  0  0
 59 54  1  0  0  0
  2 21  1  0  0  0
 33 34  1  0  0  0
 33 35  1  0  0  0
  6 22  1  0  0  0
 10 23  1  0  0  0
 14 24  1  0  0  0
 53 60  1  0  0  0
 18 25  1  0  0  0
M  END
> <minimizedAffinity>
-0.42843

> <CNNscore>
0.3933537900

> <CNNaffinity>
7.2349991798

> <CNN_VS>
2.8459143639

> <CNNaffinity_variance>
0.7827734351

$$$$
[H]c1c([H])c([H])c(C([H])([H])[C@@]2([H])C(=O)N([H])[C@]([H])(C([H])([H])c3c([H])c([H])c([H])c([H])c3[H])C(=O)N([H])[C@@]([H])(C([H])([H])C([H])([H])C([H])([H])C([H])([H])N([H])[H])C(=O)N([H])[C@@]([H])(C([H])(C([H])([H])[H])C([H])([H])[H])C(=O)N([H])[C@@]([H])(C([H])([H])c3c([H])n([H])c4c([H])c([H])c([H])c([H])c34)C(=O)N2[H])c([H])c1[H]


 60 64  0  0  0  0  0  0  0  0999 V2000
    0.9271  -51.8691  -18.9795 C   0  0  0  0  0  0  0  0  0  0  0  0
   -0.0279  -51.4800  -17.9688 N   0  0  0  0  0  0  0  0  0  0  0  0
    0.2382  -51.2879  -16.5940 C   0  0  0  0  0  0  0  0  0  0  0  0
   -0.5236  -50.4300  -16.0235 O   0  0  0  0  0  0  0  0  0  0  0  0
    1.2467  -51.9296  -15.7622 C   0  0  0  0  0  0  0  0  0  0  0  0
    2.5162  -51.3013  -15.6474 N   0  0  0  0  0  0  0  0  0  0  0  0
    2.8818  -50.1161  -14.9875 C   0  0  0  0  0  0  0  0  0  0  0  0
    3.7854  -50.1462  -14.0732 O   0  0  0  0  0  0  0  0  0  0  0  0
    2.3328  -48.7564  -15.2193 C   0  0  0  0  0  0  0  0  0  0  0  0
    3.5180  -47.9067  -15.3852 N   0  0  0  0  0  0  0  0  0  0  0  0
    4.0159  -47.3840  -16.5544 C   0  0  0  0  0  0  0  0  0  0  0  0
    4.3469  -46.1483  -16.6175 O   0  0  0  0  0  0  0  0  0  0  0  0
    4.2377  -48.1390  -17.8632 C   0  0  0  0  0  0  0  0  0  0  0  0
    3.2803  -47.6262  -18.8149 N   0  0  0  0  0  0  0  0  0  0  0  0
    2.3325  -48.2738  -19.5996 C   0  0  0  0  0  0  0  0  0  0  0  0
    1.0917  -48.1259  -19.2789 O   0  0  0  0  0  0  0  0  0  0  0  0
    2.5270  -49.1286  -20.7840 C   0  0  0  0  0  0  0  0  0  0  0  0
    1.7247  -50.2892  -20.9126 N   0  0  0  0  0  0  0  0  0  0  0  0
    0.7569  -50.9062  -20.1262 C   0  0  0  0  0  0  0  0  0  0  0  0
   -0.4730  -50.6591  -20.3749 O   0  0  0  0  0  0  0  0  0  0  0  0
   -1.0180  -51.3387  -18.3556 H   0  0  0  0  0  0  0  0  0  0  0  0
    3.3452  -51.7946  -16.1290 H   0  0  0  0  0  0  0  0  0  0  0  0
    4.0261  -47.6886  -14.4690 H   0  0  0  0  0  0  0  0  0  0  0  0
    3.3362  -46.5421  -18.8806 H   0  0  0  0  0  0  0  0  0  0  0  0
    1.9519  -50.7889  -21.8781 H   0  0  0  0  0  0  0  0  0  0  0  0
   -1.0294  -53.4108  -19.3781 C   0  0  0  0  0  0  0  0  0  0  0  0
    0.4291  -53.1991  -19.5963 C   0  0  0  0  0  0  0  0  0  0  0  0
    0.8401  -53.3905  -21.0151 C   0  0  0  0  0  0  0  0  0  0  0  0
    0.6299  -52.2508  -14.3621 C   0  0  0  0  0  0  0  0  0  0  0  0
   -0.4424  -51.2558  -14.1163 C   0  0  0  0  0  0  0  0  0  0  0  0
   -1.5983  -51.6696  -13.2781 C   0  0  0  0  0  0  0  0  0  0  0  0
   -2.7659  -52.1893  -14.0412 C   0  0  0  0  0  0  0  0  0  0  0  0
   -3.3372  -51.1971  -14.8880 N   0  0  0  0  0  0  0  0  0  0  0  0
   -3.3003  -50.2749  -14.3833 H   0  0  0  0  0  0  0  0  0  0  0  0
   -4.3228  -51.4001  -15.1742 H   0  0  0  0  0  0  0  0  0  0  0  0
    1.6524  -48.2362  -13.9637 C   0  0  0  0  0  0  0  0  0  0  0  0
    0.5282  -47.3387  -14.2459 C   0  0  0  0  0  0  0  0  0  0  0  0
    0.3865  -46.1066  -13.6489 C   0  0  0  0  0  0  0  0  0  0  0  0
   -0.6924  -45.3037  -13.9410 C   0  0  0  0  0  0  0  0  0  0  0  0
   -1.6536  -45.7126  -14.8354 C   0  0  0  0  0  0  0  0  0  0  0  0
   -1.5323  -46.9371  -15.4422 C   0  0  0  0  0  0  0  0  0  0  0  0
   -0.4381  -47.7394  -15.1396 C   0  0  0  0  0  0  0  0  0  0  0  0
    5.6777  -47.8081  -18.1921 C   0  0  0  0  0  0  0  0  0  0  0  0
    5.9502  -47.2587  -19.4970 C   0  0  0  0  0  0  0  0  0  0  0  0
    6.2538  -47.9776  -20.6279 C   0  0  0  0  0  0  0  0  0  0  0  0
    6.4840  -47.3802  -21.8483 C   0  0  0  0  0  0  0  0  0  0  0  0
    6.4171  -46.0127  -21.9805 C   0  0  0  0  0  0  0  0  0  0  0  0
    6.1151  -45.2691  -20.8619 C   0  0  0  0  0  0  0  0  0  0  0  0
    5.8907  -45.8734  -19.6680 C   0  0  0  0  0  0  0  0  0  0  0  0
    2.2843  -48.1690  -21.9608 C   0  0  0  0  0  0  0  0  0  0  0  0
    3.1588  -48.3084  -23.1043 C   0  0  0  0  0  0  0  0  0  0  0  0
    3.5931  -49.5165  -23.6449 C   0  0  0  0  0  0  0  0  0  0  0  0
    4.3433  -49.2427  -24.7068 N   0  0  0  0  0  0  0  0  0  0  0  0
    4.4415  -47.9237  -24.9116 C   0  0  0  0  0  0  0  0  0  0  0  0
    5.1155  -47.1674  -25.8613 C   0  0  0  0  0  0  0  0  0  0  0  0
    5.0795  -45.7861  -25.8482 C   0  0  0  0  0  0  0  0  0  0  0  0
    4.3354  -45.2116  -24.8371 C   0  0  0  0  0  0  0  0  0  0  0  0
    3.6611  -45.9326  -23.8889 C   0  0  0  0  0  0  0  0  0  0  0  0
    3.7138  -47.3165  -23.9278 C   0  0  0  0  0  0  0  0  0  0  0  0
    4.7957  -49.9703  -25.3001 H   0  0  0  0  0  0  0  0  0  0  0  0
 26 27  1  0  0  0
 27 28  1  0  0  0
 27  1  1  0  0  0
  1  2  1  0  0  0
  2  3  1  0  0  0
  3  4  2  0  0  0
  3  5  1  0  0  0
  5 29  1  0  0  0
 29 30  1  0  0  0
 30 31  1  0  0  0
 31 32  1  0  0  0
 32 33  1  0  0  0
  5  6  1  0  0  0
  6  7  1  0  0  0
  7  8  2  0  0  0
  7  9  1  0  0  0
  9 36  1  0  0  0
 36 37  1  0  0  0
 37 38  2  0  0  0
 38 39  1  0  0  0
 39 40  2  0  0  0
 40 41  1  0  0  0
 41 42  2  0  0  0
  9 10  1  0  0  0
 10 11  1  0  0  0
 11 12  2  0  0  0
 11 13  1  0  0  0
 13 43  1  0  0  0
 43 44  1  0  0  0
 44 45  2  0  0  0
 45 46  1  0  0  0
 46 47  2  0  0  0
 47 48  1  0  0  0
 48 49  2  0  0  0
 13 14  1  0  0  0
 14 15  1  0  0  0
 15 16  2  0  0  0
 15 17  1  0  0  0
 17 50  1  0  0  0
 50 51  1  0  0  0
 51 52  2  0  0  0
 52 53  1  0  0  0
 53 54  1  0  0  0
 54 55  2  0  0  0
 55 56  1  0  0  0
 56 57  2  0  0  0
 57 58  1  0  0  0
 58 59  2  0  0  0
 17 18  1  0  0  0
 18 19  1  0  0  0
 19 20  2  0  0  0
 19  1  1  0  0  0
 42 37  1  0  0  0
 49 44  1  0  0  0
 59 51  1  0  0  0
 59 54  1  0  0  0
  2 21  1  0  0  0
 33 34  1  0  0  0
 33 35  1  0  0  0
  6 22  1  0  0  0
 10 23  1  0  0  0
 14 24  1  0  0  0
 53 60  1  0  0  0
 18 25  1  0  0  0
M  END
> <minimizedAffinity>
-4.25268

> <CNNscore>
0.3715060651

> <CNNaffinity>
7.0766067505

> <CNN_VS>
2.6290023327

> <CNNaffinity_variance>
1.7872918844

$$$$
[H]c1c([H])c([H])c(C([H])([H])[C@@]2([H])C(=O)N([H])[C@]([H])(C([H])([H])c3c([H])c([H])c([H])c([H])c3[H])C(=O)N([H])[C@@]([H])(C([H])([H])C([H])([H])C([H])([H])C([H])([H])N([H])[H])C(=O)N([H])[C@@]([H])(C([H])(C([H])([H])[H])C([H])([H])[H])C(=O)N([H])[C@@]([H])(C([H])([H])c3c([H])n([H])c4c([H])c([H])c([H])c([H])c34)C(=O)N2[H])c([H])c1[H]


 60 64  0  0  0  0  0  0  0  0999 V2000
    1.7766  -51.5679  -24.0059 C   0  0  0  0  0  0  0  0  0  0  0  0
    0.4191  -51.6323  -23.5181 N   0  0  0  0  0  0  0  0  0  0  0  0
    0.0063  -52.0913  -22.2466 C   0  0  0  0  0  0  0  0  0  0  0  0
   -1.0701  -51.5482  -21.8129 O   0  0  0  0  0  0  0  0  0  0  0  0
    0.6365  -53.0835  -21.3867 C   0  0  0  0  0  0  0  0  0  0  0  0
    1.5863  -52.6321  -20.4307 N   0  0  0  0  0  0  0  0  0  0  0  0
    1.4002  -51.8883  -19.2535 C   0  0  0  0  0  0  0  0  0  0  0  0
    1.7916  -52.3673  -18.1262 O   0  0  0  0  0  0  0  0  0  0  0  0
    0.7771  -50.5464  -19.1313 C   0  0  0  0  0  0  0  0  0  0  0  0
    1.7380  -49.7674  -18.3412 N   0  0  0  0  0  0  0  0  0  0  0  0
    2.6009  -48.7978  -18.7920 C   0  0  0  0  0  0  0  0  0  0  0  0
    2.6972  -47.6822  -18.1702 O   0  0  0  0  0  0  0  0  0  0  0  0
    3.5136  -48.8927  -20.0128 C   0  0  0  0  0  0  0  0  0  0  0  0
    3.0049  -47.9638  -20.9945 N   0  0  0  0  0  0  0  0  0  0  0  0
    2.6389  -48.1457  -22.3236 C   0  0  0  0  0  0  0  0  0  0  0  0
    1.3810  -48.1019  -22.6067 O   0  0  0  0  0  0  0  0  0  0  0  0
    3.4902  -48.3842  -23.5024 C   0  0  0  0  0  0  0  0  0  0  0  0
    3.0522  -49.3253  -24.4667 N   0  0  0  0  0  0  0  0  0  0  0  0
    1.9643  -50.1856  -24.5759 C   0  0  0  0  0  0  0  0  0  0  0  0
    0.9515  -49.7977  -25.2536 O   0  0  0  0  0  0  0  0  0  0  0  0
   -0.3029  -51.2875  -24.2319 H   0  0  0  0  0  0  0  0  0  0  0  0
    2.6165  -52.8930  -20.6123 H   0  0  0  0  0  0  0  0  0  0  0  0
    1.7369  -50.0080  -17.2985 H   0  0  0  0  0  0  0  0  0  0  0  0
    2.8882  -46.9698  -20.5690 H   0  0  0  0  0  0  0  0  0  0  0  0
    3.7710  -49.3471  -25.3131 H   0  0  0  0  0  0  0  0  0  0  0  0
    0.6760  -53.3584  -25.4011 C   0  0  0  0  0  0  0  0  0  0  0  0
    1.8533  -52.4544  -25.2730 C   0  0  0  0  0  0  0  0  0  0  0  0
    2.1405  -51.6911  -26.5195 C   0  0  0  0  0  0  0  0  0  0  0  0
   -0.4698  -53.9719  -20.7303 C   0  0  0  0  0  0  0  0  0  0  0  0
   -1.5110  -54.2081  -21.7600 C   0  0  0  0  0  0  0  0  0  0  0  0
   -1.0688  -54.6407  -23.1118 C   0  0  0  0  0  0  0  0  0  0  0  0
   -0.9866  -56.1152  -23.2975 C   0  0  0  0  0  0  0  0  0  0  0  0
   -1.5632  -56.5330  -24.5307 N   0  0  0  0  0  0  0  0  0  0  0  0
   -2.4149  -55.9423  -24.7108 H   0  0  0  0  0  0  0  0  0  0  0  0
   -1.8280  -57.5449  -24.5539 H   0  0  0  0  0  0  0  0  0  0  0  0
   -0.4720  -50.6163  -18.2682 C   0  0  0  0  0  0  0  0  0  0  0  0
   -0.2327  -50.2319  -16.8740 C   0  0  0  0  0  0  0  0  0  0  0  0
    0.4347  -51.0379  -15.9798 C   0  0  0  0  0  0  0  0  0  0  0  0
    0.6267  -50.6353  -14.6780 C   0  0  0  0  0  0  0  0  0  0  0  0
    0.1572  -49.4193  -14.2398 C   0  0  0  0  0  0  0  0  0  0  0  0
   -0.5108  -48.5999  -15.1142 C   0  0  0  0  0  0  0  0  0  0  0  0
   -0.6986  -49.0170  -16.4269 C   0  0  0  0  0  0  0  0  0  0  0  0
    4.8638  -48.5147  -19.4422 C   0  0  0  0  0  0  0  0  0  0  0  0
    5.5357  -47.3800  -20.0254 C   0  0  0  0  0  0  0  0  0  0  0  0
    5.5160  -46.0942  -19.5413 C   0  0  0  0  0  0  0  0  0  0  0  0
    6.2013  -45.0625  -20.1456 C   0  0  0  0  0  0  0  0  0  0  0  0
    6.9454  -45.2881  -21.2803 C   0  0  0  0  0  0  0  0  0  0  0  0
    6.9812  -46.5681  -21.7860 C   0  0  0  0  0  0  0  0  0  0  0  0
    6.3009  -47.5724  -21.1782 C   0  0  0  0  0  0  0  0  0  0  0  0
    3.6282  -46.9880  -24.1317 C   0  0  0  0  0  0  0  0  0  0  0  0
    3.7929  -46.9355  -25.5677 C   0  0  0  0  0  0  0  0  0  0  0  0
    2.8551  -46.4374  -26.4692 C   0  0  0  0  0  0  0  0  0  0  0  0
    3.3781  -46.5164  -27.6881 N   0  0  0  0  0  0  0  0  0  0  0  0
    4.6097  -47.0396  -27.6609 C   0  0  0  0  0  0  0  0  0  0  0  0
    5.5296  -47.3311  -28.6595 C   0  0  0  0  0  0  0  0  0  0  0  0
    6.7545  -47.9029  -28.3734 C   0  0  0  0  0  0  0  0  0  0  0  0
    7.0023  -48.1634  -27.0405 C   0  0  0  0  0  0  0  0  0  0  0  0
    6.1145  -47.8858  -26.0363 C   0  0  0  0  0  0  0  0  0  0  0  0
    4.8943  -47.3108  -26.3527 C   0  0  0  0  0  0  0  0  0  0  0  0
    2.8837  -46.2080  -28.5521 H   0  0  0  0  0  0  0  0  0  0  0  0
 26 27  1  0  0  0
 27 28  1  0  0  0
 27  1  1  0  0  0
  1  2  1  0  0  0
  2  3  1  0  0  0
  3  4  2  0  0  0
  3  5  1  0  0  0
  5 29  1  0  0  0
 29 30  1  0  0  0
 30 31  1  0  0  0
 31 32  1  0  0  0
 32 33  1  0  0  0
  5  6  1  0  0  0
  6  7  1  0  0  0
  7  8  2  0  0  0
  7  9  1  0  0  0
  9 36  1  0  0  0
 36 37  1  0  0  0
 37 38  2  0  0  0
 38 39  1  0  0  0
 39 40  2  0  0  0
 40 41  1  0  0  0
 41 42  2  0  0  0
  9 10  1  0  0  0
 10 11  1  0  0  0
 11 12  2  0  0  0
 11 13  1  0  0  0
 13 43  1  0  0  0
 43 44  1  0  0  0
 44 45  2  0  0  0
 45 46  1  0  0  0
 46 47  2  0  0  0
 47 48  1  0  0  0
 48 49  2  0  0  0
 13 14  1  0  0  0
 14 15  1  0  0  0
 15 16  2  0  0  0
 15 17  1  0  0  0
 17 50  1  0  0  0
 50 51  1  0  0  0
 51 52  2  0  0  0
 52 53  1  0  0  0
 53 54  1  0  0  0
 54 55  2  0  0  0
 55 56  1  0  0  0
 56 57  2  0  0  0
 57 58  1  0  0  0
 58 59  2  0  0  0
 17 18  1  0  0  0
 18 19  1  0  0  0
 19 20  2  0  0  0
 19  1  1  0  0  0
 42 37  1  0  0  0
 49 44  1  0  0  0
 59 51  1  0  0  0
 59 54  1  0  0  0
  2 21  1  0  0  0
 33 34  1  0  0  0
 33 35  1  0  0  0
  6 22  1  0  0  0
 10 23  1  0  0  0
 14 24  1  0  0  0
 53 60  1  0  0  0
 18 25  1  0  0  0
M  END
> <minimizedAffinity>
-3.82224

> <CNNscore>
0.3304110765

> <CNNaffinity>
7.0615797043

> <CNN_VS>
2.3332240582

> <CNNaffinity_variance>
0.9231559038

$$$$
[H]c1c([H])c([H])c(C([H])([H])[C@@]2([H])C(=O)N([H])[C@]([H])(C([H])([H])c3c([H])c([H])c([H])c([H])c3[H])C(=O)N([H])[C@@]([H])(C([H])([H])C([H])([H])C([H])([H])C([H])([H])N([H])[H])C(=O)N([H])[C@@]([H])(C([H])(C([H])([H])[H])C([H])([H])[H])C(=O)N([H])[C@@]([H])(C([H])([H])c3c([H])n([H])c4c([H])c([H])c([H])c([H])c34)C(=O)N2[H])c([H])c1[H]


 60 64  0  0  0  0  0  0  0  0999 V2000
    0.4724  -51.7068  -20.2728 C   0  0  0  0  0  0  0  0  0  0  0  0
    1.6575  -51.7486  -21.0966 N   0  0  0  0  0  0  0  0  0  0  0  0
    2.2466  -50.6566  -21.7736 C   0  0  0  0  0  0  0  0  0  0  0  0
    3.5140  -50.7558  -21.9335 O   0  0  0  0  0  0  0  0  0  0  0  0
    1.6076  -49.4593  -22.3019 C   0  0  0  0  0  0  0  0  0  0  0  0
    1.5174  -48.3214  -21.4553 N   0  0  0  0  0  0  0  0  0  0  0  0
    2.5225  -47.4524  -20.9991 C   0  0  0  0  0  0  0  0  0  0  0  0
    2.4383  -46.1930  -21.2441 O   0  0  0  0  0  0  0  0  0  0  0  0
    3.7375  -47.8156  -20.2271 C   0  0  0  0  0  0  0  0  0  0  0  0
    3.7416  -46.8849  -19.0921 N   0  0  0  0  0  0  0  0  0  0  0  0
    3.4134  -47.1567  -17.7858 C   0  0  0  0  0  0  0  0  0  0  0  0
    4.1736  -46.7587  -16.8349 O   0  0  0  0  0  0  0  0  0  0  0  0
    2.1816  -47.9174  -17.2998 C   0  0  0  0  0  0  0  0  0  0  0  0
    2.6470  -49.1696  -16.7512 N   0  0  0  0  0  0  0  0  0  0  0  0
    2.2867  -50.4827  -17.0331 C   0  0  0  0  0  0  0  0  0  0  0  0
    3.1394  -51.2108  -17.6711 O   0  0  0  0  0  0  0  0  0  0  0  0
    1.0434  -51.2015  -16.7028 C   0  0  0  0  0  0  0  0  0  0  0  0
    0.4914  -52.0693  -17.6772 N   0  0  0  0  0  0  0  0  0  0  0  0
    0.8176  -52.4108  -18.9859 C   0  0  0  0  0  0  0  0  0  0  0  0
    1.5043  -53.4718  -19.1813 O   0  0  0  0  0  0  0  0  0  0  0  0
    2.0887  -52.7279  -21.1667 H   0  0  0  0  0  0  0  0  0  0  0  0
    0.5338  -48.0610  -21.0986 H   0  0  0  0  0  0  0  0  0  0  0  0
    4.0417  -45.8903  -19.3490 H   0  0  0  0  0  0  0  0  0  0  0  0
    3.4241  -49.0065  -16.0082 H   0  0  0  0  0  0  0  0  0  0  0  0
   -0.4044  -52.5732  -17.2563 H   0  0  0  0  0  0  0  0  0  0  0  0
   -0.5632  -54.0069  -20.2419 C   0  0  0  0  0  0  0  0  0  0  0  0
   -0.5612  -52.6718  -20.9033 C   0  0  0  0  0  0  0  0  0  0  0  0
   -1.9238  -52.0847  -21.0351 C   0  0  0  0  0  0  0  0  0  0  0  0
    2.2445  -49.1043  -23.6848 C   0  0  0  0  0  0  0  0  0  0  0  0
    2.5967  -50.3840  -24.3471 C   0  0  0  0  0  0  0  0  0  0  0  0
    1.9427  -50.7005  -25.6441 C   0  0  0  0  0  0  0  0  0  0  0  0
    0.4685  -50.8918  -25.5674 C   0  0  0  0  0  0  0  0  0  0  0  0
    0.0814  -52.2171  -25.9160 N   0  0  0  0  0  0  0  0  0  0  0  0
    0.6982  -52.5420  -26.7038 H   0  0  0  0  0  0  0  0  0  0  0  0
   -0.9222  -52.3054  -26.1982 H   0  0  0  0  0  0  0  0  0  0  0  0
    4.9909  -47.4744  -21.0161 C   0  0  0  0  0  0  0  0  0  0  0  0
    5.6457  -48.6505  -21.5966 C   0  0  0  0  0  0  0  0  0  0  0  0
    6.3248  -49.5783  -20.8400 C   0  0  0  0  0  0  0  0  0  0  0  0
    6.9307  -50.6620  -21.4336 C   0  0  0  0  0  0  0  0  0  0  0  0
    6.8720  -50.8438  -22.7954 C   0  0  0  0  0  0  0  0  0  0  0  0
    6.2003  -49.9313  -23.5689 C   0  0  0  0  0  0  0  0  0  0  0  0
    5.5919  -48.8407  -22.9582 C   0  0  0  0  0  0  0  0  0  0  0  0
    1.5956  -46.9706  -16.2744 C   0  0  0  0  0  0  0  0  0  0  0  0
    0.2553  -47.2380  -15.8149 C   0  0  0  0  0  0  0  0  0  0  0  0
   -0.5628  -46.3535  -15.1543 C   0  0  0  0  0  0  0  0  0  0  0  0
   -1.8436  -46.6774  -14.7620 C   0  0  0  0  0  0  0  0  0  0  0  0
   -2.3598  -47.9253  -15.0232 C   0  0  0  0  0  0  0  0  0  0  0  0
   -1.5599  -48.8306  -15.6838 C   0  0  0  0  0  0  0  0  0  0  0  0
   -0.3013  -48.4951  -16.0634 C   0  0  0  0  0  0  0  0  0  0  0  0
    1.4089  -51.9804  -15.4284 C   0  0  0  0  0  0  0  0  0  0  0  0
    2.5748  -51.5280  -14.7019 C   0  0  0  0  0  0  0  0  0  0  0  0
    3.7359  -52.2700  -14.4978 C   0  0  0  0  0  0  0  0  0  0  0  0
    4.5946  -51.5090  -13.8277 N   0  0  0  0  0  0  0  0  0  0  0  0
    4.0804  -50.3011  -13.5670 C   0  0  0  0  0  0  0  0  0  0  0  0
    4.5772  -49.1933  -12.8931 C   0  0  0  0  0  0  0  0  0  0  0  0
    3.8270  -48.0438  -12.7340 C   0  0  0  0  0  0  0  0  0  0  0  0
    2.5612  -48.0685  -13.2844 C   0  0  0  0  0  0  0  0  0  0  0  0
    2.0468  -49.1459  -13.9539 C   0  0  0  0  0  0  0  0  0  0  0  0
    2.8225  -50.2846  -14.0996 C   0  0  0  0  0  0  0  0  0  0  0  0
    5.5472  -51.8219  -13.5438 H   0  0  0  0  0  0  0  0  0  0  0  0
 26 27  1  0  0  0
 27 28  1  0  0  0
 27  1  1  0  0  0
  1  2  1  0  0  0
  2  3  1  0  0  0
  3  4  2  0  0  0
  3  5  1  0  0  0
  5 29  1  0  0  0
 29 30  1  0  0  0
 30 31  1  0  0  0
 31 32  1  0  0  0
 32 33  1  0  0  0
  5  6  1  0  0  0
  6  7  1  0  0  0
  7  8  2  0  0  0
  7  9  1  0  0  0
  9 36  1  0  0  0
 36 37  1  0  0  0
 37 38  2  0  0  0
 38 39  1  0  0  0
 39 40  2  0  0  0
 40 41  1  0  0  0
 41 42  2  0  0  0
  9 10  1  0  0  0
 10 11  1  0  0  0
 11 12  2  0  0  0
 11 13  1  0  0  0
 13 43  1  0  0  0
 43 44  1  0  0  0
 44 45  2  0  0  0
 45 46  1  0  0  0
 46 47  2  0  0  0
 47 48  1  0  0  0
 48 49  2  0  0  0
 13 14  1  0  0  0
 14 15  1  0  0  0
 15 16  2  0  0  0
 15 17  1  0  0  0
 17 50  1  0  0  0
 50 51  1  0  0  0
 51 52  2  0  0  0
 52 53  1  0  0  0
 53 54  1  0  0  0
 54 55  2  0  0  0
 55 56  1  0  0  0
 56 57  2  0  0  0
 57 58  1  0  0  0
 58 59  2  0  0  0
 17 18  1  0  0  0
 18 19  1  0  0  0
 19 20  2  0  0  0
 19  1  1  0  0  0
 42 37  1  0  0  0
 49 44  1  0  0  0
 59 51  1  0  0  0
 59 54  1  0  0  0
  2 21  1  0  0  0
 33 34  1  0  0  0
 33 35  1  0  0  0
  6 22  1  0  0  0
 10 23  1  0  0  0
 14 24  1  0  0  0
 53 60  1  0  0  0
 18 25  1  0  0  0
M  END
> <minimizedAffinity>
-2.94140

> <CNNscore>
0.3264565766

> <CNNaffinity>
7.0132079124

> <CNN_VS>
2.2895078659

> <CNNaffinity_variance>
0.8342669606

$$$$
[H]c1c([H])c([H])c(C([H])([H])[C@@]2([H])C(=O)N([H])[C@]([H])(C([H])([H])c3c([H])c([H])c([H])c([H])c3[H])C(=O)N([H])[C@@]([H])(C([H])([H])C([H])([H])C([H])([H])C([H])([H])N([H])[H])C(=O)N([H])[C@@]([H])(C([H])(C([H])([H])[H])C([H])([H])[H])C(=O)N([H])[C@@]([H])(C([H])([H])c3c([H])n([H])c4c([H])c([H])c([H])c([H])c34)C(=O)N2[H])c([H])c1[H]


 60 64  0  0  0  0  0  0  0  0999 V2000
    0.4887  -51.3987  -20.1024 C   0  0  0  0  0  0  0  0  0  0  0  0
    0.7997  -52.6477  -20.7567 N   0  0  0  0  0  0  0  0  0  0  0  0
    0.8830  -52.8656  -22.1508 C   0  0  0  0  0  0  0  0  0  0  0  0
    1.6954  -53.7957  -22.4924 O   0  0  0  0  0  0  0  0  0  0  0  0
    0.1756  -52.1815  -23.2243 C   0  0  0  0  0  0  0  0  0  0  0  0
    0.7897  -51.0406  -23.8081 N   0  0  0  0  0  0  0  0  0  0  0  0
    1.9187  -50.9478  -24.6391 C   0  0  0  0  0  0  0  0  0  0  0  0
    1.8149  -50.4050  -25.8001 O   0  0  0  0  0  0  0  0  0  0  0  0
    3.2938  -51.4191  -24.3374 C   0  0  0  0  0  0  0  0  0  0  0  0
    4.1509  -50.2682  -24.6458 N   0  0  0  0  0  0  0  0  0  0  0  0
    4.7623  -49.4180  -23.7562 C   0  0  0  0  0  0  0  0  0  0  0  0
    5.9983  -49.1150  -23.9010 O   0  0  0  0  0  0  0  0  0  0  0  0
    4.1115  -48.7496  -22.5471 C   0  0  0  0  0  0  0  0  0  0  0  0
    4.6997  -49.3420  -21.3687 N   0  0  0  0  0  0  0  0  0  0  0  0
    4.1179  -49.9537  -20.2639 C   0  0  0  0  0  0  0  0  0  0  0  0
    4.2433  -51.2331  -20.1562 O   0  0  0  0  0  0  0  0  0  0  0  0
    3.3580  -49.3506  -19.1548 C   0  0  0  0  0  0  0  0  0  0  0  0
    2.2131  -50.0343  -18.6764 N   0  0  0  0  0  0  0  0  0  0  0  0
    1.5388  -51.1954  -19.0409 C   0  0  0  0  0  0  0  0  0  0  0  0
    1.8077  -52.2749  -18.4102 O   0  0  0  0  0  0  0  0  0  0  0  0
    0.9734  -53.4525  -20.0697 H   0  0  0  0  0  0  0  0  0  0  0  0
    0.3336  -50.0862  -23.5997 H   0  0  0  0  0  0  0  0  0  0  0  0
    4.2952  -50.1043  -25.6934 H   0  0  0  0  0  0  0  0  0  0  0  0
    5.7855  -49.2934  -21.4069 H   0  0  0  0  0  0  0  0  0  0  0  0
    1.7899  -49.4828  -17.8101 H   0  0  0  0  0  0  0  0  0  0  0  0
   -1.3855  -52.9719  -19.4891 C   0  0  0  0  0  0  0  0  0  0  0  0
   -0.7877  -51.6272  -19.2563 C   0  0  0  0  0  0  0  0  0  0  0  0
   -0.6116  -51.3098  -17.8117 C   0  0  0  0  0  0  0  0  0  0  0  0
   -0.2528  -53.2265  -24.3053 C   0  0  0  0  0  0  0  0  0  0  0  0
   -1.3772  -54.0096  -23.7372 C   0  0  0  0  0  0  0  0  0  0  0  0
   -1.1866  -55.4730  -23.5578 C   0  0  0  0  0  0  0  0  0  0  0  0
   -0.6602  -56.1834  -24.7553 C   0  0  0  0  0  0  0  0  0  0  0  0
   -1.4021  -57.3631  -25.0477 N   0  0  0  0  0  0  0  0  0  0  0  0
   -1.6672  -57.8176  -24.1367 H   0  0  0  0  0  0  0  0  0  0  0  0
   -0.8874  -58.0508  -25.6449 H   0  0  0  0  0  0  0  0  0  0  0  0
    3.7157  -52.4954  -25.3240 C   0  0  0  0  0  0  0  0  0  0  0  0
    2.6838  -52.8036  -26.3185 C   0  0  0  0  0  0  0  0  0  0  0  0
    2.6001  -52.1619  -27.5333 C   0  0  0  0  0  0  0  0  0  0  0  0
    1.6066  -52.4815  -28.4303 C   0  0  0  0  0  0  0  0  0  0  0  0
    0.6747  -53.4486  -28.1349 C   0  0  0  0  0  0  0  0  0  0  0  0
    0.7392  -54.1010  -26.9297 C   0  0  0  0  0  0  0  0  0  0  0  0
    1.7473  -53.7700  -26.0316 C   0  0  0  0  0  0  0  0  0  0  0  0
    4.4636  -47.2914  -22.7501 C   0  0  0  0  0  0  0  0  0  0  0  0
    3.6622  -46.5398  -23.6837 C   0  0  0  0  0  0  0  0  0  0  0  0
    2.5333  -45.8177  -23.3796 C   0  0  0  0  0  0  0  0  0  0  0  0
    1.8288  -45.1068  -24.3269 C   0  0  0  0  0  0  0  0  0  0  0  0
    2.2393  -45.0949  -25.6397 C   0  0  0  0  0  0  0  0  0  0  0  0
    3.3675  -45.8111  -25.9708 C   0  0  0  0  0  0  0  0  0  0  0  0
    4.0497  -46.5052  -25.0255 C   0  0  0  0  0  0  0  0  0  0  0  0
    4.4074  -49.2053  -18.0403 C   0  0  0  0  0  0  0  0  0  0  0  0
    3.9570  -49.4487  -16.6876 C   0  0  0  0  0  0  0  0  0  0  0  0
    3.9336  -50.6903  -16.0565 C   0  0  0  0  0  0  0  0  0  0  0  0
    3.4996  -50.5088  -14.8139 N   0  0  0  0  0  0  0  0  0  0  0  0
    3.2277  -49.2209  -14.5719 C   0  0  0  0  0  0  0  0  0  0  0  0
    2.7430  -48.5564  -13.4531 C   0  0  0  0  0  0  0  0  0  0  0  0
    2.5201  -47.1928  -13.4587 C   0  0  0  0  0  0  0  0  0  0  0  0
    2.8083  -46.5392  -14.6400 C   0  0  0  0  0  0  0  0  0  0  0  0
    3.2873  -47.1687  -15.7571 C   0  0  0  0  0  0  0  0  0  0  0  0
    3.5029  -48.5369  -15.7219 C   0  0  0  0  0  0  0  0  0  0  0  0
    3.3872  -51.2791  -14.1210 H   0  0  0  0  0  0  0  0  0  0  0  0
 26 27  1  0  0  0
 27 28  1  0  0  0
 27  1  1  0  0  0
  1  2  1  0  0  0
  2  3  1  0  0  0
  3  4  2  0  0  0
  3  5  1  0  0  0
  5 29  1  0  0  0
 29 30  1  0  0  0
 30 31  1  0  0  0
 31 32  1  0  0  0
 32 33  1  0  0  0
  5  6  1  0  0  0
  6  7  1  0  0  0
  7  8  2  0  0  0
  7  9  1  0  0  0
  9 36  1  0  0  0
 36 37  1  0  0  0
 37 38  2  0  0  0
 38 39  1  0  0  0
 39 40  2  0  0  0
 40 41  1  0  0  0
 41 42  2  0  0  0
  9 10  1  0  0  0
 10 11  1  0  0  0
 11 12  2  0  0  0
 11 13  1  0  0  0
 13 43  1  0  0  0
 43 44  1  0  0  0
 44 45  2  0  0  0
 45 46  1  0  0  0
 46 47  2  0  0  0
 47 48  1  0  0  0
 48 49  2  0  0  0
 13 14  1  0  0  0
 14 15  1  0  0  0
 15 16  2  0  0  0
 15 17  1  0  0  0
 17 50  1  0  0  0
 50 51  1  0  0  0
 51 52  2  0  0  0
 52 53  1  0  0  0
 53 54  1  0  0  0
 54 55  2  0  0  0
 55 56  1  0  0  0
 56 57  2  0  0  0
 57 58  1  0  0  0
 58 59  2  0  0  0
 17 18  1  0  0  0
 18 19  1  0  0  0
 19 20  2  0  0  0
 19  1  1  0  0  0
 42 37  1  0  0  0
 49 44  1  0  0  0
 59 51  1  0  0  0
 59 54  1  0  0  0
  2 21  1  0  0  0
 33 34  1  0  0  0
 33 35  1  0  0  0
  6 22  1  0  0  0
 10 23  1  0  0  0
 14 24  1  0  0  0
 53 60  1  0  0  0
 18 25  1  0  0  0
M  END
> <minimizedAffinity>
-4.66639

> <CNNscore>
0.3249464333

> <CNNaffinity>
7.4392442703

> <CNN_VS>
2.4173557758

> <CNNaffinity_variance>
0.4576920867

$$$$
[H]c1c([H])c([H])c(C([H])([H])[C@@]2([H])C(=O)N([H])[C@]([H])(C([H])([H])c3c([H])c([H])c([H])c([H])c3[H])C(=O)N([H])[C@@]([H])(C([H])([H])C([H])([H])C([H])([H])C([H])([H])N([H])[H])C(=O)N([H])[C@@]([H])(C([H])(C([H])([H])[H])C([H])([H])[H])C(=O)N([H])[C@@]([H])(C([H])([H])c3c([H])n([H])c4c([H])c([H])c([H])c([H])c34)C(=O)N2[H])c([H])c1[H]


 60 64  0  0  0  0  0  0  0  0999 V2000
    1.9193  -51.7950  -25.1594 C   0  0  0  0  0  0  0  0  0  0  0  0
    0.5634  -51.7966  -24.6630 N   0  0  0  0  0  0  0  0  0  0  0  0
    0.1306  -52.2836  -23.4087 C   0  0  0  0  0  0  0  0  0  0  0  0
   -0.9075  -51.6944  -22.9429 O   0  0  0  0  0  0  0  0  0  0  0  0
    0.7032  -53.3489  -22.5974 C   0  0  0  0  0  0  0  0  0  0  0  0
    1.6849  -52.9985  -21.6314 N   0  0  0  0  0  0  0  0  0  0  0  0
    1.5524  -52.2961  -20.4219 C   0  0  0  0  0  0  0  0  0  0  0  0
    1.9201  -52.8464  -19.3195 O   0  0  0  0  0  0  0  0  0  0  0  0
    1.0144  -50.9248  -20.2372 C   0  0  0  0  0  0  0  0  0  0  0  0
    2.0264  -50.2413  -19.4230 N   0  0  0  0  0  0  0  0  0  0  0  0
    2.9450  -49.3082  -19.8395 C   0  0  0  0  0  0  0  0  0  0  0  0
    3.1139  -48.2284  -19.1716 O   0  0  0  0  0  0  0  0  0  0  0  0
    3.8427  -49.4065  -21.0711 C   0  0  0  0  0  0  0  0  0  0  0  0
    3.3866  -48.4065  -22.0079 N   0  0  0  0  0  0  0  0  0  0  0  0
    3.0020  -48.5081  -23.3403 C   0  0  0  0  0  0  0  0  0  0  0  0
    1.7476  -48.3747  -23.6103 O   0  0  0  0  0  0  0  0  0  0  0  0
    3.8298  -48.7476  -24.5356 C   0  0  0  0  0  0  0  0  0  0  0  0
    3.3285  -49.6175  -25.5352 N   0  0  0  0  0  0  0  0  0  0  0  0
    2.1887  -50.4036  -25.6716 C   0  0  0  0  0  0  0  0  0  0  0  0
    1.1978  -49.9252  -26.3233 O   0  0  0  0  0  0  0  0  0  0  0  0
   -0.1402  -51.3775  -25.3553 H   0  0  0  0  0  0  0  0  0  0  0  0
    2.6959  -53.3143  -21.8328 H   0  0  0  0  0  0  0  0  0  0  0  0
    2.0167  -50.5261  -18.3915 H   0  0  0  0  0  0  0  0  0  0  0  0
    3.3342  -47.4265  -21.5394 H   0  0  0  0  0  0  0  0  0  0  0  0
    4.0395  -49.6470  -26.3880 H   0  0  0  0  0  0  0  0  0  0  0  0
    0.7432  -52.3593  -27.3186 C   0  0  0  0  0  0  0  0  0  0  0  0
    1.9332  -52.6291  -26.4638 C   0  0  0  0  0  0  0  0  0  0  0  0
    3.2188  -52.5469  -27.2117 C   0  0  0  0  0  0  0  0  0  0  0  0
   -0.4520  -54.1949  -21.9699 C   0  0  0  0  0  0  0  0  0  0  0  0
   -1.3040  -54.6707  -23.0870 C   0  0  0  0  0  0  0  0  0  0  0  0
   -0.7519  -55.7165  -23.9879 C   0  0  0  0  0  0  0  0  0  0  0  0
   -0.2189  -55.2062  -25.2806 C   0  0  0  0  0  0  0  0  0  0  0  0
   -0.1560  -56.2247  -26.2738 N   0  0  0  0  0  0  0  0  0  0  0  0
    0.1344  -57.1210  -25.8058 H   0  0  0  0  0  0  0  0  0  0  0  0
    0.5014  -56.0112  -27.0592 H   0  0  0  0  0  0  0  0  0  0  0  0
   -0.2314  -50.9548  -19.3671 C   0  0  0  0  0  0  0  0  0  0  0  0
    0.0517  -50.7347  -17.9457 C   0  0  0  0  0  0  0  0  0  0  0  0
    0.5770  -49.5585  -17.4609 C   0  0  0  0  0  0  0  0  0  0  0  0
    0.8333  -49.4038  -16.1177 C   0  0  0  0  0  0  0  0  0  0  0  0
    0.5708  -50.4196  -15.2286 C   0  0  0  0  0  0  0  0  0  0  0  0
    0.0471  -51.6007  -15.6900 C   0  0  0  0  0  0  0  0  0  0  0  0
   -0.2080  -51.7453  -17.0489 C   0  0  0  0  0  0  0  0  0  0  0  0
    5.2171  -49.1373  -20.4967 C   0  0  0  0  0  0  0  0  0  0  0  0
    5.8693  -47.9114  -20.8849 C   0  0  0  0  0  0  0  0  0  0  0  0
    6.4772  -47.6682  -22.0930 C   0  0  0  0  0  0  0  0  0  0  0  0
    7.0651  -46.4599  -22.3987 C   0  0  0  0  0  0  0  0  0  0  0  0
    7.0649  -45.4317  -21.4851 C   0  0  0  0  0  0  0  0  0  0  0  0
    6.4625  -45.6500  -20.2664 C   0  0  0  0  0  0  0  0  0  0  0  0
    5.8878  -46.8456  -19.9819 C   0  0  0  0  0  0  0  0  0  0  0  0
    4.0503  -47.3368  -25.1060 C   0  0  0  0  0  0  0  0  0  0  0  0
    3.9970  -47.2017  -26.5450 C   0  0  0  0  0  0  0  0  0  0  0  0
    2.9085  -46.7227  -27.2703 C   0  0  0  0  0  0  0  0  0  0  0  0
    3.2489  -46.7056  -28.5545 N   0  0  0  0  0  0  0  0  0  0  0  0
    4.4995  -47.1462  -28.7368 C   0  0  0  0  0  0  0  0  0  0  0  0
    5.2768  -47.3255  -29.8734 C   0  0  0  0  0  0  0  0  0  0  0  0
    6.5620  -47.8279  -29.8020 C   0  0  0  0  0  0  0  0  0  0  0  0
    7.0193  -48.1376  -28.5368 C   0  0  0  0  0  0  0  0  0  0  0  0
    6.2753  -47.9704  -27.4001 C   0  0  0  0  0  0  0  0  0  0  0  0
    4.9901  -47.4630  -27.5019 C   0  0  0  0  0  0  0  0  0  0  0  0
    2.6147  -46.3880  -29.3180 H   0  0  0  0  0  0  0  0  0  0  0  0
 26 27  1  0  0  0
 27 28  1  0  0  0
 27  1  1  0  0  0
  1  2  1  0  0  0
  2  3  1  0  0  0
  3  4  2  0  0  0
  3  5  1  0  0  0
  5 29  1  0  0  0
 29 30  1  0  0  0
 30 31  1  0  0  0
 31 32  1  0  0  0
 32 33  1  0  0  0
  5  6  1  0  0  0
  6  7  1  0  0  0
  7  8  2  0  0  0
  7  9  1  0  0  0
  9 36  1  0  0  0
 36 37  1  0  0  0
 37 38  2  0  0  0
 38 39  1  0  0  0
 39 40  2  0  0  0
 40 41  1  0  0  0
 41 42  2  0  0  0
  9 10  1  0  0  0
 10 11  1  0  0  0
 11 12  2  0  0  0
 11 13  1  0  0  0
 13 43  1  0  0  0
 43 44  1  0  0  0
 44 45  2  0  0  0
 45 46  1  0  0  0
 46 47  2  0  0  0
 47 48  1  0  0  0
 48 49  2  0  0  0
 13 14  1  0  0  0
 14 15  1  0  0  0
 15 16  2  0  0  0
 15 17  1  0  0  0
 17 50  1  0  0  0
 50 51  1  0  0  0
 51 52  2  0  0  0
 52 53  1  0  0  0
 53 54  1  0  0  0
 54 55  2  0  0  0
 55 56  1  0  0  0
 56 57  2  0  0  0
 57 58  1  0  0  0
 58 59  2  0  0  0
 17 18  1  0  0  0
 18 19  1  0  0  0
 19 20  2  0  0  0
 19  1  1  0  0  0
 42 37  1  0  0  0
 49 44  1  0  0  0
 59 51  1  0  0  0
 59 54  1  0  0  0
  2 21  1  0  0  0
 33 34  1  0  0  0
 33 35  1  0  0  0
  6 22  1  0  0  0
 10 23  1  0  0  0
 14 24  1  0  0  0
 53 60  1  0  0  0
 18 25  1  0  0  0
M  END
> <minimizedAffinity>
-5.03296

> <CNNscore>
0.3057642877

> <CNNaffinity>
7.2109375000

> <CNN_VS>
2.2048470974

> <CNNaffinity_variance>
0.9572354555

$$$$
[H]c1c([H])c([H])c(C([H])([H])[C@@]2([H])C(=O)N([H])[C@]([H])(C([H])([H])c3c([H])c([H])c([H])c([H])c3[H])C(=O)N([H])[C@@]([H])(C([H])([H])C([H])([H])C([H])([H])C([H])([H])N([H])[H])C(=O)N([H])[C@@]([H])(C([H])(C([H])([H])[H])C([H])([H])[H])C(=O)N([H])[C@@]([H])(C([H])([H])c3c([H])n([H])c4c([H])c([H])c([H])c([H])c34)C(=O)N2[H])c([H])c1[H]


 60 64  0  0  0  0  0  0  0  0999 V2000
    2.5126  -50.9597  -21.6802 C   0  0  0  0  0  0  0  0  0  0  0  0
    1.0720  -50.9527  -21.5825 N   0  0  0  0  0  0  0  0  0  0  0  0
    0.3036  -51.4194  -20.4919 C   0  0  0  0  0  0  0  0  0  0  0  0
   -0.8203  -50.8222  -20.3437 O   0  0  0  0  0  0  0  0  0  0  0  0
    0.6215  -52.4718  -19.5368 C   0  0  0  0  0  0  0  0  0  0  0  0
    1.2959  -52.1066  -18.3403 N   0  0  0  0  0  0  0  0  0  0  0  0
    0.8342  -51.3849  -17.2269 C   0  0  0  0  0  0  0  0  0  0  0  0
    0.8766  -51.9176  -16.0574 O   0  0  0  0  0  0  0  0  0  0  0  0
    0.2729  -50.0105  -17.2208 C   0  0  0  0  0  0  0  0  0  0  0  0
    1.0205  -49.3146  -16.1666 N   0  0  0  0  0  0  0  0  0  0  0  0
    2.0236  -48.3888  -16.3240 C   0  0  0  0  0  0  0  0  0  0  0  0
    2.0046  -47.2986  -15.6520 O   0  0  0  0  0  0  0  0  0  0  0  0
    3.2291  -48.5072  -17.2541 C   0  0  0  0  0  0  0  0  0  0  0  0
    3.0579  -47.5221  -18.2961 N   0  0  0  0  0  0  0  0  0  0  0  0
    3.0604  -47.6448  -19.6812 C   0  0  0  0  0  0  0  0  0  0  0  0
    1.9320  -47.5150  -20.2929 O   0  0  0  0  0  0  0  0  0  0  0  0
    4.1879  -47.9038  -20.5937 C   0  0  0  0  0  0  0  0  0  0  0  0
    3.9816  -48.7893  -21.6803 N   0  0  0  0  0  0  0  0  0  0  0  0
    2.9214  -49.5768  -22.1178 C   0  0  0  0  0  0  0  0  0  0  0  0
    2.1544  -49.1083  -23.0276 O   0  0  0  0  0  0  0  0  0  0  0  0
    0.5919  -50.5442  -22.4501 H   0  0  0  0  0  0  0  0  0  0  0  0
    2.3213  -52.4261  -18.2465 H   0  0  0  0  0  0  0  0  0  0  0  0
    0.7216  -49.5829  -15.1748 H   0  0  0  0  0  0  0  0  0  0  0  0
    2.8816  -46.5347  -17.8759 H   0  0  0  0  0  0  0  0  0  0  0  0
    4.9023  -48.8328  -22.2999 H   0  0  0  0  0  0  0  0  0  0  0  0
    1.7703  -51.9029  -23.8991 C   0  0  0  0  0  0  0  0  0  0  0  0
    2.8863  -51.8145  -22.9160 C   0  0  0  0  0  0  0  0  0  0  0  0
    4.1830  -51.4287  -23.5392 C   0  0  0  0  0  0  0  0  0  0  0  0
   -0.6673  -53.3070  -19.2443 C   0  0  0  0  0  0  0  0  0  0  0  0
   -1.2443  -53.6965  -20.5541 C   0  0  0  0  0  0  0  0  0  0  0  0
   -0.3824  -54.4570  -21.4969 C   0  0  0  0  0  0  0  0  0  0  0  0
   -1.1043  -55.0637  -22.6486 C   0  0  0  0  0  0  0  0  0  0  0  0
   -0.9135  -54.3240  -23.8504 N   0  0  0  0  0  0  0  0  0  0  0  0
   -0.9045  -53.3006  -23.6072 H   0  0  0  0  0  0  0  0  0  0  0  0
   -1.6420  -54.5039  -24.5794 H   0  0  0  0  0  0  0  0  0  0  0  0
   -1.1665  -50.0259  -16.7331 C   0  0  0  0  0  0  0  0  0  0  0  0
   -1.3446  -49.3619  -15.4384 C   0  0  0  0  0  0  0  0  0  0  0  0
   -1.2681  -50.0307  -14.2378 C   0  0  0  0  0  0  0  0  0  0  0  0
   -1.4514  -49.3634  -13.0483 C   0  0  0  0  0  0  0  0  0  0  0  0
   -1.7147  -48.0138  -13.0306 C   0  0  0  0  0  0  0  0  0  0  0  0
   -1.7953  -47.3272  -14.2156 C   0  0  0  0  0  0  0  0  0  0  0  0
   -1.6082  -48.0117  -15.4110 C   0  0  0  0  0  0  0  0  0  0  0  0
    4.3897  -48.2297  -16.3227 C   0  0  0  0  0  0  0  0  0  0  0  0
    5.3197  -47.1987  -16.7115 C   0  0  0  0  0  0  0  0  0  0  0  0
    6.1850  -47.2527  -17.7775 C   0  0  0  0  0  0  0  0  0  0  0  0
    7.0338  -46.2156  -18.0983 C   0  0  0  0  0  0  0  0  0  0  0  0
    7.0457  -45.0642  -17.3460 C   0  0  0  0  0  0  0  0  0  0  0  0
    6.1883  -44.9850  -16.2717 C   0  0  0  0  0  0  0  0  0  0  0  0
    5.3587  -46.0153  -15.9700 C   0  0  0  0  0  0  0  0  0  0  0  0
    4.5660  -46.5024  -21.1012 C   0  0  0  0  0  0  0  0  0  0  0  0
    4.3102  -46.2257  -22.4975 C   0  0  0  0  0  0  0  0  0  0  0  0
    3.1652  -45.6132  -23.0017 C   0  0  0  0  0  0  0  0  0  0  0  0
    3.3117  -45.4927  -24.3168 N   0  0  0  0  0  0  0  0  0  0  0  0
    4.4848  -45.9891  -24.7276 C   0  0  0  0  0  0  0  0  0  0  0  0
    5.0693  -46.1046  -25.9819 C   0  0  0  0  0  0  0  0  0  0  0  0
    6.3095  -46.6890  -26.1537 C   0  0  0  0  0  0  0  0  0  0  0  0
    6.9249  -47.1469  -25.0059 C   0  0  0  0  0  0  0  0  0  0  0  0
    6.3723  -47.0455  -23.7577 C   0  0  0  0  0  0  0  0  0  0  0  0
    5.1280  -46.4531  -23.6154 C   0  0  0  0  0  0  0  0  0  0  0  0
    2.5969  -45.0647  -24.9428 H   0  0  0  0  0  0  0  0  0  0  0  0
 26 27  1  0  0  0
 27 28  1  0  0  0
 27  1  1  0  0  0
  1  2  1  0  0  0
  2  3  1  0  0  0
  3  4  2  0  0  0
  3  5  1  0  0  0
  5 29  1  0  0  0
 29 30  1  0  0  0
 30 31  1  0  0  0
 31 32  1  0  0  0
 32 33  1  0  0  0
  5  6  1  0  0  0
  6  7  1  0  0  0
  7  8  2  0  0  0
  7  9  1  0  0  0
  9 36  1  0  0  0
 36 37  1  0  0  0
 37 38  2  0  0  0
 38 39  1  0  0  0
 39 40  2  0  0  0
 40 41  1  0  0  0
 41 42  2  0  0  0
  9 10  1  0  0  0
 10 11  1  0  0  0
 11 12  2  0  0  0
 11 13  1  0  0  0
 13 43  1  0  0  0
 43 44  1  0  0  0
 44 45  2  0  0  0
 45 46  1  0  0  0
 46 47  2  0  0  0
 47 48  1  0  0  0
 48 49  2  0  0  0
 13 14  1  0  0  0
 14 15  1  0  0  0
 15 16  2  0  0  0
 15 17  1  0  0  0
 17 50  1  0  0  0
 50 51  1  0  0  0
 51 52  2  0  0  0
 52 53  1  0  0  0
 53 54  1  0  0  0
 54 55  2  0  0  0
 55 56  1  0  0  0
 56 57  2  0  0  0
 57 58  1  0  0  0
 58 59  2  0  0  0
 17 18  1  0  0  0
 18 19  1  0  0  0
 19 20  2  0  0  0
 19  1  1  0  0  0
 42 37  1  0  0  0
 49 44  1  0  0  0
 59 51  1  0  0  0
 59 54  1  0  0  0
  2 21  1  0  0  0
 33 34  1  0  0  0
 33 35  1  0  0  0
  6 22  1  0  0  0
 10 23  1  0  0  0
 14 24  1  0  0  0
 53 60  1  0  0  0
 18 25  1  0  0  0
M  END
> <minimizedAffinity>
-4.69017

> <CNNscore>
0.2987446785

> <CNNaffinity>
6.8938941956

> <CNN_VS>
2.0595142841

> <CNNaffinity_variance>
1.2801114321

$$$$
[H]c1c([H])c([H])c(C([H])([H])[C@@]2([H])C(=O)N([H])[C@]([H])(C([H])([H])c3c([H])c([H])c([H])c([H])c3[H])C(=O)N([H])[C@@]([H])(C([H])([H])C([H])([H])C([H])([H])C([H])([H])N([H])[H])C(=O)N([H])[C@@]([H])(C([H])(C([H])([H])[H])C([H])([H])[H])C(=O)N([H])[C@@]([H])(C([H])([H])c3c([H])n([H])c4c([H])c([H])c([H])c([H])c34)C(=O)N2[H])c([H])c1[H]


 60 64  0  0  0  0  0  0  0  0999 V2000
    3.4541  -51.9411  -20.4876 C   0  0  0  0  0  0  0  0  0  0  0  0
    3.2090  -51.4812  -21.8342 N   0  0  0  0  0  0  0  0  0  0  0  0
    2.4600  -52.1538  -22.8263 C   0  0  0  0  0  0  0  0  0  0  0  0
    1.8922  -51.3797  -23.6749 O   0  0  0  0  0  0  0  0  0  0  0  0
    2.2580  -53.5853  -23.0021 C   0  0  0  0  0  0  0  0  0  0  0  0
    1.1351  -54.1841  -22.3696 N   0  0  0  0  0  0  0  0  0  0  0  0
   -0.2347  -54.0651  -22.6581 C   0  0  0  0  0  0  0  0  0  0  0  0
   -0.9248  -55.1159  -22.9282 O   0  0  0  0  0  0  0  0  0  0  0  0
   -1.0370  -52.8165  -22.6939 C   0  0  0  0  0  0  0  0  0  0  0  0
   -2.2095  -53.1110  -21.8615 N   0  0  0  0  0  0  0  0  0  0  0  0
   -2.4618  -52.6692  -20.5851 C   0  0  0  0  0  0  0  0  0  0  0  0
   -3.6100  -52.1865  -20.2861 O   0  0  0  0  0  0  0  0  0  0  0  0
   -1.4860  -52.6853  -19.4104 C   0  0  0  0  0  0  0  0  0  0  0  0
   -1.1590  -51.3106  -19.1132 N   0  0  0  0  0  0  0  0  0  0  0  0
    0.0671  -50.6627  -19.0112 C   0  0  0  0  0  0  0  0  0  0  0  0
    0.3854  -49.8381  -19.9509 O   0  0  0  0  0  0  0  0  0  0  0  0
    1.0949  -50.7687  -17.9606 C   0  0  0  0  0  0  0  0  0  0  0  0
    2.4558  -50.7927  -18.3537 N   0  0  0  0  0  0  0  0  0  0  0  0
    3.1262  -50.7893  -19.5728 C   0  0  0  0  0  0  0  0  0  0  0  0
    3.5529  -49.6720  -20.0259 O   0  0  0  0  0  0  0  0  0  0  0  0
    3.6642  -50.5337  -22.0462 H   0  0  0  0  0  0  0  0  0  0  0  0
    1.3408  -54.8403  -21.5393 H   0  0  0  0  0  0  0  0  0  0  0  0
   -2.9299  -53.7435  -22.3368 H   0  0  0  0  0  0  0  0  0  0  0  0
   -2.0586  -50.7164  -18.9708 H   0  0  0  0  0  0  0  0  0  0  0  0
    3.1000  -50.8177  -17.4493 H   0  0  0  0  0  0  0  0  0  0  0  0
    5.7092  -50.8521  -20.7911 C   0  0  0  0  0  0  0  0  0  0  0  0
    4.9878  -52.0656  -20.3153 C   0  0  0  0  0  0  0  0  0  0  0  0
    5.4028  -52.4926  -18.9499 C   0  0  0  0  0  0  0  0  0  0  0  0
    2.3171  -53.9295  -24.5260 C   0  0  0  0  0  0  0  0  0  0  0  0
    1.3020  -54.9813  -24.7779 C   0  0  0  0  0  0  0  0  0  0  0  0
    1.2437  -56.1326  -23.8393 C   0  0  0  0  0  0  0  0  0  0  0  0
    1.9547  -57.3537  -24.3074 C   0  0  0  0  0  0  0  0  0  0  0  0
    3.1913  -57.5471  -23.6284 N   0  0  0  0  0  0  0  0  0  0  0  0
    3.6331  -56.6043  -23.4776 H   0  0  0  0  0  0  0  0  0  0  0  0
    3.8611  -58.1701  -24.1361 H   0  0  0  0  0  0  0  0  0  0  0  0
   -1.5966  -52.5834  -24.0877 C   0  0  0  0  0  0  0  0  0  0  0  0
   -0.6948  -51.8147  -24.9507 C   0  0  0  0  0  0  0  0  0  0  0  0
    0.5287  -52.2895  -25.3658 C   0  0  0  0  0  0  0  0  0  0  0  0
    1.3435  -51.5254  -26.1695 C   0  0  0  0  0  0  0  0  0  0  0  0
    0.9553  -50.2706  -26.5769 C   0  0  0  0  0  0  0  0  0  0  0  0
   -0.2602  -49.7775  -26.1750 C   0  0  0  0  0  0  0  0  0  0  0  0
   -1.0750  -50.5585  -25.3634 C   0  0  0  0  0  0  0  0  0  0  0  0
   -2.2863  -53.3803  -18.3296 C   0  0  0  0  0  0  0  0  0  0  0  0
   -2.5504  -52.6400  -17.1209 C   0  0  0  0  0  0  0  0  0  0  0  0
   -2.7404  -53.1775  -15.8706 C   0  0  0  0  0  0  0  0  0  0  0  0
   -2.9704  -52.4011  -14.7555 C   0  0  0  0  0  0  0  0  0  0  0  0
   -3.0195  -51.0302  -14.8566 C   0  0  0  0  0  0  0  0  0  0  0  0
   -2.8328  -50.4665  -16.0987 C   0  0  0  0  0  0  0  0  0  0  0  0
   -2.6069  -51.2456  -17.1863 C   0  0  0  0  0  0  0  0  0  0  0  0
    0.8122  -49.5544  -17.0606 C   0  0  0  0  0  0  0  0  0  0  0  0
    1.9176  -48.6539  -16.8177 C   0  0  0  0  0  0  0  0  0  0  0  0
    2.4176  -47.7266  -17.7290 C   0  0  0  0  0  0  0  0  0  0  0  0
    3.3990  -47.0572  -17.1339 N   0  0  0  0  0  0  0  0  0  0  0  0
    3.5907  -47.4797  -15.8785 C   0  0  0  0  0  0  0  0  0  0  0  0
    4.4905  -47.1080  -14.8884 C   0  0  0  0  0  0  0  0  0  0  0  0
    4.5044  -47.7240  -13.6516 C   0  0  0  0  0  0  0  0  0  0  0  0
    3.5724  -48.7254  -13.4660 C   0  0  0  0  0  0  0  0  0  0  0  0
    2.6738  -49.1114  -14.4236 C   0  0  0  0  0  0  0  0  0  0  0  0
    2.6819  -48.4747  -15.6541 C   0  0  0  0  0  0  0  0  0  0  0  0
    3.9466  -46.2997  -17.5948 H   0  0  0  0  0  0  0  0  0  0  0  0
 26 27  1  0  0  0
 27 28  1  0  0  0
 27  1  1  0  0  0
  1  2  1  0  0  0
  2  3  1  0  0  0
  3  4  2  0  0  0
  3  5  1  0  0  0
  5 29  1  0  0  0
 29 30  1  0  0  0
 30 31  1  0  0  0
 31 32  1  0  0  0
 32 33  1  0  0  0
  5  6  1  0  0  0
  6  7  1  0  0  0
  7  8  2  0  0  0
  7  9  1  0  0  0
  9 36  1  0  0  0
 36 37  1  0  0  0
 37 38  2  0  0  0
 38 39  1  0  0  0
 39 40  2  0  0  0
 40 41  1  0  0  0
 41 42  2  0  0  0
  9 10  1  0  0  0
 10 11  1  0  0  0
 11 12  2  0  0  0
 11 13  1  0  0  0
 13 43  1  0  0  0
 43 44  1  0  0  0
 44 45  2  0  0  0
 45 46  1  0  0  0
 46 47  2  0  0  0
 47 48  1  0  0  0
 48 49  2  0  0  0
 13 14  1  0  0  0
 14 15  1  0  0  0
 15 16  2  0  0  0
 15 17  1  0  0  0
 17 50  1  0  0  0
 50 51  1  0  0  0
 51 52  2  0  0  0
 52 53  1  0  0  0
 53 54  1  0  0  0
 54 55  2  0  0  0
 55 56  1  0  0  0
 56 57  2  0  0  0
 57 58  1  0  0  0
 58 59  2  0  0  0
 17 18  1  0  0  0
 18 19  1  0  0  0
 19 20  2  0  0  0
 19  1  1  0  0  0
 42 37  1  0  0  0
 49 44  1  0  0  0
 59 51  1  0  0  0
 59 54  1  0  0  0
  2 21  1  0  0  0
 33 34  1  0  0  0
 33 35  1  0  0  0
  6 22  1  0  0  0
 10 23  1  0  0  0
 14 24  1  0  0  0
 53 60  1  0  0  0
 18 25  1  0  0  0
M  END
> <minimizedAffinity>
36.94143

> <CNNscore>
0.2820959091

> <CNNaffinity>
6.6643776894

> <CNN_VS>
1.8799936771

> <CNNaffinity_variance>
0.7616865039

$$$$
[H]OC1([H])C([H])([H])C([H])([H])N(C([H])([H])C([H])([H])C([H])([H])Oc2c(OC([H])([H])[H])c([H])c3c(Oc4c([H])c([H])c(N([H])C(=O)C5(C(=O)N([H])C6=C([H])C([H])([H])C([H])(F)C([H])=C6[H])C([H])([H])C5([H])[H])c([H])c4F)c([H])c([H])nc3c2[H])C([H])([H])C1([H])[H]


 50 55  0  0  0  0  0  0  0  0999 V2000
    0.8190  -52.6944  -24.5818 O   0  0  0  0  0  0  0  0  0  0  0  0
    0.5764  -51.8510  -20.4270 C   0  0  0  0  0  0  0  0  0  0  0  0
    0.6659  -52.1158  -21.7594 C   0  0  0  0  0  0  0  0  0  0  0  0
   -0.0040  -53.1764  -22.3506 C   0  0  0  0  0  0  0  0  0  0  0  0
    0.0935  -53.4110  -23.6925 C   0  0  0  0  0  0  0  0  0  0  0  0
   -0.6404  -54.5174  -24.2207 C   0  0  0  0  0  0  0  0  0  0  0  0
   -1.3909  -55.2825  -23.4042 C   0  0  0  0  0  0  0  0  0  0  0  0
   -1.4744  -55.0365  -22.0894 N   0  0  0  0  0  0  0  0  0  0  0  0
   -0.7957  -54.0005  -21.5565 C   0  0  0  0  0  0  0  0  0  0  0  0
   -0.8804  -53.7239  -20.2002 C   0  0  0  0  0  0  0  0  0  0  0  0
   -0.2258  -52.6817  -19.6125 C   0  0  0  0  0  0  0  0  0  0  0  0
    1.1492  -49.4590  -20.3152 C   0  0  0  0  0  0  0  0  0  0  0  0
    1.2549  -50.7889  -19.8661 O   0  0  0  0  0  0  0  0  0  0  0  0
   -0.3005  -52.3892  -18.3072 O   0  0  0  0  0  0  0  0  0  0  0  0
   -1.3652  -52.5006  -17.4483 C   0  0  0  0  0  0  0  0  0  0  0  0
   -1.0410  -51.9913  -16.0856 C   0  0  0  0  0  0  0  0  0  0  0  0
   -1.9305  -50.8454  -15.6305 C   0  0  0  0  0  0  0  0  0  0  0  0
   -3.1264  -51.3528  -15.0319 N   0  0  0  0  0  0  0  0  0  0  0  0
   -3.0800  -51.3953  -13.6010 C   0  0  0  0  0  0  0  0  0  0  0  0
   -4.4860  -51.2271  -13.0611 C   0  0  0  0  0  0  0  0  0  0  0  0
   -4.9489  -49.8300  -13.4076 C   0  0  0  0  0  0  0  0  0  0  0  0
   -6.1869  -49.5705  -12.8729 O   0  0  0  0  0  0  0  0  0  0  0  0
   -4.8667  -49.6308  -14.9067 C   0  0  0  0  0  0  0  0  0  0  0  0
   -4.3419  -50.8699  -15.6007 C   0  0  0  0  0  0  0  0  0  0  0  0
   -6.7930  -49.0367  -13.4258 H   0  0  0  0  0  0  0  0  0  0  0  0
    2.0268  -52.1238  -24.6488 C   0  0  0  0  0  0  0  0  0  0  0  0
    3.2050  -52.7164  -24.1850 C   0  0  0  0  0  0  0  0  0  0  0  0
    4.4435  -52.1405  -24.2468 C   0  0  0  0  0  0  0  0  0  0  0  0
    4.5738  -50.8630  -24.8105 C   0  0  0  0  0  0  0  0  0  0  0  0
    3.4592  -50.2514  -25.2741 C   0  0  0  0  0  0  0  0  0  0  0  0
    2.1992  -50.8424  -25.2084 C   0  0  0  0  0  0  0  0  0  0  0  0
    1.1209  -50.1980  -25.6788 F   0  0  0  0  0  0  0  0  0  0  0  0
    5.8695  -50.3141  -24.8852 N   0  0  0  0  0  0  0  0  0  0  0  0
    6.4240  -49.4560  -23.9230 C   0  0  0  0  0  0  0  0  0  0  0  0
    5.7051  -49.1625  -22.8800 O   0  0  0  0  0  0  0  0  0  0  0  0
    6.4467  -50.5961  -25.7333 H   0  0  0  0  0  0  0  0  0  0  0  0
    7.7702  -48.8282  -23.9568 C   0  0  0  0  0  0  0  0  0  0  0  0
    8.0535  -48.0421  -25.2025 C   0  0  0  0  0  0  0  0  0  0  0  0
    8.6568  -49.4045  -25.0285 C   0  0  0  0  0  0  0  0  0  0  0  0
    8.4223  -48.3192  -22.7429 C   0  0  0  0  0  0  0  0  0  0  0  0
    9.0002  -47.1781  -22.7849 O   0  0  0  0  0  0  0  0  0  0  0  0
    8.4429  -49.0309  -21.5166 N   0  0  0  0  0  0  0  0  0  0  0  0
    7.9979  -49.9439  -21.3963 H   0  0  0  0  0  0  0  0  0  0  0  0
    9.1068  -48.4609  -20.3808 C   0  0  0  0  0  0  0  0  0  0  0  0
   10.3581  -48.7494  -20.1389 C   0  0  0  0  0  0  0  0  0  0  0  0
   11.1053  -48.2157  -19.0069 C   0  0  0  0  0  0  0  0  0  0  0  0
   10.4232  -47.2543  -18.1193 C   0  0  0  0  0  0  0  0  0  0  0  0
   10.4494  -47.7607  -16.8085 F   0  0  0  0  0  0  0  0  0  0  0  0
    9.0122  -46.9767  -18.4461 C   0  0  0  0  0  0  0  0  0  0  0  0
    8.4353  -47.5398  -19.4843 C   0  0  0  0  0  0  0  0  0  0  0  0
 12 13  1  0  0  0
 13  2  1  0  0  0
  2  3  2  0  0  0
  3  4  1  0  0  0
  4  5  2  0  0  0
  5  1  1  0  0  0
  1 26  1  0  0  0
 26 27  2  0  0  0
 27 28  1  0  0  0
 28 29  2  0  0  0
 29 33  1  0  0  0
 33 34  1  0  0  0
 34 35  2  0  0  0
 34 37  1  0  0  0
 37 38  1  0  0  0
 38 39  1  0  0  0
 37 40  1  0  0  0
 40 41  2  0  0  0
 40 42  1  0  0  0
 42 44  1  0  0  0
 44 45  2  0  0  0
 45 46  1  0  0  0
 46 47  1  0  0  0
 47 48  1  0  0  0
 47 49  1  0  0  0
 49 50  2  0  0  0
 29 30  1  0  0  0
 30 31  2  0  0  0
 31 32  1  0  0  0
  5  6  1  0  0  0
  6  7  2  0  0  0
  7  8  1  0  0  0
  8  9  2  0  0  0
  9 10  1  0  0  0
 10 11  2  0  0  0
 11 14  1  0  0  0
 14 15  1  0  0  0
 15 16  1  0  0  0
 16 17  1  0  0  0
 17 18  1  0  0  0
 18 19  1  0  0  0
 19 20  1  0  0  0
 20 21  1  0  0  0
 21 22  1  0  0  0
 21 23  1  0  0  0
 23 24  1  0  0  0
 11  2  1  0  0  0
 24 18  1  0  0  0
  9  4  1  0  0  0
 31 26  1  0  0  0
 39 37  1  0  0  0
 50 44  1  0  0  0
 33 36  1  0  0  0
 42 43  1  0  0  0
 22 25  1  0  0  0
M  END
> <minimizedAffinity>
-8.25633

> <CNNscore>
0.5061844587

> <CNNaffinity>
7.1082153320

> <CNN_VS>
3.5980682373

> <CNNaffinity_variance>
0.1813219339

$$$$
[H]OC1([H])C([H])([H])C([H])([H])N(C([H])([H])C([H])([H])C([H])([H])Oc2c(OC([H])([H])[H])c([H])c3c(Oc4c([H])c([H])c(N([H])C(=O)C5(C(=O)N([H])C6=C([H])C([H])([H])C([H])(F)C([H])=C6[H])C([H])([H])C5([H])[H])c([H])c4F)c([H])c([H])nc3c2[H])C([H])([H])C1([H])[H]


 50 55  0  0  0  0  0  0  0  0999 V2000
    0.4615  -52.2803  -24.4512 O   0  0  0  0  0  0  0  0  0  0  0  0
    0.7219  -51.2774  -20.3331 C   0  0  0  0  0  0  0  0  0  0  0  0
    0.6492  -51.5921  -21.6556 C   0  0  0  0  0  0  0  0  0  0  0  0
    0.0338  -52.7491  -22.1091 C   0  0  0  0  0  0  0  0  0  0  0  0
   -0.0360  -53.0333  -23.4432 C   0  0  0  0  0  0  0  0  0  0  0  0
   -0.6997  -54.2402  -23.8235 C   0  0  0  0  0  0  0  0  0  0  0  0
   -1.2265  -55.0476  -22.8823 C   0  0  0  0  0  0  0  0  0  0  0  0
   -1.1483  -54.7517  -21.5776 N   0  0  0  0  0  0  0  0  0  0  0  0
   -0.5295  -53.6208  -21.1822 C   0  0  0  0  0  0  0  0  0  0  0  0
   -0.4501  -53.2928  -19.8371 C   0  0  0  0  0  0  0  0  0  0  0  0
    0.1519  -52.1559  -19.3843 C   0  0  0  0  0  0  0  0  0  0  0  0
    1.2534  -48.8865  -20.5845 C   0  0  0  0  0  0  0  0  0  0  0  0
    1.3412  -50.1193  -19.9108 O   0  0  0  0  0  0  0  0  0  0  0  0
    0.2319  -51.8134  -18.0915 O   0  0  0  0  0  0  0  0  0  0  0  0
   -0.7741  -51.5779  -17.1881 C   0  0  0  0  0  0  0  0  0  0  0  0
   -0.3789  -51.9504  -15.8001 C   0  0  0  0  0  0  0  0  0  0  0  0
   -1.1332  -51.1895  -14.7215 C   0  0  0  0  0  0  0  0  0  0  0  0
   -2.4119  -50.7739  -15.2092 N   0  0  0  0  0  0  0  0  0  0  0  0
   -3.4567  -51.7226  -14.9652 C   0  0  0  0  0  0  0  0  0  0  0  0
   -4.7695  -50.9787  -14.8244 C   0  0  0  0  0  0  0  0  0  0  0  0
   -4.6900  -50.1362  -13.5714 C   0  0  0  0  0  0  0  0  0  0  0  0
   -5.8804  -49.4967  -13.3269 O   0  0  0  0  0  0  0  0  0  0  0  0
   -3.4957  -49.2095  -13.6640 C   0  0  0  0  0  0  0  0  0  0  0  0
   -2.7414  -49.4084  -14.9617 C   0  0  0  0  0  0  0  0  0  0  0  0
   -5.8170  -48.5873  -12.9704 H   0  0  0  0  0  0  0  0  0  0  0  0
    1.6124  -51.6757  -24.7654 C   0  0  0  0  0  0  0  0  0  0  0  0
    1.7406  -50.3058  -25.0134 C   0  0  0  0  0  0  0  0  0  0  0  0
    2.9116  -49.6788  -25.3375 C   0  0  0  0  0  0  0  0  0  0  0  0
    4.0866  -50.4381  -25.4363 C   0  0  0  0  0  0  0  0  0  0  0  0
    4.0100  -51.7690  -25.2031 C   0  0  0  0  0  0  0  0  0  0  0  0
    2.8141  -52.4032  -24.8735 C   0  0  0  0  0  0  0  0  0  0  0  0
    2.7846  -53.7259  -24.6528 F   0  0  0  0  0  0  0  0  0  0  0  0
    5.2796  -49.7535  -25.7419 N   0  0  0  0  0  0  0  0  0  0  0  0
    6.1739  -49.2517  -24.7836 C   0  0  0  0  0  0  0  0  0  0  0  0
    5.8976  -49.4489  -23.5284 O   0  0  0  0  0  0  0  0  0  0  0  0
    5.4962  -49.6339  -26.7767 H   0  0  0  0  0  0  0  0  0  0  0  0
    7.4313  -48.5034  -25.0416 C   0  0  0  0  0  0  0  0  0  0  0  0
    8.1380  -48.9004  -26.3037 C   0  0  0  0  0  0  0  0  0  0  0  0
    8.6551  -49.3782  -24.9790 C   0  0  0  0  0  0  0  0  0  0  0  0
    7.5896  -47.0932  -24.6617 C   0  0  0  0  0  0  0  0  0  0  0  0
    7.2255  -46.1867  -25.4885 O   0  0  0  0  0  0  0  0  0  0  0  0
    8.1268  -46.6808  -23.4160 N   0  0  0  0  0  0  0  0  0  0  0  0
    8.4331  -47.3407  -22.6970 H   0  0  0  0  0  0  0  0  0  0  0  0
    8.2496  -45.2816  -23.1288 C   0  0  0  0  0  0  0  0  0  0  0  0
    7.2937  -44.6550  -22.4955 C   0  0  0  0  0  0  0  0  0  0  0  0
    7.3381  -43.2357  -22.1665 C   0  0  0  0  0  0  0  0  0  0  0  0
    8.5555  -42.4813  -22.5218 C   0  0  0  0  0  0  0  0  0  0  0  0
    8.1893  -41.4085  -23.3526 F   0  0  0  0  0  0  0  0  0  0  0  0
    9.5925  -43.2469  -23.2382 C   0  0  0  0  0  0  0  0  0  0  0  0
    9.4286  -44.5240  -23.5022 C   0  0  0  0  0  0  0  0  0  0  0  0
 12 13  1  0  0  0
 13  2  1  0  0  0
  2  3  2  0  0  0
  3  4  1  0  0  0
  4  5  2  0  0  0
  5  1  1  0  0  0
  1 26  1  0  0  0
 26 27  2  0  0  0
 27 28  1  0  0  0
 28 29  2  0  0  0
 29 33  1  0  0  0
 33 34  1  0  0  0
 34 35  2  0  0  0
 34 37  1  0  0  0
 37 38  1  0  0  0
 38 39  1  0  0  0
 37 40  1  0  0  0
 40 41  2  0  0  0
 40 42  1  0  0  0
 42 44  1  0  0  0
 44 45  2  0  0  0
 45 46  1  0  0  0
 46 47  1  0  0  0
 47 48  1  0  0  0
 47 49  1  0  0  0
 49 50  2  0  0  0
 29 30  1  0  0  0
 30 31  2  0  0  0
 31 32  1  0  0  0
  5  6  1  0  0  0
  6  7  2  0  0  0
  7  8  1  0  0  0
  8  9  2  0  0  0
  9 10  1  0  0  0
 10 11  2  0  0  0
 11 14  1  0  0  0
 14 15  1  0  0  0
 15 16  1  0  0  0
 16 17  1  0  0  0
 17 18  1  0  0  0
 18 19  1  0  0  0
 19 20  1  0  0  0
 20 21  1  0  0  0
 21 22  1  0  0  0
 21 23  1  0  0  0
 23 24  1  0  0  0
 11  2  1  0  0  0
 24 18  1  0  0  0
  9  4  1  0  0  0
 31 26  1  0  0  0
 39 37  1  0  0  0
 50 44  1  0  0  0
 33 36  1  0  0  0
 42 43  1  0  0  0
 22 25  1  0  0  0
M  END
> <minimizedAffinity>
-7.13098

> <CNNscore>
0.4123589993

> <CNNaffinity>
6.9804558754

> <CNN_VS>
2.8784537315

> <CNNaffinity_variance>
0.1914350092

$$$$
[H]OC1([H])C([H])([H])C([H])([H])N(C([H])([H])C([H])([H])C([H])([H])Oc2c(OC([H])([H])[H])c([H])c3c(Oc4c([H])c([H])c(N([H])C(=O)C5(C(=O)N([H])C6=C([H])C([H])([H])C([H])(F)C([H])=C6[H])C([H])([H])C5([H])[H])c([H])c4F)c([H])c([H])nc3c2[H])C([H])([H])C1([H])[H]


 50 55  0  0  0  0  0  0  0  0999 V2000
    0.4434  -52.2398  -24.3957 O   0  0  0  0  0  0  0  0  0  0  0  0
    0.6963  -51.3324  -20.2551 C   0  0  0  0  0  0  0  0  0  0  0  0
    0.6261  -51.6167  -21.5847 C   0  0  0  0  0  0  0  0  0  0  0  0
   -0.0114  -52.7496  -22.0674 C   0  0  0  0  0  0  0  0  0  0  0  0
   -0.0779  -53.0031  -23.4078 C   0  0  0  0  0  0  0  0  0  0  0  0
   -0.7653  -54.1865  -23.8188 C   0  0  0  0  0  0  0  0  0  0  0  0
   -1.3165  -55.0022  -22.8991 C   0  0  0  0  0  0  0  0  0  0  0  0
   -1.2412  -54.7365  -21.5876 N   0  0  0  0  0  0  0  0  0  0  0  0
   -0.6005  -53.6285  -21.1635 C   0  0  0  0  0  0  0  0  0  0  0  0
   -0.5235  -53.3316  -19.8111 C   0  0  0  0  0  0  0  0  0  0  0  0
    0.1002  -52.2184  -19.3295 C   0  0  0  0  0  0  0  0  0  0  0  0
    1.3481  -48.9700  -20.4917 C   0  0  0  0  0  0  0  0  0  0  0  0
    1.3380  -50.1978  -19.8035 O   0  0  0  0  0  0  0  0  0  0  0  0
    0.1785  -51.9059  -18.0291 O   0  0  0  0  0  0  0  0  0  0  0  0
   -0.8268  -51.6263  -17.1375 C   0  0  0  0  0  0  0  0  0  0  0  0
   -0.4303  -51.9297  -15.7332 C   0  0  0  0  0  0  0  0  0  0  0  0
   -1.1726  -51.1054  -14.6936 C   0  0  0  0  0  0  0  0  0  0  0  0
   -2.5103  -50.8458  -15.1285 N   0  0  0  0  0  0  0  0  0  0  0  0
   -3.4624  -51.8113  -14.6676 C   0  0  0  0  0  0  0  0  0  0  0  0
   -4.8125  -51.1375  -14.5261 C   0  0  0  0  0  0  0  0  0  0  0  0
   -4.7043  -50.1169  -13.4158 C   0  0  0  0  0  0  0  0  0  0  0  0
   -5.9175  -49.5234  -13.1673 O   0  0  0  0  0  0  0  0  0  0  0  0
   -3.5909  -49.1417  -13.7365 C   0  0  0  0  0  0  0  0  0  0  0  0
   -2.9199  -49.4819  -15.0505 C   0  0  0  0  0  0  0  0  0  0  0  0
   -5.8952  -48.5694  -12.9495 H   0  0  0  0  0  0  0  0  0  0  0  0
    1.6011  -51.6313  -24.6758 C   0  0  0  0  0  0  0  0  0  0  0  0
    1.7730  -50.2445  -24.7148 C   0  0  0  0  0  0  0  0  0  0  0  0
    2.9512  -49.6131  -25.0023 C   0  0  0  0  0  0  0  0  0  0  0  0
    4.0876  -50.3856  -25.2831 C   0  0  0  0  0  0  0  0  0  0  0  0
    3.9680  -51.7333  -25.2554 C   0  0  0  0  0  0  0  0  0  0  0  0
    2.7649  -52.3719  -24.9623 C   0  0  0  0  0  0  0  0  0  0  0  0
    2.6921  -53.7111  -24.9483 F   0  0  0  0  0  0  0  0  0  0  0  0
    5.2910  -49.7009  -25.5445 N   0  0  0  0  0  0  0  0  0  0  0  0
    6.2968  -49.4731  -24.5926 C   0  0  0  0  0  0  0  0  0  0  0  0
    6.1199  -49.9428  -23.3931 O   0  0  0  0  0  0  0  0  0  0  0  0
    5.4231  -49.3550  -26.5420 H   0  0  0  0  0  0  0  0  0  0  0  0
    7.5727  -48.7403  -24.8000 C   0  0  0  0  0  0  0  0  0  0  0  0
    8.5533  -48.8773  -23.6732 C   0  0  0  0  0  0  0  0  0  0  0  0
    7.7632  -47.6109  -23.8228 C   0  0  0  0  0  0  0  0  0  0  0  0
    8.1768  -48.5906  -26.1306 C   0  0  0  0  0  0  0  0  0  0  0  0
    8.8001  -49.5851  -26.6409 O   0  0  0  0  0  0  0  0  0  0  0  0
    8.1026  -47.3930  -26.8861 N   0  0  0  0  0  0  0  0  0  0  0  0
    7.6164  -46.5562  -26.5551 H   0  0  0  0  0  0  0  0  0  0  0  0
    8.7250  -47.3327  -28.1763 C   0  0  0  0  0  0  0  0  0  0  0  0
    8.0575  -47.6815  -29.2441 C   0  0  0  0  0  0  0  0  0  0  0  0
    8.6152  -47.6517  -30.5905 C   0  0  0  0  0  0  0  0  0  0  0  0
    9.9917  -47.1472  -30.7578 C   0  0  0  0  0  0  0  0  0  0  0  0
   10.7614  -48.1469  -31.3770 F   0  0  0  0  0  0  0  0  0  0  0  0
   10.6891  -46.7752  -29.5129 C   0  0  0  0  0  0  0  0  0  0  0  0
   10.0882  -46.8684  -28.3476 C   0  0  0  0  0  0  0  0  0  0  0  0
 12 13  1  0  0  0
 13  2  1  0  0  0
  2  3  2  0  0  0
  3  4  1  0  0  0
  4  5  2  0  0  0
  5  1  1  0  0  0
  1 26  1  0  0  0
 26 27  2  0  0  0
 27 28  1  0  0  0
 28 29  2  0  0  0
 29 33  1  0  0  0
 33 34  1  0  0  0
 34 35  2  0  0  0
 34 37  1  0  0  0
 37 38  1  0  0  0
 38 39  1  0  0  0
 37 40  1  0  0  0
 40 41  2  0  0  0
 40 42  1  0  0  0
 42 44  1  0  0  0
 44 45  2  0  0  0
 45 46  1  0  0  0
 46 47  1  0  0  0
 47 48  1  0  0  0
 47 49  1  0  0  0
 49 50  2  0  0  0
 29 30  1  0  0  0
 30 31  2  0  0  0
 31 32  1  0  0  0
  5  6  1  0  0  0
  6  7  2  0  0  0
  7  8  1  0  0  0
  8  9  2  0  0  0
  9 10  1  0  0  0
 10 11  2  0  0  0
 11 14  1  0  0  0
 14 15  1  0  0  0
 15 16  1  0  0  0
 16 17  1  0  0  0
 17 18  1  0  0  0
 18 19  1  0  0  0
 19 20  1  0  0  0
 20 21  1  0  0  0
 21 22  1  0  0  0
 21 23  1  0  0  0
 23 24  1  0  0  0
 11  2  1  0  0  0
 24 18  1  0  0  0
  9  4  1  0  0  0
 31 26  1  0  0  0
 39 37  1  0  0  0
 50 44  1  0  0  0
 33 36  1  0  0  0
 42 43  1  0  0  0
 22 25  1  0  0  0
M  END
> <minimizedAffinity>
-7.76916

> <CNNscore>
0.3037250340

> <CNNaffinity>
6.8243932724

> <CNN_VS>
2.0727391243

> <CNNaffinity_variance>
0.1849383861

$$$$
[H]OC1([H])C([H])([H])C([H])([H])N(C([H])([H])C([H])([H])C([H])([H])Oc2c(OC([H])([H])[H])c([H])c3c(Oc4c([H])c([H])c(N([H])C(=O)C5(C(=O)N([H])C6=C([H])C([H])([H])C([H])(F)C([H])=C6[H])C([H])([H])C5([H])[H])c([H])c4F)c([H])c([H])nc3c2[H])C([H])([H])C1([H])[H]


 50 55  0  0  0  0  0  0  0  0999 V2000
    0.5550  -52.0676  -24.3954 O   0  0  0  0  0  0  0  0  0  0  0  0
    0.1865  -51.8731  -20.1694 C   0  0  0  0  0  0  0  0  0  0  0  0
    0.3154  -51.9283  -21.5236 C   0  0  0  0  0  0  0  0  0  0  0  0
   -0.1974  -52.9752  -22.2745 C   0  0  0  0  0  0  0  0  0  0  0  0
   -0.0647  -52.9983  -23.6336 C   0  0  0  0  0  0  0  0  0  0  0  0
   -0.6348  -54.1081  -24.3302 C   0  0  0  0  0  0  0  0  0  0  0  0
   -1.2722  -55.0794  -23.6480 C   0  0  0  0  0  0  0  0  0  0  0  0
   -1.3926  -55.0392  -22.3138 N   0  0  0  0  0  0  0  0  0  0  0  0
   -0.8673  -54.0068  -21.6238 C   0  0  0  0  0  0  0  0  0  0  0  0
   -0.9933  -53.9428  -20.2442 C   0  0  0  0  0  0  0  0  0  0  0  0
   -0.4930  -52.9155  -19.4997 C   0  0  0  0  0  0  0  0  0  0  0  0
    1.2599  -49.6617  -20.0286 C   0  0  0  0  0  0  0  0  0  0  0  0
    0.7078  -50.8191  -19.4480 O   0  0  0  0  0  0  0  0  0  0  0  0
   -0.6110  -52.8272  -18.1681 O   0  0  0  0  0  0  0  0  0  0  0  0
   -1.7384  -52.6694  -17.4013 C   0  0  0  0  0  0  0  0  0  0  0  0
   -1.4298  -52.0847  -16.0655 C   0  0  0  0  0  0  0  0  0  0  0  0
   -1.0033  -50.6263  -16.1171 C   0  0  0  0  0  0  0  0  0  0  0  0
    0.0680  -50.3896  -15.1995 N   0  0  0  0  0  0  0  0  0  0  0  0
    0.6951  -51.5872  -14.7262 C   0  0  0  0  0  0  0  0  0  0  0  0
    2.1453  -51.2858  -14.4055 C   0  0  0  0  0  0  0  0  0  0  0  0
    2.8446  -50.9511  -15.7036 C   0  0  0  0  0  0  0  0  0  0  0  0
    4.1888  -50.7509  -15.5058 O   0  0  0  0  0  0  0  0  0  0  0  0
    2.1364  -49.7908  -16.3712 C   0  0  0  0  0  0  0  0  0  0  0  0
    0.9484  -49.3256  -15.5558 C   0  0  0  0  0  0  0  0  0  0  0  0
    4.6027  -50.0414  -16.0381 H   0  0  0  0  0  0  0  0  0  0  0  0
    1.7757  -51.5348  -24.5165 C   0  0  0  0  0  0  0  0  0  0  0  0
    2.0687  -50.1826  -24.3160 C   0  0  0  0  0  0  0  0  0  0  0  0
    3.3124  -49.6281  -24.4396 C   0  0  0  0  0  0  0  0  0  0  0  0
    4.3929  -50.4496  -24.7924 C   0  0  0  0  0  0  0  0  0  0  0  0
    4.1561  -51.7665  -24.9951 C   0  0  0  0  0  0  0  0  0  0  0  0
    2.8867  -52.3266  -24.8683 C   0  0  0  0  0  0  0  0  0  0  0  0
    2.6979  -53.6375  -25.0809 F   0  0  0  0  0  0  0  0  0  0  0  0
    5.6647  -49.8493  -24.8804 N   0  0  0  0  0  0  0  0  0  0  0  0
    6.0118  -48.8598  -25.8131 C   0  0  0  0  0  0  0  0  0  0  0  0
    5.0948  -48.4510  -26.6394 O   0  0  0  0  0  0  0  0  0  0  0  0
    6.3861  -50.1804  -24.1720 H   0  0  0  0  0  0  0  0  0  0  0  0
    7.3375  -48.2076  -25.9709 C   0  0  0  0  0  0  0  0  0  0  0  0
    7.4919  -47.4223  -27.2395 C   0  0  0  0  0  0  0  0  0  0  0  0
    8.1338  -48.7726  -27.1169 C   0  0  0  0  0  0  0  0  0  0  0  0
    8.0874  -47.6811  -24.8227 C   0  0  0  0  0  0  0  0  0  0  0  0
    9.0968  -48.3388  -24.3908 O   0  0  0  0  0  0  0  0  0  0  0  0
    7.7502  -46.4715  -24.1644 N   0  0  0  0  0  0  0  0  0  0  0  0
    6.9648  -45.8825  -24.4517 H   0  0  0  0  0  0  0  0  0  0  0  0
    8.5350  -46.0331  -23.0475 C   0  0  0  0  0  0  0  0  0  0  0  0
    9.5270  -45.2020  -23.2282 C   0  0  0  0  0  0  0  0  0  0  0  0
   10.3743  -44.7094  -22.1492 C   0  0  0  0  0  0  0  0  0  0  0  0
   10.0562  -45.1326  -20.7719 C   0  0  0  0  0  0  0  0  0  0  0  0
   11.1863  -45.7661  -20.2272 F   0  0  0  0  0  0  0  0  0  0  0  0
    8.9286  -46.0736  -20.6395 C   0  0  0  0  0  0  0  0  0  0  0  0
    8.2501  -46.4684  -21.6938 C   0  0  0  0  0  0  0  0  0  0  0  0
 12 13  1  0  0  0
 13  2  1  0  0  0
  2  3  2  0  0  0
  3  4  1  0  0  0
  4  5  2  0  0  0
  5  1  1  0  0  0
  1 26  1  0  0  0
 26 27  2  0  0  0
 27 28  1  0  0  0
 28 29  2  0  0  0
 29 33  1  0  0  0
 33 34  1  0  0  0
 34 35  2  0  0  0
 34 37  1  0  0  0
 37 38  1  0  0  0
 38 39  1  0  0  0
 37 40  1  0  0  0
 40 41  2  0  0  0
 40 42  1  0  0  0
 42 44  1  0  0  0
 44 45  2  0  0  0
 45 46  1  0  0  0
 46 47  1  0  0  0
 47 48  1  0  0  0
 47 49  1  0  0  0
 49 50  2  0  0  0
 29 30  1  0  0  0
 30 31  2  0  0  0
 31 32  1  0  0  0
  5  6  1  0  0  0
  6  7  2  0  0  0
  7  8  1  0  0  0
  8  9  2  0  0  0
  9 10  1  0  0  0
 10 11  2  0  0  0
 11 14  1  0  0  0
 14 15  1  0  0  0
 15 16  1  0  0  0
 16 17  1  0  0  0
 17 18  1  0  0  0
 18 19  1  0  0  0
 19 20  1  0  0  0
 20 21  1  0  0  0
 21 22  1  0  0  0
 21 23  1  0  0  0
 23 24  1  0  0  0
 11  2  1  0  0  0
 24 18  1  0  0  0
  9  4  1  0  0  0
 31 26  1  0  0  0
 39 37  1  0  0  0
 50 44  1  0  0  0
 33 36  1  0  0  0
 42 43  1  0  0  0
 22 25  1  0  0  0
M  END
> <minimizedAffinity>
-7.13741

> <CNNscore>
0.2925976217

> <CNNaffinity>
7.1263442039

> <CNN_VS>
2.0851514339

> <CNNaffinity_variance>
0.1916247755

$$$$
[H]OC1([H])C([H])([H])C([H])([H])N(C([H])([H])C([H])([H])C([H])([H])Oc2c(OC([H])([H])[H])c([H])c3c(Oc4c([H])c([H])c(N([H])C(=O)C5(C(=O)N([H])C6=C([H])C([H])([H])C([H])(F)C([H])=C6[H])C([H])([H])C5([H])[H])c([H])c4F)c([H])c([H])nc3c2[H])C([H])([H])C1([H])[H]


 50 55  0  0  0  0  0  0  0  0999 V2000
    1.6695  -53.0417  -23.0136 O   0  0  0  0  0  0  0  0  0  0  0  0
    1.0007  -51.6488  -19.0583 C   0  0  0  0  0  0  0  0  0  0  0  0
    1.2280  -52.0943  -20.3245 C   0  0  0  0  0  0  0  0  0  0  0  0
    0.3344  -52.9191  -20.9912 C   0  0  0  0  0  0  0  0  0  0  0  0
    0.5819  -53.3405  -22.2665 C   0  0  0  0  0  0  0  0  0  0  0  0
   -0.3985  -54.1774  -22.8832 C   0  0  0  0  0  0  0  0  0  0  0  0
   -1.5136  -54.5218  -22.2100 C   0  0  0  0  0  0  0  0  0  0  0  0
   -1.7391  -54.0980  -20.9588 N   0  0  0  0  0  0  0  0  0  0  0  0
   -0.8358  -53.3066  -20.3456 C   0  0  0  0  0  0  0  0  0  0  0  0
   -1.0587  -52.8488  -19.0557 C   0  0  0  0  0  0  0  0  0  0  0  0
   -0.1853  -52.0361  -18.3948 C   0  0  0  0  0  0  0  0  0  0  0  0
    2.0704  -49.4600  -18.7016 C   0  0  0  0  0  0  0  0  0  0  0  0
    1.9082  -50.8295  -18.4193 O   0  0  0  0  0  0  0  0  0  0  0  0
   -0.3838  -51.5735  -17.1532 O   0  0  0  0  0  0  0  0  0  0  0  0
   -1.4330  -51.7969  -16.2970 C   0  0  0  0  0  0  0  0  0  0  0  0
   -1.4724  -50.8019  -15.1881 C   0  0  0  0  0  0  0  0  0  0  0  0
   -0.3103  -49.8218  -15.2006 C   0  0  0  0  0  0  0  0  0  0  0  0
   -0.7893  -48.4860  -15.3792 N   0  0  0  0  0  0  0  0  0  0  0  0
   -2.2112  -48.3639  -15.2586 C   0  0  0  0  0  0  0  0  0  0  0  0
   -2.5410  -46.9768  -14.7450 C   0  0  0  0  0  0  0  0  0  0  0  0
   -2.0065  -46.8680  -13.3348 C   0  0  0  0  0  0  0  0  0  0  0  0
   -2.3449  -45.6642  -12.7673 O   0  0  0  0  0  0  0  0  0  0  0  0
   -0.5197  -47.1563  -13.3375 C   0  0  0  0  0  0  0  0  0  0  0  0
   -0.0209  -47.4740  -14.7313 C   0  0  0  0  0  0  0  0  0  0  0  0
   -1.6686  -45.2526  -12.1917 H   0  0  0  0  0  0  0  0  0  0  0  0
    2.0204  -52.1486  -23.9453 C   0  0  0  0  0  0  0  0  0  0  0  0
    2.9728  -51.1432  -23.7539 C   0  0  0  0  0  0  0  0  0  0  0  0
    3.3366  -50.2244  -24.6988 C   0  0  0  0  0  0  0  0  0  0  0  0
    2.7277  -50.2676  -25.9615 C   0  0  0  0  0  0  0  0  0  0  0  0
    1.8002  -51.2257  -26.1922 C   0  0  0  0  0  0  0  0  0  0  0  0
    1.4327  -52.1595  -25.2257 C   0  0  0  0  0  0  0  0  0  0  0  0
    0.5066  -53.0908  -25.4980 F   0  0  0  0  0  0  0  0  0  0  0  0
    3.1498  -49.3246  -26.9196 N   0  0  0  0  0  0  0  0  0  0  0  0
    3.2580  -47.9457  -26.6813 C   0  0  0  0  0  0  0  0  0  0  0  0
    2.9713  -47.5075  -25.4911 O   0  0  0  0  0  0  0  0  0  0  0  0
    3.4078  -49.7148  -27.8752 H   0  0  0  0  0  0  0  0  0  0  0  0
    3.6728  -46.9016  -27.6537 C   0  0  0  0  0  0  0  0  0  0  0  0
    3.7573  -45.5196  -27.0768 C   0  0  0  0  0  0  0  0  0  0  0  0
    2.5854  -45.8985  -27.9330 C   0  0  0  0  0  0  0  0  0  0  0  0
    4.6280  -47.1800  -28.7344 C   0  0  0  0  0  0  0  0  0  0  0  0
    4.3805  -48.1388  -29.5451 O   0  0  0  0  0  0  0  0  0  0  0  0
    5.8182  -46.4343  -28.9291 N   0  0  0  0  0  0  0  0  0  0  0  0
    6.0855  -45.6480  -28.3320 H   0  0  0  0  0  0  0  0  0  0  0  0
    6.6974  -46.7774  -30.0084 C   0  0  0  0  0  0  0  0  0  0  0  0
    6.5998  -46.1603  -31.1561 C   0  0  0  0  0  0  0  0  0  0  0  0
    7.4515  -46.4492  -32.3031 C   0  0  0  0  0  0  0  0  0  0  0  0
    8.5170  -47.4564  -32.1371 C   0  0  0  0  0  0  0  0  0  0  0  0
    8.3301  -48.4663  -33.0965 F   0  0  0  0  0  0  0  0  0  0  0  0
    8.5685  -48.1174  -30.8198 C   0  0  0  0  0  0  0  0  0  0  0  0
    7.7271  -47.7885  -29.8651 C   0  0  0  0  0  0  0  0  0  0  0  0
 12 13  1  0  0  0
 13  2  1  0  0  0
  2  3  2  0  0  0
  3  4  1  0  0  0
  4  5  2  0  0  0
  5  1  1  0  0  0
  1 26  1  0  0  0
 26 27  2  0  0  0
 27 28  1  0  0  0
 28 29  2  0  0  0
 29 33  1  0  0  0
 33 34  1  0  0  0
 34 35  2  0  0  0
 34 37  1  0  0  0
 37 38  1  0  0  0
 38 39  1  0  0  0
 37 40  1  0  0  0
 40 41  2  0  0  0
 40 42  1  0  0  0
 42 44  1  0  0  0
 44 45  2  0  0  0
 45 46  1  0  0  0
 46 47  1  0  0  0
 47 48  1  0  0  0
 47 49  1  0  0  0
 49 50  2  0  0  0
 29 30  1  0  0  0
 30 31  2  0  0  0
 31 32  1  0  0  0
  5  6  1  0  0  0
  6  7  2  0  0  0
  7  8  1  0  0  0
  8  9  2  0  0  0
  9 10  1  0  0  0
 10 11  2  0  0  0
 11 14  1  0  0  0
 14 15  1  0  0  0
 15 16  1  0  0  0
 16 17  1  0  0  0
 17 18  1  0  0  0
 18 19  1  0  0  0
 19 20  1  0  0  0
 20 21  1  0  0  0
 21 22  1  0  0  0
 21 23  1  0  0  0
 23 24  1  0  0  0
 11  2  1  0  0  0
 24 18  1  0  0  0
  9  4  1  0  0  0
 31 26  1  0  0  0
 39 37  1  0  0  0
 50 44  1  0  0  0
 33 36  1  0  0  0
 42 43  1  0  0  0
 22 25  1  0  0  0
M  END
> <minimizedAffinity>
-7.15460

> <CNNscore>
0.2890109718

> <CNNaffinity>
6.7821593285

> <CNN_VS>
1.9601184130

> <CNNaffinity_variance>
0.2458647788

$$$$
[H]OC1([H])C([H])([H])C([H])([H])N(C([H])([H])C([H])([H])C([H])([H])Oc2c(OC([H])([H])[H])c([H])c3c(Oc4c([H])c([H])c(N([H])C(=O)C5(C(=O)N([H])C6=C([H])C([H])([H])C([H])(F)C([H])=C6[H])C([H])([H])C5([H])[H])c([H])c4F)c([H])c([H])nc3c2[H])C([H])([H])C1([H])[H]


 50 55  0  0  0  0  0  0  0  0999 V2000
    1.6402  -52.8516  -23.1729 O   0  0  0  0  0  0  0  0  0  0  0  0
    0.7339  -51.8469  -19.1478 C   0  0  0  0  0  0  0  0  0  0  0  0
    1.0371  -52.1670  -20.4359 C   0  0  0  0  0  0  0  0  0  0  0  0
    0.2402  -53.0086  -21.1973 C   0  0  0  0  0  0  0  0  0  0  0  0
    0.5616  -53.3024  -22.4917 C   0  0  0  0  0  0  0  0  0  0  0  0
   -0.3220  -54.1676  -23.2075 C   0  0  0  0  0  0  0  0  0  0  0  0
   -1.4217  -54.6600  -22.6046 C   0  0  0  0  0  0  0  0  0  0  0  0
   -1.7208  -54.3600  -21.3331 N   0  0  0  0  0  0  0  0  0  0  0  0
   -0.9097  -53.5463  -20.6273 C   0  0  0  0  0  0  0  0  0  0  0  0
   -1.2104  -53.2156  -19.3145 C   0  0  0  0  0  0  0  0  0  0  0  0
   -0.4323  -52.3872  -18.5605 C   0  0  0  0  0  0  0  0  0  0  0  0
    1.7296  -49.6406  -18.6970 C   0  0  0  0  0  0  0  0  0  0  0  0
    1.5460  -51.0072  -18.4139 O   0  0  0  0  0  0  0  0  0  0  0  0
   -0.7077  -52.0457  -17.2946 O   0  0  0  0  0  0  0  0  0  0  0  0
   -1.8842  -52.1596  -16.5971 C   0  0  0  0  0  0  0  0  0  0  0  0
   -1.9357  -51.2332  -15.4307 C   0  0  0  0  0  0  0  0  0  0  0  0
   -0.6704  -50.4118  -15.2424 C   0  0  0  0  0  0  0  0  0  0  0  0
   -0.9204  -49.0374  -15.5499 N   0  0  0  0  0  0  0  0  0  0  0  0
   -2.2809  -48.6403  -15.3441 C   0  0  0  0  0  0  0  0  0  0  0  0
   -2.3114  -47.1686  -14.9834 C   0  0  0  0  0  0  0  0  0  0  0  0
   -1.6377  -47.0093  -13.6393 C   0  0  0  0  0  0  0  0  0  0  0  0
   -1.7041  -45.7092  -13.2019 O   0  0  0  0  0  0  0  0  0  0  0  0
   -0.2320  -47.5680  -13.7124 C   0  0  0  0  0  0  0  0  0  0  0  0
    0.0714  -48.1222  -15.0884 C   0  0  0  0  0  0  0  0  0  0  0  0
   -0.9153  -45.3709  -12.7313 H   0  0  0  0  0  0  0  0  0  0  0  0
    1.9464  -51.8401  -23.9927 C   0  0  0  0  0  0  0  0  0  0  0  0
    2.2977  -50.5568  -23.5635 C   0  0  0  0  0  0  0  0  0  0  0  0
    2.6100  -49.5159  -24.3933 C   0  0  0  0  0  0  0  0  0  0  0  0
    2.5847  -49.7190  -25.7807 C   0  0  0  0  0  0  0  0  0  0  0  0
    2.2513  -50.9469  -26.2417 C   0  0  0  0  0  0  0  0  0  0  0  0
    1.9334  -52.0043  -25.3919 C   0  0  0  0  0  0  0  0  0  0  0  0
    1.6064  -53.2046  -25.8934 F   0  0  0  0  0  0  0  0  0  0  0  0
    2.9420  -48.6325  -26.6037 N   0  0  0  0  0  0  0  0  0  0  0  0
    4.2623  -48.2832  -26.9271 C   0  0  0  0  0  0  0  0  0  0  0  0
    5.2225  -49.0223  -26.4554 O   0  0  0  0  0  0  0  0  0  0  0  0
    2.1353  -48.0641  -27.0012 H   0  0  0  0  0  0  0  0  0  0  0  0
    4.7027  -47.1394  -27.7671 C   0  0  0  0  0  0  0  0  0  0  0  0
    6.1483  -46.7741  -27.6034 C   0  0  0  0  0  0  0  0  0  0  0  0
    5.0897  -45.9326  -26.9543 C   0  0  0  0  0  0  0  0  0  0  0  0
    4.1530  -46.9017  -29.1084 C   0  0  0  0  0  0  0  0  0  0  0  0
    2.8938  -46.7108  -29.2344 O   0  0  0  0  0  0  0  0  0  0  0  0
    4.9513  -46.8699  -30.2798 N   0  0  0  0  0  0  0  0  0  0  0  0
    5.9652  -47.0042  -30.2652 H   0  0  0  0  0  0  0  0  0  0  0  0
    4.3308  -46.6352  -31.5507 C   0  0  0  0  0  0  0  0  0  0  0  0
    4.4876  -45.4876  -32.1558 C   0  0  0  0  0  0  0  0  0  0  0  0
    3.8907  -45.1673  -33.4464 C   0  0  0  0  0  0  0  0  0  0  0  0
    3.1127  -46.2191  -34.1288 C   0  0  0  0  0  0  0  0  0  0  0  0
    1.8150  -45.7332  -34.3635 F   0  0  0  0  0  0  0  0  0  0  0  0
    2.9711  -47.4871  -33.3893 C   0  0  0  0  0  0  0  0  0  0  0  0
    3.5377  -47.6516  -32.2148 C   0  0  0  0  0  0  0  0  0  0  0  0
 12 13  1  0  0  0
 13  2  1  0  0  0
  2  3  2  0  0  0
  3  4  1  0  0  0
  4  5  2  0  0  0
  5  1  1  0  0  0
  1 26  1  0  0  0
 26 27  2  0  0  0
 27 28  1  0  0  0
 28 29  2  0  0  0
 29 33  1  0  0  0
 33 34  1  0  0  0
 34 35  2  0  0  0
 34 37  1  0  0  0
 37 38  1  0  0  0
 38 39  1  0  0  0
 37 40  1  0  0  0
 40 41  2  0  0  0
 40 42  1  0  0  0
 42 44  1  0  0  0
 44 45  2  0  0  0
 45 46  1  0  0  0
 46 47  1  0  0  0
 47 48  1  0  0  0
 47 49  1  0  0  0
 49 50  2  0  0  0
 29 30  1  0  0  0
 30 31  2  0  0  0
 31 32  1  0  0  0
  5  6  1  0  0  0
  6  7  2  0  0  0
  7  8  1  0  0  0
  8  9  2  0  0  0
  9 10  1  0  0  0
 10 11  2  0  0  0
 11 14  1  0  0  0
 14 15  1  0  0  0
 15 16  1  0  0  0
 16 17  1  0  0  0
 17 18  1  0  0  0
 18 19  1  0  0  0
 19 20  1  0  0  0
 20 21  1  0  0  0
 21 22  1  0  0  0
 21 23  1  0  0  0
 23 24  1  0  0  0
 11  2  1  0  0  0
 24 18  1  0  0  0
  9  4  1  0  0  0
 31 26  1  0  0  0
 39 37  1  0  0  0
 50 44  1  0  0  0
 33 36  1  0  0  0
 42 43  1  0  0  0
 22 25  1  0  0  0
M  END
> <minimizedAffinity>
-7.79750

> <CNNscore>
0.2883936465

> <CNNaffinity>
6.6620473862

> <CNN_VS>
1.9212921858

> <CNNaffinity_variance>
0.1674379557

$$$$
[H]OC1([H])C([H])([H])C([H])([H])N(C([H])([H])C([H])([H])C([H])([H])Oc2c(OC([H])([H])[H])c([H])c3c(Oc4c([H])c([H])c(N([H])C(=O)C5(C(=O)N([H])C6=C([H])C([H])([H])C([H])(F)C([H])=C6[H])C([H])([H])C5([H])[H])c([H])c4F)c([H])c([H])nc3c2[H])C([H])([H])C1([H])[H]


 50 55  0  0  0  0  0  0  0  0999 V2000
    0.9080  -51.6914  -23.4709 O   0  0  0  0  0  0  0  0  0  0  0  0
    0.4711  -50.8032  -19.3415 C   0  0  0  0  0  0  0  0  0  0  0  0
    0.6219  -51.0806  -20.6658 C   0  0  0  0  0  0  0  0  0  0  0  0
    0.1358  -52.2463  -21.2385 C   0  0  0  0  0  0  0  0  0  0  0  0
    0.2899  -52.4928  -22.5730 C   0  0  0  0  0  0  0  0  0  0  0  0
   -0.2532  -53.7123  -23.0824 C   0  0  0  0  0  0  0  0  0  0  0  0
   -0.8873  -54.5672  -22.2563 C   0  0  0  0  0  0  0  0  0  0  0  0
   -1.0289  -54.3078  -20.9491 N   0  0  0  0  0  0  0  0  0  0  0  0
   -0.5293  -53.1664  -20.4338 C   0  0  0  0  0  0  0  0  0  0  0  0
   -0.6775  -52.8760  -19.0858 C   0  0  0  0  0  0  0  0  0  0  0  0
   -0.2037  -51.7309  -18.5164 C   0  0  0  0  0  0  0  0  0  0  0  0
    2.1861  -49.0442  -19.1773 C   0  0  0  0  0  0  0  0  0  0  0  0
    0.9660  -49.6353  -18.7989 O   0  0  0  0  0  0  0  0  0  0  0  0
   -0.3437  -51.4245  -17.2197 O   0  0  0  0  0  0  0  0  0  0  0  0
   -0.9683  -52.1277  -16.2201 C   0  0  0  0  0  0  0  0  0  0  0  0
   -1.4892  -51.2335  -15.1476 C   0  0  0  0  0  0  0  0  0  0  0  0
   -1.3217  -49.7525  -15.4474 C   0  0  0  0  0  0  0  0  0  0  0  0
   -0.2263  -49.2156  -14.7006 N   0  0  0  0  0  0  0  0  0  0  0  0
    0.6911  -48.4528  -15.4930 C   0  0  0  0  0  0  0  0  0  0  0  0
    1.3264  -47.3905  -14.6184 C   0  0  0  0  0  0  0  0  0  0  0  0
    0.2416  -46.4191  -14.2113 C   0  0  0  0  0  0  0  0  0  0  0  0
    0.7582  -45.3737  -13.4860 O   0  0  0  0  0  0  0  0  0  0  0  0
   -0.8693  -47.1719  -13.5093 C   0  0  0  0  0  0  0  0  0  0  0  0
   -0.5713  -48.6545  -13.4355 C   0  0  0  0  0  0  0  0  0  0  0  0
    0.2062  -45.0461  -12.7471 H   0  0  0  0  0  0  0  0  0  0  0  0
    2.1553  -51.3171  -23.7758 C   0  0  0  0  0  0  0  0  0  0  0  0
    3.0887  -52.1357  -24.4187 C   0  0  0  0  0  0  0  0  0  0  0  0
    4.3663  -51.7633  -24.7324 C   0  0  0  0  0  0  0  0  0  0  0  0
    4.8018  -50.4729  -24.3977 C   0  0  0  0  0  0  0  0  0  0  0  0
    3.9309  -49.6450  -23.7751 C   0  0  0  0  0  0  0  0  0  0  0  0
    2.6301  -50.0295  -23.4572 C   0  0  0  0  0  0  0  0  0  0  0  0
    1.8013  -49.1760  -22.8375 F   0  0  0  0  0  0  0  0  0  0  0  0
    6.1142  -50.1139  -24.7641 N   0  0  0  0  0  0  0  0  0  0  0  0
    6.4315  -49.1361  -25.7195 C   0  0  0  0  0  0  0  0  0  0  0  0
    5.4518  -48.5009  -26.2917 O   0  0  0  0  0  0  0  0  0  0  0  0
    6.8963  -50.6274  -24.2575 H   0  0  0  0  0  0  0  0  0  0  0  0
    7.7899  -48.7308  -26.1647 C   0  0  0  0  0  0  0  0  0  0  0  0
    8.8915  -49.1325  -25.2291 C   0  0  0  0  0  0  0  0  0  0  0  0
    8.4211  -47.7083  -25.2576 C   0  0  0  0  0  0  0  0  0  0  0  0
    8.1660  -48.6972  -27.5843 C   0  0  0  0  0  0  0  0  0  0  0  0
    9.1403  -49.4256  -27.9821 O   0  0  0  0  0  0  0  0  0  0  0  0
    7.4989  -47.8956  -28.5450 N   0  0  0  0  0  0  0  0  0  0  0  0
    6.7063  -47.2925  -28.3118 H   0  0  0  0  0  0  0  0  0  0  0  0
    7.9350  -47.9206  -29.9105 C   0  0  0  0  0  0  0  0  0  0  0  0
    8.9255  -47.1611  -30.2973 C   0  0  0  0  0  0  0  0  0  0  0  0
    9.4286  -47.1246  -31.6648 C   0  0  0  0  0  0  0  0  0  0  0  0
    8.8187  -48.0375  -32.6508 C   0  0  0  0  0  0  0  0  0  0  0  0
    8.3163  -47.2719  -33.7169 F   0  0  0  0  0  0  0  0  0  0  0  0
    7.7041  -48.8628  -32.1497 C   0  0  0  0  0  0  0  0  0  0  0  0
    7.3209  -48.7912  -30.8944 C   0  0  0  0  0  0  0  0  0  0  0  0
 12 13  1  0  0  0
 13  2  1  0  0  0
  2  3  2  0  0  0
  3  4  1  0  0  0
  4  5  2  0  0  0
  5  1  1  0  0  0
  1 26  1  0  0  0
 26 27  2  0  0  0
 27 28  1  0  0  0
 28 29  2  0  0  0
 29 33  1  0  0  0
 33 34  1  0  0  0
 34 35  2  0  0  0
 34 37  1  0  0  0
 37 38  1  0  0  0
 38 39  1  0  0  0
 37 40  1  0  0  0
 40 41  2  0  0  0
 40 42  1  0  0  0
 42 44  1  0  0  0
 44 45  2  0  0  0
 45 46  1  0  0  0
 46 47  1  0  0  0
 47 48  1  0  0  0
 47 49  1  0  0  0
 49 50  2  0  0  0
 29 30  1  0  0  0
 30 31  2  0  0  0
 31 32  1  0  0  0
  5  6  1  0  0  0
  6  7  2  0  0  0
  7  8  1  0  0  0
  8  9  2  0  0  0
  9 10  1  0  0  0
 10 11  2  0  0  0
 11 14  1  0  0  0
 14 15  1  0  0  0
 15 16  1  0  0  0
 16 17  1  0  0  0
 17 18  1  0  0  0
 18 19  1  0  0  0
 19 20  1  0  0  0
 20 21  1  0  0  0
 21 22  1  0  0  0
 21 23  1  0  0  0
 23 24  1  0  0  0
 11  2  1  0  0  0
 24 18  1  0  0  0
  9  4  1  0  0  0
 31 26  1  0  0  0
 39 37  1  0  0  0
 50 44  1  0  0  0
 33 36  1  0  0  0
 42 43  1  0  0  0
 22 25  1  0  0  0
M  END
> <minimizedAffinity>
-7.23992

> <CNNscore>
0.2807304859

> <CNNaffinity>
6.7420701981

> <CNN_VS>
1.8927046061

> <CNNaffinity_variance>
0.0446213931

$$$$
[H]OC1([H])C([H])([H])C([H])([H])N(C([H])([H])C([H])([H])C([H])([H])Oc2c(OC([H])([H])[H])c([H])c3c(Oc4c([H])c([H])c(N([H])C(=O)C5(C(=O)N([H])C6=C([H])C([H])([H])C([H])(F)C([H])=C6[H])C([H])([H])C5([H])[H])c([H])c4F)c([H])c([H])nc3c2[H])C([H])([H])C1([H])[H]


 50 55  0  0  0  0  0  0  0  0999 V2000
    0.7855  -51.5203  -23.2393 O   0  0  0  0  0  0  0  0  0  0  0  0
    0.6068  -50.8182  -19.0551 C   0  0  0  0  0  0  0  0  0  0  0  0
    0.6750  -51.0364  -20.3972 C   0  0  0  0  0  0  0  0  0  0  0  0
    0.1130  -52.1540  -20.9957 C   0  0  0  0  0  0  0  0  0  0  0  0
    0.1853  -52.3408  -22.3466 C   0  0  0  0  0  0  0  0  0  0  0  0
   -0.4325  -53.5132  -22.8813 C   0  0  0  0  0  0  0  0  0  0  0  0
   -1.0547  -54.3831  -22.0619 C   0  0  0  0  0  0  0  0  0  0  0  0
   -1.1155  -54.1824  -20.7382 N   0  0  0  0  0  0  0  0  0  0  0  0
   -0.5440  -53.0867  -20.1989 C   0  0  0  0  0  0  0  0  0  0  0  0
   -0.6079  -52.8570  -18.8328 C   0  0  0  0  0  0  0  0  0  0  0  0
   -0.0591  -51.7593  -18.2379 C   0  0  0  0  0  0  0  0  0  0  0  0
    2.5635  -49.4848  -18.3802 C   0  0  0  0  0  0  0  0  0  0  0  0
    1.1761  -49.6974  -18.4871 O   0  0  0  0  0  0  0  0  0  0  0  0
   -0.1169  -51.5113  -16.9225 O   0  0  0  0  0  0  0  0  0  0  0  0
   -1.2080  -51.2516  -16.1314 C   0  0  0  0  0  0  0  0  0  0  0  0
   -0.9102  -51.4488  -14.6845 C   0  0  0  0  0  0  0  0  0  0  0  0
    0.2258  -52.4235  -14.4184 C   0  0  0  0  0  0  0  0  0  0  0  0
    1.0694  -51.9297  -13.3742 N   0  0  0  0  0  0  0  0  0  0  0  0
    1.2785  -52.8673  -12.3119 C   0  0  0  0  0  0  0  0  0  0  0  0
    2.6382  -52.6105  -11.6938 C   0  0  0  0  0  0  0  0  0  0  0  0
    3.6865  -52.9387  -12.7328 C   0  0  0  0  0  0  0  0  0  0  0  0
    4.9529  -52.8143  -12.2165 O   0  0  0  0  0  0  0  0  0  0  0  0
    3.4391  -52.1093  -13.9756 C   0  0  0  0  0  0  0  0  0  0  0  0
    2.2254  -51.2188  -13.8130 C   0  0  0  0  0  0  0  0  0  0  0  0
    5.6313  -52.4484  -12.8198 H   0  0  0  0  0  0  0  0  0  0  0  0
    2.0286  -51.1844  -23.6010 C   0  0  0  0  0  0  0  0  0  0  0  0
    2.8911  -52.0154  -24.3220 C   0  0  0  0  0  0  0  0  0  0  0  0
    4.1639  -51.6824  -24.6943 C   0  0  0  0  0  0  0  0  0  0  0  0
    4.6695  -50.4226  -24.3418 C   0  0  0  0  0  0  0  0  0  0  0  0
    3.8686  -49.5840  -23.6442 C   0  0  0  0  0  0  0  0  0  0  0  0
    2.5724  -49.9284  -23.2668 C   0  0  0  0  0  0  0  0  0  0  0  0
    1.8145  -49.0657  -22.5736 F   0  0  0  0  0  0  0  0  0  0  0  0
    5.9735  -50.1025  -24.7689 N   0  0  0  0  0  0  0  0  0  0  0  0
    6.2783  -49.1017  -25.7046 C   0  0  0  0  0  0  0  0  0  0  0  0
    5.2959  -48.4062  -26.1964 O   0  0  0  0  0  0  0  0  0  0  0  0
    6.7602  -50.6661  -24.3269 H   0  0  0  0  0  0  0  0  0  0  0  0
    7.6258  -48.7341  -26.2113 C   0  0  0  0  0  0  0  0  0  0  0  0
    8.7607  -49.2456  -25.3744 C   0  0  0  0  0  0  0  0  0  0  0  0
    8.3631  -47.8018  -25.2872 C   0  0  0  0  0  0  0  0  0  0  0  0
    7.9152  -48.6290  -27.6476 C   0  0  0  0  0  0  0  0  0  0  0  0
    8.9805  -49.1720  -28.1039 O   0  0  0  0  0  0  0  0  0  0  0  0
    7.0678  -47.9542  -28.5626 N   0  0  0  0  0  0  0  0  0  0  0  0
    6.1946  -47.5018  -28.2815 H   0  0  0  0  0  0  0  0  0  0  0  0
    7.4293  -47.8965  -29.9487 C   0  0  0  0  0  0  0  0  0  0  0  0
    6.9000  -48.7340  -30.8007 C   0  0  0  0  0  0  0  0  0  0  0  0
    7.2140  -48.7443  -32.2240 C   0  0  0  0  0  0  0  0  0  0  0  0
    8.1396  -47.7153  -32.7355 C   0  0  0  0  0  0  0  0  0  0  0  0
    9.2227  -48.3589  -33.3582 F   0  0  0  0  0  0  0  0  0  0  0  0
    8.7038  -46.8057  -31.7211 C   0  0  0  0  0  0  0  0  0  0  0  0
    8.3626  -46.9090  -30.4559 C   0  0  0  0  0  0  0  0  0  0  0  0
 12 13  1  0  0  0
 13  2  1  0  0  0
  2  3  2  0  0  0
  3  4  1  0  0  0
  4  5  2  0  0  0
  5  1  1  0  0  0
  1 26  1  0  0  0
 26 27  2  0  0  0
 27 28  1  0  0  0
 28 29  2  0  0  0
 29 33  1  0  0  0
 33 34  1  0  0  0
 34 35  2  0  0  0
 34 37  1  0  0  0
 37 38  1  0  0  0
 38 39  1  0  0  0
 37 40  1  0  0  0
 40 41  2  0  0  0
 40 42  1  0  0  0
 42 44  1  0  0  0
 44 45  2  0  0  0
 45 46  1  0  0  0
 46 47  1  0  0  0
 47 48  1  0  0  0
 47 49  1  0  0  0
 49 50  2  0  0  0
 29 30  1  0  0  0
 30 31  2  0  0  0
 31 32  1  0  0  0
  5  6  1  0  0  0
  6  7  2  0  0  0
  7  8  1  0  0  0
  8  9  2  0  0  0
  9 10  1  0  0  0
 10 11  2  0  0  0
 11 14  1  0  0  0
 14 15  1  0  0  0
 15 16  1  0  0  0
 16 17  1  0  0  0
 17 18  1  0  0  0
 18 19  1  0  0  0
 19 20  1  0  0  0
 20 21  1  0  0  0
 21 22  1  0  0  0
 21 23  1  0  0  0
 23 24  1  0  0  0
 11  2  1  0  0  0
 24 18  1  0  0  0
  9  4  1  0  0  0
 31 26  1  0  0  0
 39 37  1  0  0  0
 50 44  1  0  0  0
 33 36  1  0  0  0
 42 43  1  0  0  0
 22 25  1  0  0  0
M  END
> <minimizedAffinity>
-8.10773

> <CNNscore>
0.2665185034

> <CNNaffinity>
6.7158446312

> <CNN_VS>
1.7898968458

> <CNNaffinity_variance>
0.0515872128

$$$$
[H]OC1([H])C([H])([H])C([H])([H])N(C([H])([H])C([H])([H])C([H])([H])Oc2c(OC([H])([H])[H])c([H])c3c(Oc4c([H])c([H])c(N([H])C(=O)C5(C(=O)N([H])C6=C([H])C([H])([H])C([H])(F)C([H])=C6[H])C([H])([H])C5([H])[H])c([H])c4F)c([H])c([H])nc3c2[H])C([H])([H])C1([H])[H]


 50 55  0  0  0  0  0  0  0  0999 V2000
    1.6243  -52.7285  -22.2857 O   0  0  0  0  0  0  0  0  0  0  0  0
    0.4115  -51.9048  -18.3003 C   0  0  0  0  0  0  0  0  0  0  0  0
    0.8127  -52.1674  -19.5745 C   0  0  0  0  0  0  0  0  0  0  0  0
    0.0628  -52.9480  -20.4413 C   0  0  0  0  0  0  0  0  0  0  0  0
    0.4834  -53.1844  -21.7190 C   0  0  0  0  0  0  0  0  0  0  0  0
   -0.3572  -53.9886  -22.5487 C   0  0  0  0  0  0  0  0  0  0  0  0
   -1.5136  -54.4816  -22.0638 C   0  0  0  0  0  0  0  0  0  0  0  0
   -1.9098  -54.2384  -20.8068 N   0  0  0  0  0  0  0  0  0  0  0  0
   -1.1419  -53.4832  -19.9957 C   0  0  0  0  0  0  0  0  0  0  0  0
   -1.5424  -53.2113  -18.6961 C   0  0  0  0  0  0  0  0  0  0  0  0
   -0.8109  -52.4430  -17.8389 C   0  0  0  0  0  0  0  0  0  0  0  0
    1.9453  -50.0240  -17.8855 C   0  0  0  0  0  0  0  0  0  0  0  0
    1.1787  -51.1251  -17.4598 O   0  0  0  0  0  0  0  0  0  0  0  0
   -1.1821  -52.1587  -16.5834 O   0  0  0  0  0  0  0  0  0  0  0  0
   -2.1305  -51.2743  -16.1337 C   0  0  0  0  0  0  0  0  0  0  0  0
   -1.5906  -50.3568  -15.0907 C   0  0  0  0  0  0  0  0  0  0  0  0
   -1.5844  -50.9526  -13.6921 C   0  0  0  0  0  0  0  0  0  0  0  0
   -0.3166  -50.7366  -13.0660 N   0  0  0  0  0  0  0  0  0  0  0  0
   -0.1664  -51.4245  -11.8188 C   0  0  0  0  0  0  0  0  0  0  0  0
    1.3000  -51.7462  -11.6115 C   0  0  0  0  0  0  0  0  0  0  0  0
    1.7078  -52.7429  -12.6727 C   0  0  0  0  0  0  0  0  0  0  0  0
    3.0068  -53.1521  -12.4963 O   0  0  0  0  0  0  0  0  0  0  0  0
    1.4205  -52.1643  -14.0425 C   0  0  0  0  0  0  0  0  0  0  0  0
    0.8084  -50.7831  -13.9415 C   0  0  0  0  0  0  0  0  0  0  0  0
    3.5303  -53.2918  -13.3115 H   0  0  0  0  0  0  0  0  0  0  0  0
    2.0181  -51.6889  -23.0292 C   0  0  0  0  0  0  0  0  0  0  0  0
    2.1938  -50.3914  -22.5393 C   0  0  0  0  0  0  0  0  0  0  0  0
    2.5936  -49.3219  -23.2914 C   0  0  0  0  0  0  0  0  0  0  0  0
    2.8537  -49.5081  -24.6569 C   0  0  0  0  0  0  0  0  0  0  0  0
    2.6980  -50.7487  -25.1747 C   0  0  0  0  0  0  0  0  0  0  0  0
    2.2899  -51.8353  -24.4039 C   0  0  0  0  0  0  0  0  0  0  0  0
    2.1466  -53.0474  -24.9601 F   0  0  0  0  0  0  0  0  0  0  0  0
    3.2932  -48.3903  -25.3936 N   0  0  0  0  0  0  0  0  0  0  0  0
    4.6405  -48.0777  -25.6325 C   0  0  0  0  0  0  0  0  0  0  0  0
    5.5467  -48.8832  -25.1626 O   0  0  0  0  0  0  0  0  0  0  0  0
    2.5299  -47.7658  -25.7928 H   0  0  0  0  0  0  0  0  0  0  0  0
    5.1660  -46.9053  -26.3786 C   0  0  0  0  0  0  0  0  0  0  0  0
    5.9769  -45.9568  -25.5462 C   0  0  0  0  0  0  0  0  0  0  0  0
    4.5672  -45.6031  -25.9176 C   0  0  0  0  0  0  0  0  0  0  0  0
    5.5763  -46.9986  -27.7861 C   0  0  0  0  0  0  0  0  0  0  0  0
    4.9967  -46.2517  -28.6488 O   0  0  0  0  0  0  0  0  0  0  0  0
    6.5909  -47.8781  -28.2418 N   0  0  0  0  0  0  0  0  0  0  0  0
    7.1084  -48.5010  -27.6171 H   0  0  0  0  0  0  0  0  0  0  0  0
    6.9257  -47.9075  -29.6356 C   0  0  0  0  0  0  0  0  0  0  0  0
    6.2928  -48.7139  -30.4459 C   0  0  0  0  0  0  0  0  0  0  0  0
    6.5724  -48.8073  -31.8734 C   0  0  0  0  0  0  0  0  0  0  0  0
    7.5891  -47.9003  -32.4398 C   0  0  0  0  0  0  0  0  0  0  0  0
    8.5848  -48.6760  -33.0578 F   0  0  0  0  0  0  0  0  0  0  0  0
    8.2678  -47.0202  -31.4704 C   0  0  0  0  0  0  0  0  0  0  0  0
    7.9458  -47.0425  -30.1963 C   0  0  0  0  0  0  0  0  0  0  0  0
 12 13  1  0  0  0
 13  2  1  0  0  0
  2  3  2  0  0  0
  3  4  1  0  0  0
  4  5  2  0  0  0
  5  1  1  0  0  0
  1 26  1  0  0  0
 26 27  2  0  0  0
 27 28  1  0  0  0
 28 29  2  0  0  0
 29 33  1  0  0  0
 33 34  1  0  0  0
 34 35  2  0  0  0
 34 37  1  0  0  0
 37 38  1  0  0  0
 38 39  1  0  0  0
 37 40  1  0  0  0
 40 41  2  0  0  0
 40 42  1  0  0  0
 42 44  1  0  0  0
 44 45  2  0  0  0
 45 46  1  0  0  0
 46 47  1  0  0  0
 47 48  1  0  0  0
 47 49  1  0  0  0
 49 50  2  0  0  0
 29 30  1  0  0  0
 30 31  2  0  0  0
 31 32  1  0  0  0
  5  6  1  0  0  0
  6  7  2  0  0  0
  7  8  1  0  0  0
  8  9  2  0  0  0
  9 10  1  0  0  0
 10 11  2  0  0  0
 11 14  1  0  0  0
 14 15  1  0  0  0
 15 16  1  0  0  0
 16 17  1  0  0  0
 17 18  1  0  0  0
 18 19  1  0  0  0
 19 20  1  0  0  0
 20 21  1  0  0  0
 21 22  1  0  0  0
 21 23  1  0  0  0
 23 24  1  0  0  0
 11  2  1  0  0  0
 24 18  1  0  0  0
  9  4  1  0  0  0
 31 26  1  0  0  0
 39 37  1  0  0  0
 50 44  1  0  0  0
 33 36  1  0  0  0
 42 43  1  0  0  0
 22 25  1  0  0  0
M  END
> <minimizedAffinity>
-6.87156

> <CNNscore>
0.2524253726

> <CNNaffinity>
6.7205123901

> <CNN_VS>
1.6964278221

> <CNNaffinity_variance>
0.1316346675

$$$$
[H]c1nc(N2C([H])([H])C([H])([H])N(c3c([H])c([H])c([H])c([H])c3OC([H])([H])[H])C([H])([H])C2([H])[H])c2nc([H])n(C3([H])C([H])([H])C([H])([H])C([H])([H])C([H])([H])C3([H])[H])c2n1


 29 33  0  0  0  0  0  0  0  0999 V2000
   -0.2269  -53.5090  -22.0351 C   0  0  0  0  0  0  0  0  0  0  0  0
   -0.9128  -54.6329  -21.7967 N   0  0  0  0  0  0  0  0  0  0  0  0
   -1.4355  -55.2972  -22.8399 C   0  0  0  0  0  0  0  0  0  0  0  0
   -1.3078  -54.8952  -24.1142 N   0  0  0  0  0  0  0  0  0  0  0  0
   -0.6182  -53.7666  -24.3471 C   0  0  0  0  0  0  0  0  0  0  0  0
   -0.3388  -53.1421  -25.5050 N   0  0  0  0  0  0  0  0  0  0  0  0
    0.3818  -52.0506  -25.1855 C   0  0  0  0  0  0  0  0  0  0  0  0
    0.5646  -51.9693  -23.8589 N   0  0  0  0  0  0  0  0  0  0  0  0
   -0.0590  -53.0411  -23.3258 C   0  0  0  0  0  0  0  0  0  0  0  0
    0.4690  -51.0150  -18.8614 N   0  0  0  0  0  0  0  0  0  0  0  0
   -0.1539  -52.3057  -18.6359 C   0  0  0  0  0  0  0  0  0  0  0  0
    0.4646  -53.2742  -19.6401 C   0  0  0  0  0  0  0  0  0  0  0  0
    0.3612  -52.7422  -20.9827 N   0  0  0  0  0  0  0  0  0  0  0  0
    0.8654  -51.4140  -21.2438 C   0  0  0  0  0  0  0  0  0  0  0  0
    0.3477  -50.4411  -20.1896 C   0  0  0  0  0  0  0  0  0  0  0  0
    2.5366  -50.4645  -17.6902 C   0  0  0  0  0  0  0  0  0  0  0  0
    3.2394  -49.7820  -16.7283 C   0  0  0  0  0  0  0  0  0  0  0  0
    2.5742  -48.8919  -15.8908 C   0  0  0  0  0  0  0  0  0  0  0  0
    1.2164  -48.7175  -16.0506 C   0  0  0  0  0  0  0  0  0  0  0  0
    0.5294  -49.4144  -17.0246 C   0  0  0  0  0  0  0  0  0  0  0  0
    1.1791  -50.2999  -17.8609 C   0  0  0  0  0  0  0  0  0  0  0  0
    4.0075  -50.8964  -19.6053 C   0  0  0  0  0  0  0  0  0  0  0  0
    3.2003  -51.3473  -18.5197 O   0  0  0  0  0  0  0  0  0  0  0  0
   -0.7330  -53.5564  -26.8317 C   0  0  0  0  0  0  0  0  0  0  0  0
   -1.4832  -52.4950  -27.5948 C   0  0  0  0  0  0  0  0  0  0  0  0
   -1.4038  -52.7118  -29.0937 C   0  0  0  0  0  0  0  0  0  0  0  0
   -0.0016  -52.7295  -29.5999 C   0  0  0  0  0  0  0  0  0  0  0  0
    0.9611  -53.4426  -28.7104 C   0  0  0  0  0  0  0  0  0  0  0  0
    0.3616  -54.2246  -27.6032 C   0  0  0  0  0  0  0  0  0  0  0  0
 22 23  1  0  0  0
 23 16  1  0  0  0
 16 17  2  0  0  0
 17 18  1  0  0  0
 18 19  2  0  0  0
 19 20  1  0  0  0
 20 21  2  0  0  0
 21 10  1  0  0  0
 10 11  1  0  0  0
 11 12  1  0  0  0
 12 13  1  0  0  0
 13 14  1  0  0  0
 14 15  1  0  0  0
 13  1  1  0  0  0
  1  2  2  0  0  0
  2  3  1  0  0  0
  3  4  2  0  0  0
  4  5  1  0  0  0
  5  6  1  0  0  0
  6  7  1  0  0  0
  7  8  2  0  0  0
  8  9  1  0  0  0
  6 24  1  0  0  0
 24 25  1  0  0  0
 25 26  1  0  0  0
 26 27  1  0  0  0
 27 28  1  0  0  0
 28 29  1  0  0  0
 21 16  1  0  0  0
 15 10  1  0  0  0
  9  1  1  0  0  0
 29 24  1  0  0  0
  9  5  2  0  0  0
M  END
> <minimizedAffinity>
-8.84019

> <CNNscore>
0.6575282216

> <CNNaffinity>
6.8452734947

> <CNN_VS>
4.5009603500

> <CNNaffinity_variance>
0.1094844788

$$$$
[H]c1nc(N2C([H])([H])C([H])([H])N(c3c([H])c([H])c([H])c([H])c3OC([H])([H])[H])C([H])([H])C2([H])[H])c2nc([H])n(C3([H])C([H])([H])C([H])([H])C([H])([H])C([H])([H])C3([H])[H])c2n1


 29 33  0  0  0  0  0  0  0  0999 V2000
   -0.0898  -53.1952  -21.9156 C   0  0  0  0  0  0  0  0  0  0  0  0
   -0.7154  -54.3379  -21.6105 N   0  0  0  0  0  0  0  0  0  0  0  0
   -1.2322  -55.0711  -22.6095 C   0  0  0  0  0  0  0  0  0  0  0  0
   -1.1562  -54.7203  -23.9029 N   0  0  0  0  0  0  0  0  0  0  0  0
   -0.5270  -53.5724  -24.2028 C   0  0  0  0  0  0  0  0  0  0  0  0
   -0.3070  -52.9874  -25.3936 N   0  0  0  0  0  0  0  0  0  0  0  0
    0.3689  -51.8507  -25.1412 C   0  0  0  0  0  0  0  0  0  0  0  0
    0.5812  -51.7025  -23.8249 N   0  0  0  0  0  0  0  0  0  0  0  0
    0.0229  -52.7774  -23.2293 C   0  0  0  0  0  0  0  0  0  0  0  0
    2.0780  -50.3915  -19.8621 N   0  0  0  0  0  0  0  0  0  0  0  0
    0.9604  -49.9712  -20.6863 C   0  0  0  0  0  0  0  0  0  0  0  0
   -0.0941  -51.0702  -20.5913 C   0  0  0  0  0  0  0  0  0  0  0  0
    0.4878  -52.3563  -20.9137 N   0  0  0  0  0  0  0  0  0  0  0  0
    1.6704  -52.7812  -20.2013 C   0  0  0  0  0  0  0  0  0  0  0  0
    2.7044  -51.6602  -20.1878 C   0  0  0  0  0  0  0  0  0  0  0  0
    2.1254  -49.8405  -17.4865 C   0  0  0  0  0  0  0  0  0  0  0  0
    2.5975  -49.1165  -16.4198 C   0  0  0  0  0  0  0  0  0  0  0  0
    3.5647  -48.1376  -16.6259 C   0  0  0  0  0  0  0  0  0  0  0  0
    4.0269  -47.9191  -17.9058 C   0  0  0  0  0  0  0  0  0  0  0  0
    3.5380  -48.6591  -18.9640 C   0  0  0  0  0  0  0  0  0  0  0  0
    2.5785  -49.6326  -18.7711 C   0  0  0  0  0  0  0  0  0  0  0  0
   -0.1758  -50.4789  -16.9254 C   0  0  0  0  0  0  0  0  0  0  0  0
    1.1653  -50.8114  -17.2780 O   0  0  0  0  0  0  0  0  0  0  0  0
   -0.7146  -53.4777  -26.6900 C   0  0  0  0  0  0  0  0  0  0  0  0
   -1.4962  -52.4711  -27.4949 C   0  0  0  0  0  0  0  0  0  0  0  0
   -1.4367  -52.7649  -28.9815 C   0  0  0  0  0  0  0  0  0  0  0  0
   -0.0426  -52.7849  -29.5097 C   0  0  0  0  0  0  0  0  0  0  0  0
    0.9469  -53.4334  -28.6005 C   0  0  0  0  0  0  0  0  0  0  0  0
    0.3794  -54.1663  -27.4439 C   0  0  0  0  0  0  0  0  0  0  0  0
 22 23  1  0  0  0
 23 16  1  0  0  0
 16 17  2  0  0  0
 17 18  1  0  0  0
 18 19  2  0  0  0
 19 20  1  0  0  0
 20 21  2  0  0  0
 21 10  1  0  0  0
 10 11  1  0  0  0
 11 12  1  0  0  0
 12 13  1  0  0  0
 13 14  1  0  0  0
 14 15  1  0  0  0
 13  1  1  0  0  0
  1  2  2  0  0  0
  2  3  1  0  0  0
  3  4  2  0  0  0
  4  5  1  0  0  0
  5  6  1  0  0  0
  6  7  1  0  0  0
  7  8  2  0  0  0
  8  9  1  0  0  0
  6 24  1  0  0  0
 24 25  1  0  0  0
 25 26  1  0  0  0
 26 27  1  0  0  0
 27 28  1  0  0  0
 28 29  1  0  0  0
 21 16  1  0  0  0
 15 10  1  0  0  0
  9  1  1  0  0  0
 29 24  1  0  0  0
  9  5  2  0  0  0
M  END
> <minimizedAffinity>
-8.05009

> <CNNscore>
0.3084671497

> <CNNaffinity>
6.4969992638

> <CNN_VS>
2.0041108131

> <CNNaffinity_variance>
0.2005804330

$$$$
[H]c1nc(N2C([H])([H])C([H])([H])N(c3c([H])c([H])c([H])c([H])c3OC([H])([H])[H])C([H])([H])C2([H])[H])c2nc([H])n(C3([H])C([H])([H])C([H])([H])C([H])([H])C([H])([H])C3([H])[H])c2n1


 29 33  0  0  0  0  0  0  0  0999 V2000
    0.0033  -52.1263  -20.9814 C   0  0  0  0  0  0  0  0  0  0  0  0
   -0.4830  -53.1024  -20.2060 N   0  0  0  0  0  0  0  0  0  0  0  0
   -0.4478  -52.9390  -18.8738 C   0  0  0  0  0  0  0  0  0  0  0  0
    0.0501  -51.8464  -18.2736 N   0  0  0  0  0  0  0  0  0  0  0  0
    0.5366  -50.8703  -19.0571 C   0  0  0  0  0  0  0  0  0  0  0  0
    1.0864  -49.6870  -18.7311 N   0  0  0  0  0  0  0  0  0  0  0  0
    1.4087  -49.0836  -19.8907 C   0  0  0  0  0  0  0  0  0  0  0  0
    1.0776  -49.8531  -20.9387 N   0  0  0  0  0  0  0  0  0  0  0  0
    0.5303  -50.9749  -20.4250 C   0  0  0  0  0  0  0  0  0  0  0  0
    0.6826  -53.1699  -24.8835 N   0  0  0  0  0  0  0  0  0  0  0  0
   -0.1304  -54.0284  -24.0428 C   0  0  0  0  0  0  0  0  0  0  0  0
   -0.9028  -53.1137  -23.0964 C   0  0  0  0  0  0  0  0  0  0  0  0
    0.0042  -52.2202  -22.4070 N   0  0  0  0  0  0  0  0  0  0  0  0
    0.9172  -51.4191  -23.1889 C   0  0  0  0  0  0  0  0  0  0  0  0
    1.6279  -52.2906  -24.2190 C   0  0  0  0  0  0  0  0  0  0  0  0
   -0.3794  -52.4277  -26.9500 C   0  0  0  0  0  0  0  0  0  0  0  0
   -0.4767  -52.3972  -28.3191 C   0  0  0  0  0  0  0  0  0  0  0  0
    0.4332  -53.1137  -29.0904 C   0  0  0  0  0  0  0  0  0  0  0  0
    1.4162  -53.8407  -28.4542 C   0  0  0  0  0  0  0  0  0  0  0  0
    1.4954  -53.8572  -27.0758 C   0  0  0  0  0  0  0  0  0  0  0  0
    0.5980  -53.1502  -26.3009 C   0  0  0  0  0  0  0  0  0  0  0  0
   -2.6842  -51.7455  -26.4593 C   0  0  0  0  0  0  0  0  0  0  0  0
   -1.2846  -51.7152  -26.1878 O   0  0  0  0  0  0  0  0  0  0  0  0
    1.2933  -49.1632  -17.4007 C   0  0  0  0  0  0  0  0  0  0  0  0
    0.0496  -49.1763  -16.5494 C   0  0  0  0  0  0  0  0  0  0  0  0
    0.3762  -49.1585  -15.0685 C   0  0  0  0  0  0  0  0  0  0  0  0
    1.2243  -50.3117  -14.6515 C   0  0  0  0  0  0  0  0  0  0  0  0
    2.2948  -50.6685  -15.6277 C   0  0  0  0  0  0  0  0  0  0  0  0
    2.5173  -49.6993  -16.7268 C   0  0  0  0  0  0  0  0  0  0  0  0
 22 23  1  0  0  0
 23 16  1  0  0  0
 16 17  2  0  0  0
 17 18  1  0  0  0
 18 19  2  0  0  0
 19 20  1  0  0  0
 20 21  2  0  0  0
 21 10  1  0  0  0
 10 11  1  0  0  0
 11 12  1  0  0  0
 12 13  1  0  0  0
 13 14  1  0  0  0
 14 15  1  0  0  0
 13  1  1  0  0  0
  1  2  2  0  0  0
  2  3  1  0  0  0
  3  4  2  0  0  0
  4  5  1  0  0  0
  5  6  1  0  0  0
  6  7  1  0  0  0
  7  8  2  0  0  0
  8  9  1  0  0  0
  6 24  1  0  0  0
 24 25  1  0  0  0
 25 26  1  0  0  0
 26 27  1  0  0  0
 27 28  1  0  0  0
 28 29  1  0  0  0
 21 16  1  0  0  0
 15 10  1  0  0  0
  9  1  1  0  0  0
 29 24  1  0  0  0
  9  5  2  0  0  0
M  END
> <minimizedAffinity>
-6.96529

> <CNNscore>
0.2998983264

> <CNNaffinity>
6.4922037125

> <CNN_VS>
1.9470009804

> <CNNaffinity_variance>
0.0729959458

$$$$
[H]c1nc(N2C([H])([H])C([H])([H])N(c3c([H])c([H])c([H])c([H])c3OC([H])([H])[H])C([H])([H])C2([H])[H])c2nc([H])n(C3([H])C([H])([H])C([H])([H])C([H])([H])C([H])([H])C3([H])[H])c2n1


 29 33  0  0  0  0  0  0  0  0999 V2000
    0.2743  -52.7429  -21.7991 C   0  0  0  0  0  0  0  0  0  0  0  0
   -0.3338  -53.8612  -21.3867 N   0  0  0  0  0  0  0  0  0  0  0  0
   -0.9056  -54.6551  -22.3062 C   0  0  0  0  0  0  0  0  0  0  0  0
   -0.9016  -54.3884  -23.6218 N   0  0  0  0  0  0  0  0  0  0  0  0
   -0.2897  -53.2646  -24.0294 C   0  0  0  0  0  0  0  0  0  0  0  0
   -0.1362  -52.7581  -25.2658 N   0  0  0  0  0  0  0  0  0  0  0  0
    0.5531  -51.6102  -25.1250 C   0  0  0  0  0  0  0  0  0  0  0  0
    0.8384  -51.3786  -23.8347 N   0  0  0  0  0  0  0  0  0  0  0  0
    0.3138  -52.4108  -23.1412 C   0  0  0  0  0  0  0  0  0  0  0  0
    2.4184  -49.7134  -20.0664 N   0  0  0  0  0  0  0  0  0  0  0  0
    1.1461  -49.4205  -20.6991 C   0  0  0  0  0  0  0  0  0  0  0  0
    0.2460  -50.6289  -20.4575 C   0  0  0  0  0  0  0  0  0  0  0  0
    0.9069  -51.8435  -20.8868 N   0  0  0  0  0  0  0  0  0  0  0  0
    2.2260  -52.1341  -20.3747 C   0  0  0  0  0  0  0  0  0  0  0  0
    3.1206  -50.9060  -20.5057 C   0  0  0  0  0  0  0  0  0  0  0  0
    3.7669  -47.8031  -19.3724 C   0  0  0  0  0  0  0  0  0  0  0  0
    4.3354  -47.0076  -18.4087 C   0  0  0  0  0  0  0  0  0  0  0  0
    4.1387  -47.3071  -17.0641 C   0  0  0  0  0  0  0  0  0  0  0  0
    3.3720  -48.4034  -16.7329 C   0  0  0  0  0  0  0  0  0  0  0  0
    2.8096  -49.1899  -17.7186 C   0  0  0  0  0  0  0  0  0  0  0  0
    2.9982  -48.9020  -19.0554 C   0  0  0  0  0  0  0  0  0  0  0  0
    3.8528  -46.1699  -21.2007 C   0  0  0  0  0  0  0  0  0  0  0  0
    3.9644  -47.5026  -20.7060 O   0  0  0  0  0  0  0  0  0  0  0  0
   -0.6155  -53.3291  -26.5033 C   0  0  0  0  0  0  0  0  0  0  0  0
   -1.4887  -52.3929  -27.2988 C   0  0  0  0  0  0  0  0  0  0  0  0
   -1.5231  -52.7622  -28.7694 C   0  0  0  0  0  0  0  0  0  0  0  0
   -0.1699  -52.7629  -29.3951 C   0  0  0  0  0  0  0  0  0  0  0  0
    0.9047  -53.3292  -28.5286 C   0  0  0  0  0  0  0  0  0  0  0  0
    0.4478  -54.0192  -27.2989 C   0  0  0  0  0  0  0  0  0  0  0  0
 22 23  1  0  0  0
 23 16  1  0  0  0
 16 17  2  0  0  0
 17 18  1  0  0  0
 18 19  2  0  0  0
 19 20  1  0  0  0
 20 21  2  0  0  0
 21 10  1  0  0  0
 10 11  1  0  0  0
 11 12  1  0  0  0
 12 13  1  0  0  0
 13 14  1  0  0  0
 14 15  1  0  0  0
 13  1  1  0  0  0
  1  2  2  0  0  0
  2  3  1  0  0  0
  3  4  2  0  0  0
  4  5  1  0  0  0
  5  6  1  0  0  0
  6  7  1  0  0  0
  7  8  2  0  0  0
  8  9  1  0  0  0
  6 24  1  0  0  0
 24 25  1  0  0  0
 25 26  1  0  0  0
 26 27  1  0  0  0
 27 28  1  0  0  0
 28 29  1  0  0  0
 21 16  1  0  0  0
 15 10  1  0  0  0
  9  1  1  0  0  0
 29 24  1  0  0  0
  9  5  2  0  0  0
M  END
> <minimizedAffinity>
-7.73919

> <CNNscore>
0.2768269777

> <CNNaffinity>
6.4321579933

> <CNN_VS>
1.7805948257

> <CNNaffinity_variance>
0.2968098223

$$$$
[H]c1nc(N2C([H])([H])C([H])([H])N(c3c([H])c([H])c([H])c([H])c3OC([H])([H])[H])C([H])([H])C2([H])[H])c2nc([H])n(C3([H])C([H])([H])C([H])([H])C([H])([H])C([H])([H])C3([H])[H])c2n1


 29 33  0  0  0  0  0  0  0  0999 V2000
    0.3070  -51.9323  -20.1945 C   0  0  0  0  0  0  0  0  0  0  0  0
   -0.4993  -52.8872  -19.7164 N   0  0  0  0  0  0  0  0  0  0  0  0
   -1.1390  -53.6813  -20.5900 C   0  0  0  0  0  0  0  0  0  0  0  0
   -1.0143  -53.5703  -21.9219 N   0  0  0  0  0  0  0  0  0  0  0  0
   -0.2037  -52.6102  -22.3956 C   0  0  0  0  0  0  0  0  0  0  0  0
    0.1028  -52.2784  -23.6623 N   0  0  0  0  0  0  0  0  0  0  0  0
    0.9616  -51.2442  -23.5887 C   0  0  0  0  0  0  0  0  0  0  0  0
    1.2052  -50.9145  -22.3112 N   0  0  0  0  0  0  0  0  0  0  0  0
    0.4788  -51.7659  -21.5568 C   0  0  0  0  0  0  0  0  0  0  0  0
    2.5178  -50.2630  -17.1776 N   0  0  0  0  0  0  0  0  0  0  0  0
    3.1737  -51.0859  -18.1762 C   0  0  0  0  0  0  0  0  0  0  0  0
    2.4481  -50.8385  -19.4958 C   0  0  0  0  0  0  0  0  0  0  0  0
    1.0242  -51.0451  -19.3344 N   0  0  0  0  0  0  0  0  0  0  0  0
    0.3347  -50.3351  -18.2822 C   0  0  0  0  0  0  0  0  0  0  0  0
    1.0968  -50.4763  -16.9689 C   0  0  0  0  0  0  0  0  0  0  0  0
    3.4050  -49.4449  -15.0578 C   0  0  0  0  0  0  0  0  0  0  0  0
    4.0521  -48.5018  -14.2984 C   0  0  0  0  0  0  0  0  0  0  0  0
    4.5112  -47.3325  -14.8967 C   0  0  0  0  0  0  0  0  0  0  0  0
    4.3026  -47.1507  -16.2469 C   0  0  0  0  0  0  0  0  0  0  0  0
    3.6492  -48.1125  -16.9915 C   0  0  0  0  0  0  0  0  0  0  0  0
    3.1896  -49.2762  -16.4084 C   0  0  0  0  0  0  0  0  0  0  0  0
    3.8221  -51.6986  -14.1832 C   0  0  0  0  0  0  0  0  0  0  0  0
    2.9506  -50.6045  -14.4603 O   0  0  0  0  0  0  0  0  0  0  0  0
   -0.3905  -52.9046  -24.8672 C   0  0  0  0  0  0  0  0  0  0  0  0
   -1.1754  -51.9704  -25.7521 C   0  0  0  0  0  0  0  0  0  0  0  0
   -1.2054  -52.4453  -27.1921 C   0  0  0  0  0  0  0  0  0  0  0  0
    0.1573  -52.5898  -27.7797 C   0  0  0  0  0  0  0  0  0  0  0  0
    1.1686  -53.1652  -26.8456 C   0  0  0  0  0  0  0  0  0  0  0  0
    0.6360  -53.7267  -25.5815 C   0  0  0  0  0  0  0  0  0  0  0  0
 22 23  1  0  0  0
 23 16  1  0  0  0
 16 17  2  0  0  0
 17 18  1  0  0  0
 18 19  2  0  0  0
 19 20  1  0  0  0
 20 21  2  0  0  0
 21 10  1  0  0  0
 10 11  1  0  0  0
 11 12  1  0  0  0
 12 13  1  0  0  0
 13 14  1  0  0  0
 14 15  1  0  0  0
 13  1  1  0  0  0
  1  2  2  0  0  0
  2  3  1  0  0  0
  3  4  2  0  0  0
  4  5  1  0  0  0
  5  6  1  0  0  0
  6  7  1  0  0  0
  7  8  2  0  0  0
  8  9  1  0  0  0
  6 24  1  0  0  0
 24 25  1  0  0  0
 25 26  1  0  0  0
 26 27  1  0  0  0
 27 28  1  0  0  0
 28 29  1  0  0  0
 21 16  1  0  0  0
 15 10  1  0  0  0
  9  1  1  0  0  0
 29 24  1  0  0  0
  9  5  2  0  0  0
M  END
> <minimizedAffinity>
-7.24754

> <CNNscore>
0.2673755586

> <CNNaffinity>
6.1540727615

> <CNN_VS>
1.6454486847

> <CNNaffinity_variance>
0.2684065104

$$$$
[H]c1nc(N2C([H])([H])C([H])([H])N(c3c([H])c([H])c([H])c([H])c3OC([H])([H])[H])C([H])([H])C2([H])[H])c2nc([H])n(C3([H])C([H])([H])C([H])([H])C([H])([H])C([H])([H])C3([H])[H])c2n1


 29 33  0  0  0  0  0  0  0  0999 V2000
    0.1157  -52.6428  -20.8158 C   0  0  0  0  0  0  0  0  0  0  0  0
   -0.9753  -53.4151  -20.8763 N   0  0  0  0  0  0  0  0  0  0  0  0
   -1.2836  -53.9968  -22.0465 C   0  0  0  0  0  0  0  0  0  0  0  0
   -0.5553  -53.8463  -23.1640 N   0  0  0  0  0  0  0  0  0  0  0  0
    0.5385  -53.0701  -23.0970 C   0  0  0  0  0  0  0  0  0  0  0  0
    1.4360  -52.7493  -24.0458 N   0  0  0  0  0  0  0  0  0  0  0  0
    2.3388  -51.9409  -23.4593 C   0  0  0  0  0  0  0  0  0  0  0  0
    2.0359  -51.7430  -22.1674 N   0  0  0  0  0  0  0  0  0  0  0  0
    0.9088  -52.4473  -21.9320 C   0  0  0  0  0  0  0  0  0  0  0  0
    0.3841  -50.2167  -17.5267 N   0  0  0  0  0  0  0  0  0  0  0  0
   -0.5915  -51.2902  -17.5481 C   0  0  0  0  0  0  0  0  0  0  0  0
    0.0408  -52.4441  -18.3210 C   0  0  0  0  0  0  0  0  0  0  0  0
    0.5145  -51.9872  -19.6107 N   0  0  0  0  0  0  0  0  0  0  0  0
    1.4032  -50.8495  -19.6604 C   0  0  0  0  0  0  0  0  0  0  0  0
    0.8479  -49.7138  -18.8074 C   0  0  0  0  0  0  0  0  0  0  0  0
    2.0839  -50.0798  -15.7827 C   0  0  0  0  0  0  0  0  0  0  0  0
    2.5951  -49.5394  -14.6287 C   0  0  0  0  0  0  0  0  0  0  0  0
    1.9047  -48.5196  -13.9810 C   0  0  0  0  0  0  0  0  0  0  0  0
    0.7165  -48.0752  -14.5197 C   0  0  0  0  0  0  0  0  0  0  0  0
    0.2208  -48.6332  -15.6814 C   0  0  0  0  0  0  0  0  0  0  0  0
    0.8973  -49.6453  -16.3321 C   0  0  0  0  0  0  0  0  0  0  0  0
    4.0218  -50.8595  -17.0690 C   0  0  0  0  0  0  0  0  0  0  0  0
    2.7721  -51.0920  -16.4228 O   0  0  0  0  0  0  0  0  0  0  0  0
    1.4348  -53.1832  -25.4238 C   0  0  0  0  0  0  0  0  0  0  0  0
    0.5454  -54.3732  -25.6785 C   0  0  0  0  0  0  0  0  0  0  0  0
    0.1291  -54.4685  -27.1338 C   0  0  0  0  0  0  0  0  0  0  0  0
   -0.5922  -53.2527  -27.6075 C   0  0  0  0  0  0  0  0  0  0  0  0
   -0.0302  -51.9691  -27.0949 C   0  0  0  0  0  0  0  0  0  0  0  0
    1.2789  -52.0652  -26.4064 C   0  0  0  0  0  0  0  0  0  0  0  0
 22 23  1  0  0  0
 23 16  1  0  0  0
 16 17  2  0  0  0
 17 18  1  0  0  0
 18 19  2  0  0  0
 19 20  1  0  0  0
 20 21  2  0  0  0
 21 10  1  0  0  0
 10 11  1  0  0  0
 11 12  1  0  0  0
 12 13  1  0  0  0
 13 14  1  0  0  0
 14 15  1  0  0  0
 13  1  1  0  0  0
  1  2  2  0  0  0
  2  3  1  0  0  0
  3  4  2  0  0  0
  4  5  1  0  0  0
  5  6  1  0  0  0
  6  7  1  0  0  0
  7  8  2  0  0  0
  8  9  1  0  0  0
  6 24  1  0  0  0
 24 25  1  0  0  0
 25 26  1  0  0  0
 26 27  1  0  0  0
 27 28  1  0  0  0
 28 29  1  0  0  0
 21 16  1  0  0  0
 15 10  1  0  0  0
  9  1  1  0  0  0
 29 24  1  0  0  0
  9  5  2  0  0  0
M  END
> <minimizedAffinity>
-6.59905

> <CNNscore>
0.2634525597

> <CNNaffinity>
6.4081201553

> <CNN_VS>
1.6882356405

> <CNNaffinity_variance>
0.3952662647

$$$$
[H]c1nc(N2C([H])([H])C([H])([H])N(c3c([H])c([H])c([H])c([H])c3OC([H])([H])[H])C([H])([H])C2([H])[H])c2nc([H])n(C3([H])C([H])([H])C([H])([H])C([H])([H])C([H])([H])C3([H])[H])c2n1


 29 33  0  0  0  0  0  0  0  0999 V2000
    1.3463  -51.9307  -22.0981 C   0  0  0  0  0  0  0  0  0  0  0  0
    0.6617  -52.8418  -21.3969 N   0  0  0  0  0  0  0  0  0  0  0  0
   -0.1825  -53.6531  -22.0540 C   0  0  0  0  0  0  0  0  0  0  0  0
   -0.3790  -53.6012  -23.3809 N   0  0  0  0  0  0  0  0  0  0  0  0
    0.3111  -52.6849  -24.0791 C   0  0  0  0  0  0  0  0  0  0  0  0
    0.3107  -52.4148  -25.3966 N   0  0  0  0  0  0  0  0  0  0  0  0
    1.1800  -51.4031  -25.5790 C   0  0  0  0  0  0  0  0  0  0  0  0
    1.7284  -51.0276  -24.4137 N   0  0  0  0  0  0  0  0  0  0  0  0
    1.1893  -51.8260  -23.4683 C   0  0  0  0  0  0  0  0  0  0  0  0
    4.0760  -48.9850  -21.2930 N   0  0  0  0  0  0  0  0  0  0  0  0
    2.6987  -48.6281  -21.5768 C   0  0  0  0  0  0  0  0  0  0  0  0
    1.8276  -49.7365  -20.9923 C   0  0  0  0  0  0  0  0  0  0  0  0
    2.2642  -51.0291  -21.4770 N   0  0  0  0  0  0  0  0  0  0  0  0
    3.6528  -51.3958  -21.3218 C   0  0  0  0  0  0  0  0  0  0  0  0
    4.5507  -50.2599  -21.8005 C   0  0  0  0  0  0  0  0  0  0  0  0
    5.7461  -47.2109  -21.1790 C   0  0  0  0  0  0  0  0  0  0  0  0
    6.6114  -46.4045  -20.4821 C   0  0  0  0  0  0  0  0  0  0  0  0
    6.7151  -46.5369  -19.1008 C   0  0  0  0  0  0  0  0  0  0  0  0
    5.9399  -47.4818  -18.4638 C   0  0  0  0  0  0  0  0  0  0  0  0
    5.0762  -48.2824  -19.1847 C   0  0  0  0  0  0  0  0  0  0  0  0
    4.9653  -48.1596  -20.5551 C   0  0  0  0  0  0  0  0  0  0  0  0
    5.2104  -45.8617  -23.1565 C   0  0  0  0  0  0  0  0  0  0  0  0
    5.6459  -47.0766  -22.5501 O   0  0  0  0  0  0  0  0  0  0  0  0
   -0.4680  -53.0765  -26.4180 C   0  0  0  0  0  0  0  0  0  0  0  0
   -1.5683  -52.2171  -26.9861 C   0  0  0  0  0  0  0  0  0  0  0  0
   -1.9937  -52.6802  -28.3661 C   0  0  0  0  0  0  0  0  0  0  0  0
   -0.8690  -52.6838  -29.3449 C   0  0  0  0  0  0  0  0  0  0  0  0
    0.4279  -53.1641  -28.7848 C   0  0  0  0  0  0  0  0  0  0  0  0
    0.3615  -53.7865  -27.4413 C   0  0  0  0  0  0  0  0  0  0  0  0
 22 23  1  0  0  0
 23 16  1  0  0  0
 16 17  2  0  0  0
 17 18  1  0  0  0
 18 19  2  0  0  0
 19 20  1  0  0  0
 20 21  2  0  0  0
 21 10  1  0  0  0
 10 11  1  0  0  0
 11 12  1  0  0  0
 12 13  1  0  0  0
 13 14  1  0  0  0
 14 15  1  0  0  0
 13  1  1  0  0  0
  1  2  2  0  0  0
  2  3  1  0  0  0
  3  4  2  0  0  0
  4  5  1  0  0  0
  5  6  1  0  0  0
  6  7  1  0  0  0
  7  8  2  0  0  0
  8  9  1  0  0  0
  6 24  1  0  0  0
 24 25  1  0  0  0
 25 26  1  0  0  0
 26 27  1  0  0  0
 27 28  1  0  0  0
 28 29  1  0  0  0
 21 16  1  0  0  0
 15 10  1  0  0  0
  9  1  1  0  0  0
 29 24  1  0  0  0
  9  5  2  0  0  0
M  END
> <minimizedAffinity>
-7.09723

> <CNNscore>
0.2273762524

> <CNNaffinity>
6.3771538734

> <CNN_VS>
1.4500133991

> <CNNaffinity_variance>
0.5338123441

$$$$
[H]c1nc(N2C([H])([H])C([H])([H])N(c3c([H])c([H])c([H])c([H])c3OC([H])([H])[H])C([H])([H])C2([H])[H])c2nc([H])n(C3([H])C([H])([H])C([H])([H])C([H])([H])C([H])([H])C3([H])[H])c2n1


 29 33  0  0  0  0  0  0  0  0999 V2000
    0.0238  -52.7789  -21.2887 C   0  0  0  0  0  0  0  0  0  0  0  0
   -1.0185  -53.3228  -20.6499 N   0  0  0  0  0  0  0  0  0  0  0  0
   -1.1000  -53.1764  -19.3177 C   0  0  0  0  0  0  0  0  0  0  0  0
   -0.1902  -52.5121  -18.5877 N   0  0  0  0  0  0  0  0  0  0  0  0
    0.8535  -51.9684  -19.2345 C   0  0  0  0  0  0  0  0  0  0  0  0
    1.8957  -51.2612  -18.7628 N   0  0  0  0  0  0  0  0  0  0  0  0
    2.6592  -50.9508  -19.8274 C   0  0  0  0  0  0  0  0  0  0  0  0
    2.1278  -51.4423  -20.9570 N   0  0  0  0  0  0  0  0  0  0  0  0
    0.9957  -52.0815  -20.5944 C   0  0  0  0  0  0  0  0  0  0  0  0
   -0.4965  -52.7475  -25.3513 N   0  0  0  0  0  0  0  0  0  0  0  0
   -0.3367  -51.4937  -24.6393 C   0  0  0  0  0  0  0  0  0  0  0  0
    0.6346  -51.7596  -23.4926 C   0  0  0  0  0  0  0  0  0  0  0  0
    0.1864  -52.8881  -22.7039 N   0  0  0  0  0  0  0  0  0  0  0  0
   -0.0961  -54.1355  -23.3753 C   0  0  0  0  0  0  0  0  0  0  0  0
   -0.9810  -53.8864  -24.5921 C   0  0  0  0  0  0  0  0  0  0  0  0
    1.0354  -53.3278  -27.1585 C   0  0  0  0  0  0  0  0  0  0  0  0
    1.3341  -53.4895  -28.4887 C   0  0  0  0  0  0  0  0  0  0  0  0
    0.3627  -53.2265  -29.4496 C   0  0  0  0  0  0  0  0  0  0  0  0
   -0.8838  -52.8074  -29.0371 C   0  0  0  0  0  0  0  0  0  0  0  0
   -1.1623  -52.6513  -27.6937 C   0  0  0  0  0  0  0  0  0  0  0  0
   -0.2063  -52.9094  -26.7320 C   0  0  0  0  0  0  0  0  0  0  0  0
    3.1687  -52.7796  -26.0785 C   0  0  0  0  0  0  0  0  0  0  0  0
    2.0024  -53.5898  -26.2075 O   0  0  0  0  0  0  0  0  0  0  0  0
    2.1502  -50.9039  -17.3863 C   0  0  0  0  0  0  0  0  0  0  0  0
    3.4553  -50.1770  -17.1855 C   0  0  0  0  0  0  0  0  0  0  0  0
    3.4550  -49.3534  -15.9120 C   0  0  0  0  0  0  0  0  0  0  0  0
    2.3615  -48.3405  -15.8810 C   0  0  0  0  0  0  0  0  0  0  0  0
    1.0628  -48.8249  -16.4335 C   0  0  0  0  0  0  0  0  0  0  0  0
    0.9757  -50.2804  -16.6997 C   0  0  0  0  0  0  0  0  0  0  0  0
 22 23  1  0  0  0
 23 16  1  0  0  0
 16 17  2  0  0  0
 17 18  1  0  0  0
 18 19  2  0  0  0
 19 20  1  0  0  0
 20 21  2  0  0  0
 21 10  1  0  0  0
 10 11  1  0  0  0
 11 12  1  0  0  0
 12 13  1  0  0  0
 13 14  1  0  0  0
 14 15  1  0  0  0
 13  1  1  0  0  0
  1  2  2  0  0  0
  2  3  1  0  0  0
  3  4  2  0  0  0
  4  5  1  0  0  0
  5  6  1  0  0  0
  6  7  1  0  0  0
  7  8  2  0  0  0
  8  9  1  0  0  0
  6 24  1  0  0  0
 24 25  1  0  0  0
 25 26  1  0  0  0
 26 27  1  0  0  0
 27 28  1  0  0  0
 28 29  1  0  0  0
 21 16  1  0  0  0
 15 10  1  0  0  0
  9  1  1  0  0  0
 29 24  1  0  0  0
  9  5  2  0  0  0
M  END
> <minimizedAffinity>
-7.21358

> <CNNscore>
0.2250727415

> <CNNaffinity>
6.4736251831

> <CNN_VS>
1.4570366144

> <CNNaffinity_variance>
0.1051564664

$$$$
[H]c1nc(N2C([H])([H])C([H])([H])N(c3c([H])c([H])c([H])c([H])c3OC([H])([H])[H])C([H])([H])C2([H])[H])c2nc([H])n(C3([H])C([H])([H])C([H])([H])C([H])([H])C([H])([H])C3([H])[H])c2n1


 29 33  0  0  0  0  0  0  0  0999 V2000
    0.4406  -52.5189  -21.9685 C   0  0  0  0  0  0  0  0  0  0  0  0
   -0.0964  -53.6505  -21.4978 N   0  0  0  0  0  0  0  0  0  0  0  0
   -0.6627  -54.5009  -22.3690 C   0  0  0  0  0  0  0  0  0  0  0  0
   -0.7206  -54.2783  -23.6915 N   0  0  0  0  0  0  0  0  0  0  0  0
   -0.1799  -53.1409  -24.1578 C   0  0  0  0  0  0  0  0  0  0  0  0
   -0.0974  -52.6693  -25.4145 N   0  0  0  0  0  0  0  0  0  0  0  0
    0.5398  -51.4858  -25.3368 C   0  0  0  0  0  0  0  0  0  0  0  0
    0.8614  -51.1980  -24.0665 N   0  0  0  0  0  0  0  0  0  0  0  0
    0.4139  -52.2303  -23.3209 C   0  0  0  0  0  0  0  0  0  0  0  0
    2.1219  -50.5364  -18.8031 N   0  0  0  0  0  0  0  0  0  0  0  0
    2.8638  -51.5947  -19.4621 C   0  0  0  0  0  0  0  0  0  0  0  0
    2.5000  -51.5309  -20.9428 C   0  0  0  0  0  0  0  0  0  0  0  0
    1.0621  -51.5606  -21.1102 N   0  0  0  0  0  0  0  0  0  0  0  0
    0.2596  -50.5991  -20.3904 C   0  0  0  0  0  0  0  0  0  0  0  0
    0.6752  -50.5639  -18.9235 C   0  0  0  0  0  0  0  0  0  0  0  0
    3.0751  -49.6634  -16.7346 C   0  0  0  0  0  0  0  0  0  0  0  0
    3.6676  -48.6666  -15.9996 C   0  0  0  0  0  0  0  0  0  0  0  0
    3.9394  -47.4394  -16.5965 C   0  0  0  0  0  0  0  0  0  0  0  0
    3.6040  -47.2557  -17.9206 C   0  0  0  0  0  0  0  0  0  0  0  0
    3.0087  -48.2722  -18.6410 C   0  0  0  0  0  0  0  0  0  0  0  0
    2.7345  -49.4935  -18.0590 C   0  0  0  0  0  0  0  0  0  0  0  0
    3.7923  -51.5802  -15.3822 C   0  0  0  0  0  0  0  0  0  0  0  0
    2.8068  -50.8803  -16.1386 O   0  0  0  0  0  0  0  0  0  0  0  0
   -0.5940  -53.3034  -26.6139 C   0  0  0  0  0  0  0  0  0  0  0  0
   -1.5591  -52.4458  -27.3917 C   0  0  0  0  0  0  0  0  0  0  0  0
   -1.6353  -52.8575  -28.8493 C   0  0  0  0  0  0  0  0  0  0  0  0
   -0.3138  -52.7918  -29.5365 C   0  0  0  0  0  0  0  0  0  0  0  0
    0.8319  -53.2658  -28.7063 C   0  0  0  0  0  0  0  0  0  0  0  0
    0.4745  -53.9481  -27.4400 C   0  0  0  0  0  0  0  0  0  0  0  0
 22 23  1  0  0  0
 23 16  1  0  0  0
 16 17  2  0  0  0
 17 18  1  0  0  0
 18 19  2  0  0  0
 19 20  1  0  0  0
 20 21  2  0  0  0
 21 10  1  0  0  0
 10 11  1  0  0  0
 11 12  1  0  0  0
 12 13  1  0  0  0
 13 14  1  0  0  0
 14 15  1  0  0  0
 13  1  1  0  0  0
  1  2  2  0  0  0
  2  3  1  0  0  0
  3  4  2  0  0  0
  4  5  1  0  0  0
  5  6  1  0  0  0
  6  7  1  0  0  0
  7  8  2  0  0  0
  8  9  1  0  0  0
  6 24  1  0  0  0
 24 25  1  0  0  0
 25 26  1  0  0  0
 26 27  1  0  0  0
 27 28  1  0  0  0
 28 29  1  0  0  0
 21 16  1  0  0  0
 15 10  1  0  0  0
  9  1  1  0  0  0
 29 24  1  0  0  0
  9  5  2  0  0  0
M  END
> <minimizedAffinity>
-8.02506

> <CNNscore>
0.2011217773

> <CNNaffinity>
6.2240691185

> <CNN_VS>
1.2517958879

> <CNNaffinity_variance>
0.2546798885

$$$$
[H]c1nc2c([H])c(OC([H])([H])C([H])([H])C([H])([H])N3C([H])([H])C([H])([H])OC([H])([H])C3([H])[H])c(OC([H])([H])[H])c([H])c2c(Oc2c([H])c([H])c(N([H])C(=O)C3(C(=O)N([H])c4c([H])c([H])c(F)c([H])c4[H])C([H])([H])C3([H])[H])c([H])c2F)c1[H]


 48 53  0  0  0  0  0  0  0  0999 V2000
    1.5815  -51.6144  -24.4266 C   0  0  0  0  0  0  0  0  0  0  0  0
    1.9542  -50.3515  -23.9931 C   0  0  0  0  0  0  0  0  0  0  0  0
    3.2887  -49.9392  -24.0064 C   0  0  0  0  0  0  0  0  0  0  0  0
    4.3024  -50.7545  -24.4485 C   0  0  0  0  0  0  0  0  0  0  0  0
    3.9248  -52.0120  -24.8798 C   0  0  0  0  0  0  0  0  0  0  0  0
    2.5917  -52.4369  -24.8698 C   0  0  0  0  0  0  0  0  0  0  0  0
    2.2738  -53.6978  -25.2851 F   0  0  0  0  0  0  0  0  0  0  0  0
    5.6714  -50.3551  -24.4547 N   0  0  0  0  0  0  0  0  0  0  0  0
    6.1797  -49.1904  -25.0691 C   0  0  0  0  0  0  0  0  0  0  0  0
    5.4777  -48.3910  -25.7174 O   0  0  0  0  0  0  0  0  0  0  0  0
    6.3619  -50.9724  -23.9571 H   0  0  0  0  0  0  0  0  0  0  0  0
    7.6559  -48.8980  -24.8977 C   0  0  0  0  0  0  0  0  0  0  0  0
    8.2234  -47.8819  -25.8762 C   0  0  0  0  0  0  0  0  0  0  0  0
    8.4392  -49.3673  -26.1010 C   0  0  0  0  0  0  0  0  0  0  0  0
    8.2368  -49.0707  -23.5592 C   0  0  0  0  0  0  0  0  0  0  0  0
    8.4022  -50.2928  -23.1490 O   0  0  0  0  0  0  0  0  0  0  0  0
    8.6185  -48.0538  -22.6733 N   0  0  0  0  0  0  0  0  0  0  0  0
    8.4383  -47.0392  -22.9462 H   0  0  0  0  0  0  0  0  0  0  0  0
    9.2101  -48.2858  -21.3870 C   0  0  0  0  0  0  0  0  0  0  0  0
    8.4293  -48.6330  -20.3352 C   0  0  0  0  0  0  0  0  0  0  0  0
    8.9849  -48.8085  -19.0849 C   0  0  0  0  0  0  0  0  0  0  0  0
   10.3558  -48.6233  -18.9213 C   0  0  0  0  0  0  0  0  0  0  0  0
   10.9690  -48.7861  -17.7154 F   0  0  0  0  0  0  0  0  0  0  0  0
   11.1692  -48.2669  -19.9937 C   0  0  0  0  0  0  0  0  0  0  0  0
   10.5668  -48.1063  -21.2097 C   0  0  0  0  0  0  0  0  0  0  0  0
    0.2314  -51.9749  -24.3867 O   0  0  0  0  0  0  0  0  0  0  0  0
    0.0826  -51.3044  -20.3497 C   0  0  0  0  0  0  0  0  0  0  0  0
    0.1247  -51.5512  -21.7050 C   0  0  0  0  0  0  0  0  0  0  0  0
   -0.3589  -52.7625  -22.2196 C   0  0  0  0  0  0  0  0  0  0  0  0
   -0.3039  -52.9799  -23.6027 C   0  0  0  0  0  0  0  0  0  0  0  0
   -0.7765  -54.1575  -24.1088 C   0  0  0  0  0  0  0  0  0  0  0  0
   -1.2962  -55.1041  -23.2259 C   0  0  0  0  0  0  0  0  0  0  0  0
   -1.3360  -54.8657  -21.9009 N   0  0  0  0  0  0  0  0  0  0  0  0
   -0.8821  -53.7232  -21.3873 C   0  0  0  0  0  0  0  0  0  0  0  0
   -0.9287  -53.4897  -20.0325 C   0  0  0  0  0  0  0  0  0  0  0  0
   -0.4572  -52.3103  -19.5339 C   0  0  0  0  0  0  0  0  0  0  0  0
    1.1995  -49.1426  -20.5054 C   0  0  0  0  0  0  0  0  0  0  0  0
    0.5376  -50.1385  -19.7930 O   0  0  0  0  0  0  0  0  0  0  0  0
   -0.5144  -52.1170  -18.1846 O   0  0  0  0  0  0  0  0  0  0  0  0
   -1.2704  -52.9246  -17.3048 C   0  0  0  0  0  0  0  0  0  0  0  0
   -2.3590  -52.1434  -16.6175 C   0  0  0  0  0  0  0  0  0  0  0  0
   -1.7344  -51.1950  -15.6409 C   0  0  0  0  0  0  0  0  0  0  0  0
   -2.6313  -50.7942  -14.5722 N   0  0  0  0  0  0  0  0  0  0  0  0
   -3.6870  -51.8334  -14.5629 C   0  0  0  0  0  0  0  0  0  0  0  0
   -4.8528  -51.4628  -13.7106 C   0  0  0  0  0  0  0  0  0  0  0  0
   -5.1907  -50.0988  -13.7792 O   0  0  0  0  0  0  0  0  0  0  0  0
   -4.7610  -49.6258  -15.0024 C   0  0  0  0  0  0  0  0  0  0  0  0
   -3.2348  -49.5202  -14.9803 C   0  0  0  0  0  0  0  0  0  0  0  0
 37 38  1  0  0  0
 38 27  1  0  0  0
 27 28  2  0  0  0
 28 29  1  0  0  0
 29 30  2  0  0  0
 30 26  1  0  0  0
 26  1  1  0  0  0
  1  2  2  0  0  0
  2  3  1  0  0  0
  3  4  2  0  0  0
  4  8  1  0  0  0
  8  9  1  0  0  0
  9 10  2  0  0  0
  9 12  1  0  0  0
 12 13  1  0  0  0
 13 14  1  0  0  0
 12 15  1  0  0  0
 15 16  2  0  0  0
 15 17  1  0  0  0
 17 19  1  0  0  0
 19 20  2  0  0  0
 20 21  1  0  0  0
 21 22  2  0  0  0
 22 23  1  0  0  0
 22 24  1  0  0  0
 24 25  2  0  0  0
  4  5  1  0  0  0
  5  6  2  0  0  0
  6  7  1  0  0  0
 30 31  1  0  0  0
 31 32  2  0  0  0
 32 33  1  0  0  0
 33 34  2  0  0  0
 34 35  1  0  0  0
 35 36  2  0  0  0
 36 39  1  0  0  0
 39 40  1  0  0  0
 40 41  1  0  0  0
 41 42  1  0  0  0
 42 43  1  0  0  0
 43 44  1  0  0  0
 44 45  1  0  0  0
 45 46  1  0  0  0
 46 47  1  0  0  0
 47 48  1  0  0  0
 36 27  1  0  0  0
 48 43  1  0  0  0
 34 29  1  0  0  0
  6  1  1  0  0  0
 14 12  1  0  0  0
 25 19  1  0  0  0
  8 11  1  0  0  0
 17 18  1  0  0  0
M  END
> <minimizedAffinity>
-8.13906

> <CNNscore>
0.3486013710

> <CNNaffinity>
6.9656753540

> <CNN_VS>
2.4282438755

> <CNNaffinity_variance>
0.1339225471

$$$$
[H]c1nc2c([H])c(OC([H])([H])C([H])([H])C([H])([H])N3C([H])([H])C([H])([H])OC([H])([H])C3([H])[H])c(OC([H])([H])[H])c([H])c2c(Oc2c([H])c([H])c(N([H])C(=O)C3(C(=O)N([H])c4c([H])c([H])c(F)c([H])c4[H])C([H])([H])C3([H])[H])c([H])c2F)c1[H]


 48 53  0  0  0  0  0  0  0  0999 V2000
    2.6805  -51.1352  -21.9883 C   0  0  0  0  0  0  0  0  0  0  0  0
    2.0071  -50.2556  -22.8218 C   0  0  0  0  0  0  0  0  0  0  0  0
    2.5946  -49.7601  -23.9881 C   0  0  0  0  0  0  0  0  0  0  0  0
    3.8642  -50.1144  -24.3758 C   0  0  0  0  0  0  0  0  0  0  0  0
    4.5304  -50.9917  -23.5413 C   0  0  0  0  0  0  0  0  0  0  0  0
    3.9531  -51.4936  -22.3697 C   0  0  0  0  0  0  0  0  0  0  0  0
    4.6624  -52.3401  -21.5674 F   0  0  0  0  0  0  0  0  0  0  0  0
    4.4846  -49.6063  -25.5551 N   0  0  0  0  0  0  0  0  0  0  0  0
    5.2578  -48.4276  -25.6282 C   0  0  0  0  0  0  0  0  0  0  0  0
    5.4525  -47.6700  -24.6585 O   0  0  0  0  0  0  0  0  0  0  0  0
    4.3641  -50.1541  -26.4444 H   0  0  0  0  0  0  0  0  0  0  0  0
    5.9007  -48.0958  -26.9589 C   0  0  0  0  0  0  0  0  0  0  0  0
    7.3340  -48.5793  -27.1137 C   0  0  0  0  0  0  0  0  0  0  0  0
    7.0459  -47.1281  -26.7751 C   0  0  0  0  0  0  0  0  0  0  0  0
    5.0202  -47.9426  -28.1250 C   0  0  0  0  0  0  0  0  0  0  0  0
    4.2434  -48.9463  -28.4046 O   0  0  0  0  0  0  0  0  0  0  0  0
    4.9409  -46.8313  -28.9755 N   0  0  0  0  0  0  0  0  0  0  0  0
    5.6079  -46.0147  -28.8186 H   0  0  0  0  0  0  0  0  0  0  0  0
    4.0365  -46.7281  -30.0845 C   0  0  0  0  0  0  0  0  0  0  0  0
    2.8237  -46.1470  -29.9175 C   0  0  0  0  0  0  0  0  0  0  0  0
    1.9299  -46.0894  -30.9665 C   0  0  0  0  0  0  0  0  0  0  0  0
    2.2923  -46.6364  -32.1953 C   0  0  0  0  0  0  0  0  0  0  0  0
    1.4597  -46.6082  -33.2735 F   0  0  0  0  0  0  0  0  0  0  0  0
    3.5353  -47.2359  -32.3802 C   0  0  0  0  0  0  0  0  0  0  0  0
    4.3817  -47.2652  -31.3078 C   0  0  0  0  0  0  0  0  0  0  0  0
    2.0451  -51.5955  -20.8313 O   0  0  0  0  0  0  0  0  0  0  0  0
   -0.2939  -51.5071  -17.4712 C   0  0  0  0  0  0  0  0  0  0  0  0
    0.4806  -51.5539  -18.6103 C   0  0  0  0  0  0  0  0  0  0  0  0
    0.1471  -52.4239  -19.6580 C   0  0  0  0  0  0  0  0  0  0  0  0
    0.9542  -52.4442  -20.8033 C   0  0  0  0  0  0  0  0  0  0  0  0
    0.6314  -53.2882  -21.8279 C   0  0  0  0  0  0  0  0  0  0  0  0
   -0.4928  -54.1030  -21.6941 C   0  0  0  0  0  0  0  0  0  0  0  0
   -1.2496  -54.0603  -20.5807 N   0  0  0  0  0  0  0  0  0  0  0  0
   -0.9532  -53.2432  -19.5710 C   0  0  0  0  0  0  0  0  0  0  0  0
   -1.7338  -53.2068  -18.4390 C   0  0  0  0  0  0  0  0  0  0  0  0
   -1.4071  -52.3597  -17.4203 C   0  0  0  0  0  0  0  0  0  0  0  0
    1.2705  -50.3376  -16.0117 C   0  0  0  0  0  0  0  0  0  0  0  0
   -0.0171  -50.6750  -16.4190 O   0  0  0  0  0  0  0  0  0  0  0  0
   -2.2013  -52.3560  -16.3110 O   0  0  0  0  0  0  0  0  0  0  0  0
   -3.5956  -52.5860  -16.3400 C   0  0  0  0  0  0  0  0  0  0  0  0
   -4.3767  -51.3659  -15.9291 C   0  0  0  0  0  0  0  0  0  0  0  0
   -4.5194  -51.3593  -14.4381 C   0  0  0  0  0  0  0  0  0  0  0  0
   -4.0306  -50.1414  -13.8175 N   0  0  0  0  0  0  0  0  0  0  0  0
   -3.5336  -49.3218  -14.9469 C   0  0  0  0  0  0  0  0  0  0  0  0
   -2.7453  -48.1388  -14.4972 C   0  0  0  0  0  0  0  0  0  0  0  0
   -1.9246  -48.3979  -13.3843 O   0  0  0  0  0  0  0  0  0  0  0  0
   -1.6334  -49.7469  -13.3884 C   0  0  0  0  0  0  0  0  0  0  0  0
   -2.8876  -50.5220  -12.9792 C   0  0  0  0  0  0  0  0  0  0  0  0
 37 38  1  0  0  0
 38 27  1  0  0  0
 27 28  2  0  0  0
 28 29  1  0  0  0
 29 30  2  0  0  0
 30 26  1  0  0  0
 26  1  1  0  0  0
  1  2  2  0  0  0
  2  3  1  0  0  0
  3  4  2  0  0  0
  4  8  1  0  0  0
  8  9  1  0  0  0
  9 10  2  0  0  0
  9 12  1  0  0  0
 12 13  1  0  0  0
 13 14  1  0  0  0
 12 15  1  0  0  0
 15 16  2  0  0  0
 15 17  1  0  0  0
 17 19  1  0  0  0
 19 20  2  0  0  0
 20 21  1  0  0  0
 21 22  2  0  0  0
 22 23  1  0  0  0
 22 24  1  0  0  0
 24 25  2  0  0  0
  4  5  1  0  0  0
  5  6  2  0  0  0
  6  7  1  0  0  0
 30 31  1  0  0  0
 31 32  2  0  0  0
 32 33  1  0  0  0
 33 34  2  0  0  0
 34 35  1  0  0  0
 35 36  2  0  0  0
 36 39  1  0  0  0
 39 40  1  0  0  0
 40 41  1  0  0  0
 41 42  1  0  0  0
 42 43  1  0  0  0
 43 44  1  0  0  0
 44 45  1  0  0  0
 45 46  1  0  0  0
 46 47  1  0  0  0
 47 48  1  0  0  0
 36 27  1  0  0  0
 48 43  1  0  0  0
 34 29  1  0  0  0
  6  1  1  0  0  0
 14 12  1  0  0  0
 25 19  1  0  0  0
  8 11  1  0  0  0
 17 18  1  0  0  0
M  END
> <minimizedAffinity>
-7.56965

> <CNNscore>
0.1611466855

> <CNNaffinity>
6.4582686424

> <CNN_VS>
1.0407285690

> <CNNaffinity_variance>
0.1312383264

$$$$
[H]c1nc2c([H])c(OC([H])([H])C([H])([H])C([H])([H])N3C([H])([H])C([H])([H])OC([H])([H])C3([H])[H])c(OC([H])([H])[H])c([H])c2c(Oc2c([H])c([H])c(N([H])C(=O)C3(C(=O)N([H])c4c([H])c([H])c(F)c([H])c4[H])C([H])([H])C3([H])[H])c([H])c2F)c1[H]


 48 53  0  0  0  0  0  0  0  0999 V2000
    2.9795  -50.7226  -22.0459 C   0  0  0  0  0  0  0  0  0  0  0  0
    4.0055  -51.4314  -22.6514 C   0  0  0  0  0  0  0  0  0  0  0  0
    4.5691  -51.0123  -23.8589 C   0  0  0  0  0  0  0  0  0  0  0  0
    4.1439  -49.8802  -24.5112 C   0  0  0  0  0  0  0  0  0  0  0  0
    3.1212  -49.1776  -23.9026 C   0  0  0  0  0  0  0  0  0  0  0  0
    2.5478  -49.5883  -22.6942 C   0  0  0  0  0  0  0  0  0  0  0  0
    1.5239  -48.8711  -22.1458 F   0  0  0  0  0  0  0  0  0  0  0  0
    4.6977  -49.4465  -25.7518 N   0  0  0  0  0  0  0  0  0  0  0  0
    5.5438  -48.3297  -25.9225 C   0  0  0  0  0  0  0  0  0  0  0  0
    5.8727  -47.5661  -24.9946 O   0  0  0  0  0  0  0  0  0  0  0  0
    4.4642  -50.0044  -26.6119 H   0  0  0  0  0  0  0  0  0  0  0  0
    6.0947  -48.0769  -27.3106 C   0  0  0  0  0  0  0  0  0  0  0  0
    7.5024  -48.6023  -27.5444 C   0  0  0  0  0  0  0  0  0  0  0  0
    7.2706  -47.1301  -27.2570 C   0  0  0  0  0  0  0  0  0  0  0  0
    5.1348  -47.9571  -28.4165 C   0  0  0  0  0  0  0  0  0  0  0  0
    4.2379  -48.8926  -28.5135 O   0  0  0  0  0  0  0  0  0  0  0  0
    5.0946  -46.9455  -29.3858 N   0  0  0  0  0  0  0  0  0  0  0  0
    5.8527  -46.1962  -29.3794 H   0  0  0  0  0  0  0  0  0  0  0  0
    4.1109  -46.8662  -30.4273 C   0  0  0  0  0  0  0  0  0  0  0  0
    4.3806  -47.3758  -31.6537 C   0  0  0  0  0  0  0  0  0  0  0  0
    3.4592  -47.2583  -32.6734 C   0  0  0  0  0  0  0  0  0  0  0  0
    2.2520  -46.6096  -32.4235 C   0  0  0  0  0  0  0  0  0  0  0  0
    1.2965  -46.4642  -33.3839 F   0  0  0  0  0  0  0  0  0  0  0  0
    1.9625  -46.0819  -31.1679 C   0  0  0  0  0  0  0  0  0  0  0  0
    2.9106  -46.2266  -30.1946 C   0  0  0  0  0  0  0  0  0  0  0  0
    2.4503  -51.1912  -20.8398 O   0  0  0  0  0  0  0  0  0  0  0  0
    0.6057  -51.1670  -17.1838 C   0  0  0  0  0  0  0  0  0  0  0  0
    1.2113  -51.1904  -18.4217 C   0  0  0  0  0  0  0  0  0  0  0  0
    0.6594  -51.9461  -19.4658 C   0  0  0  0  0  0  0  0  0  0  0  0
    1.2987  -51.9455  -20.7127 C   0  0  0  0  0  0  0  0  0  0  0  0
    0.7630  -52.6780  -21.7337 C   0  0  0  0  0  0  0  0  0  0  0  0
   -0.4041  -53.4040  -21.4951 C   0  0  0  0  0  0  0  0  0  0  0  0
   -0.9959  -53.3842  -20.2854 N   0  0  0  0  0  0  0  0  0  0  0  0
   -0.4907  -52.6749  -19.2771 C   0  0  0  0  0  0  0  0  0  0  0  0
   -1.1042  -52.6608  -18.0460 C   0  0  0  0  0  0  0  0  0  0  0  0
   -0.5651  -51.9250  -17.0312 C   0  0  0  0  0  0  0  0  0  0  0  0
    0.8998  -49.0769  -15.9632 C   0  0  0  0  0  0  0  0  0  0  0  0
    1.0988  -50.4444  -16.1298 O   0  0  0  0  0  0  0  0  0  0  0  0
   -1.1981  -51.9404  -15.8228 O   0  0  0  0  0  0  0  0  0  0  0  0
   -2.2217  -51.0363  -15.4584 C   0  0  0  0  0  0  0  0  0  0  0  0
   -2.4950  -51.0613  -13.9778 C   0  0  0  0  0  0  0  0  0  0  0  0
   -1.4419  -51.8851  -13.3028 C   0  0  0  0  0  0  0  0  0  0  0  0
   -0.1602  -51.2113  -13.2005 N   0  0  0  0  0  0  0  0  0  0  0  0
    0.8301  -52.3085  -13.1017 C   0  0  0  0  0  0  0  0  0  0  0  0
    2.1886  -51.8259  -12.7209 C   0  0  0  0  0  0  0  0  0  0  0  0
    2.1726  -50.7874  -11.7719 O   0  0  0  0  0  0  0  0  0  0  0  0
    1.0041  -50.9052  -11.0472 C   0  0  0  0  0  0  0  0  0  0  0  0
   -0.1683  -50.4748  -11.9311 C   0  0  0  0  0  0  0  0  0  0  0  0
 37 38  1  0  0  0
 38 27  1  0  0  0
 27 28  2  0  0  0
 28 29  1  0  0  0
 29 30  2  0  0  0
 30 26  1  0  0  0
 26  1  1  0  0  0
  1  2  2  0  0  0
  2  3  1  0  0  0
  3  4  2  0  0  0
  4  8  1  0  0  0
  8  9  1  0  0  0
  9 10  2  0  0  0
  9 12  1  0  0  0
 12 13  1  0  0  0
 13 14  1  0  0  0
 12 15  1  0  0  0
 15 16  2  0  0  0
 15 17  1  0  0  0
 17 19  1  0  0  0
 19 20  2  0  0  0
 20 21  1  0  0  0
 21 22  2  0  0  0
 22 23  1  0  0  0
 22 24  1  0  0  0
 24 25  2  0  0  0
  4  5  1  0  0  0
  5  6  2  0  0  0
  6  7  1  0  0  0
 30 31  1  0  0  0
 31 32  2  0  0  0
 32 33  1  0  0  0
 33 34  2  0  0  0
 34 35  1  0  0  0
 35 36  2  0  0  0
 36 39  1  0  0  0
 39 40  1  0  0  0
 40 41  1  0  0  0
 41 42  1  0  0  0
 42 43  1  0  0  0
 43 44  1  0  0  0
 44 45  1  0  0  0
 45 46  1  0  0  0
 46 47  1  0  0  0
 47 48  1  0  0  0
 36 27  1  0  0  0
 48 43  1  0  0  0
 34 29  1  0  0  0
  6  1  1  0  0  0
 14 12  1  0  0  0
 25 19  1  0  0  0
  8 11  1  0  0  0
 17 18  1  0  0  0
M  END
> <minimizedAffinity>
-7.18523

> <CNNscore>
0.1378521025

> <CNNaffinity>
6.5470705032

> <CNN_VS>
0.9025274515

> <CNNaffinity_variance>
0.1240802631

$$$$
[H]c1nc2c([H])c(OC([H])([H])C([H])([H])C([H])([H])N3C([H])([H])C([H])([H])OC([H])([H])C3([H])[H])c(OC([H])([H])[H])c([H])c2c(Oc2c([H])c([H])c(N([H])C(=O)C3(C(=O)N([H])c4c([H])c([H])c(F)c([H])c4[H])C([H])([H])C3([H])[H])c([H])c2F)c1[H]


 48 53  0  0  0  0  0  0  0  0999 V2000
    3.6946  -47.9678  -21.1350 C   0  0  0  0  0  0  0  0  0  0  0  0
    2.3524  -47.8683  -20.8027 C   0  0  0  0  0  0  0  0  0  0  0  0
    1.4339  -48.8540  -21.1712 C   0  0  0  0  0  0  0  0  0  0  0  0
    1.8046  -49.9726  -21.8777 C   0  0  0  0  0  0  0  0  0  0  0  0
    3.1438  -50.0665  -22.2057 C   0  0  0  0  0  0  0  0  0  0  0  0
    4.0729  -49.0850  -21.8436 C   0  0  0  0  0  0  0  0  0  0  0  0
    5.3809  -49.2140  -22.2121 F   0  0  0  0  0  0  0  0  0  0  0  0
    0.8775  -50.9809  -22.2750 N   0  0  0  0  0  0  0  0  0  0  0  0
    0.7418  -52.2494  -21.6710 C   0  0  0  0  0  0  0  0  0  0  0  0
    1.4583  -52.6456  -20.7319 O   0  0  0  0  0  0  0  0  0  0  0  0
    0.2363  -50.7642  -23.0796 H   0  0  0  0  0  0  0  0  0  0  0  0
   -0.3576  -53.1544  -22.1870 C   0  0  0  0  0  0  0  0  0  0  0  0
   -1.5693  -53.2706  -21.2756 C   0  0  0  0  0  0  0  0  0  0  0  0
   -0.5178  -54.3649  -21.2978 C   0  0  0  0  0  0  0  0  0  0  0  0
   -0.4823  -53.3188  -23.6417 C   0  0  0  0  0  0  0  0  0  0  0  0
   -0.6873  -54.5264  -24.0762 O   0  0  0  0  0  0  0  0  0  0  0  0
   -0.3896  -52.3102  -24.6105 N   0  0  0  0  0  0  0  0  0  0  0  0
   -0.1571  -51.3176  -24.2992 H   0  0  0  0  0  0  0  0  0  0  0  0
   -0.5506  -52.5287  -26.0193 C   0  0  0  0  0  0  0  0  0  0  0  0
    0.5216  -52.8565  -26.7806 C   0  0  0  0  0  0  0  0  0  0  0  0
    0.3831  -53.0188  -28.1433 C   0  0  0  0  0  0  0  0  0  0  0  0
   -0.8713  -52.8407  -28.7223 C   0  0  0  0  0  0  0  0  0  0  0  0
   -1.0785  -52.9913  -30.0605 F   0  0  0  0  0  0  0  0  0  0  0  0
   -1.9809  -52.5042  -27.9514 C   0  0  0  0  0  0  0  0  0  0  0  0
   -1.7871  -52.3560  -26.6069 C   0  0  0  0  0  0  0  0  0  0  0  0
    4.5682  -46.9489  -20.7438 O   0  0  0  0  0  0  0  0  0  0  0  0
    8.6435  -46.5622  -20.8497 C   0  0  0  0  0  0  0  0  0  0  0  0
    7.2700  -46.6744  -20.8280 C   0  0  0  0  0  0  0  0  0  0  0  0
    6.4782  -45.8331  -21.6225 C   0  0  0  0  0  0  0  0  0  0  0  0
    5.0849  -45.9758  -21.5788 C   0  0  0  0  0  0  0  0  0  0  0  0
    4.3096  -45.1603  -22.3534 C   0  0  0  0  0  0  0  0  0  0  0  0
    4.9364  -44.2106  -23.1603 C   0  0  0  0  0  0  0  0  0  0  0  0
    6.2784  -44.0980  -23.1811 N   0  0  0  0  0  0  0  0  0  0  0  0
    7.0526  -44.8847  -22.4349 C   0  0  0  0  0  0  0  0  0  0  0  0
    8.4223  -44.7618  -22.4648 C   0  0  0  0  0  0  0  0  0  0  0  0
    9.1910  -45.5813  -21.6905 C   0  0  0  0  0  0  0  0  0  0  0  0
    9.2157  -48.7021  -19.8305 C   0  0  0  0  0  0  0  0  0  0  0  0
    9.4654  -47.3590  -20.0975 O   0  0  0  0  0  0  0  0  0  0  0  0
   10.5454  -45.4258  -21.7421 O   0  0  0  0  0  0  0  0  0  0  0  0
   11.3018  -45.5009  -22.9337 C   0  0  0  0  0  0  0  0  0  0  0  0
   11.3099  -46.8924  -23.5094 C   0  0  0  0  0  0  0  0  0  0  0  0
   10.4730  -46.9095  -24.7514 C   0  0  0  0  0  0  0  0  0  0  0  0
   10.5128  -48.1781  -25.4560 N   0  0  0  0  0  0  0  0  0  0  0  0
   10.7128  -47.8086  -26.8765 C   0  0  0  0  0  0  0  0  0  0  0  0
   10.5154  -48.9589  -27.8044 C   0  0  0  0  0  0  0  0  0  0  0  0
    9.4630  -49.8132  -27.4276 O   0  0  0  0  0  0  0  0  0  0  0  0
    8.5686  -49.0680  -26.6866 C   0  0  0  0  0  0  0  0  0  0  0  0
    9.1834  -48.7836  -25.3146 C   0  0  0  0  0  0  0  0  0  0  0  0
 37 38  1  0  0  0
 38 27  1  0  0  0
 27 28  2  0  0  0
 28 29  1  0  0  0
 29 30  2  0  0  0
 30 26  1  0  0  0
 26  1  1  0  0  0
  1  2  2  0  0  0
  2  3  1  0  0  0
  3  4  2  0  0  0
  4  8  1  0  0  0
  8  9  1  0  0  0
  9 10  2  0  0  0
  9 12  1  0  0  0
 12 13  1  0  0  0
 13 14  1  0  0  0
 12 15  1  0  0  0
 15 16  2  0  0  0
 15 17  1  0  0  0
 17 19  1  0  0  0
 19 20  2  0  0  0
 20 21  1  0  0  0
 21 22  2  0  0  0
 22 23  1  0  0  0
 22 24  1  0  0  0
 24 25  2  0  0  0
  4  5  1  0  0  0
  5  6  2  0  0  0
  6  7  1  0  0  0
 30 31  1  0  0  0
 31 32  2  0  0  0
 32 33  1  0  0  0
 33 34  2  0  0  0
 34 35  1  0  0  0
 35 36  2  0  0  0
 36 39  1  0  0  0
 39 40  1  0  0  0
 40 41  1  0  0  0
 41 42  1  0  0  0
 42 43  1  0  0  0
 43 44  1  0  0  0
 44 45  1  0  0  0
 45 46  1  0  0  0
 46 47  1  0  0  0
 47 48  1  0  0  0
 36 27  1  0  0  0
 48 43  1  0  0  0
 34 29  1  0  0  0
  6  1  1  0  0  0
 14 12  1  0  0  0
 25 19  1  0  0  0
  8 11  1  0  0  0
 17 18  1  0  0  0
M  END
> <minimizedAffinity>
-7.17966

> <CNNscore>
0.1055085659

> <CNNaffinity>
6.8804526329

> <CNN_VS>
0.7259466648

> <CNNaffinity_variance>
0.3524898291

$$$$
[H]c1nc2c([H])c(OC([H])([H])C([H])([H])C([H])([H])N3C([H])([H])C([H])([H])OC([H])([H])C3([H])[H])c(OC([H])([H])[H])c([H])c2c(Oc2c([H])c([H])c(N([H])C(=O)C3(C(=O)N([H])c4c([H])c([H])c(F)c([H])c4[H])C([H])([H])C3([H])[H])c([H])c2F)c1[H]


 48 53  0  0  0  0  0  0  0  0999 V2000
    6.6453  -50.0560  -21.6985 C   0  0  0  0  0  0  0  0  0  0  0  0
    5.6523  -49.8758  -20.7480 C   0  0  0  0  0  0  0  0  0  0  0  0
    4.4014  -50.4843  -20.8745 C   0  0  0  0  0  0  0  0  0  0  0  0
    4.0849  -51.2927  -21.9394 C   0  0  0  0  0  0  0  0  0  0  0  0
    5.0788  -51.4690  -22.8833 C   0  0  0  0  0  0  0  0  0  0  0  0
    6.3350  -50.8636  -22.7684 C   0  0  0  0  0  0  0  0  0  0  0  0
    7.2749  -51.0514  -23.7405 F   0  0  0  0  0  0  0  0  0  0  0  0
    2.8081  -51.9094  -22.0917 N   0  0  0  0  0  0  0  0  0  0  0  0
    1.6676  -51.2976  -22.6551 C   0  0  0  0  0  0  0  0  0  0  0  0
    1.6443  -50.1170  -23.0524 O   0  0  0  0  0  0  0  0  0  0  0  0
    2.7041  -52.9031  -21.7644 H   0  0  0  0  0  0  0  0  0  0  0  0
    0.4213  -52.1456  -22.8023 C   0  0  0  0  0  0  0  0  0  0  0  0
   -0.6197  -51.9453  -21.7122 C   0  0  0  0  0  0  0  0  0  0  0  0
    0.3134  -53.1417  -21.6718 C   0  0  0  0  0  0  0  0  0  0  0  0
    0.0328  -52.5620  -24.1567 C   0  0  0  0  0  0  0  0  0  0  0  0
   -0.3251  -53.8026  -24.3048 O   0  0  0  0  0  0  0  0  0  0  0  0
    0.0213  -51.7633  -25.3085 N   0  0  0  0  0  0  0  0  0  0  0  0
    0.3704  -50.7584  -25.2412 H   0  0  0  0  0  0  0  0  0  0  0  0
   -0.3984  -52.2205  -26.6020 C   0  0  0  0  0  0  0  0  0  0  0  0
    0.5250  -52.5988  -27.5189 C   0  0  0  0  0  0  0  0  0  0  0  0
    0.1311  -52.9916  -28.7811 C   0  0  0  0  0  0  0  0  0  0  0  0
   -1.2257  -52.9929  -29.0971 C   0  0  0  0  0  0  0  0  0  0  0  0
   -1.6827  -53.3747  -30.3226 F   0  0  0  0  0  0  0  0  0  0  0  0
   -2.1844  -52.6069  -28.1641 C   0  0  0  0  0  0  0  0  0  0  0  0
   -1.7389  -52.2275  -26.9293 C   0  0  0  0  0  0  0  0  0  0  0  0
    7.8771  -49.4187  -21.5227 O   0  0  0  0  0  0  0  0  0  0  0  0
    9.6767  -48.0466  -24.9355 C   0  0  0  0  0  0  0  0  0  0  0  0
    9.0714  -48.4872  -23.7784 C   0  0  0  0  0  0  0  0  0  0  0  0
    8.7079  -47.5748  -22.7777 C   0  0  0  0  0  0  0  0  0  0  0  0
    8.0915  -48.0561  -21.6150 C   0  0  0  0  0  0  0  0  0  0  0  0
    7.7330  -47.1705  -20.6386 C   0  0  0  0  0  0  0  0  0  0  0  0
    7.9970  -45.8150  -20.8355 C   0  0  0  0  0  0  0  0  0  0  0  0
    8.5906  -45.3828  -21.9647 N   0  0  0  0  0  0  0  0  0  0  0  0
    8.9463  -46.2297  -22.9297 C   0  0  0  0  0  0  0  0  0  0  0  0
    9.5508  -45.7772  -24.0795 C   0  0  0  0  0  0  0  0  0  0  0  0
    9.9041  -46.6669  -25.0518 C   0  0  0  0  0  0  0  0  0  0  0  0
    9.1515  -49.5545  -26.7782 C   0  0  0  0  0  0  0  0  0  0  0  0
   10.0498  -48.8921  -25.9465 O   0  0  0  0  0  0  0  0  0  0  0  0
   10.5071  -46.1816  -26.1753 O   0  0  0  0  0  0  0  0  0  0  0  0
    9.8410  -45.9930  -27.4076 C   0  0  0  0  0  0  0  0  0  0  0  0
    8.3811  -45.6767  -27.2165 C   0  0  0  0  0  0  0  0  0  0  0  0
    7.9603  -44.6789  -28.2512 C   0  0  0  0  0  0  0  0  0  0  0  0
    7.4121  -43.4591  -27.6866 N   0  0  0  0  0  0  0  0  0  0  0  0
    8.4604  -42.4383  -27.9173 C   0  0  0  0  0  0  0  0  0  0  0  0
    8.2049  -41.1716  -27.1733 C   0  0  0  0  0  0  0  0  0  0  0  0
    7.6694  -41.3709  -25.8877 O   0  0  0  0  0  0  0  0  0  0  0  0
    8.0685  -42.6212  -25.4610 C   0  0  0  0  0  0  0  0  0  0  0  0
    7.2864  -43.6799  -26.2411 C   0  0  0  0  0  0  0  0  0  0  0  0
 37 38  1  0  0  0
 38 27  1  0  0  0
 27 28  2  0  0  0
 28 29  1  0  0  0
 29 30  2  0  0  0
 30 26  1  0  0  0
 26  1  1  0  0  0
  1  2  2  0  0  0
  2  3  1  0  0  0
  3  4  2  0  0  0
  4  8  1  0  0  0
  8  9  1  0  0  0
  9 10  2  0  0  0
  9 12  1  0  0  0
 12 13  1  0  0  0
 13 14  1  0  0  0
 12 15  1  0  0  0
 15 16  2  0  0  0
 15 17  1  0  0  0
 17 19  1  0  0  0
 19 20  2  0  0  0
 20 21  1  0  0  0
 21 22  2  0  0  0
 22 23  1  0  0  0
 22 24  1  0  0  0
 24 25  2  0  0  0
  4  5  1  0  0  0
  5  6  2  0  0  0
  6  7  1  0  0  0
 30 31  1  0  0  0
 31 32  2  0  0  0
 32 33  1  0  0  0
 33 34  2  0  0  0
 34 35  1  0  0  0
 35 36  2  0  0  0
 36 39  1  0  0  0
 39 40  1  0  0  0
 40 41  1  0  0  0
 41 42  1  0  0  0
 42 43  1  0  0  0
 43 44  1  0  0  0
 44 45  1  0  0  0
 45 46  1  0  0  0
 46 47  1  0  0  0
 47 48  1  0  0  0
 36 27  1  0  0  0
 48 43  1  0  0  0
 34 29  1  0  0  0
  6  1  1  0  0  0
 14 12  1  0  0  0
 25 19  1  0  0  0
  8 11  1  0  0  0
 17 18  1  0  0  0
M  END
> <minimizedAffinity>
-6.67893

> <CNNscore>
0.0906285867

> <CNNaffinity>
6.5716629028

> <CNN_VS>
0.5955805182

> <CNNaffinity_variance>
0.3701222837

$$$$
[H]c1nc2c([H])c(OC([H])([H])C([H])([H])C([H])([H])N3C([H])([H])C([H])([H])OC([H])([H])C3([H])[H])c(OC([H])([H])[H])c([H])c2c(Oc2c([H])c([H])c(N([H])C(=O)C3(C(=O)N([H])c4c([H])c([H])c(F)c([H])c4[H])C([H])([H])C3([H])[H])c([H])c2F)c1[H]


 48 53  0  0  0  0  0  0  0  0999 V2000
    0.8725  -52.3196  -20.3634 C   0  0  0  0  0  0  0  0  0  0  0  0
    1.0231  -51.1114  -19.7003 C   0  0  0  0  0  0  0  0  0  0  0  0
    0.3513  -50.8461  -18.5047 C   0  0  0  0  0  0  0  0  0  0  0  0
   -0.4902  -51.7608  -17.9192 C   0  0  0  0  0  0  0  0  0  0  0  0
   -0.6359  -52.9634  -18.5845 C   0  0  0  0  0  0  0  0  0  0  0  0
    0.0303  -53.2402  -19.7833 C   0  0  0  0  0  0  0  0  0  0  0  0
   -0.1658  -54.4353  -20.4132 F   0  0  0  0  0  0  0  0  0  0  0  0
   -1.1953  -51.5006  -16.7072 N   0  0  0  0  0  0  0  0  0  0  0  0
   -0.7205  -51.7854  -15.4088 C   0  0  0  0  0  0  0  0  0  0  0  0
    0.3711  -52.3409  -15.1807 O   0  0  0  0  0  0  0  0  0  0  0  0
   -2.1446  -51.0547  -16.7812 H   0  0  0  0  0  0  0  0  0  0  0  0
   -1.5858  -51.3610  -14.2403 C   0  0  0  0  0  0  0  0  0  0  0  0
   -1.2116  -50.0234  -13.6215 C   0  0  0  0  0  0  0  0  0  0  0  0
   -0.7805  -51.3211  -12.9629 C   0  0  0  0  0  0  0  0  0  0  0  0
   -2.9672  -51.8594  -14.1951 C   0  0  0  0  0  0  0  0  0  0  0  0
   -3.8653  -51.1430  -14.8027 O   0  0  0  0  0  0  0  0  0  0  0  0
   -3.4190  -53.0205  -13.5529 N   0  0  0  0  0  0  0  0  0  0  0  0
   -2.7245  -53.5998  -12.9887 H   0  0  0  0  0  0  0  0  0  0  0  0
   -4.7805  -53.4726  -13.5694 C   0  0  0  0  0  0  0  0  0  0  0  0
   -5.2804  -54.0759  -14.6751 C   0  0  0  0  0  0  0  0  0  0  0  0
   -6.6023  -54.4677  -14.7159 C   0  0  0  0  0  0  0  0  0  0  0  0
   -7.4121  -54.2339  -13.6067 C   0  0  0  0  0  0  0  0  0  0  0  0
   -8.7241  -54.6007  -13.5787 F   0  0  0  0  0  0  0  0  0  0  0  0
   -6.9108  -53.6154  -12.4644 C   0  0  0  0  0  0  0  0  0  0  0  0
   -5.5947  -53.2481  -12.4782 C   0  0  0  0  0  0  0  0  0  0  0  0
    1.5660  -52.5288  -21.5590 O   0  0  0  0  0  0  0  0  0  0  0  0
    3.9795  -50.3830  -24.0769 C   0  0  0  0  0  0  0  0  0  0  0  0
    3.1507  -51.1049  -23.2453 C   0  0  0  0  0  0  0  0  0  0  0  0
    1.8917  -51.5282  -23.6940 C   0  0  0  0  0  0  0  0  0  0  0  0
    1.0753  -52.2629  -22.8238 C   0  0  0  0  0  0  0  0  0  0  0  0
   -0.1511  -52.6800  -23.2577 C   0  0  0  0  0  0  0  0  0  0  0  0
   -0.5473  -52.3555  -24.5552 C   0  0  0  0  0  0  0  0  0  0  0  0
    0.2603  -51.6482  -25.3685 N   0  0  0  0  0  0  0  0  0  0  0  0
    1.4607  -51.2337  -24.9656 C   0  0  0  0  0  0  0  0  0  0  0  0
    2.2779  -50.5128  -25.8051 C   0  0  0  0  0  0  0  0  0  0  0  0
    3.5026  -50.1015  -25.3662 C   0  0  0  0  0  0  0  0  0  0  0  0
    6.3149  -50.7851  -23.5031 C   0  0  0  0  0  0  0  0  0  0  0  0
    5.2199  -49.9470  -23.6927 O   0  0  0  0  0  0  0  0  0  0  0  0
    4.2826  -49.3836  -26.2249 O   0  0  0  0  0  0  0  0  0  0  0  0
    3.7698  -48.5394  -27.2360 C   0  0  0  0  0  0  0  0  0  0  0  0
    4.8623  -47.9657  -28.0990 C   0  0  0  0  0  0  0  0  0  0  0  0
    4.2665  -47.4993  -29.3916 C   0  0  0  0  0  0  0  0  0  0  0  0
    4.5623  -48.3741  -30.5117 N   0  0  0  0  0  0  0  0  0  0  0  0
    6.0337  -48.5411  -30.4751 C   0  0  0  0  0  0  0  0  0  0  0  0
    6.5704  -49.1922  -31.7044 C   0  0  0  0  0  0  0  0  0  0  0  0
    5.9247  -48.7848  -32.8861 O   0  0  0  0  0  0  0  0  0  0  0  0
    5.4126  -47.5225  -32.6652 C   0  0  0  0  0  0  0  0  0  0  0  0
    4.2068  -47.6376  -31.7304 C   0  0  0  0  0  0  0  0  0  0  0  0
 37 38  1  0  0  0
 38 27  1  0  0  0
 27 28  2  0  0  0
 28 29  1  0  0  0
 29 30  2  0  0  0
 30 26  1  0  0  0
 26  1  1  0  0  0
  1  2  2  0  0  0
  2  3  1  0  0  0
  3  4  2  0  0  0
  4  8  1  0  0  0
  8  9  1  0  0  0
  9 10  2  0  0  0
  9 12  1  0  0  0
 12 13  1  0  0  0
 13 14  1  0  0  0
 12 15  1  0  0  0
 15 16  2  0  0  0
 15 17  1  0  0  0
 17 19  1  0  0  0
 19 20  2  0  0  0
 20 21  1  0  0  0
 21 22  2  0  0  0
 22 23  1  0  0  0
 22 24  1  0  0  0
 24 25  2  0  0  0
  4  5  1  0  0  0
  5  6  2  0  0  0
  6  7  1  0  0  0
 30 31  1  0  0  0
 31 32  2  0  0  0
 32 33  1  0  0  0
 33 34  2  0  0  0
 34 35  1  0  0  0
 35 36  2  0  0  0
 36 39  1  0  0  0
 39 40  1  0  0  0
 40 41  1  0  0  0
 41 42  1  0  0  0
 42 43  1  0  0  0
 43 44  1  0  0  0
 44 45  1  0  0  0
 45 46  1  0  0  0
 46 47  1  0  0  0
 47 48  1  0  0  0
 36 27  1  0  0  0
 48 43  1  0  0  0
 34 29  1  0  0  0
  6  1  1  0  0  0
 14 12  1  0  0  0
 25 19  1  0  0  0
  8 11  1  0  0  0
 17 18  1  0  0  0
M  END
> <minimizedAffinity>
-7.69388

> <CNNscore>
0.0811113343

> <CNNaffinity>
6.4282584190

> <CNN_VS>
0.5214046240

> <CNNaffinity_variance>
0.2378814518

$$$$
[H]c1nc2c([H])c(OC([H])([H])C([H])([H])C([H])([H])N3C([H])([H])C([H])([H])OC([H])([H])C3([H])[H])c(OC([H])([H])[H])c([H])c2c(Oc2c([H])c([H])c(N([H])C(=O)C3(C(=O)N([H])c4c([H])c([H])c(F)c([H])c4[H])C([H])([H])C3([H])[H])c([H])c2F)c1[H]


 48 53  0  0  0  0  0  0  0  0999 V2000
    6.4166  -49.9583  -21.4224 C   0  0  0  0  0  0  0  0  0  0  0  0
    5.3839  -49.7886  -20.5132 C   0  0  0  0  0  0  0  0  0  0  0  0
    4.1517  -50.4248  -20.6807 C   0  0  0  0  0  0  0  0  0  0  0  0
    3.8936  -51.2515  -21.7473 C   0  0  0  0  0  0  0  0  0  0  0  0
    4.9268  -51.4172  -22.6500 C   0  0  0  0  0  0  0  0  0  0  0  0
    6.1648  -50.7841  -22.4939 C   0  0  0  0  0  0  0  0  0  0  0  0
    7.1454  -50.9628  -23.4266 F   0  0  0  0  0  0  0  0  0  0  0  0
    2.6366  -51.8966  -21.9414 N   0  0  0  0  0  0  0  0  0  0  0  0
    1.5243  -51.3353  -22.6047 C   0  0  0  0  0  0  0  0  0  0  0  0
    1.5093  -50.1784  -23.0670 O   0  0  0  0  0  0  0  0  0  0  0  0
    2.5263  -52.8728  -21.5667 H   0  0  0  0  0  0  0  0  0  0  0  0
    0.3006  -52.2106  -22.7791 C   0  0  0  0  0  0  0  0  0  0  0  0
   -0.7587  -52.0496  -21.7002 C   0  0  0  0  0  0  0  0  0  0  0  0
    0.2021  -53.2239  -21.6632 C   0  0  0  0  0  0  0  0  0  0  0  0
   -0.0605  -52.6180  -24.1438 C   0  0  0  0  0  0  0  0  0  0  0  0
   -0.4008  -53.8613  -24.3100 O   0  0  0  0  0  0  0  0  0  0  0  0
   -0.0629  -51.8080  -25.2877 N   0  0  0  0  0  0  0  0  0  0  0  0
    0.2727  -50.7997  -25.2048 H   0  0  0  0  0  0  0  0  0  0  0  0
   -0.4557  -52.2573  -26.5925 C   0  0  0  0  0  0  0  0  0  0  0  0
    0.4843  -52.6631  -27.4803 C   0  0  0  0  0  0  0  0  0  0  0  0
    0.1181  -53.0486  -28.7530 C   0  0  0  0  0  0  0  0  0  0  0  0
   -1.2281  -53.0139  -29.1098 C   0  0  0  0  0  0  0  0  0  0  0  0
   -1.6582  -53.3866  -30.3479 F   0  0  0  0  0  0  0  0  0  0  0  0
   -2.2036  -52.5994  -28.2070 C   0  0  0  0  0  0  0  0  0  0  0  0
   -1.7854  -52.2287  -26.9601 C   0  0  0  0  0  0  0  0  0  0  0  0
    7.6271  -49.2932  -21.2068 O   0  0  0  0  0  0  0  0  0  0  0  0
    9.5290  -48.0229  -24.6036 C   0  0  0  0  0  0  0  0  0  0  0  0
    8.8887  -48.4290  -23.4527 C   0  0  0  0  0  0  0  0  0  0  0  0
    8.4767  -47.4853  -22.5010 C   0  0  0  0  0  0  0  0  0  0  0  0
    7.8256  -47.9320  -21.3434 C   0  0  0  0  0  0  0  0  0  0  0  0
    7.4198  -47.0159  -20.4148 C   0  0  0  0  0  0  0  0  0  0  0  0
    7.6718  -45.6648  -20.6537 C   0  0  0  0  0  0  0  0  0  0  0  0
    8.2995  -45.2663  -21.7768 N   0  0  0  0  0  0  0  0  0  0  0  0
    8.7015  -46.1433  -22.6956 C   0  0  0  0  0  0  0  0  0  0  0  0
    9.3407  -45.7251  -23.8397 C   0  0  0  0  0  0  0  0  0  0  0  0
    9.7412  -46.6452  -24.7643 C   0  0  0  0  0  0  0  0  0  0  0  0
    9.1032  -49.5070  -26.4908 C   0  0  0  0  0  0  0  0  0  0  0  0
    9.9501  -48.9000  -25.5678 O   0  0  0  0  0  0  0  0  0  0  0  0
   10.3773  -46.1934  -25.8834 O   0  0  0  0  0  0  0  0  0  0  0  0
    9.7835  -45.3306  -26.8325 C   0  0  0  0  0  0  0  0  0  0  0  0
   10.1096  -45.7371  -28.2454 C   0  0  0  0  0  0  0  0  0  0  0  0
   11.1653  -46.7991  -28.2144 C   0  0  0  0  0  0  0  0  0  0  0  0
   11.5450  -47.2733  -29.5328 N   0  0  0  0  0  0  0  0  0  0  0  0
   11.6270  -46.0472  -30.3599 C   0  0  0  0  0  0  0  0  0  0  0  0
   11.7449  -46.3417  -31.8168 C   0  0  0  0  0  0  0  0  0  0  0  0
   10.9682  -47.4376  -32.2352 O   0  0  0  0  0  0  0  0  0  0  0  0
    9.9093  -47.5549  -31.3580 C   0  0  0  0  0  0  0  0  0  0  0  0
   10.4324  -48.0942  -30.0250 C   0  0  0  0  0  0  0  0  0  0  0  0
 37 38  1  0  0  0
 38 27  1  0  0  0
 27 28  2  0  0  0
 28 29  1  0  0  0
 29 30  2  0  0  0
 30 26  1  0  0  0
 26  1  1  0  0  0
  1  2  2  0  0  0
  2  3  1  0  0  0
  3  4  2  0  0  0
  4  8  1  0  0  0
  8  9  1  0  0  0
  9 10  2  0  0  0
  9 12  1  0  0  0
 12 13  1  0  0  0
 13 14  1  0  0  0
 12 15  1  0  0  0
 15 16  2  0  0  0
 15 17  1  0  0  0
 17 19  1  0  0  0
 19 20  2  0  0  0
 20 21  1  0  0  0
 21 22  2  0  0  0
 22 23  1  0  0  0
 22 24  1  0  0  0
 24 25  2  0  0  0
  4  5  1  0  0  0
  5  6  2  0  0  0
  6  7  1  0  0  0
 30 31  1  0  0  0
 31 32  2  0  0  0
 32 33  1  0  0  0
 33 34  2  0  0  0
 34 35  1  0  0  0
 35 36  2  0  0  0
 36 39  1  0  0  0
 39 40  1  0  0  0
 40 41  1  0  0  0
 41 42  1  0  0  0
 42 43  1  0  0  0
 43 44  1  0  0  0
 44 45  1  0  0  0
 45 46  1  0  0  0
 46 47  1  0  0  0
 47 48  1  0  0  0
 36 27  1  0  0  0
 48 43  1  0  0  0
 34 29  1  0  0  0
  6  1  1  0  0  0
 14 12  1  0  0  0
 25 19  1  0  0  0
  8 11  1  0  0  0
 17 18  1  0  0  0
M  END
> <minimizedAffinity>
-7.32844

> <CNNscore>
0.0805478171

> <CNNaffinity>
6.5157561302

> <CNN_VS>
0.5248299241

> <CNNaffinity_variance>
0.3801190853

$$$$
[H]c1nc2c([H])c(OC([H])([H])C([H])([H])C([H])([H])N3C([H])([H])C([H])([H])OC([H])([H])C3([H])[H])c(OC([H])([H])[H])c([H])c2c(Oc2c([H])c([H])c(N([H])C(=O)C3(C(=O)N([H])c4c([H])c([H])c(F)c([H])c4[H])C([H])([H])C3([H])[H])c([H])c2F)c1[H]


 48 53  0  0  0  0  0  0  0  0999 V2000
   -0.3330  -51.9327  -17.4557 C   0  0  0  0  0  0  0  0  0  0  0  0
    0.8253  -51.2041  -17.6780 C   0  0  0  0  0  0  0  0  0  0  0  0
    1.4677  -51.2145  -18.9183 C   0  0  0  0  0  0  0  0  0  0  0  0
    0.9917  -51.9405  -19.9832 C   0  0  0  0  0  0  0  0  0  0  0  0
   -0.1633  -52.6644  -19.7558 C   0  0  0  0  0  0  0  0  0  0  0  0
   -0.8149  -52.6632  -18.5176 C   0  0  0  0  0  0  0  0  0  0  0  0
   -1.9408  -53.4138  -18.3378 F   0  0  0  0  0  0  0  0  0  0  0  0
    1.6433  -51.9743  -21.2513 N   0  0  0  0  0  0  0  0  0  0  0  0
    1.7934  -50.8735  -22.1220 C   0  0  0  0  0  0  0  0  0  0  0  0
    1.3297  -49.7411  -21.8875 O   0  0  0  0  0  0  0  0  0  0  0  0
    2.0522  -52.8906  -21.5655 H   0  0  0  0  0  0  0  0  0  0  0  0
    2.5878  -51.0918  -23.3930 C   0  0  0  0  0  0  0  0  0  0  0  0
    3.9878  -51.6471  -23.1835 C   0  0  0  0  0  0  0  0  0  0  0  0
    3.7807  -50.1665  -23.4459 C   0  0  0  0  0  0  0  0  0  0  0  0
    1.8408  -51.3607  -24.6293 C   0  0  0  0  0  0  0  0  0  0  0  0
    1.8823  -50.4413  -25.5469 O   0  0  0  0  0  0  0  0  0  0  0  0
    1.0768  -52.5003  -24.9162 N   0  0  0  0  0  0  0  0  0  0  0  0
    0.9645  -53.2472  -24.1641 H   0  0  0  0  0  0  0  0  0  0  0  0
    0.3921  -52.7198  -26.1578 C   0  0  0  0  0  0  0  0  0  0  0  0
    1.0450  -53.2894  -27.1997 C   0  0  0  0  0  0  0  0  0  0  0  0
    0.4077  -53.4574  -28.4114 C   0  0  0  0  0  0  0  0  0  0  0  0
   -0.9124  -53.0335  -28.5465 C   0  0  0  0  0  0  0  0  0  0  0  0
   -1.6018  -53.1748  -29.7133 F   0  0  0  0  0  0  0  0  0  0  0  0
   -1.5946  -52.4471  -27.4837 C   0  0  0  0  0  0  0  0  0  0  0  0
   -0.9157  -52.3052  -26.3064 C   0  0  0  0  0  0  0  0  0  0  0  0
   -0.9309  -51.8886  -16.1929 O   0  0  0  0  0  0  0  0  0  0  0  0
   -0.4408  -47.9775  -15.0830 C   0  0  0  0  0  0  0  0  0  0  0  0
   -0.6281  -49.2920  -15.4522 C   0  0  0  0  0  0  0  0  0  0  0  0
   -1.9183  -49.8394  -15.4921 C   0  0  0  0  0  0  0  0  0  0  0  0
   -2.0735  -51.1784  -15.8747 C   0  0  0  0  0  0  0  0  0  0  0  0
   -3.3290  -51.7151  -15.9178 C   0  0  0  0  0  0  0  0  0  0  0  0
   -4.4137  -50.9074  -15.5758 C   0  0  0  0  0  0  0  0  0  0  0  0
   -4.2324  -49.6232  -15.2125 N   0  0  0  0  0  0  0  0  0  0  0  0
   -3.0167  -49.0801  -15.1658 C   0  0  0  0  0  0  0  0  0  0  0  0
   -2.8432  -47.7670  -14.7945 C   0  0  0  0  0  0  0  0  0  0  0  0
   -1.5866  -47.2365  -14.7560 C   0  0  0  0  0  0  0  0  0  0  0  0
    1.8821  -47.9255  -14.3437 C   0  0  0  0  0  0  0  0  0  0  0  0
    0.7956  -47.3903  -15.0297 O   0  0  0  0  0  0  0  0  0  0  0  0
   -1.4534  -45.9327  -14.3771 O   0  0  0  0  0  0  0  0  0  0  0  0
   -1.6903  -44.8351  -15.2356 C   0  0  0  0  0  0  0  0  0  0  0  0
   -0.6388  -43.7672  -15.0886 C   0  0  0  0  0  0  0  0  0  0  0  0
   -0.5868  -42.9592  -16.3486 C   0  0  0  0  0  0  0  0  0  0  0  0
    0.7015  -42.3307  -16.5779 N   0  0  0  0  0  0  0  0  0  0  0  0
    0.6490  -41.8780  -17.9873 C   0  0  0  0  0  0  0  0  0  0  0  0
    1.9786  -41.4415  -18.5021 C   0  0  0  0  0  0  0  0  0  0  0  0
    3.0483  -42.2313  -18.0426 O   0  0  0  0  0  0  0  0  0  0  0  0
    2.5441  -43.4814  -17.7469 C   0  0  0  0  0  0  0  0  0  0  0  0
    1.7146  -43.3866  -16.4647 C   0  0  0  0  0  0  0  0  0  0  0  0
 37 38  1  0  0  0
 38 27  1  0  0  0
 27 28  2  0  0  0
 28 29  1  0  0  0
 29 30  2  0  0  0
 30 26  1  0  0  0
 26  1  1  0  0  0
  1  2  2  0  0  0
  2  3  1  0  0  0
  3  4  2  0  0  0
  4  8  1  0  0  0
  8  9  1  0  0  0
  9 10  2  0  0  0
  9 12  1  0  0  0
 12 13  1  0  0  0
 13 14  1  0  0  0
 12 15  1  0  0  0
 15 16  2  0  0  0
 15 17  1  0  0  0
 17 19  1  0  0  0
 19 20  2  0  0  0
 20 21  1  0  0  0
 21 22  2  0  0  0
 22 23  1  0  0  0
 22 24  1  0  0  0
 24 25  2  0  0  0
  4  5  1  0  0  0
  5  6  2  0  0  0
  6  7  1  0  0  0
 30 31  1  0  0  0
 31 32  2  0  0  0
 32 33  1  0  0  0
 33 34  2  0  0  0
 34 35  1  0  0  0
 35 36  2  0  0  0
 36 39  1  0  0  0
 39 40  1  0  0  0
 40 41  1  0  0  0
 41 42  1  0  0  0
 42 43  1  0  0  0
 43 44  1  0  0  0
 44 45  1  0  0  0
 45 46  1  0  0  0
 46 47  1  0  0  0
 47 48  1  0  0  0
 36 27  1  0  0  0
 48 43  1  0  0  0
 34 29  1  0  0  0
  6  1  1  0  0  0
 14 12  1  0  0  0
 25 19  1  0  0  0
  8 11  1  0  0  0
 17 18  1  0  0  0
M  END
> <minimizedAffinity>
-7.81854

> <CNNscore>
0.0732026771

> <CNNaffinity>
6.6164841652

> <CNN_VS>
0.4843443632

> <CNNaffinity_variance>
0.1113693938

$$$$
[H]c1nc2c([H])c(OC([H])([H])C([H])([H])C([H])([H])N3C([H])([H])C([H])([H])OC([H])([H])C3([H])[H])c(OC([H])([H])[H])c([H])c2c(Oc2c([H])c([H])c(N([H])C(=O)C3(C(=O)N([H])c4c([H])c([H])c(F)c([H])c4[H])C([H])([H])C3([H])[H])c([H])c2F)c1[H]


 48 53  0  0  0  0  0  0  0  0999 V2000
   -0.3446  -51.9336  -17.4324 C   0  0  0  0  0  0  0  0  0  0  0  0
    0.8175  -51.2088  -17.6472 C   0  0  0  0  0  0  0  0  0  0  0  0
    1.4677  -51.2211  -18.8834 C   0  0  0  0  0  0  0  0  0  0  0  0
    0.9960  -51.9453  -19.9515 C   0  0  0  0  0  0  0  0  0  0  0  0
   -0.1628  -52.6654  -19.7315 C   0  0  0  0  0  0  0  0  0  0  0  0
   -0.8222  -52.6623  -18.4974 C   0  0  0  0  0  0  0  0  0  0  0  0
   -1.9517  -53.4092  -18.3249 F   0  0  0  0  0  0  0  0  0  0  0  0
    1.6555  -51.9811  -21.2155 N   0  0  0  0  0  0  0  0  0  0  0  0
    1.7711  -50.8933  -22.1074 C   0  0  0  0  0  0  0  0  0  0  0  0
    1.2659  -49.7738  -21.8981 O   0  0  0  0  0  0  0  0  0  0  0  0
    2.0986  -52.8883  -21.5090 H   0  0  0  0  0  0  0  0  0  0  0  0
    2.5799  -51.1084  -23.3698 C   0  0  0  0  0  0  0  0  0  0  0  0
    3.9770  -51.6652  -23.1460 C   0  0  0  0  0  0  0  0  0  0  0  0
    3.7739  -50.1838  -23.4063 C   0  0  0  0  0  0  0  0  0  0  0  0
    1.8469  -51.3730  -24.6154 C   0  0  0  0  0  0  0  0  0  0  0  0
    1.8905  -50.4462  -25.5255 O   0  0  0  0  0  0  0  0  0  0  0  0
    1.0942  -52.5159  -24.9186 N   0  0  0  0  0  0  0  0  0  0  0  0
    0.9801  -53.2695  -24.1734 H   0  0  0  0  0  0  0  0  0  0  0  0
    0.4232  -52.7307  -26.1685 C   0  0  0  0  0  0  0  0  0  0  0  0
    1.0936  -53.2767  -27.2119 C   0  0  0  0  0  0  0  0  0  0  0  0
    0.4690  -53.4396  -28.4309 C   0  0  0  0  0  0  0  0  0  0  0  0
   -0.8566  -53.0352  -28.5718 C   0  0  0  0  0  0  0  0  0  0  0  0
   -1.5341  -53.1728  -29.7459 F   0  0  0  0  0  0  0  0  0  0  0  0
   -1.5567  -52.4731  -27.5075 C   0  0  0  0  0  0  0  0  0  0  0  0
   -0.8898  -52.3352  -26.3229 C   0  0  0  0  0  0  0  0  0  0  0  0
   -0.9503  -51.8877  -16.1734 O   0  0  0  0  0  0  0  0  0  0  0  0
   -0.3096  -47.9709  -15.1647 C   0  0  0  0  0  0  0  0  0  0  0  0
   -0.5475  -49.2865  -15.4995 C   0  0  0  0  0  0  0  0  0  0  0  0
   -1.8554  -49.7915  -15.5010 C   0  0  0  0  0  0  0  0  0  0  0  0
   -2.0623  -51.1330  -15.8492 C   0  0  0  0  0  0  0  0  0  0  0  0
   -3.3353  -51.6285  -15.8549 C   0  0  0  0  0  0  0  0  0  0  0  0
   -4.3857  -50.7777  -15.5103 C   0  0  0  0  0  0  0  0  0  0  0  0
   -4.1549  -49.4923  -15.1806 N   0  0  0  0  0  0  0  0  0  0  0  0
   -2.9214  -48.9890  -15.1707 C   0  0  0  0  0  0  0  0  0  0  0  0
   -2.6973  -47.6743  -14.8337 C   0  0  0  0  0  0  0  0  0  0  0  0
   -1.4236  -47.1851  -14.8324 C   0  0  0  0  0  0  0  0  0  0  0  0
    2.0288  -47.9801  -14.4742 C   0  0  0  0  0  0  0  0  0  0  0  0
    0.9462  -47.4241  -15.1496 O   0  0  0  0  0  0  0  0  0  0  0  0
   -1.2399  -45.8782  -14.4867 O   0  0  0  0  0  0  0  0  0  0  0  0
   -2.1330  -45.1462  -13.6717 C   0  0  0  0  0  0  0  0  0  0  0  0
   -2.2573  -43.7132  -14.1174 C   0  0  0  0  0  0  0  0  0  0  0  0
   -3.4074  -43.0783  -13.3981 C   0  0  0  0  0  0  0  0  0  0  0  0
   -3.9729  -41.9428  -14.1039 N   0  0  0  0  0  0  0  0  0  0  0  0
   -5.2995  -41.7382  -13.4773 C   0  0  0  0  0  0  0  0  0  0  0  0
   -6.1552  -40.7835  -14.2386 C   0  0  0  0  0  0  0  0  0  0  0  0
   -6.0336  -40.9071  -15.6347 O   0  0  0  0  0  0  0  0  0  0  0  0
   -5.6397  -42.2020  -15.9041 C   0  0  0  0  0  0  0  0  0  0  0  0
   -4.1744  -42.3655  -15.4948 C   0  0  0  0  0  0  0  0  0  0  0  0
 37 38  1  0  0  0
 38 27  1  0  0  0
 27 28  2  0  0  0
 28 29  1  0  0  0
 29 30  2  0  0  0
 30 26  1  0  0  0
 26  1  1  0  0  0
  1  2  2  0  0  0
  2  3  1  0  0  0
  3  4  2  0  0  0
  4  8  1  0  0  0
  8  9  1  0  0  0
  9 10  2  0  0  0
  9 12  1  0  0  0
 12 13  1  0  0  0
 13 14  1  0  0  0
 12 15  1  0  0  0
 15 16  2  0  0  0
 15 17  1  0  0  0
 17 19  1  0  0  0
 19 20  2  0  0  0
 20 21  1  0  0  0
 21 22  2  0  0  0
 22 23  1  0  0  0
 22 24  1  0  0  0
 24 25  2  0  0  0
  4  5  1  0  0  0
  5  6  2  0  0  0
  6  7  1  0  0  0
 30 31  1  0  0  0
 31 32  2  0  0  0
 32 33  1  0  0  0
 33 34  2  0  0  0
 34 35  1  0  0  0
 35 36  2  0  0  0
 36 39  1  0  0  0
 39 40  1  0  0  0
 40 41  1  0  0  0
 41 42  1  0  0  0
 42 43  1  0  0  0
 43 44  1  0  0  0
 44 45  1  0  0  0
 45 46  1  0  0  0
 46 47  1  0  0  0
 47 48  1  0  0  0
 36 27  1  0  0  0
 48 43  1  0  0  0
 34 29  1  0  0  0
  6  1  1  0  0  0
 14 12  1  0  0  0
 25 19  1  0  0  0
  8 11  1  0  0  0
 17 18  1  0  0  0
M  END
> <minimizedAffinity>
-7.77219

> <CNNscore>
0.0700457245

> <CNNaffinity>
6.2669043541

> <CNN_VS>
0.4389698505

> <CNNaffinity_variance>
0.1943964809

$$$$
[H]O[C@]1([H])C([H])([H])C2=C([H])C([H])([H])[C@@]3([H])[C@]4([H])C([H])([H])C([H])([H])C(=O)[C@@]4(C([H])([H])[H])C([H])([H])C([H])([H])[C@]3([H])[C@@]2(C([H])([H])[H])C([H])([H])C1([H])[H]


 22 25  0  0  0  0  0  0  0  0999 V2000
   -1.0493  -51.8275  -21.8985 C   0  0  0  0  0  0  0  0  0  0  0  0
   -0.1356  -53.0254  -21.8877 C   0  0  0  0  0  0  0  0  0  0  0  0
    0.4747  -53.2964  -20.5601 C   0  0  0  0  0  0  0  0  0  0  0  0
    1.2261  -52.0506  -20.1393 C   0  0  0  0  0  0  0  0  0  0  0  0
    2.3291  -51.8017  -21.1249 C   0  0  0  0  0  0  0  0  0  0  0  0
    1.8584  -51.6456  -22.5444 C   0  0  0  0  0  0  0  0  0  0  0  0
    3.0522  -51.6546  -23.4555 C   0  0  0  0  0  0  0  0  0  0  0  0
    4.3157  -51.1958  -22.7914 C   0  0  0  0  0  0  0  0  0  0  0  0
    4.3848  -50.7044  -21.5780 C   0  0  0  0  0  0  0  0  0  0  0  0
    5.6666  -50.2755  -20.9958 C   0  0  0  0  0  0  0  0  0  0  0  0
    5.5511  -49.3227  -19.8559 C   0  0  0  0  0  0  0  0  0  0  0  0
    5.4941  -48.0117  -20.3723 O   0  0  0  0  0  0  0  0  0  0  0  0
    4.4603  -49.5817  -18.8826 C   0  0  0  0  0  0  0  0  0  0  0  0
    3.4503  -50.6001  -19.2883 C   0  0  0  0  0  0  0  0  0  0  0  0
    3.1516  -50.5818  -20.7735 C   0  0  0  0  0  0  0  0  0  0  0  0
    2.4271  -49.3181  -21.1170 C   0  0  0  0  0  0  0  0  0  0  0  0
    1.0294  -52.8523  -22.8745 C   0  0  0  0  0  0  0  0  0  0  0  0
    0.2979  -52.8107  -24.1636 C   0  0  0  0  0  0  0  0  0  0  0  0
   -0.7514  -53.9189  -23.9765 C   0  0  0  0  0  0  0  0  0  0  0  0
   -0.8078  -54.1723  -22.5238 C   0  0  0  0  0  0  0  0  0  0  0  0
   -1.2942  -55.1094  -21.9571 O   0  0  0  0  0  0  0  0  0  0  0  0
    5.7921  -48.0002  -21.3151 H   0  0  0  0  0  0  0  0  0  0  0  0
  2  1  1  0  0  0
  2  3  1  0  0  0
  3  4  1  0  0  0
  4  5  1  0  0  0
  5  6  1  0  0  0
  6  7  1  0  0  0
  7  8  1  0  0  0
  8  9  2  0  0  0
  9 10  1  0  0  0
 10 11  1  0  0  0
 11 12  1  0  0  0
 11 13  1  0  0  0
 13 14  1  0  0  0
 14 15  1  0  0  0
 15 16  1  0  0  0
  6 17  1  0  0  0
 17 18  1  0  0  0
 18 19  1  0  0  0
 19 20  1  0  0  0
 20 21  2  0  0  0
 17  2  1  0  0  0
 20  2  1  0  0  0
 15  5  1  0  0  0
 15  9  1  0  0  0
 12 22  1  0  0  0
M  END
> <minimizedAffinity>
-7.30806

> <CNNscore>
0.6439159513

> <CNNaffinity>
5.9695315361

> <CNN_VS>
3.8438766003

> <CNNaffinity_variance>
0.3642702997

$$$$
[H]O[C@]1([H])C([H])([H])C2=C([H])C([H])([H])[C@@]3([H])[C@]4([H])C([H])([H])C([H])([H])C(=O)[C@@]4(C([H])([H])[H])C([H])([H])C([H])([H])[C@]3([H])[C@@]2(C([H])([H])[H])C([H])([H])C1([H])[H]


 22 25  0  0  0  0  0  0  0  0999 V2000
    0.9899  -53.9466  -20.6133 C   0  0  0  0  0  0  0  0  0  0  0  0
   -0.2009  -53.1147  -21.0130 C   0  0  0  0  0  0  0  0  0  0  0  0
   -0.2612  -52.8223  -22.4688 C   0  0  0  0  0  0  0  0  0  0  0  0
    1.0275  -52.1231  -22.8485 C   0  0  0  0  0  0  0  0  0  0  0  0
    1.1014  -50.8211  -22.1073 C   0  0  0  0  0  0  0  0  0  0  0  0
    1.0317  -50.9628  -20.6120 C   0  0  0  0  0  0  0  0  0  0  0  0
    0.8622  -49.6006  -20.0027 C   0  0  0  0  0  0  0  0  0  0  0  0
    1.4076  -48.4924  -20.8527 C   0  0  0  0  0  0  0  0  0  0  0  0
    2.0875  -48.6669  -21.9598 C   0  0  0  0  0  0  0  0  0  0  0  0
    2.5900  -47.5243  -22.7396 C   0  0  0  0  0  0  0  0  0  0  0  0
    3.7156  -47.8408  -23.6635 C   0  0  0  0  0  0  0  0  0  0  0  0
    4.9266  -47.7220  -22.9508 O   0  0  0  0  0  0  0  0  0  0  0  0
    3.6296  -49.1288  -24.3970 C   0  0  0  0  0  0  0  0  0  0  0  0
    2.5706  -50.0726  -23.9390 C   0  0  0  0  0  0  0  0  0  0  0  0
    2.3525  -50.0387  -22.4401 C   0  0  0  0  0  0  0  0  0  0  0  0
    3.5524  -50.6105  -21.7523 C   0  0  0  0  0  0  0  0  0  0  0  0
   -0.2028  -51.7555  -20.2962 C   0  0  0  0  0  0  0  0  0  0  0  0
   -0.3613  -52.1852  -18.8859 C   0  0  0  0  0  0  0  0  0  0  0  0
   -1.4128  -53.3010  -19.0036 C   0  0  0  0  0  0  0  0  0  0  0  0
   -1.4277  -53.6850  -20.4284 C   0  0  0  0  0  0  0  0  0  0  0  0
   -2.2555  -54.3269  -21.0104 O   0  0  0  0  0  0  0  0  0  0  0  0
    4.7824  -47.2252  -22.1080 H   0  0  0  0  0  0  0  0  0  0  0  0
  2  1  1  0  0  0
  2  3  1  0  0  0
  3  4  1  0  0  0
  4  5  1  0  0  0
  5  6  1  0  0  0
  6  7  1  0  0  0
  7  8  1  0  0  0
  8  9  2  0  0  0
  9 10  1  0  0  0
 10 11  1  0  0  0
 11 12  1  0  0  0
 11 13  1  0  0  0
 13 14  1  0  0  0
 14 15  1  0  0  0
 15 16  1  0  0  0
  6 17  1  0  0  0
 17 18  1  0  0  0
 18 19  1  0  0  0
 19 20  1  0  0  0
 20 21  2  0  0  0
 17  2  1  0  0  0
 20  2  1  0  0  0
 15  5  1  0  0  0
 15  9  1  0  0  0
 12 22  1  0  0  0
M  END
> <minimizedAffinity>
-7.35842

> <CNNscore>
0.6303151846

> <CNNaffinity>
5.7601056099

> <CNN_VS>
3.6306819916

> <CNNaffinity_variance>
0.3374636471

$$$$
[H]O[C@]1([H])C([H])([H])C2=C([H])C([H])([H])[C@@]3([H])[C@]4([H])C([H])([H])C([H])([H])C(=O)[C@@]4(C([H])([H])[H])C([H])([H])C([H])([H])[C@]3([H])[C@@]2(C([H])([H])[H])C([H])([H])C1([H])[H]


 22 25  0  0  0  0  0  0  0  0999 V2000
    0.1380  -50.7182  -21.3734 C   0  0  0  0  0  0  0  0  0  0  0  0
    1.0015  -51.9471  -21.2551 C   0  0  0  0  0  0  0  0  0  0  0  0
    2.2094  -51.9114  -22.1200 C   0  0  0  0  0  0  0  0  0  0  0  0
    1.7433  -51.7246  -23.5489 C   0  0  0  0  0  0  0  0  0  0  0  0
    0.9157  -52.9126  -23.9411 C   0  0  0  0  0  0  0  0  0  0  0  0
   -0.2751  -53.1491  -23.0540 C   0  0  0  0  0  0  0  0  0  0  0  0
   -0.8700  -54.4874  -23.3866 C   0  0  0  0  0  0  0  0  0  0  0  0
   -0.5987  -54.9303  -24.7931 C   0  0  0  0  0  0  0  0  0  0  0  0
   -0.0176  -54.1933  -25.7084 C   0  0  0  0  0  0  0  0  0  0  0  0
    0.2137  -54.7021  -27.0698 C   0  0  0  0  0  0  0  0  0  0  0  0
    0.4214  -53.6514  -28.1060 C   0  0  0  0  0  0  0  0  0  0  0  0
   -0.8380  -53.2595  -28.6049 O   0  0  0  0  0  0  0  0  0  0  0  0
    1.2473  -52.4829  -27.7098 C   0  0  0  0  0  0  0  0  0  0  0  0
    1.5568  -52.3638  -26.2566 C   0  0  0  0  0  0  0  0  0  0  0  0
    0.4197  -52.8240  -25.3674 C   0  0  0  0  0  0  0  0  0  0  0  0
   -0.7228  -51.8650  -25.4889 C   0  0  0  0  0  0  0  0  0  0  0  0
    0.2274  -53.2169  -21.6415 C   0  0  0  0  0  0  0  0  0  0  0  0
   -0.8072  -53.2457  -20.5797 C   0  0  0  0  0  0  0  0  0  0  0  0
    0.0007  -52.8595  -19.3298 C   0  0  0  0  0  0  0  0  0  0  0  0
    1.2467  -52.2505  -19.8339 C   0  0  0  0  0  0  0  0  0  0  0  0
    2.2599  -52.0373  -19.2305 O   0  0  0  0  0  0  0  0  0  0  0  0
   -1.5281  -53.9224  -28.3556 H   0  0  0  0  0  0  0  0  0  0  0  0
  2  1  1  0  0  0
  2  3  1  0  0  0
  3  4  1  0  0  0
  4  5  1  0  0  0
  5  6  1  0  0  0
  6  7  1  0  0  0
  7  8  1  0  0  0
  8  9  2  0  0  0
  9 10  1  0  0  0
 10 11  1  0  0  0
 11 12  1  0  0  0
 11 13  1  0  0  0
 13 14  1  0  0  0
 14 15  1  0  0  0
 15 16  1  0  0  0
  6 17  1  0  0  0
 17 18  1  0  0  0
 18 19  1  0  0  0
 19 20  1  0  0  0
 20 21  2  0  0  0
 17  2  1  0  0  0
 20  2  1  0  0  0
 15  5  1  0  0  0
 15  9  1  0  0  0
 12 22  1  0  0  0
M  END
> <minimizedAffinity>
-9.36324

> <CNNscore>
0.6268042326

> <CNNaffinity>
6.4520139694

> <CNN_VS>
4.0441498756

> <CNNaffinity_variance>
0.0437265635

$$$$
[H]O[C@]1([H])C([H])([H])C2=C([H])C([H])([H])[C@@]3([H])[C@]4([H])C([H])([H])C([H])([H])C(=O)[C@@]4(C([H])([H])[H])C([H])([H])C([H])([H])[C@]3([H])[C@@]2(C([H])([H])[H])C([H])([H])C1([H])[H]


 22 25  0  0  0  0  0  0  0  0999 V2000
    2.6662  -52.0471  -22.7757 C   0  0  0  0  0  0  0  0  0  0  0  0
    1.2433  -51.5519  -22.7705 C   0  0  0  0  0  0  0  0  0  0  0  0
    1.1119  -50.1229  -22.3842 C   0  0  0  0  0  0  0  0  0  0  0  0
    1.7366  -49.9602  -21.0143 C   0  0  0  0  0  0  0  0  0  0  0  0
    0.9608  -50.7884  -20.0334 C   0  0  0  0  0  0  0  0  0  0  0  0
    0.8954  -52.2495  -20.3824 C   0  0  0  0  0  0  0  0  0  0  0  0
   -0.1017  -52.9198  -19.4812 C   0  0  0  0  0  0  0  0  0  0  0  0
   -0.2843  -52.2222  -18.1666 C   0  0  0  0  0  0  0  0  0  0  0  0
    0.4318  -51.2035  -17.7568 C   0  0  0  0  0  0  0  0  0  0  0  0
    0.1899  -50.5721  -16.4497 C   0  0  0  0  0  0  0  0  0  0  0  0
    1.3341  -49.7832  -15.9119 C   0  0  0  0  0  0  0  0  0  0  0  0
    2.1782  -50.6531  -15.1912 O   0  0  0  0  0  0  0  0  0  0  0  0
    2.0914  -48.9618  -16.8897 C   0  0  0  0  0  0  0  0  0  0  0  0
    1.7920  -49.2158  -18.3276 C   0  0  0  0  0  0  0  0  0  0  0  0
    1.5023  -50.6728  -18.6258 C   0  0  0  0  0  0  0  0  0  0  0  0
    2.7568  -51.4713  -18.4568 C   0  0  0  0  0  0  0  0  0  0  0  0
    0.3743  -52.3500  -21.7862 C   0  0  0  0  0  0  0  0  0  0  0  0
    0.4180  -53.6965  -22.4054 C   0  0  0  0  0  0  0  0  0  0  0  0
    0.2653  -53.3706  -23.9003 C   0  0  0  0  0  0  0  0  0  0  0  0
    0.5767  -51.9339  -24.0281 C   0  0  0  0  0  0  0  0  0  0  0  0
    0.3448  -51.2086  -24.9534 O   0  0  0  0  0  0  0  0  0  0  0  0
    1.7094  -51.5008  -14.9924 H   0  0  0  0  0  0  0  0  0  0  0  0
  2  1  1  0  0  0
  2  3  1  0  0  0
  3  4  1  0  0  0
  4  5  1  0  0  0
  5  6  1  0  0  0
  6  7  1  0  0  0
  7  8  1  0  0  0
  8  9  2  0  0  0
  9 10  1  0  0  0
 10 11  1  0  0  0
 11 12  1  0  0  0
 11 13  1  0  0  0
 13 14  1  0  0  0
 14 15  1  0  0  0
 15 16  1  0  0  0
  6 17  1  0  0  0
 17 18  1  0  0  0
 18 19  1  0  0  0
 19 20  1  0  0  0
 20 21  2  0  0  0
 17  2  1  0  0  0
 20  2  1  0  0  0
 15  5  1  0  0  0
 15  9  1  0  0  0
 12 22  1  0  0  0
M  END
> <minimizedAffinity>
-6.60623

> <CNNscore>
0.3604893386

> <CNNaffinity>
5.6086854935

> <CNN_VS>
2.0218713284

> <CNNaffinity_variance>
0.1786452532

$$$$
[H]O[C@]1([H])C([H])([H])C2=C([H])C([H])([H])[C@@]3([H])[C@]4([H])C([H])([H])C([H])([H])C(=O)[C@@]4(C([H])([H])[H])C([H])([H])C([H])([H])[C@]3([H])[C@@]2(C([H])([H])[H])C([H])([H])C1([H])[H]


 22 25  0  0  0  0  0  0  0  0999 V2000
    2.6783  -53.1663  -25.4902 C   0  0  0  0  0  0  0  0  0  0  0  0
    1.4620  -52.3079  -25.7218 C   0  0  0  0  0  0  0  0  0  0  0  0
    1.7639  -50.8546  -25.7931 C   0  0  0  0  0  0  0  0  0  0  0  0
    2.4504  -50.4662  -24.5002 C   0  0  0  0  0  0  0  0  0  0  0  0
    1.4974  -50.6961  -23.3649 C   0  0  0  0  0  0  0  0  0  0  0  0
    0.9991  -52.1109  -23.2606 C   0  0  0  0  0  0  0  0  0  0  0  0
   -0.1220  -52.1584  -22.2624 C   0  0  0  0  0  0  0  0  0  0  0  0
   -0.0535  -51.0704  -21.2329 C   0  0  0  0  0  0  0  0  0  0  0  0
    0.9402  -50.2249  -21.1061 C   0  0  0  0  0  0  0  0  0  0  0  0
    0.9324  -49.1822  -20.0674 C   0  0  0  0  0  0  0  0  0  0  0  0
    2.2725  -48.6287  -19.7232 C   0  0  0  0  0  0  0  0  0  0  0  0
    2.8484  -49.4394  -18.7235 O   0  0  0  0  0  0  0  0  0  0  0  0
    3.2059  -48.3988  -20.8547 C   0  0  0  0  0  0  0  0  0  0  0  0
    2.8018  -48.9839  -22.1648 C   0  0  0  0  0  0  0  0  0  0  0  0
    2.0918  -50.3152  -22.0271 C   0  0  0  0  0  0  0  0  0  0  0  0
    3.0641  -51.3473  -21.5486 C   0  0  0  0  0  0  0  0  0  0  0  0
    0.4288  -52.4827  -24.5980 C   0  0  0  0  0  0  0  0  0  0  0  0
    0.0598  -53.9074  -24.7787 C   0  0  0  0  0  0  0  0  0  0  0  0
   -0.0369  -54.0253  -26.3088 C   0  0  0  0  0  0  0  0  0  0  0  0
    0.6751  -52.8490  -26.8443 C   0  0  0  0  0  0  0  0  0  0  0  0
    0.6362  -52.4072  -27.9576 O   0  0  0  0  0  0  0  0  0  0  0  0
    2.1595  -50.0142  -18.3076 H   0  0  0  0  0  0  0  0  0  0  0  0
  2  1  1  0  0  0
  2  3  1  0  0  0
  3  4  1  0  0  0
  4  5  1  0  0  0
  5  6  1  0  0  0
  6  7  1  0  0  0
  7  8  1  0  0  0
  8  9  2  0  0  0
  9 10  1  0  0  0
 10 11  1  0  0  0
 11 12  1  0  0  0
 11 13  1  0  0  0
 13 14  1  0  0  0
 14 15  1  0  0  0
 15 16  1  0  0  0
  6 17  1  0  0  0
 17 18  1  0  0  0
 18 19  1  0  0  0
 19 20  1  0  0  0
 20 21  2  0  0  0
 17  2  1  0  0  0
 20  2  1  0  0  0
 15  5  1  0  0  0
 15  9  1  0  0  0
 12 22  1  0  0  0
M  END
> <minimizedAffinity>
-7.78188

> <CNNscore>
0.3598507643

> <CNNaffinity>
5.7639861107

> <CNN_VS>
2.0741748810

> <CNNaffinity_variance>
0.3705892265

$$$$
[H]O[C@]1([H])C([H])([H])C2=C([H])C([H])([H])[C@@]3([H])[C@]4([H])C([H])([H])C([H])([H])C(=O)[C@@]4(C([H])([H])[H])C([H])([H])C([H])([H])[C@]3([H])[C@@]2(C([H])([H])[H])C([H])([H])C1([H])[H]


 22 25  0  0  0  0  0  0  0  0999 V2000
   -0.8260  -51.5762  -21.9535 C   0  0  0  0  0  0  0  0  0  0  0  0
    0.0088  -52.7933  -21.6510 C   0  0  0  0  0  0  0  0  0  0  0  0
    1.0323  -52.5663  -20.5978 C   0  0  0  0  0  0  0  0  0  0  0  0
    1.9101  -51.4192  -21.0529 C   0  0  0  0  0  0  0  0  0  0  0  0
    2.6121  -51.8256  -22.3146 C   0  0  0  0  0  0  0  0  0  0  0  0
    1.6854  -52.2191  -23.4314 C   0  0  0  0  0  0  0  0  0  0  0  0
    2.4925  -52.8372  -24.5369 C   0  0  0  0  0  0  0  0  0  0  0  0
    3.9173  -52.3713  -24.5706 C   0  0  0  0  0  0  0  0  0  0  0  0
    4.4104  -51.4234  -23.8111 C   0  0  0  0  0  0  0  0  0  0  0  0
    5.8234  -51.0228  -23.9044 C   0  0  0  0  0  0  0  0  0  0  0  0
    6.1283  -49.6661  -23.3684 C   0  0  0  0  0  0  0  0  0  0  0  0
    5.9263  -48.7227  -24.3968 O   0  0  0  0  0  0  0  0  0  0  0  0
    5.4333  -49.2761  -22.1157 C   0  0  0  0  0  0  0  0  0  0  0  0
    4.3230  -50.1696  -21.6788 C   0  0  0  0  0  0  0  0  0  0  0  0
    3.5322  -50.7442  -22.8363 C   0  0  0  0  0  0  0  0  0  0  0  0
    2.7620  -49.6473  -23.5023 C   0  0  0  0  0  0  0  0  0  0  0  0
    0.7668  -53.2784  -22.8965 C   0  0  0  0  0  0  0  0  0  0  0  0
   -0.3623  -53.6695  -23.7743 C   0  0  0  0  0  0  0  0  0  0  0  0
   -1.3076  -54.3778  -22.7900 C   0  0  0  0  0  0  0  0  0  0  0  0
   -0.8665  -53.9609  -21.4449 C   0  0  0  0  0  0  0  0  0  0  0  0
   -1.1490  -54.4548  -20.3902 O   0  0  0  0  0  0  0  0  0  0  0  0
    5.8820  -49.1753  -25.2749 H   0  0  0  0  0  0  0  0  0  0  0  0
  2  1  1  0  0  0
  2  3  1  0  0  0
  3  4  1  0  0  0
  4  5  1  0  0  0
  5  6  1  0  0  0
  6  7  1  0  0  0
  7  8  1  0  0  0
  8  9  2  0  0  0
  9 10  1  0  0  0
 10 11  1  0  0  0
 11 12  1  0  0  0
 11 13  1  0  0  0
 13 14  1  0  0  0
 14 15  1  0  0  0
 15 16  1  0  0  0
  6 17  1  0  0  0
 17 18  1  0  0  0
 18 19  1  0  0  0
 19 20  1  0  0  0
 20 21  2  0  0  0
 17  2  1  0  0  0
 20  2  1  0  0  0
 15  5  1  0  0  0
 15  9  1  0  0  0
 12 22  1  0  0  0
M  END
> <minimizedAffinity>
-7.12829

> <CNNscore>
0.3587253690

> <CNNaffinity>
5.7288618088

> <CNN_VS>
2.0550880432

> <CNNaffinity_variance>
0.3643933237

$$$$
[H]O[C@]1([H])C([H])([H])C2=C([H])C([H])([H])[C@@]3([H])[C@]4([H])C([H])([H])C([H])([H])C(=O)[C@@]4(C([H])([H])[H])C([H])([H])C([H])([H])[C@]3([H])[C@@]2(C([H])([H])[H])C([H])([H])C1([H])[H]


 22 25  0  0  0  0  0  0  0  0999 V2000
    1.5503  -53.3390  -23.9091 C   0  0  0  0  0  0  0  0  0  0  0  0
    0.1324  -52.8656  -23.7216 C   0  0  0  0  0  0  0  0  0  0  0  0
    0.0040  -51.3871  -23.6430 C   0  0  0  0  0  0  0  0  0  0  0  0
    0.8785  -50.9122  -22.5014 C   0  0  0  0  0  0  0  0  0  0  0  0
    0.3581  -51.5006  -21.2236 C   0  0  0  0  0  0  0  0  0  0  0  0
    0.3031  -53.0032  -21.2191 C   0  0  0  0  0  0  0  0  0  0  0  0
   -0.4581  -53.4575  -20.0067 C   0  0  0  0  0  0  0  0  0  0  0  0
   -0.4133  -52.4801  -18.8706 C   0  0  0  0  0  0  0  0  0  0  0  0
    0.3144  -51.3898  -18.8528 C   0  0  0  0  0  0  0  0  0  0  0  0
    0.3032  -50.4789  -17.6969 C   0  0  0  0  0  0  0  0  0  0  0  0
    1.4875  -49.5802  -17.5940 C   0  0  0  0  0  0  0  0  0  0  0  0
    2.5031  -50.2571  -16.8877 O   0  0  0  0  0  0  0  0  0  0  0  0
    1.9908  -48.9979  -18.8637 C   0  0  0  0  0  0  0  0  0  0  0  0
    1.4259  -49.5749  -20.1167 C   0  0  0  0  0  0  0  0  0  0  0  0
    1.1613  -51.0635  -20.0186 C   0  0  0  0  0  0  0  0  0  0  0  0
    2.4651  -51.7937  -19.9382 C   0  0  0  0  0  0  0  0  0  0  0  0
   -0.4801  -53.4245  -22.4280 C   0  0  0  0  0  0  0  0  0  0  0  0
   -0.4882  -54.8764  -22.7289 C   0  0  0  0  0  0  0  0  0  0  0  0
   -0.9517  -54.9007  -24.1948 C   0  0  0  0  0  0  0  0  0  0  0  0
   -0.7491  -53.5287  -24.6989 C   0  0  0  0  0  0  0  0  0  0  0  0
   -1.1984  -53.0349  -25.6941 O   0  0  0  0  0  0  0  0  0  0  0  0
    2.1291  -51.0405  -16.4140 H   0  0  0  0  0  0  0  0  0  0  0  0
  2  1  1  0  0  0
  2  3  1  0  0  0
  3  4  1  0  0  0
  4  5  1  0  0  0
  5  6  1  0  0  0
  6  7  1  0  0  0
  7  8  1  0  0  0
  8  9  2  0  0  0
  9 10  1  0  0  0
 10 11  1  0  0  0
 11 12  1  0  0  0
 11 13  1  0  0  0
 13 14  1  0  0  0
 14 15  1  0  0  0
 15 16  1  0  0  0
  6 17  1  0  0  0
 17 18  1  0  0  0
 18 19  1  0  0  0
 19 20  1  0  0  0
 20 21  2  0  0  0
 17  2  1  0  0  0
 20  2  1  0  0  0
 15  5  1  0  0  0
 15  9  1  0  0  0
 12 22  1  0  0  0
M  END
> <minimizedAffinity>
-7.58647

> <CNNscore>
0.3552271724

> <CNNaffinity>
5.7634239197

> <CNN_VS>
2.0473248959

> <CNNaffinity_variance>
0.2008638084

$$$$
[H]O[C@]1([H])C([H])([H])C2=C([H])C([H])([H])[C@@]3([H])[C@]4([H])C([H])([H])C([H])([H])C(=O)[C@@]4(C([H])([H])[H])C([H])([H])C([H])([H])[C@]3([H])[C@@]2(C([H])([H])[H])C([H])([H])C1([H])[H]


 22 25  0  0  0  0  0  0  0  0999 V2000
    2.6304  -53.1475  -26.3857 C   0  0  0  0  0  0  0  0  0  0  0  0
    1.2621  -52.5265  -26.4949 C   0  0  0  0  0  0  0  0  0  0  0  0
    1.2678  -51.0464  -26.3621 C   0  0  0  0  0  0  0  0  0  0  0  0
    1.8996  -50.7095  -25.0275 C   0  0  0  0  0  0  0  0  0  0  0  0
    1.0432  -51.2790  -23.9356 C   0  0  0  0  0  0  0  0  0  0  0  0
    0.8384  -52.7656  -24.0304 C   0  0  0  0  0  0  0  0  0  0  0  0
   -0.2226  -53.1729  -23.0486 C   0  0  0  0  0  0  0  0  0  0  0  0
   -0.3424  -52.2449  -21.8770 C   0  0  0  0  0  0  0  0  0  0  0  0
    0.4672  -51.2431  -21.6331 C   0  0  0  0  0  0  0  0  0  0  0  0
    0.2820  -50.3757  -20.4587 C   0  0  0  0  0  0  0  0  0  0  0  0
    1.4949  -49.6176  -20.0404 C   0  0  0  0  0  0  0  0  0  0  0  0
    2.2479  -50.4259  -19.1640 O   0  0  0  0  0  0  0  0  0  0  0  0
    2.3322  -49.0525  -21.1285 C   0  0  0  0  0  0  0  0  0  0  0  0
    2.0155  -49.5214  -22.5076 C   0  0  0  0  0  0  0  0  0  0  0  0
    1.5876  -50.9739  -22.5577 C   0  0  0  0  0  0  0  0  0  0  0  0
    2.7582  -51.8462  -22.2283 C   0  0  0  0  0  0  0  0  0  0  0  0
    0.3159  -53.0570  -25.4067 C   0  0  0  0  0  0  0  0  0  0  0  0
    0.2317  -54.4882  -25.7850 C   0  0  0  0  0  0  0  0  0  0  0  0
    0.1174  -54.4121  -27.3165 C   0  0  0  0  0  0  0  0  0  0  0  0
    0.5669  -53.0550  -27.6821 C   0  0  0  0  0  0  0  0  0  0  0  0
    0.4100  -52.4815  -28.7226 O   0  0  0  0  0  0  0  0  0  0  0  0
    1.6985  -51.1785  -18.8327 H   0  0  0  0  0  0  0  0  0  0  0  0
  2  1  1  0  0  0
  2  3  1  0  0  0
  3  4  1  0  0  0
  4  5  1  0  0  0
  5  6  1  0  0  0
  6  7  1  0  0  0
  7  8  1  0  0  0
  8  9  2  0  0  0
  9 10  1  0  0  0
 10 11  1  0  0  0
 11 12  1  0  0  0
 11 13  1  0  0  0
 13 14  1  0  0  0
 14 15  1  0  0  0
 15 16  1  0  0  0
  6 17  1  0  0  0
 17 18  1  0  0  0
 18 19  1  0  0  0
 19 20  1  0  0  0
 20 21  2  0  0  0
 17  2  1  0  0  0
 20  2  1  0  0  0
 15  5  1  0  0  0
 15  9  1  0  0  0
 12 22  1  0  0  0
M  END
> <minimizedAffinity>
-8.24626

> <CNNscore>
0.3325187564

> <CNNaffinity>
5.9575405121

> <CNN_VS>
1.9809939861

> <CNNaffinity_variance>
0.3028851449

$$$$
[H]O[C@]1([H])C([H])([H])C2=C([H])C([H])([H])[C@@]3([H])[C@]4([H])C([H])([H])C([H])([H])C(=O)[C@@]4(C([H])([H])[H])C([H])([H])C([H])([H])[C@]3([H])[C@@]2(C([H])([H])[H])C([H])([H])C1([H])[H]


 22 25  0  0  0  0  0  0  0  0999 V2000
    1.9771  -49.3922  -22.4724 C   0  0  0  0  0  0  0  0  0  0  0  0
    2.3980  -50.7422  -21.9528 C   0  0  0  0  0  0  0  0  0  0  0  0
    3.4320  -51.4058  -22.7886 C   0  0  0  0  0  0  0  0  0  0  0  0
    2.8773  -51.5258  -24.1927 C   0  0  0  0  0  0  0  0  0  0  0  0
    1.6639  -52.4067  -24.1538 C   0  0  0  0  0  0  0  0  0  0  0  0
    0.5827  -51.9195  -23.2294 C   0  0  0  0  0  0  0  0  0  0  0  0
   -0.4546  -52.9960  -23.0855 C   0  0  0  0  0  0  0  0  0  0  0  0
   -0.5223  -53.9233  -24.2618 C   0  0  0  0  0  0  0  0  0  0  0  0
    0.1483  -53.7640  -25.3769 C   0  0  0  0  0  0  0  0  0  0  0  0
    0.0272  -54.7211  -26.4882 C   0  0  0  0  0  0  0  0  0  0  0  0
    0.4357  -54.1920  -27.8201 C   0  0  0  0  0  0  0  0  0  0  0  0
   -0.6779  -53.5610  -28.4119 O   0  0  0  0  0  0  0  0  0  0  0  0
    1.6417  -53.3264  -27.8487 C   0  0  0  0  0  0  0  0  0  0  0  0
    2.1531  -52.8738  -26.5237 C   0  0  0  0  0  0  0  0  0  0  0  0
    1.0492  -52.6021  -25.5221 C   0  0  0  0  0  0  0  0  0  0  0  0
    0.2783  -51.3933  -25.9513 C   0  0  0  0  0  0  0  0  0  0  0  0
    1.2085  -51.7124  -21.8812 C   0  0  0  0  0  0  0  0  0  0  0  0
    0.3636  -51.0418  -20.8638 C   0  0  0  0  0  0  0  0  0  0  0  0
    1.4038  -50.5922  -19.8244 C   0  0  0  0  0  0  0  0  0  0  0  0
    2.7067  -50.6500  -20.5147 C   0  0  0  0  0  0  0  0  0  0  0  0
    3.8011  -50.6281  -20.0271 O   0  0  0  0  0  0  0  0  0  0  0  0
   -1.5100  -53.8256  -27.9477 H   0  0  0  0  0  0  0  0  0  0  0  0
  2  1  1  0  0  0
  2  3  1  0  0  0
  3  4  1  0  0  0
  4  5  1  0  0  0
  5  6  1  0  0  0
  6  7  1  0  0  0
  7  8  1  0  0  0
  8  9  2  0  0  0
  9 10  1  0  0  0
 10 11  1  0  0  0
 11 12  1  0  0  0
 11 13  1  0  0  0
 13 14  1  0  0  0
 14 15  1  0  0  0
 15 16  1  0  0  0
  6 17  1  0  0  0
 17 18  1  0  0  0
 18 19  1  0  0  0
 19 20  1  0  0  0
 20 21  2  0  0  0
 17  2  1  0  0  0
 20  2  1  0  0  0
 15  5  1  0  0  0
 15  9  1  0  0  0
 12 22  1  0  0  0
M  END
> <minimizedAffinity>
-8.52738

> <CNNscore>
0.3140267134

> <CNNaffinity>
6.0480246544

> <CNN_VS>
1.8992413282

> <CNNaffinity_variance>
0.0876733437

$$$$
[H]c1c([H])c(Cl)c(N([H])c2nc3c([H])c([H])c4c(C([H])([H])[H])c(C([H])([H])[H])n([H])c(=O)c4c3n2C([H])([H])[H])c(Cl)c1[H]


 28 31  0  0  0  0  0  0  0  0999 V2000
   -0.2466  -53.8515  -26.1734 C   0  0  0  0  0  0  0  0  0  0  0  0
   -0.1158  -53.3341  -24.7654 C   0  0  0  0  0  0  0  0  0  0  0  0
   -0.6934  -53.9887  -23.7772 N   0  0  0  0  0  0  0  0  0  0  0  0
   -0.6076  -53.5686  -22.4667 C   0  0  0  0  0  0  0  0  0  0  0  0
   -1.1937  -54.2599  -21.6697 O   0  0  0  0  0  0  0  0  0  0  0  0
    0.1005  -52.4441  -22.1990 C   0  0  0  0  0  0  0  0  0  0  0  0
    0.2001  -51.9575  -20.8870 C   0  0  0  0  0  0  0  0  0  0  0  0
   -0.2488  -52.4017  -19.6904 N   0  0  0  0  0  0  0  0  0  0  0  0
   -0.9373  -53.6087  -19.3364 C   0  0  0  0  0  0  0  0  0  0  0  0
    0.1515  -51.5186  -18.7630 C   0  0  0  0  0  0  0  0  0  0  0  0
    0.8661  -50.5202  -19.4065 N   0  0  0  0  0  0  0  0  0  0  0  0
    0.9010  -50.7792  -20.6906 C   0  0  0  0  0  0  0  0  0  0  0  0
    1.4979  -50.0986  -21.7437 C   0  0  0  0  0  0  0  0  0  0  0  0
    1.3974  -50.5874  -22.9968 C   0  0  0  0  0  0  0  0  0  0  0  0
    0.7120  -51.7494  -23.2633 C   0  0  0  0  0  0  0  0  0  0  0  0
    0.6080  -52.1933  -24.5630 C   0  0  0  0  0  0  0  0  0  0  0  0
    1.2640  -51.4416  -25.6596 C   0  0  0  0  0  0  0  0  0  0  0  0
   -1.2424  -54.8539  -23.9357 H   0  0  0  0  0  0  0  0  0  0  0  0
   -0.0441  -51.4059  -17.3693 N   0  0  0  0  0  0  0  0  0  0  0  0
    0.4792  -52.2004  -16.7739 H   0  0  0  0  0  0  0  0  0  0  0  0
   -0.7270  -50.5549  -16.5269 C   0  0  0  0  0  0  0  0  0  0  0  0
   -1.9815  -50.9515  -16.0532 C   0  0  0  0  0  0  0  0  0  0  0  0
   -2.6437  -52.5008  -16.5889 Cl  0  0  0  0  0  0  0  0  0  0  0  0
   -2.7141  -50.1791  -15.1878 C   0  0  0  0  0  0  0  0  0  0  0  0
   -2.1791  -48.9686  -14.7792 C   0  0  0  0  0  0  0  0  0  0  0  0
   -0.9337  -48.5694  -15.2463 C   0  0  0  0  0  0  0  0  0  0  0  0
   -0.2098  -49.3275  -16.0984 C   0  0  0  0  0  0  0  0  0  0  0  0
    1.3692  -48.8729  -16.7209 Cl  0  0  0  0  0  0  0  0  0  0  0  0
  1  2  1  0  0  0
  2  3  1  0  0  0
  3  4  1  0  0  0
  4  5  2  0  0  0
  4  6  1  0  0  0
  6  7  2  0  0  0
  7  8  1  0  0  0
  8  9  1  0  0  0
  8 10  1  0  0  0
 10 19  1  0  0  0
 19 21  1  0  0  0
 21 22  2  0  0  0
 22 23  1  0  0  0
 22 24  1  0  0  0
 24 25  2  0  0  0
 25 26  1  0  0  0
 26 27  2  0  0  0
 27 28  1  0  0  0
 10 11  2  0  0  0
 11 12  1  0  0  0
 12 13  2  0  0  0
 13 14  1  0  0  0
 14 15  2  0  0  0
 15 16  1  0  0  0
 16 17  1  0  0  0
 16  2  2  0  0  0
 15  6  1  0  0  0
 12  7  1  0  0  0
 27 21  1  0  0  0
  3 18  1  0  0  0
 19 20  1  0  0  0
M  END
> <minimizedAffinity>
-7.98953

> <CNNscore>
0.7104347348

> <CNNaffinity>
7.0338349342

> <CNN_VS>
4.9970808029

> <CNNaffinity_variance>
0.2753013968

$$$$
[H]c1c([H])c(Cl)c(N([H])c2nc3c([H])c([H])c4c(C([H])([H])[H])c(C([H])([H])[H])n([H])c(=O)c4c3n2C([H])([H])[H])c(Cl)c1[H]


 28 31  0  0  0  0  0  0  0  0999 V2000
   -0.2921  -53.6966  -26.9050 C   0  0  0  0  0  0  0  0  0  0  0  0
   -0.1181  -53.3060  -25.4612 C   0  0  0  0  0  0  0  0  0  0  0  0
   -0.7220  -54.0072  -24.5219 N   0  0  0  0  0  0  0  0  0  0  0  0
   -0.5994  -53.7030  -23.1827 C   0  0  0  0  0  0  0  0  0  0  0  0
   -1.2158  -54.4243  -22.4369 O   0  0  0  0  0  0  0  0  0  0  0  0
    0.1740  -52.6459  -22.8336 C   0  0  0  0  0  0  0  0  0  0  0  0
    0.3142  -52.2762  -21.4877 C   0  0  0  0  0  0  0  0  0  0  0  0
   -0.1473  -52.7926  -20.3252 N   0  0  0  0  0  0  0  0  0  0  0  0
   -0.8995  -53.9846  -20.0618 C   0  0  0  0  0  0  0  0  0  0  0  0
    0.3118  -52.0133  -19.3342 C   0  0  0  0  0  0  0  0  0  0  0  0
    1.0753  -51.0063  -19.9037 N   0  0  0  0  0  0  0  0  0  0  0  0
    1.0827  -51.1592  -21.2052 C   0  0  0  0  0  0  0  0  0  0  0  0
    1.7067  -50.4278  -22.2072 C   0  0  0  0  0  0  0  0  0  0  0  0
    1.5662  -50.8044  -23.4947 C   0  0  0  0  0  0  0  0  0  0  0  0
    0.8132  -51.9003  -23.8459 C   0  0  0  0  0  0  0  0  0  0  0  0
    0.6712  -52.2281  -25.1761 C   0  0  0  0  0  0  0  0  0  0  0  0
    1.3579  -51.4257  -26.2166 C   0  0  0  0  0  0  0  0  0  0  0  0
   -1.3208  -54.8244  -24.7431 H   0  0  0  0  0  0  0  0  0  0  0  0
    0.1368  -52.0060  -17.9333 N   0  0  0  0  0  0  0  0  0  0  0  0
    0.7625  -52.7671  -17.3958 H   0  0  0  0  0  0  0  0  0  0  0  0
   -0.6206  -51.2917  -17.0296 C   0  0  0  0  0  0  0  0  0  0  0  0
   -0.1148  -50.0808  -16.5466 C   0  0  0  0  0  0  0  0  0  0  0  0
    1.4826  -49.5489  -17.0864 Cl  0  0  0  0  0  0  0  0  0  0  0  0
   -0.8162  -49.2933  -15.6692 C   0  0  0  0  0  0  0  0  0  0  0  0
   -2.0658  -49.7264  -15.2575 C   0  0  0  0  0  0  0  0  0  0  0  0
   -2.5733  -50.9282  -15.7338 C   0  0  0  0  0  0  0  0  0  0  0  0
   -1.8853  -51.7059  -16.5978 C   0  0  0  0  0  0  0  0  0  0  0  0
   -2.4776  -53.2337  -17.2323 Cl  0  0  0  0  0  0  0  0  0  0  0  0
  1  2  1  0  0  0
  2  3  1  0  0  0
  3  4  1  0  0  0
  4  5  2  0  0  0
  4  6  1  0  0  0
  6  7  2  0  0  0
  7  8  1  0  0  0
  8  9  1  0  0  0
  8 10  1  0  0  0
 10 19  1  0  0  0
 19 21  1  0  0  0
 21 22  2  0  0  0
 22 23  1  0  0  0
 22 24  1  0  0  0
 24 25  2  0  0  0
 25 26  1  0  0  0
 26 27  2  0  0  0
 27 28  1  0  0  0
 10 11  2  0  0  0
 11 12  1  0  0  0
 12 13  2  0  0  0
 13 14  1  0  0  0
 14 15  2  0  0  0
 15 16  1  0  0  0
 16 17  1  0  0  0
 16  2  2  0  0  0
 15  6  1  0  0  0
 12  7  1  0  0  0
 27 21  1  0  0  0
  3 18  1  0  0  0
 19 20  1  0  0  0
M  END
> <minimizedAffinity>
-8.07300

> <CNNscore>
0.6196535230

> <CNNaffinity>
7.0270590782

> <CNN_VS>
4.3543419838

> <CNNaffinity_variance>
0.1896398216

$$$$
[H]c1c([H])c(Cl)c(N([H])c2nc3c([H])c([H])c4c(C([H])([H])[H])c(C([H])([H])[H])n([H])c(=O)c4c3n2C([H])([H])[H])c(Cl)c1[H]


 28 31  0  0  0  0  0  0  0  0999 V2000
   -0.2810  -54.2134  -25.2299 C   0  0  0  0  0  0  0  0  0  0  0  0
   -0.1588  -53.5454  -23.8859 C   0  0  0  0  0  0  0  0  0  0  0  0
   -0.7181  -54.1038  -22.8304 N   0  0  0  0  0  0  0  0  0  0  0  0
   -0.6388  -53.5441  -21.5728 C   0  0  0  0  0  0  0  0  0  0  0  0
   -1.2063  -54.1597  -20.7035 O   0  0  0  0  0  0  0  0  0  0  0  0
    0.0431  -52.3812  -21.4304 C   0  0  0  0  0  0  0  0  0  0  0  0
    0.1345  -51.7548  -20.1786 C   0  0  0  0  0  0  0  0  0  0  0  0
   -0.3006  -52.0788  -18.9390 N   0  0  0  0  0  0  0  0  0  0  0  0
   -0.9592  -53.2567  -18.4544 C   0  0  0  0  0  0  0  0  0  0  0  0
    0.0811  -51.0925  -18.1134 C   0  0  0  0  0  0  0  0  0  0  0  0
    0.7700  -50.1523  -18.8636 N   0  0  0  0  0  0  0  0  0  0  0  0
    0.8077  -50.5463  -20.1129 C   0  0  0  0  0  0  0  0  0  0  0  0
    1.3855  -49.9685  -21.2357 C   0  0  0  0  0  0  0  0  0  0  0  0
    1.2934  -50.5907  -22.4289 C   0  0  0  0  0  0  0  0  0  0  0  0
    0.6350  -51.7903  -22.5660 C   0  0  0  0  0  0  0  0  0  0  0  0
    0.5382  -52.3729  -23.8103 C   0  0  0  0  0  0  0  0  0  0  0  0
    1.1733  -51.7278  -24.9844 C   0  0  0  0  0  0  0  0  0  0  0  0
   -1.2468  -54.9937  -22.8927 H   0  0  0  0  0  0  0  0  0  0  0  0
   -0.1135  -50.8359  -16.7388 N   0  0  0  0  0  0  0  0  0  0  0  0
    0.4819  -51.5075  -16.0650 H   0  0  0  0  0  0  0  0  0  0  0  0
   -0.8624  -49.9549  -15.9881 C   0  0  0  0  0  0  0  0  0  0  0  0
   -0.2945  -48.7249  -15.6417 C   0  0  0  0  0  0  0  0  0  0  0  0
    1.3639  -48.3795  -16.1477 Cl  0  0  0  0  0  0  0  0  0  0  0  0
   -0.9809  -47.7790  -14.9233 C   0  0  0  0  0  0  0  0  0  0  0  0
   -2.2791  -48.0674  -14.5356 C   0  0  0  0  0  0  0  0  0  0  0  0
   -2.8483  -49.2874  -14.8767 C   0  0  0  0  0  0  0  0  0  0  0  0
   -2.1752  -50.2209  -15.5840 C   0  0  0  0  0  0  0  0  0  0  0  0
   -2.8446  -51.7794  -16.0430 Cl  0  0  0  0  0  0  0  0  0  0  0  0
  1  2  1  0  0  0
  2  3  1  0  0  0
  3  4  1  0  0  0
  4  5  2  0  0  0
  4  6  1  0  0  0
  6  7  2  0  0  0
  7  8  1  0  0  0
  8  9  1  0  0  0
  8 10  1  0  0  0
 10 19  1  0  0  0
 19 21  1  0  0  0
 21 22  2  0  0  0
 22 23  1  0  0  0
 22 24  1  0  0  0
 24 25  2  0  0  0
 25 26  1  0  0  0
 26 27  2  0  0  0
 27 28  1  0  0  0
 10 11  2  0  0  0
 11 12  1  0  0  0
 12 13  2  0  0  0
 13 14  1  0  0  0
 14 15  2  0  0  0
 15 16  1  0  0  0
 16 17  1  0  0  0
 16  2  2  0  0  0
 15  6  1  0  0  0
 12  7  1  0  0  0
 27 21  1  0  0  0
  3 18  1  0  0  0
 19 20  1  0  0  0
M  END
> <minimizedAffinity>
-7.89746

> <CNNscore>
0.5883734226

> <CNNaffinity>
6.7740554810

> <CNN_VS>
3.9856741428

> <CNNaffinity_variance>
0.3060401082

$$$$
[H]c1c([H])c(Cl)c(N([H])c2nc3c([H])c([H])c4c(C([H])([H])[H])c(C([H])([H])[H])n([H])c(=O)c4c3n2C([H])([H])[H])c(Cl)c1[H]


 28 31  0  0  0  0  0  0  0  0999 V2000
    0.0453  -50.7488  -16.2780 C   0  0  0  0  0  0  0  0  0  0  0  0
    0.1174  -51.0256  -17.7564 C   0  0  0  0  0  0  0  0  0  0  0  0
    0.8242  -50.2275  -18.5323 N   0  0  0  0  0  0  0  0  0  0  0  0
    0.9326  -50.4294  -19.8920 C   0  0  0  0  0  0  0  0  0  0  0  0
    1.6035  -49.6144  -20.4771 O   0  0  0  0  0  0  0  0  0  0  0  0
    0.2877  -51.4904  -20.4360 C   0  0  0  0  0  0  0  0  0  0  0  0
    0.3432  -51.7292  -21.8172 C   0  0  0  0  0  0  0  0  0  0  0  0
    0.9818  -51.1223  -22.8442 N   0  0  0  0  0  0  0  0  0  0  0  0
    1.9171  -50.0355  -22.8559 C   0  0  0  0  0  0  0  0  0  0  0  0
    0.6649  -51.7939  -23.9617 C   0  0  0  0  0  0  0  0  0  0  0  0
   -0.1775  -52.8362  -23.6074 N   0  0  0  0  0  0  0  0  0  0  0  0
   -0.3755  -52.8046  -22.3123 C   0  0  0  0  0  0  0  0  0  0  0  0
   -1.1205  -53.6315  -21.4819 C   0  0  0  0  0  0  0  0  0  0  0  0
   -1.1544  -53.3898  -20.1554 C   0  0  0  0  0  0  0  0  0  0  0  0
   -0.4683  -52.3363  -19.5980 C   0  0  0  0  0  0  0  0  0  0  0  0
   -0.5586  -52.1086  -18.2426 C   0  0  0  0  0  0  0  0  0  0  0  0
   -1.3597  -53.0174  -17.3882 C   0  0  0  0  0  0  0  0  0  0  0  0
    1.3352  -49.4061  -18.1588 H   0  0  0  0  0  0  0  0  0  0  0  0
    0.9721  -51.6203  -25.3287 N   0  0  0  0  0  0  0  0  0  0  0  0
    1.7322  -50.8177  -25.5227 H   0  0  0  0  0  0  0  0  0  0  0  0
    0.5727  -52.1921  -26.5179 C   0  0  0  0  0  0  0  0  0  0  0  0
    1.5334  -52.8384  -27.3020 C   0  0  0  0  0  0  0  0  0  0  0  0
    3.2130  -52.8544  -26.7504 Cl  0  0  0  0  0  0  0  0  0  0  0  0
    1.2157  -53.4594  -28.4833 C   0  0  0  0  0  0  0  0  0  0  0  0
   -0.1052  -53.4365  -28.8993 C   0  0  0  0  0  0  0  0  0  0  0  0
   -1.0637  -52.7961  -28.1247 C   0  0  0  0  0  0  0  0  0  0  0  0
   -0.7543  -52.1837  -26.9611 C   0  0  0  0  0  0  0  0  0  0  0  0
   -1.9244  -51.3593  -25.9418 Cl  0  0  0  0  0  0  0  0  0  0  0  0
  1  2  1  0  0  0
  2  3  1  0  0  0
  3  4  1  0  0  0
  4  5  2  0  0  0
  4  6  1  0  0  0
  6  7  2  0  0  0
  7  8  1  0  0  0
  8  9  1  0  0  0
  8 10  1  0  0  0
 10 19  1  0  0  0
 19 21  1  0  0  0
 21 22  2  0  0  0
 22 23  1  0  0  0
 22 24  1  0  0  0
 24 25  2  0  0  0
 25 26  1  0  0  0
 26 27  2  0  0  0
 27 28  1  0  0  0
 10 11  2  0  0  0
 11 12  1  0  0  0
 12 13  2  0  0  0
 13 14  1  0  0  0
 14 15  2  0  0  0
 15 16  1  0  0  0
 16 17  1  0  0  0
 16  2  2  0  0  0
 15  6  1  0  0  0
 12  7  1  0  0  0
 27 21  1  0  0  0
  3 18  1  0  0  0
 19 20  1  0  0  0
M  END
> <minimizedAffinity>
-9.03025

> <CNNscore>
0.5198915601

> <CNNaffinity>
6.9852895737

> <CNN_VS>
3.6315929890

> <CNNaffinity_variance>
0.0948750973

$$$$
[H]c1c([H])c(Cl)c(N([H])c2nc3c([H])c([H])c4c(C([H])([H])[H])c(C([H])([H])[H])n([H])c(=O)c4c3n2C([H])([H])[H])c(Cl)c1[H]


 28 31  0  0  0  0  0  0  0  0999 V2000
   -0.1934  -54.1931  -25.7341 C   0  0  0  0  0  0  0  0  0  0  0  0
   -0.0048  -53.4619  -24.4313 C   0  0  0  0  0  0  0  0  0  0  0  0
   -0.5114  -53.9677  -23.3240 N   0  0  0  0  0  0  0  0  0  0  0  0
   -0.3700  -53.3487  -22.1001 C   0  0  0  0  0  0  0  0  0  0  0  0
   -0.8939  -53.9205  -21.1754 O   0  0  0  0  0  0  0  0  0  0  0  0
    0.3184  -52.1821  -22.0475 C   0  0  0  0  0  0  0  0  0  0  0  0
    0.4717  -51.4967  -20.8331 C   0  0  0  0  0  0  0  0  0  0  0  0
    0.0983  -51.7599  -19.5594 N   0  0  0  0  0  0  0  0  0  0  0  0
   -0.5358  -52.9116  -18.9871 C   0  0  0  0  0  0  0  0  0  0  0  0
    0.5206  -50.7362  -18.8019 C   0  0  0  0  0  0  0  0  0  0  0  0
    1.1717  -49.8347  -19.6294 N   0  0  0  0  0  0  0  0  0  0  0  0
    1.1476  -50.2882  -20.8587 C   0  0  0  0  0  0  0  0  0  0  0  0
    1.6693  -49.7662  -22.0351 C   0  0  0  0  0  0  0  0  0  0  0  0
    1.5182  -50.4446  -23.1911 C   0  0  0  0  0  0  0  0  0  0  0  0
    0.8536  -51.6477  -23.2379 C   0  0  0  0  0  0  0  0  0  0  0  0
    0.6953  -52.2889  -24.4466 C   0  0  0  0  0  0  0  0  0  0  0  0
    1.2717  -51.7024  -25.6801 C   0  0  0  0  0  0  0  0  0  0  0  0
   -1.0427  -54.8582  -23.3174 H   0  0  0  0  0  0  0  0  0  0  0  0
    0.3943  -50.4137  -17.4333 N   0  0  0  0  0  0  0  0  0  0  0  0
   -0.1130  -49.4303  -17.2457 H   0  0  0  0  0  0  0  0  0  0  0  0
    0.7400  -51.0044  -16.2366 C   0  0  0  0  0  0  0  0  0  0  0  0
    2.0693  -50.9185  -15.8109 C   0  0  0  0  0  0  0  0  0  0  0  0
    3.2434  -50.0948  -16.8446 Cl  0  0  0  0  0  0  0  0  0  0  0  0
    2.4914  -51.4517  -14.6194 C   0  0  0  0  0  0  0  0  0  0  0  0
    1.5573  -52.0933  -13.8230 C   0  0  0  0  0  0  0  0  0  0  0  0
    0.2357  -52.1817  -14.2405 C   0  0  0  0  0  0  0  0  0  0  0  0
   -0.1832  -51.6579  -15.4131 C   0  0  0  0  0  0  0  0  0  0  0  0
   -1.8406  -51.7399  -15.9909 Cl  0  0  0  0  0  0  0  0  0  0  0  0
  1  2  1  0  0  0
  2  3  1  0  0  0
  3  4  1  0  0  0
  4  5  2  0  0  0
  4  6  1  0  0  0
  6  7  2  0  0  0
  7  8  1  0  0  0
  8  9  1  0  0  0
  8 10  1  0  0  0
 10 19  1  0  0  0
 19 21  1  0  0  0
 21 22  2  0  0  0
 22 23  1  0  0  0
 22 24  1  0  0  0
 24 25  2  0  0  0
 25 26  1  0  0  0
 26 27  2  0  0  0
 27 28  1  0  0  0
 10 11  2  0  0  0
 11 12  1  0  0  0
 12 13  2  0  0  0
 13 14  1  0  0  0
 14 15  2  0  0  0
 15 16  1  0  0  0
 16 17  1  0  0  0
 16  2  2  0  0  0
 15  6  1  0  0  0
 12  7  1  0  0  0
 27 21  1  0  0  0
  3 18  1  0  0  0
 19 20  1  0  0  0
M  END
> <minimizedAffinity>
-7.94479

> <CNNscore>
0.4993177652

> <CNNaffinity>
6.7812051773

> <CNN_VS>
3.3859763145

> <CNNaffinity_variance>
0.2984250486

$$$$
[H]c1c([H])c(Cl)c(N([H])c2nc3c([H])c([H])c4c(C([H])([H])[H])c(C([H])([H])[H])n([H])c(=O)c4c3n2C([H])([H])[H])c(Cl)c1[H]


 28 31  0  0  0  0  0  0  0  0999 V2000
   -0.1891  -54.2519  -25.6736 C   0  0  0  0  0  0  0  0  0  0  0  0
   -0.0050  -53.5040  -24.3797 C   0  0  0  0  0  0  0  0  0  0  0  0
   -0.5029  -54.0030  -23.2653 N   0  0  0  0  0  0  0  0  0  0  0  0
   -0.3649  -53.3687  -22.0488 C   0  0  0  0  0  0  0  0  0  0  0  0
   -0.8799  -53.9358  -21.1162 O   0  0  0  0  0  0  0  0  0  0  0  0
    0.3107  -52.1941  -22.0112 C   0  0  0  0  0  0  0  0  0  0  0  0
    0.4598  -51.4935  -20.8051 C   0  0  0  0  0  0  0  0  0  0  0  0
    0.0929  -51.7465  -19.5274 N   0  0  0  0  0  0  0  0  0  0  0  0
   -0.5269  -52.8986  -18.9404 C   0  0  0  0  0  0  0  0  0  0  0  0
    0.5058  -50.7097  -18.7826 C   0  0  0  0  0  0  0  0  0  0  0  0
    1.1447  -49.8105  -19.6221 N   0  0  0  0  0  0  0  0  0  0  0  0
    1.1222  -50.2779  -20.8461 C   0  0  0  0  0  0  0  0  0  0  0  0
    1.6347  -49.7635  -22.0298 C   0  0  0  0  0  0  0  0  0  0  0  0
    1.4880  -50.4564  -23.1777 C   0  0  0  0  0  0  0  0  0  0  0  0
    0.8366  -51.6672  -23.2091 C   0  0  0  0  0  0  0  0  0  0  0  0
    0.6820  -52.3237  -24.4101 C   0  0  0  0  0  0  0  0  0  0  0  0
    1.2485  -51.7447  -25.6517 C   0  0  0  0  0  0  0  0  0  0  0  0
   -1.0243  -54.8991  -23.2472 H   0  0  0  0  0  0  0  0  0  0  0  0
    0.3798  -50.3732  -17.4173 N   0  0  0  0  0  0  0  0  0  0  0  0
   -0.1901  -49.4234  -17.2368 H   0  0  0  0  0  0  0  0  0  0  0  0
    0.7839  -50.9188  -16.2175 C   0  0  0  0  0  0  0  0  0  0  0  0
   -0.1738  -51.5467  -15.4151 C   0  0  0  0  0  0  0  0  0  0  0  0
   -1.8558  -51.5737  -15.9590 Cl  0  0  0  0  0  0  0  0  0  0  0  0
    0.1485  -52.1416  -14.2216 C   0  0  0  0  0  0  0  0  0  0  0  0
    1.4713  -52.1104  -13.8119 C   0  0  0  0  0  0  0  0  0  0  0  0
    2.4269  -51.4881  -14.6047 C   0  0  0  0  0  0  0  0  0  0  0  0
    2.1129  -50.9015  -15.7803 C   0  0  0  0  0  0  0  0  0  0  0  0
    3.2791  -50.1009  -16.8226 Cl  0  0  0  0  0  0  0  0  0  0  0  0
  1  2  1  0  0  0
  2  3  1  0  0  0
  3  4  1  0  0  0
  4  5  2  0  0  0
  4  6  1  0  0  0
  6  7  2  0  0  0
  7  8  1  0  0  0
  8  9  1  0  0  0
  8 10  1  0  0  0
 10 19  1  0  0  0
 19 21  1  0  0  0
 21 22  2  0  0  0
 22 23  1  0  0  0
 22 24  1  0  0  0
 24 25  2  0  0  0
 25 26  1  0  0  0
 26 27  2  0  0  0
 27 28  1  0  0  0
 10 11  2  0  0  0
 11 12  1  0  0  0
 12 13  2  0  0  0
 13 14  1  0  0  0
 14 15  2  0  0  0
 15 16  1  0  0  0
 16 17  1  0  0  0
 16  2  2  0  0  0
 15  6  1  0  0  0
 12  7  1  0  0  0
 27 21  1  0  0  0
  3 18  1  0  0  0
 19 20  1  0  0  0
M  END
> <minimizedAffinity>
-7.91996

> <CNNscore>
0.4924936295

> <CNNaffinity>
6.7573509216

> <CNN_VS>
3.3279523849

> <CNNaffinity_variance>
0.2970058024

$$$$
[H]c1c([H])c(Cl)c(N([H])c2nc3c([H])c([H])c4c(C([H])([H])[H])c(C([H])([H])[H])n([H])c(=O)c4c3n2C([H])([H])[H])c(Cl)c1[H]


 28 31  0  0  0  0  0  0  0  0999 V2000
    0.5816  -52.3196  -26.5419 C   0  0  0  0  0  0  0  0  0  0  0  0
    0.5691  -52.1221  -25.0491 C   0  0  0  0  0  0  0  0  0  0  0  0
   -0.1745  -52.9093  -24.2966 N   0  0  0  0  0  0  0  0  0  0  0  0
   -0.2261  -52.7819  -22.9247 C   0  0  0  0  0  0  0  0  0  0  0  0
   -0.9564  -53.5641  -22.3666 O   0  0  0  0  0  0  0  0  0  0  0  0
    0.5206  -51.8119  -22.3423 C   0  0  0  0  0  0  0  0  0  0  0  0
    0.4873  -51.6214  -20.9529 C   0  0  0  0  0  0  0  0  0  0  0  0
   -0.1405  -52.2597  -19.9383 N   0  0  0  0  0  0  0  0  0  0  0  0
   -0.9526  -53.4415  -19.9336 C   0  0  0  0  0  0  0  0  0  0  0  0
    0.2007  -51.6323  -18.8024 C   0  0  0  0  0  0  0  0  0  0  0  0
    1.0605  -50.5957  -19.1307 N   0  0  0  0  0  0  0  0  0  0  0  0
    1.2397  -50.5835  -20.4288 C   0  0  0  0  0  0  0  0  0  0  0  0
    2.0124  -49.7594  -21.2364 C   0  0  0  0  0  0  0  0  0  0  0  0
    2.0373  -49.9642  -22.5693 C   0  0  0  0  0  0  0  0  0  0  0  0
    1.3102  -50.9732  -23.1561 C   0  0  0  0  0  0  0  0  0  0  0  0
    1.3407  -51.1242  -24.5249 C   0  0  0  0  0  0  0  0  0  0  0  0
    2.1825  -50.2276  -25.3528 C   0  0  0  0  0  0  0  0  0  0  0  0
   -0.7592  -53.6651  -24.6991 H   0  0  0  0  0  0  0  0  0  0  0  0
   -0.1617  -51.7942  -17.4476 N   0  0  0  0  0  0  0  0  0  0  0  0
    0.3519  -52.6546  -16.9421 H   0  0  0  0  0  0  0  0  0  0  0  0
   -1.0027  -51.1568  -16.5604 C   0  0  0  0  0  0  0  0  0  0  0  0
   -0.5629  -49.9739  -15.9581 C   0  0  0  0  0  0  0  0  0  0  0  0
    1.0594  -49.3793  -16.3326 Cl  0  0  0  0  0  0  0  0  0  0  0  0
   -1.3477  -49.2609  -15.0877 C   0  0  0  0  0  0  0  0  0  0  0  0
   -2.6157  -49.7423  -14.8064 C   0  0  0  0  0  0  0  0  0  0  0  0
   -3.0579  -50.9166  -15.4016 C   0  0  0  0  0  0  0  0  0  0  0  0
   -2.2877  -51.6210  -16.2590 C   0  0  0  0  0  0  0  0  0  0  0  0
   -2.7948  -53.1110  -17.0403 Cl  0  0  0  0  0  0  0  0  0  0  0  0
  1  2  1  0  0  0
  2  3  1  0  0  0
  3  4  1  0  0  0
  4  5  2  0  0  0
  4  6  1  0  0  0
  6  7  2  0  0  0
  7  8  1  0  0  0
  8  9  1  0  0  0
  8 10  1  0  0  0
 10 19  1  0  0  0
 19 21  1  0  0  0
 21 22  2  0  0  0
 22 23  1  0  0  0
 22 24  1  0  0  0
 24 25  2  0  0  0
 25 26  1  0  0  0
 26 27  2  0  0  0
 27 28  1  0  0  0
 10 11  2  0  0  0
 11 12  1  0  0  0
 12 13  2  0  0  0
 13 14  1  0  0  0
 14 15  2  0  0  0
 15 16  1  0  0  0
 16 17  1  0  0  0
 16  2  2  0  0  0
 15  6  1  0  0  0
 12  7  1  0  0  0
 27 21  1  0  0  0
  3 18  1  0  0  0
 19 20  1  0  0  0
M  END
> <minimizedAffinity>
-7.75598

> <CNNscore>
0.4401538372

> <CNNaffinity>
6.7092065811

> <CNN_VS>
2.9530830383

> <CNNaffinity_variance>
0.2260858566

$$$$
[H]c1c([H])c(Cl)c(N([H])c2nc3c([H])c([H])c4c(C([H])([H])[H])c(C([H])([H])[H])n([H])c(=O)c4c3n2C([H])([H])[H])c(Cl)c1[H]


 28 31  0  0  0  0  0  0  0  0999 V2000
   -0.2425  -53.9546  -27.4622 C   0  0  0  0  0  0  0  0  0  0  0  0
    0.1545  -53.5555  -26.0655 C   0  0  0  0  0  0  0  0  0  0  0  0
   -0.5693  -53.9661  -25.0427 N   0  0  0  0  0  0  0  0  0  0  0  0
   -0.2563  -53.6381  -23.7406 C   0  0  0  0  0  0  0  0  0  0  0  0
   -1.0129  -54.0753  -22.9081 O   0  0  0  0  0  0  0  0  0  0  0  0
    0.8376  -52.8690  -23.5185 C   0  0  0  0  0  0  0  0  0  0  0  0
    1.1886  -52.4845  -22.2159 C   0  0  0  0  0  0  0  0  0  0  0  0
    0.6749  -52.7532  -20.9932 N   0  0  0  0  0  0  0  0  0  0  0  0
   -0.3961  -53.6199  -20.5959 C   0  0  0  0  0  0  0  0  0  0  0  0
    1.4313  -52.1063  -20.0934 C   0  0  0  0  0  0  0  0  0  0  0  0
    2.4311  -51.4363  -20.7811 N   0  0  0  0  0  0  0  0  0  0  0  0
    2.2920  -51.6612  -22.0646 C   0  0  0  0  0  0  0  0  0  0  0  0
    3.0397  -51.2323  -23.1533 C   0  0  0  0  0  0  0  0  0  0  0  0
    2.6905  -51.6197  -24.3972 C   0  0  0  0  0  0  0  0  0  0  0  0
    1.6035  -52.4322  -24.6194 C   0  0  0  0  0  0  0  0  0  0  0  0
    1.2652  -52.7756  -25.9096 C   0  0  0  0  0  0  0  0  0  0  0  0
    2.0920  -52.3023  -27.0456 C   0  0  0  0  0  0  0  0  0  0  0  0
   -1.4122  -54.5575  -25.1660 H   0  0  0  0  0  0  0  0  0  0  0  0
    1.3731  -51.9589  -18.6906 N   0  0  0  0  0  0  0  0  0  0  0  0
    1.9538  -52.7386  -18.1298 H   0  0  0  0  0  0  0  0  0  0  0  0
    0.7744  -51.0868  -17.8065 C   0  0  0  0  0  0  0  0  0  0  0  0
    1.4238  -49.8830  -17.5155 C   0  0  0  0  0  0  0  0  0  0  0  0
    2.9933  -49.5595  -18.2622 Cl  0  0  0  0  0  0  0  0  0  0  0  0
    0.8837  -48.9464  -16.6711 C   0  0  0  0  0  0  0  0  0  0  0  0
   -0.3467  -49.2174  -16.0954 C   0  0  0  0  0  0  0  0  0  0  0  0
   -0.9962  -50.4113  -16.3806 C   0  0  0  0  0  0  0  0  0  0  0  0
   -0.4673  -51.3356  -17.2116 C   0  0  0  0  0  0  0  0  0  0  0  0
   -1.2436  -52.8614  -17.6079 Cl  0  0  0  0  0  0  0  0  0  0  0  0
  1  2  1  0  0  0
  2  3  1  0  0  0
  3  4  1  0  0  0
  4  5  2  0  0  0
  4  6  1  0  0  0
  6  7  2  0  0  0
  7  8  1  0  0  0
  8  9  1  0  0  0
  8 10  1  0  0  0
 10 19  1  0  0  0
 19 21  1  0  0  0
 21 22  2  0  0  0
 22 23  1  0  0  0
 22 24  1  0  0  0
 24 25  2  0  0  0
 25 26  1  0  0  0
 26 27  2  0  0  0
 27 28  1  0  0  0
 10 11  2  0  0  0
 11 12  1  0  0  0
 12 13  2  0  0  0
 13 14  1  0  0  0
 14 15  2  0  0  0
 15 16  1  0  0  0
 16 17  1  0  0  0
 16  2  2  0  0  0
 15  6  1  0  0  0
 12  7  1  0  0  0
 27 21  1  0  0  0
  3 18  1  0  0  0
 19 20  1  0  0  0
M  END
> <minimizedAffinity>
-7.77315

> <CNNscore>
0.3683307469

> <CNNaffinity>
6.8762726784

> <CNN_VS>
2.5327427387

> <CNNaffinity_variance>
0.3595519960

$$$$
[H]c1c([H])c(Cl)c(N([H])c2nc3c([H])c([H])c4c(C([H])([H])[H])c(C([H])([H])[H])n([H])c(=O)c4c3n2C([H])([H])[H])c(Cl)c1[H]


 28 31  0  0  0  0  0  0  0  0999 V2000
    1.2024  -51.8298  -26.3623 C   0  0  0  0  0  0  0  0  0  0  0  0
    0.8848  -51.9468  -24.8950 C   0  0  0  0  0  0  0  0  0  0  0  0
    1.2677  -50.9920  -24.0700 N   0  0  0  0  0  0  0  0  0  0  0  0
    1.0043  -51.0386  -22.7174 C   0  0  0  0  0  0  0  0  0  0  0  0
    1.4230  -50.1010  -22.0833 O   0  0  0  0  0  0  0  0  0  0  0  0
    0.3249  -52.1070  -22.2330 C   0  0  0  0  0  0  0  0  0  0  0  0
    0.0512  -52.2181  -20.8616 C   0  0  0  0  0  0  0  0  0  0  0  0
    0.2864  -51.4190  -19.7953 N   0  0  0  0  0  0  0  0  0  0  0  0
    0.8464  -50.1013  -19.7164 C   0  0  0  0  0  0  0  0  0  0  0  0
   -0.2036  -52.0444  -18.7142 C   0  0  0  0  0  0  0  0  0  0  0  0
   -0.7561  -53.2454  -19.1313 N   0  0  0  0  0  0  0  0  0  0  0  0
   -0.6072  -53.3570  -20.4285 C   0  0  0  0  0  0  0  0  0  0  0  0
   -0.9977  -54.3564  -21.3100 C   0  0  0  0  0  0  0  0  0  0  0  0
   -0.7323  -54.2269  -22.6261 C   0  0  0  0  0  0  0  0  0  0  0  0
   -0.0775  -53.1244  -23.1230 C   0  0  0  0  0  0  0  0  0  0  0  0
    0.2010  -53.0503  -24.4699 C   0  0  0  0  0  0  0  0  0  0  0  0
   -0.2374  -54.1354  -25.3801 C   0  0  0  0  0  0  0  0  0  0  0  0
    1.7873  -50.1564  -24.3971 H   0  0  0  0  0  0  0  0  0  0  0  0
   -0.2187  -51.7473  -17.3341 N   0  0  0  0  0  0  0  0  0  0  0  0
    0.5970  -52.2546  -16.7537 H   0  0  0  0  0  0  0  0  0  0  0  0
   -0.9927  -50.9788  -16.4910 C   0  0  0  0  0  0  0  0  0  0  0  0
   -0.4672  -49.7716  -16.0199 C   0  0  0  0  0  0  0  0  0  0  0  0
    1.1728  -49.3131  -16.4952 Cl  0  0  0  0  0  0  0  0  0  0  0  0
   -1.1813  -48.9327  -15.2023 C   0  0  0  0  0  0  0  0  0  0  0  0
   -2.4644  -49.3087  -14.8405 C   0  0  0  0  0  0  0  0  0  0  0  0
   -2.9916  -50.5065  -15.3053 C   0  0  0  0  0  0  0  0  0  0  0  0
   -2.2911  -51.3347  -16.1104 C   0  0  0  0  0  0  0  0  0  0  0  0
   -2.9071  -52.8603  -16.7275 Cl  0  0  0  0  0  0  0  0  0  0  0  0
  1  2  1  0  0  0
  2  3  1  0  0  0
  3  4  1  0  0  0
  4  5  2  0  0  0
  4  6  1  0  0  0
  6  7  2  0  0  0
  7  8  1  0  0  0
  8  9  1  0  0  0
  8 10  1  0  0  0
 10 19  1  0  0  0
 19 21  1  0  0  0
 21 22  2  0  0  0
 22 23  1  0  0  0
 22 24  1  0  0  0
 24 25  2  0  0  0
 25 26  1  0  0  0
 26 27  2  0  0  0
 27 28  1  0  0  0
 10 11  2  0  0  0
 11 12  1  0  0  0
 12 13  2  0  0  0
 13 14  1  0  0  0
 14 15  2  0  0  0
 15 16  1  0  0  0
 16 17  1  0  0  0
 16  2  2  0  0  0
 15  6  1  0  0  0
 12  7  1  0  0  0
 27 21  1  0  0  0
  3 18  1  0  0  0
 19 20  1  0  0  0
M  END
> <minimizedAffinity>
-8.46412

> <CNNscore>
0.3647451103

> <CNNaffinity>
6.5670099258

> <CNN_VS>
2.3952846527

> <CNNaffinity_variance>
0.1436856091

$$$$
[H]OC(=O)C([H])(C([H])([H])S[H])C([H])([H])c1c([H])c([H])c([H])c([H])c1[H]


 15 15  0  0  0  0  0  0  0  0999 V2000
    0.8674  -53.1639  -27.6368 C   0  0  0  0  0  0  0  0  0  0  0  0
    2.4363  -54.3703  -29.1212 O   0  0  0  0  0  0  0  0  0  0  0  0
    2.2452  -53.5855  -27.9945 C   0  0  0  0  0  0  0  0  0  0  0  0
    3.2651  -53.2730  -27.3333 O   0  0  0  0  0  0  0  0  0  0  0  0
    2.5665  -53.8661  -30.0031 H   0  0  0  0  0  0  0  0  0  0  0  0
    0.0614  -52.9451  -28.8674 C   0  0  0  0  0  0  0  0  0  0  0  0
   -1.6977  -52.6350  -28.5483 S   0  0  0  0  0  0  0  0  0  0  0  0
   -2.3776  -52.9227  -29.7666 H   0  0  0  0  0  0  0  0  0  0  0  0
    0.3071  -54.0820  -26.6172 C   0  0  0  0  0  0  0  0  0  0  0  0
    0.1769  -53.5578  -25.2610 C   0  0  0  0  0  0  0  0  0  0  0  0
   -0.5312  -54.2484  -24.2673 C   0  0  0  0  0  0  0  0  0  0  0  0
   -0.6480  -53.7271  -22.9994 C   0  0  0  0  0  0  0  0  0  0  0  0
   -0.0820  -52.5189  -22.6531 C   0  0  0  0  0  0  0  0  0  0  0  0
    0.6132  -51.8360  -23.6204 C   0  0  0  0  0  0  0  0  0  0  0  0
    0.7406  -52.3548  -24.9173 C   0  0  0  0  0  0  0  0  0  0  0  0
  2  3  1  0  0  0
  3  4  2  0  0  0
  3  1  1  0  0  0
  1  6  1  0  0  0
  6  7  1  0  0  0
  1  9  1  0  0  0
  9 10  1  0  0  0
 10 11  2  0  0  0
 11 12  1  0  0  0
 12 13  2  0  0  0
 13 14  1  0  0  0
 14 15  2  0  0  0
 15 10  1  0  0  0
  2  5  1  0  0  0
  7  8  1  0  0  0
M  END
> <minimizedAffinity>
-5.51189

> <CNNscore>
0.8053492308

> <CNNaffinity>
5.1114845276

> <CNN_VS>
4.1165299416

> <CNNaffinity_variance>
0.1381182969

$$$$
[H]OC(=O)C([H])(C([H])([H])S[H])C([H])([H])c1c([H])c([H])c([H])c([H])c1[H]


 15 15  0  0  0  0  0  0  0  0999 V2000
    0.5189  -52.8077  -24.2515 C   0  0  0  0  0  0  0  0  0  0  0  0
    2.9541  -53.0915  -24.5819 O   0  0  0  0  0  0  0  0  0  0  0  0
    1.9176  -52.6213  -23.7904 C   0  0  0  0  0  0  0  0  0  0  0  0
    2.2287  -52.0568  -22.7135 O   0  0  0  0  0  0  0  0  0  0  0  0
    3.3046  -52.4444  -25.2942 H   0  0  0  0  0  0  0  0  0  0  0  0
   -0.3786  -53.0414  -23.0888 C   0  0  0  0  0  0  0  0  0  0  0  0
   -1.0471  -54.7260  -23.0032 S   0  0  0  0  0  0  0  0  0  0  0  0
   -2.2028  -54.6515  -22.1736 H   0  0  0  0  0  0  0  0  0  0  0  0
    0.1453  -51.7185  -25.1844 C   0  0  0  0  0  0  0  0  0  0  0  0
   -0.3546  -52.1189  -26.4963 C   0  0  0  0  0  0  0  0  0  0  0  0
    0.5118  -52.4813  -27.5373 C   0  0  0  0  0  0  0  0  0  0  0  0
    0.0152  -52.8446  -28.7680 C   0  0  0  0  0  0  0  0  0  0  0  0
   -1.3378  -52.8684  -29.0298 C   0  0  0  0  0  0  0  0  0  0  0  0
   -2.1933  -52.5147  -28.0157 C   0  0  0  0  0  0  0  0  0  0  0  0
   -1.7018  -52.1420  -26.7561 C   0  0  0  0  0  0  0  0  0  0  0  0
  2  3  1  0  0  0
  3  4  2  0  0  0
  3  1  1  0  0  0
  1  6  1  0  0  0
  6  7  1  0  0  0
  1  9  1  0  0  0
  9 10  1  0  0  0
 10 11  2  0  0  0
 11 12  1  0  0  0
 12 13  2  0  0  0
 13 14  1  0  0  0
 14 15  2  0  0  0
 15 10  1  0  0  0
  2  5  1  0  0  0
  7  8  1  0  0  0
M  END
> <minimizedAffinity>
-5.35229

> <CNNscore>
0.7107251883

> <CNNaffinity>
4.4146118164

> <CNN_VS>
3.1375758648

> <CNNaffinity_variance>
0.2116991580

$$$$
[H]OC(=O)C([H])(C([H])([H])S[H])C([H])([H])c1c([H])c([H])c([H])c([H])c1[H]


 15 15  0  0  0  0  0  0  0  0999 V2000
    0.1041  -52.7139  -26.0087 C   0  0  0  0  0  0  0  0  0  0  0  0
    0.8239  -54.5043  -27.5567 O   0  0  0  0  0  0  0  0  0  0  0  0
    0.8106  -53.1553  -27.2375 C   0  0  0  0  0  0  0  0  0  0  0  0
    1.4065  -52.3749  -28.0191 O   0  0  0  0  0  0  0  0  0  0  0  0
    0.0364  -54.8409  -28.1184 H   0  0  0  0  0  0  0  0  0  0  0  0
   -0.9940  -51.7733  -26.3574 C   0  0  0  0  0  0  0  0  0  0  0  0
   -2.1638  -52.4297  -27.5792 S   0  0  0  0  0  0  0  0  0  0  0  0
   -2.8246  -51.2997  -28.1413 H   0  0  0  0  0  0  0  0  0  0  0  0
   -0.2523  -53.8903  -25.1808 C   0  0  0  0  0  0  0  0  0  0  0  0
   -0.1927  -53.7174  -23.7325 C   0  0  0  0  0  0  0  0  0  0  0  0
    0.5877  -52.7143  -23.1402 C   0  0  0  0  0  0  0  0  0  0  0  0
    0.6348  -52.5795  -21.7717 C   0  0  0  0  0  0  0  0  0  0  0  0
   -0.0731  -53.4128  -20.9325 C   0  0  0  0  0  0  0  0  0  0  0  0
   -0.8397  -54.3979  -21.5043 C   0  0  0  0  0  0  0  0  0  0  0  0
   -0.8975  -54.5476  -22.8977 C   0  0  0  0  0  0  0  0  0  0  0  0
  2  3  1  0  0  0
  3  4  2  0  0  0
  3  1  1  0  0  0
  1  6  1  0  0  0
  6  7  1  0  0  0
  1  9  1  0  0  0
  9 10  1  0  0  0
 10 11  2  0  0  0
 11 12  1  0  0  0
 12 13  2  0  0  0
 13 14  1  0  0  0
 14 15  2  0  0  0
 15 10  1  0  0  0
  2  5  1  0  0  0
  7  8  1  0  0  0
M  END
> <minimizedAffinity>
-5.17633

> <CNNscore>
0.6204301119

> <CNNaffinity>
4.7514615059

> <CNN_VS>
2.9479498863

> <CNNaffinity_variance>
0.0638644546

$$$$
[H]OC(=O)C([H])(C([H])([H])S[H])C([H])([H])c1c([H])c([H])c([H])c([H])c1[H]


 15 15  0  0  0  0  0  0  0  0999 V2000
    0.4709  -53.0719  -22.6677 C   0  0  0  0  0  0  0  0  0  0  0  0
    1.3002  -50.7442  -22.7870 O   0  0  0  0  0  0  0  0  0  0  0  0
    1.2498  -51.9449  -22.0958 C   0  0  0  0  0  0  0  0  0  0  0  0
    1.8760  -52.0085  -21.0100 O   0  0  0  0  0  0  0  0  0  0  0  0
    0.5495  -50.0775  -22.5847 H   0  0  0  0  0  0  0  0  0  0  0  0
    0.0568  -54.0093  -21.5898 C   0  0  0  0  0  0  0  0  0  0  0  0
   -1.5661  -53.6324  -20.8713 S   0  0  0  0  0  0  0  0  0  0  0  0
   -1.5950  -54.2750  -19.6002 H   0  0  0  0  0  0  0  0  0  0  0  0
   -0.5954  -52.5501  -23.5548 C   0  0  0  0  0  0  0  0  0  0  0  0
   -0.5035  -52.8995  -24.9692 C   0  0  0  0  0  0  0  0  0  0  0  0
    0.0926  -54.0942  -25.3974 C   0  0  0  0  0  0  0  0  0  0  0  0
    0.1760  -54.3949  -26.7374 C   0  0  0  0  0  0  0  0  0  0  0  0
   -0.3159  -53.5470  -27.7065 C   0  0  0  0  0  0  0  0  0  0  0  0
   -0.9011  -52.3748  -27.2959 C   0  0  0  0  0  0  0  0  0  0  0  0
   -0.9931  -52.0547  -25.9334 C   0  0  0  0  0  0  0  0  0  0  0  0
  2  3  1  0  0  0
  3  4  2  0  0  0
  3  1  1  0  0  0
  1  6  1  0  0  0
  6  7  1  0  0  0
  1  9  1  0  0  0
  9 10  1  0  0  0
 10 11  2  0  0  0
 11 12  1  0  0  0
 12 13  2  0  0  0
 13 14  1  0  0  0
 14 15  2  0  0  0
 15 10  1  0  0  0
  2  5  1  0  0  0
  7  8  1  0  0  0
M  END
> <minimizedAffinity>
-4.98573

> <CNNscore>
0.5625952482

> <CNNaffinity>
4.2594084740

> <CNN_VS>
2.3963229656

> <CNNaffinity_variance>
0.2312662303

$$$$
[H]OC(=O)C([H])(C([H])([H])S[H])C([H])([H])c1c([H])c([H])c([H])c([H])c1[H]


 15 15  0  0  0  0  0  0  0  0999 V2000
    1.8406  -52.7307  -25.5154 C   0  0  0  0  0  0  0  0  0  0  0  0
    4.2621  -52.2435  -25.6520 O   0  0  0  0  0  0  0  0  0  0  0  0
    3.1405  -52.8211  -26.2266 C   0  0  0  0  0  0  0  0  0  0  0  0
    3.2935  -53.3955  -27.3320 O   0  0  0  0  0  0  0  0  0  0  0  0
    4.7916  -52.8361  -25.0059 H   0  0  0  0  0  0  0  0  0  0  0  0
    2.0571  -52.7553  -24.0441 C   0  0  0  0  0  0  0  0  0  0  0  0
    1.3518  -51.3281  -23.1736 S   0  0  0  0  0  0  0  0  0  0  0  0
    2.0305  -51.2521  -21.9234 H   0  0  0  0  0  0  0  0  0  0  0  0
    1.0430  -51.6074  -26.0616 C   0  0  0  0  0  0  0  0  0  0  0  0
   -0.1608  -51.9581  -26.8092 C   0  0  0  0  0  0  0  0  0  0  0  0
   -0.0976  -52.4638  -28.1154 C   0  0  0  0  0  0  0  0  0  0  0  0
   -1.2480  -52.7766  -28.8023 C   0  0  0  0  0  0  0  0  0  0  0  0
   -2.4977  -52.6094  -28.2452 C   0  0  0  0  0  0  0  0  0  0  0  0
   -2.5685  -52.1145  -26.9664 C   0  0  0  0  0  0  0  0  0  0  0  0
   -1.4045  -51.7911  -26.2540 C   0  0  0  0  0  0  0  0  0  0  0  0
  2  3  1  0  0  0
  3  4  2  0  0  0
  3  1  1  0  0  0
  1  6  1  0  0  0
  6  7  1  0  0  0
  1  9  1  0  0  0
  9 10  1  0  0  0
 10 11  2  0  0  0
 11 12  1  0  0  0
 12 13  2  0  0  0
 13 14  1  0  0  0
 14 15  2  0  0  0
 15 10  1  0  0  0
  2  5  1  0  0  0
  7  8  1  0  0  0
M  END
> <minimizedAffinity>
-5.52499

> <CNNscore>
0.5014504194

> <CNNaffinity>
4.2660245895

> <CNN_VS>
2.1391997337

> <CNNaffinity_variance>
0.2018816769

$$$$
[H]OC(=O)C([H])(C([H])([H])S[H])C([H])([H])c1c([H])c([H])c([H])c([H])c1[H]


 15 15  0  0  0  0  0  0  0  0999 V2000
    0.3516  -52.8086  -24.3265 C   0  0  0  0  0  0  0  0  0  0  0  0
    0.8129  -51.9822  -26.6122 O   0  0  0  0  0  0  0  0  0  0  0  0
    1.1549  -52.8357  -25.5747 C   0  0  0  0  0  0  0  0  0  0  0  0
    2.1394  -53.5928  -25.7555 O   0  0  0  0  0  0  0  0  0  0  0  0
    1.2370  -51.0503  -26.5856 H   0  0  0  0  0  0  0  0  0  0  0  0
   -0.6240  -53.9312  -24.3190 C   0  0  0  0  0  0  0  0  0  0  0  0
   -0.9839  -54.5811  -22.6636 S   0  0  0  0  0  0  0  0  0  0  0  0
   -1.5151  -55.8885  -22.8586 H   0  0  0  0  0  0  0  0  0  0  0  0
    1.2471  -52.6847  -23.1522 C   0  0  0  0  0  0  0  0  0  0  0  0
    1.1997  -51.4230  -22.4194 C   0  0  0  0  0  0  0  0  0  0  0  0
    0.4245  -51.2705  -21.2612 C   0  0  0  0  0  0  0  0  0  0  0  0
    0.3889  -50.0672  -20.5950 C   0  0  0  0  0  0  0  0  0  0  0  0
    1.1039  -48.9720  -21.0300 C   0  0  0  0  0  0  0  0  0  0  0  0
    1.8657  -49.1127  -22.1637 C   0  0  0  0  0  0  0  0  0  0  0  0
    1.9116  -50.3331  -22.8534 C   0  0  0  0  0  0  0  0  0  0  0  0
  2  3  1  0  0  0
  3  4  2  0  0  0
  3  1  1  0  0  0
  1  6  1  0  0  0
  6  7  1  0  0  0
  1  9  1  0  0  0
  9 10  1  0  0  0
 10 11  2  0  0  0
 11 12  1  0  0  0
 12 13  2  0  0  0
 13 14  1  0  0  0
 14 15  2  0  0  0
 15 10  1  0  0  0
  2  5  1  0  0  0
  7  8  1  0  0  0
M  END
> <minimizedAffinity>
-4.59905

> <CNNscore>
0.4934122562

> <CNNaffinity>
4.3153324127

> <CNN_VS>
2.1292378902

> <CNNaffinity_variance>
0.3939501941

$$$$
[H]OC(=O)C([H])(C([H])([H])S[H])C([H])([H])c1c([H])c([H])c([H])c([H])c1[H]


 15 15  0  0  0  0  0  0  0  0999 V2000
   -0.2487  -52.6926  -23.2651 C   0  0  0  0  0  0  0  0  0  0  0  0
   -0.9556  -53.8844  -25.3144 O   0  0  0  0  0  0  0  0  0  0  0  0
   -0.5045  -52.7123  -24.7273 C   0  0  0  0  0  0  0  0  0  0  0  0
   -0.3367  -51.7216  -25.4792 O   0  0  0  0  0  0  0  0  0  0  0  0
   -1.9709  -54.0182  -25.3280 H   0  0  0  0  0  0  0  0  0  0  0  0
   -0.6854  -53.9742  -22.6497 C   0  0  0  0  0  0  0  0  0  0  0  0
   -1.3286  -53.7978  -20.9623 S   0  0  0  0  0  0  0  0  0  0  0  0
   -1.2438  -55.0903  -20.3693 H   0  0  0  0  0  0  0  0  0  0  0  0
    1.1432  -52.2571  -23.0018 C   0  0  0  0  0  0  0  0  0  0  0  0
    1.3210  -50.9099  -22.4685 C   0  0  0  0  0  0  0  0  0  0  0  0
    2.2442  -50.0122  -23.0231 C   0  0  0  0  0  0  0  0  0  0  0  0
    2.4000  -48.7514  -22.4947 C   0  0  0  0  0  0  0  0  0  0  0  0
    1.6657  -48.3194  -21.4111 C   0  0  0  0  0  0  0  0  0  0  0  0
    0.7593  -49.1924  -20.8618 C   0  0  0  0  0  0  0  0  0  0  0  0
    0.5897  -50.4808  -21.3895 C   0  0  0  0  0  0  0  0  0  0  0  0
  2  3  1  0  0  0
  3  4  2  0  0  0
  3  1  1  0  0  0
  1  6  1  0  0  0
  6  7  1  0  0  0
  1  9  1  0  0  0
  9 10  1  0  0  0
 10 11  2  0  0  0
 11 12  1  0  0  0
 12 13  2  0  0  0
 13 14  1  0  0  0
 14 15  2  0  0  0
 15 10  1  0  0  0
  2  5  1  0  0  0
  7  8  1  0  0  0
M  END
> <minimizedAffinity>
-4.87518

> <CNNscore>
0.4612069726

> <CNNaffinity>
4.1657333374

> <CNN_VS>
1.9212652445

> <CNNaffinity_variance>
0.2084638625

$$$$
[H]OC(=O)C([H])(C([H])([H])S[H])C([H])([H])c1c([H])c([H])c([H])c([H])c1[H]


 15 15  0  0  0  0  0  0  0  0999 V2000
    0.9980  -51.4175  -24.4056 C   0  0  0  0  0  0  0  0  0  0  0  0
    2.3147  -49.7470  -23.1423 O   0  0  0  0  0  0  0  0  0  0  0  0
    2.2132  -50.5797  -24.2460 C   0  0  0  0  0  0  0  0  0  0  0  0
    3.1704  -50.5757  -25.0577 O   0  0  0  0  0  0  0  0  0  0  0  0
    2.7238  -50.1638  -22.3011 H   0  0  0  0  0  0  0  0  0  0  0  0
    0.5658  -51.4297  -25.8287 C   0  0  0  0  0  0  0  0  0  0  0  0
   -1.0868  -52.1321  -26.0888 S   0  0  0  0  0  0  0  0  0  0  0  0
   -1.1461  -52.5064  -27.4620 H   0  0  0  0  0  0  0  0  0  0  0  0
    1.2006  -52.7312  -23.7504 C   0  0  0  0  0  0  0  0  0  0  0  0
    0.3273  -53.0457  -22.6237 C   0  0  0  0  0  0  0  0  0  0  0  0
    0.3811  -52.3227  -21.4236 C   0  0  0  0  0  0  0  0  0  0  0  0
   -0.4459  -52.6464  -20.3727 C   0  0  0  0  0  0  0  0  0  0  0  0
   -1.3524  -53.6818  -20.4508 C   0  0  0  0  0  0  0  0  0  0  0  0
   -1.4115  -54.3951  -21.6226 C   0  0  0  0  0  0  0  0  0  0  0  0
   -0.5746  -54.0768  -22.7022 C   0  0  0  0  0  0  0  0  0  0  0  0
  2  3  1  0  0  0
  3  4  2  0  0  0
  3  1  1  0  0  0
  1  6  1  0  0  0
  6  7  1  0  0  0
  1  9  1  0  0  0
  9 10  1  0  0  0
 10 11  2  0  0  0
 11 12  1  0  0  0
 12 13  2  0  0  0
 13 14  1  0  0  0
 14 15  2  0  0  0
 15 10  1  0  0  0
  2  5  1  0  0  0
  7  8  1  0  0  0
M  END
> <minimizedAffinity>
-4.71747

> <CNNscore>
0.4155857861

> <CNNaffinity>
4.3057737350

> <CNN_VS>
1.7894183397

> <CNNaffinity_variance>
0.1367114335

$$$$
[H]OC(=O)C([H])(C([H])([H])S[H])C([H])([H])c1c([H])c([H])c([H])c([H])c1[H]


 15 15  0  0  0  0  0  0  0  0999 V2000
   -0.4401  -52.6828  -26.5739 C   0  0  0  0  0  0  0  0  0  0  0  0
    1.6826  -53.9480  -26.6881 O   0  0  0  0  0  0  0  0  0  0  0  0
    0.3047  -53.9664  -26.5367 C   0  0  0  0  0  0  0  0  0  0  0  0
   -0.2397  -55.0855  -26.3744 O   0  0  0  0  0  0  0  0  0  0  0  0
    2.2274  -53.8269  -25.8293 H   0  0  0  0  0  0  0  0  0  0  0  0
   -1.3687  -52.6612  -27.7355 C   0  0  0  0  0  0  0  0  0  0  0  0
   -0.5377  -52.7897  -29.3433 S   0  0  0  0  0  0  0  0  0  0  0  0
   -1.4585  -52.2854  -30.3062 H   0  0  0  0  0  0  0  0  0  0  0  0
   -1.0202  -52.3966  -25.2406 C   0  0  0  0  0  0  0  0  0  0  0  0
   -0.0787  -52.1935  -24.1436 C   0  0  0  0  0  0  0  0  0  0  0  0
    1.0204  -51.3314  -24.2641 C   0  0  0  0  0  0  0  0  0  0  0  0
    1.8993  -51.1658  -23.2185 C   0  0  0  0  0  0  0  0  0  0  0  0
    1.7414  -51.8309  -22.0215 C   0  0  0  0  0  0  0  0  0  0  0  0
    0.6676  -52.6772  -21.8952 C   0  0  0  0  0  0  0  0  0  0  0  0
   -0.2365  -52.8562  -22.9525 C   0  0  0  0  0  0  0  0  0  0  0  0
  2  3  1  0  0  0
  3  4  2  0  0  0
  3  1  1  0  0  0
  1  6  1  0  0  0
  6  7  1  0  0  0
  1  9  1  0  0  0
  9 10  1  0  0  0
 10 11  2  0  0  0
 11 12  1  0  0  0
 12 13  2  0  0  0
 13 14  1  0  0  0
 14 15  2  0  0  0
 15 10  1  0  0  0
  2  5  1  0  0  0
  7  8  1  0  0  0
M  END
> <minimizedAffinity>
-5.25217

> <CNNscore>
0.3895072937

> <CNNaffinity>
4.3295936584

> <CNN_VS>
1.6864082813

> <CNNaffinity_variance>
0.1009048820

$$$$
[H]c1nc(N([H])c2c([H])c(N3C([H])([H])C([H])([H])OC([H])([H])C3([H])[H])c([H])c(N3C([H])([H])C([H])([H])OC([H])([H])C3([H])[H])c2[H])nc(N(c2c([H])c(N3C([H])([H])C([H])([H])OC([H])([H])C3([H])[H])c([H])c(C(F)(F)F)c2[H])C([H])([H])[H])c1[H]


 44 49  0  0  0  0  0  0  0  0999 V2000
    0.3096  -53.0793  -22.6596 C   0  0  0  0  0  0  0  0  0  0  0  0
   -0.7042  -53.8637  -23.1940 C   0  0  0  0  0  0  0  0  0  0  0  0
   -1.5041  -54.5739  -22.3351 C   0  0  0  0  0  0  0  0  0  0  0  0
   -1.2814  -54.4860  -21.0187 N   0  0  0  0  0  0  0  0  0  0  0  0
   -0.3071  -53.7346  -20.4666 C   0  0  0  0  0  0  0  0  0  0  0  0
    0.4736  -53.0362  -21.3547 N   0  0  0  0  0  0  0  0  0  0  0  0
    1.1303  -52.7976  -25.0309 C   0  0  0  0  0  0  0  0  0  0  0  0
    1.1374  -52.4220  -23.6280 N   0  0  0  0  0  0  0  0  0  0  0  0
    2.0005  -51.3988  -23.1814 C   0  0  0  0  0  0  0  0  0  0  0  0
    3.3733  -51.4371  -23.3364 C   0  0  0  0  0  0  0  0  0  0  0  0
    4.2052  -50.4289  -22.9122 C   0  0  0  0  0  0  0  0  0  0  0  0
    3.6065  -49.3302  -22.3004 C   0  0  0  0  0  0  0  0  0  0  0  0
    2.2549  -49.2383  -22.1193 C   0  0  0  0  0  0  0  0  0  0  0  0
    1.4785  -50.2892  -22.5702 C   0  0  0  0  0  0  0  0  0  0  0  0
    5.6157  -50.4730  -23.0433 N   0  0  0  0  0  0  0  0  0  0  0  0
    6.3556  -50.6326  -21.7964 C   0  0  0  0  0  0  0  0  0  0  0  0
    7.5974  -49.7726  -21.9411 C   0  0  0  0  0  0  0  0  0  0  0  0
    8.2716  -50.2519  -23.0502 O   0  0  0  0  0  0  0  0  0  0  0  0
    7.6810  -49.9723  -24.2599 C   0  0  0  0  0  0  0  0  0  0  0  0
    6.2204  -50.3607  -24.3201 C   0  0  0  0  0  0  0  0  0  0  0  0
    1.6212  -48.0558  -21.4572 C   0  0  0  0  0  0  0  0  0  0  0  0
    0.3719  -48.4330  -21.0190 F   0  0  0  0  0  0  0  0  0  0  0  0
    2.3564  -47.6773  -20.3482 F   0  0  0  0  0  0  0  0  0  0  0  0
    1.5713  -47.0656  -22.4097 F   0  0  0  0  0  0  0  0  0  0  0  0
   -0.0062  -53.7015  -19.1065 N   0  0  0  0  0  0  0  0  0  0  0  0
    0.6606  -54.4145  -18.7111 H   0  0  0  0  0  0  0  0  0  0  0  0
   -0.5276  -52.7795  -18.1814 C   0  0  0  0  0  0  0  0  0  0  0  0
   -1.6817  -53.0000  -17.4628 C   0  0  0  0  0  0  0  0  0  0  0  0
   -2.1428  -52.0751  -16.5429 C   0  0  0  0  0  0  0  0  0  0  0  0
   -1.4006  -50.9281  -16.3750 C   0  0  0  0  0  0  0  0  0  0  0  0
   -0.2296  -50.6355  -17.0585 C   0  0  0  0  0  0  0  0  0  0  0  0
    0.1888  -51.5749  -17.9586 C   0  0  0  0  0  0  0  0  0  0  0  0
    0.4576  -49.4554  -16.7712 N   0  0  0  0  0  0  0  0  0  0  0  0
    0.0385  -48.5606  -15.7195 C   0  0  0  0  0  0  0  0  0  0  0  0
    1.1848  -48.3983  -14.7237 C   0  0  0  0  0  0  0  0  0  0  0  0
    2.3888  -48.8541  -15.1518 O   0  0  0  0  0  0  0  0  0  0  0  0
    2.7564  -48.7548  -16.4496 C   0  0  0  0  0  0  0  0  0  0  0  0
    1.6659  -49.0439  -17.4728 C   0  0  0  0  0  0  0  0  0  0  0  0
   -3.3331  -52.2323  -15.7744 N   0  0  0  0  0  0  0  0  0  0  0  0
   -3.4225  -51.4262  -14.5409 C   0  0  0  0  0  0  0  0  0  0  0  0
   -3.6048  -52.3363  -13.3629 C   0  0  0  0  0  0  0  0  0  0  0  0
   -4.4334  -53.4170  -13.6626 O   0  0  0  0  0  0  0  0  0  0  0  0
   -5.2594  -53.1818  -14.7499 C   0  0  0  0  0  0  0  0  0  0  0  0
   -4.4243  -53.1003  -16.0359 C   0  0  0  0  0  0  0  0  0  0  0  0
  7  8  1  0  0  0
  8  1  1  0  0  0
  1  2  2  0  0  0
  2  3  1  0  0  0
  3  4  2  0  0  0
  4  5  1  0  0  0
  5 25  1  0  0  0
 25 27  1  0  0  0
 27 28  2  0  0  0
 28 29  1  0  0  0
 29 30  2  0  0  0
 30 31  1  0  0  0
 31 32  2  0  0  0
 31 33  1  0  0  0
 33 34  1  0  0  0
 34 35  1  0  0  0
 35 36  1  0  0  0
 36 37  1  0  0  0
 37 38  1  0  0  0
 29 39  1  0  0  0
 39 40  1  0  0  0
 40 41  1  0  0  0
 41 42  1  0  0  0
 42 43  1  0  0  0
 43 44  1  0  0  0
  5  6  2  0  0  0
  8  9  1  0  0  0
  9 10  2  0  0  0
 10 11  1  0  0  0
 11 12  2  0  0  0
 12 13  1  0  0  0
 13 14  2  0  0  0
 13 21  1  0  0  0
 21 22  1  0  0  0
 21 23  1  0  0  0
 21 24  1  0  0  0
 11 15  1  0  0  0
 15 16  1  0  0  0
 16 17  1  0  0  0
 17 18  1  0  0  0
 18 19  1  0  0  0
 19 20  1  0  0  0
  6  1  1  0  0  0
 14  9  1  0  0  0
 20 15  1  0  0  0
 32 27  1  0  0  0
 38 33  1  0  0  0
 44 39  1  0  0  0
 25 26  1  0  0  0
M  END
> <minimizedAffinity>
-8.73705

> <CNNscore>
0.7323521972

> <CNNaffinity>
7.6436624527

> <CNN_VS>
5.5978531837

> <CNNaffinity_variance>
0.0088375770

$$$$
[H]c1nc(N([H])c2c([H])c(N3C([H])([H])C([H])([H])OC([H])([H])C3([H])[H])c([H])c(N3C([H])([H])C([H])([H])OC([H])([H])C3([H])[H])c2[H])nc(N(c2c([H])c(N3C([H])([H])C([H])([H])OC([H])([H])C3([H])[H])c([H])c(C(F)(F)F)c2[H])C([H])([H])[H])c1[H]


 44 49  0  0  0  0  0  0  0  0999 V2000
    0.2672  -53.2528  -22.7484 C   0  0  0  0  0  0  0  0  0  0  0  0
   -0.8362  -53.9750  -23.1835 C   0  0  0  0  0  0  0  0  0  0  0  0
   -1.6473  -54.5601  -22.2445 C   0  0  0  0  0  0  0  0  0  0  0  0
   -1.3490  -54.4145  -20.9483 N   0  0  0  0  0  0  0  0  0  0  0  0
   -0.2867  -53.7205  -20.4916 C   0  0  0  0  0  0  0  0  0  0  0  0
    0.5027  -53.1473  -21.4582 N   0  0  0  0  0  0  0  0  0  0  0  0
    1.0760  -53.2749  -25.1404 C   0  0  0  0  0  0  0  0  0  0  0  0
    1.0958  -52.7293  -23.7947 N   0  0  0  0  0  0  0  0  0  0  0  0
    1.9725  -51.6685  -23.4819 C   0  0  0  0  0  0  0  0  0  0  0  0
    2.1975  -50.5926  -24.3197 C   0  0  0  0  0  0  0  0  0  0  0  0
    3.0413  -49.5561  -24.0003 C   0  0  0  0  0  0  0  0  0  0  0  0
    3.6859  -49.6221  -22.7675 C   0  0  0  0  0  0  0  0  0  0  0  0
    3.5027  -50.6616  -21.8992 C   0  0  0  0  0  0  0  0  0  0  0  0
    2.6399  -51.6702  -22.2854 C   0  0  0  0  0  0  0  0  0  0  0  0
    3.2980  -48.4631  -24.8653 N   0  0  0  0  0  0  0  0  0  0  0  0
    3.2848  -48.7757  -26.2900 C   0  0  0  0  0  0  0  0  0  0  0  0
    4.3896  -47.9375  -26.9060 C   0  0  0  0  0  0  0  0  0  0  0  0
    4.0759  -46.6194  -26.6255 O   0  0  0  0  0  0  0  0  0  0  0  0
    4.2375  -46.2463  -25.3121 C   0  0  0  0  0  0  0  0  0  0  0  0
    3.5496  -47.1733  -24.3346 C   0  0  0  0  0  0  0  0  0  0  0  0
    4.2028  -50.7258  -20.5786 C   0  0  0  0  0  0  0  0  0  0  0  0
    3.9752  -49.5393  -19.9187 F   0  0  0  0  0  0  0  0  0  0  0  0
    3.6726  -51.7427  -19.8049 F   0  0  0  0  0  0  0  0  0  0  0  0
    5.5332  -50.9277  -20.8606 F   0  0  0  0  0  0  0  0  0  0  0  0
    0.0869  -53.6338  -19.1521 N   0  0  0  0  0  0  0  0  0  0  0  0
    0.8144  -54.2975  -18.7785 H   0  0  0  0  0  0  0  0  0  0  0  0
   -0.4341  -52.7174  -18.2211 C   0  0  0  0  0  0  0  0  0  0  0  0
   -1.5897  -52.9408  -17.5060 C   0  0  0  0  0  0  0  0  0  0  0  0
   -2.0504  -52.0217  -16.5800 C   0  0  0  0  0  0  0  0  0  0  0  0
   -1.3061  -50.8775  -16.4026 C   0  0  0  0  0  0  0  0  0  0  0  0
   -0.1334  -50.5823  -17.0822 C   0  0  0  0  0  0  0  0  0  0  0  0
    0.2845  -51.5159  -17.9884 C   0  0  0  0  0  0  0  0  0  0  0  0
    0.5557  -49.4058  -16.7852 N   0  0  0  0  0  0  0  0  0  0  0  0
    0.1218  -48.5047  -15.7449 C   0  0  0  0  0  0  0  0  0  0  0  0
    1.2494  -48.3465  -14.7272 C   0  0  0  0  0  0  0  0  0  0  0  0
    2.4586  -48.8115  -15.1302 O   0  0  0  0  0  0  0  0  0  0  0  0
    2.8522  -48.7190  -16.4208 C   0  0  0  0  0  0  0  0  0  0  0  0
    1.7802  -49.0044  -17.4643 C   0  0  0  0  0  0  0  0  0  0  0  0
   -3.2422  -52.1821  -15.8146 N   0  0  0  0  0  0  0  0  0  0  0  0
   -3.3543  -51.3472  -14.6023 C   0  0  0  0  0  0  0  0  0  0  0  0
   -3.5267  -52.2309  -13.4028 C   0  0  0  0  0  0  0  0  0  0  0  0
   -4.3331  -53.3342  -13.6800 O   0  0  0  0  0  0  0  0  0  0  0  0
   -5.1566  -53.1419  -14.7774 C   0  0  0  0  0  0  0  0  0  0  0  0
   -4.3154  -53.0768  -16.0604 C   0  0  0  0  0  0  0  0  0  0  0  0
  7  8  1  0  0  0
  8  1  1  0  0  0
  1  2  2  0  0  0
  2  3  1  0  0  0
  3  4  2  0  0  0
  4  5  1  0  0  0
  5 25  1  0  0  0
 25 27  1  0  0  0
 27 28  2  0  0  0
 28 29  1  0  0  0
 29 30  2  0  0  0
 30 31  1  0  0  0
 31 32  2  0  0  0
 31 33  1  0  0  0
 33 34  1  0  0  0
 34 35  1  0  0  0
 35 36  1  0  0  0
 36 37  1  0  0  0
 37 38  1  0  0  0
 29 39  1  0  0  0
 39 40  1  0  0  0
 40 41  1  0  0  0
 41 42  1  0  0  0
 42 43  1  0  0  0
 43 44  1  0  0  0
  5  6  2  0  0  0
  8  9  1  0  0  0
  9 10  2  0  0  0
 10 11  1  0  0  0
 11 12  2  0  0  0
 12 13  1  0  0  0
 13 14  2  0  0  0
 13 21  1  0  0  0
 21 22  1  0  0  0
 21 23  1  0  0  0
 21 24  1  0  0  0
 11 15  1  0  0  0
 15 16  1  0  0  0
 16 17  1  0  0  0
 17 18  1  0  0  0
 18 19  1  0  0  0
 19 20  1  0  0  0
  6  1  1  0  0  0
 14  9  1  0  0  0
 20 15  1  0  0  0
 32 27  1  0  0  0
 38 33  1  0  0  0
 44 39  1  0  0  0
 25 26  1  0  0  0
M  END
> <minimizedAffinity>
-8.23017

> <CNNscore>
0.4932016730

> <CNNaffinity>
7.3917794228

> <CNN_VS>
3.6456379890

> <CNNaffinity_variance>
0.0197199620

$$$$
[H]c1nc(N([H])c2c([H])c(N3C([H])([H])C([H])([H])OC([H])([H])C3([H])[H])c([H])c(N3C([H])([H])C([H])([H])OC([H])([H])C3([H])[H])c2[H])nc(N(c2c([H])c(N3C([H])([H])C([H])([H])OC([H])([H])C3([H])[H])c([H])c(C(F)(F)F)c2[H])C([H])([H])[H])c1[H]


 44 49  0  0  0  0  0  0  0  0999 V2000
   -0.1022  -52.8906  -23.3434 C   0  0  0  0  0  0  0  0  0  0  0  0
   -0.6139  -54.0910  -23.8187 C   0  0  0  0  0  0  0  0  0  0  0  0
   -1.0674  -55.0143  -22.9111 C   0  0  0  0  0  0  0  0  0  0  0  0
   -1.0022  -54.7274  -21.6059 N   0  0  0  0  0  0  0  0  0  0  0  0
   -0.5121  -53.5727  -21.1105 C   0  0  0  0  0  0  0  0  0  0  0  0
   -0.0683  -52.6710  -22.0465 N   0  0  0  0  0  0  0  0  0  0  0  0
   -0.2760  -51.8106  -25.6192 C   0  0  0  0  0  0  0  0  0  0  0  0
    0.4077  -52.0105  -24.3536 N   0  0  0  0  0  0  0  0  0  0  0  0
    1.6282  -51.3472  -24.1045 C   0  0  0  0  0  0  0  0  0  0  0  0
    2.0251  -50.2040  -24.7721 C   0  0  0  0  0  0  0  0  0  0  0  0
    3.2086  -49.5556  -24.5122 C   0  0  0  0  0  0  0  0  0  0  0  0
    4.0250  -50.1010  -23.5244 C   0  0  0  0  0  0  0  0  0  0  0  0
    3.6847  -51.2296  -22.8327 C   0  0  0  0  0  0  0  0  0  0  0  0
    2.4797  -51.8302  -23.1460 C   0  0  0  0  0  0  0  0  0  0  0  0
    3.6350  -48.3986  -25.2110 N   0  0  0  0  0  0  0  0  0  0  0  0
    4.6307  -47.5838  -24.5238 C   0  0  0  0  0  0  0  0  0  0  0  0
    4.2716  -46.1431  -24.8372 C   0  0  0  0  0  0  0  0  0  0  0  0
    4.3152  -46.0256  -26.2151 O   0  0  0  0  0  0  0  0  0  0  0  0
    3.2906  -46.6480  -26.8881 C   0  0  0  0  0  0  0  0  0  0  0  0
    3.0979  -48.0935  -26.4864 C   0  0  0  0  0  0  0  0  0  0  0  0
    4.5701  -51.8105  -21.7760 C   0  0  0  0  0  0  0  0  0  0  0  0
    5.2149  -52.9013  -22.3141 F   0  0  0  0  0  0  0  0  0  0  0  0
    5.5378  -50.8939  -21.4055 F   0  0  0  0  0  0  0  0  0  0  0  0
    3.7455  -52.1468  -20.7286 F   0  0  0  0  0  0  0  0  0  0  0  0
   -0.3557  -53.2953  -19.7540 N   0  0  0  0  0  0  0  0  0  0  0  0
   -0.6024  -54.0362  -19.0472 H   0  0  0  0  0  0  0  0  0  0  0  0
    0.1117  -52.0803  -19.2220 C   0  0  0  0  0  0  0  0  0  0  0  0
    0.9649  -51.2373  -19.8987 C   0  0  0  0  0  0  0  0  0  0  0  0
    1.3776  -50.0378  -19.3460 C   0  0  0  0  0  0  0  0  0  0  0  0
    0.8994  -49.7222  -18.0944 C   0  0  0  0  0  0  0  0  0  0  0  0
    0.0379  -50.5166  -17.3523 C   0  0  0  0  0  0  0  0  0  0  0  0
   -0.3429  -51.6928  -17.9347 C   0  0  0  0  0  0  0  0  0  0  0  0
   -0.4111  -50.0688  -16.1093 N   0  0  0  0  0  0  0  0  0  0  0  0
    0.1155  -48.8780  -15.4872 C   0  0  0  0  0  0  0  0  0  0  0  0
   -1.0331  -47.9038  -15.2350 C   0  0  0  0  0  0  0  0  0  0  0  0
   -2.2759  -48.4338  -15.3590 O   0  0  0  0  0  0  0  0  0  0  0  0
   -2.5345  -49.7104  -14.9951 C   0  0  0  0  0  0  0  0  0  0  0  0
   -1.4645  -50.7332  -15.3540 C   0  0  0  0  0  0  0  0  0  0  0  0
    2.2668  -49.1242  -19.9836 N   0  0  0  0  0  0  0  0  0  0  0  0
    3.6206  -49.0219  -19.4039 C   0  0  0  0  0  0  0  0  0  0  0  0
    3.8808  -47.6033  -18.9927 C   0  0  0  0  0  0  0  0  0  0  0  0
    3.3367  -46.6907  -19.8959 O   0  0  0  0  0  0  0  0  0  0  0  0
    3.1195  -47.2345  -21.1515 C   0  0  0  0  0  0  0  0  0  0  0  0
    1.9915  -48.2743  -21.0857 C   0  0  0  0  0  0  0  0  0  0  0  0
  7  8  1  0  0  0
  8  1  1  0  0  0
  1  2  2  0  0  0
  2  3  1  0  0  0
  3  4  2  0  0  0
  4  5  1  0  0  0
  5 25  1  0  0  0
 25 27  1  0  0  0
 27 28  2  0  0  0
 28 29  1  0  0  0
 29 30  2  0  0  0
 30 31  1  0  0  0
 31 32  2  0  0  0
 31 33  1  0  0  0
 33 34  1  0  0  0
 34 35  1  0  0  0
 35 36  1  0  0  0
 36 37  1  0  0  0
 37 38  1  0  0  0
 29 39  1  0  0  0
 39 40  1  0  0  0
 40 41  1  0  0  0
 41 42  1  0  0  0
 42 43  1  0  0  0
 43 44  1  0  0  0
  5  6  2  0  0  0
  8  9  1  0  0  0
  9 10  2  0  0  0
 10 11  1  0  0  0
 11 12  2  0  0  0
 12 13  1  0  0  0
 13 14  2  0  0  0
 13 21  1  0  0  0
 21 22  1  0  0  0
 21 23  1  0  0  0
 21 24  1  0  0  0
 11 15  1  0  0  0
 15 16  1  0  0  0
 16 17  1  0  0  0
 17 18  1  0  0  0
 18 19  1  0  0  0
 19 20  1  0  0  0
  6  1  1  0  0  0
 14  9  1  0  0  0
 20 15  1  0  0  0
 32 27  1  0  0  0
 38 33  1  0  0  0
 44 39  1  0  0  0
 25 26  1  0  0  0
M  END
> <minimizedAffinity>
-8.28179

> <CNNscore>
0.4917510748

> <CNNaffinity>
7.3422913551

> <CNN_VS>
3.6105797291

> <CNNaffinity_variance>
0.0528666191

$$$$
[H]c1nc(N([H])c2c([H])c(N3C([H])([H])C([H])([H])OC([H])([H])C3([H])[H])c([H])c(N3C([H])([H])C([H])([H])OC([H])([H])C3([H])[H])c2[H])nc(N(c2c([H])c(N3C([H])([H])C([H])([H])OC([H])([H])C3([H])[H])c([H])c(C(F)(F)F)c2[H])C([H])([H])[H])c1[H]


 44 49  0  0  0  0  0  0  0  0999 V2000
   -0.0328  -53.0028  -23.7130 C   0  0  0  0  0  0  0  0  0  0  0  0
   -0.8107  -54.0757  -24.1282 C   0  0  0  0  0  0  0  0  0  0  0  0
   -1.1740  -55.0185  -23.2002 C   0  0  0  0  0  0  0  0  0  0  0  0
   -0.7691  -54.8718  -21.9334 N   0  0  0  0  0  0  0  0  0  0  0  0
   -0.0141  -53.8432  -21.4967 C   0  0  0  0  0  0  0  0  0  0  0  0
    0.3302  -52.9178  -22.4512 N   0  0  0  0  0  0  0  0  0  0  0  0
   -0.4994  -51.8294  -25.8997 C   0  0  0  0  0  0  0  0  0  0  0  0
    0.3549  -52.0997  -24.7568 N   0  0  0  0  0  0  0  0  0  0  0  0
    1.6219  -51.4845  -24.6684 C   0  0  0  0  0  0  0  0  0  0  0  0
    1.9784  -50.3646  -25.3956 C   0  0  0  0  0  0  0  0  0  0  0  0
    3.2094  -49.7626  -25.2918 C   0  0  0  0  0  0  0  0  0  0  0  0
    4.1190  -50.3318  -24.4038 C   0  0  0  0  0  0  0  0  0  0  0  0
    3.8221  -51.4392  -23.6597 C   0  0  0  0  0  0  0  0  0  0  0  0
    2.5651  -51.9930  -23.8147 C   0  0  0  0  0  0  0  0  0  0  0  0
    3.5919  -48.6305  -26.0537 N   0  0  0  0  0  0  0  0  0  0  0  0
    3.6469  -47.3713  -25.3196 C   0  0  0  0  0  0  0  0  0  0  0  0
    3.1338  -46.3127  -26.2781 C   0  0  0  0  0  0  0  0  0  0  0  0
    3.9723  -46.3494  -27.3782 O   0  0  0  0  0  0  0  0  0  0  0  0
    3.8284  -47.4518  -28.1870 C   0  0  0  0  0  0  0  0  0  0  0  0
    3.8867  -48.7621  -27.4337 C   0  0  0  0  0  0  0  0  0  0  0  0
    4.8072  -52.0460  -22.7114 C   0  0  0  0  0  0  0  0  0  0  0  0
    5.8903  -51.2006  -22.6249 F   0  0  0  0  0  0  0  0  0  0  0  0
    4.2545  -52.1477  -21.4473 F   0  0  0  0  0  0  0  0  0  0  0  0
    5.1352  -53.2743  -23.2349 F   0  0  0  0  0  0  0  0  0  0  0  0
    0.4890  -53.7226  -20.2029 N   0  0  0  0  0  0  0  0  0  0  0  0
    0.9158  -54.5658  -19.7378 H   0  0  0  0  0  0  0  0  0  0  0  0
    0.4773  -52.5456  -19.4333 C   0  0  0  0  0  0  0  0  0  0  0  0
   -0.3254  -52.3733  -18.3275 C   0  0  0  0  0  0  0  0  0  0  0  0
   -0.2836  -51.2071  -17.5842 C   0  0  0  0  0  0  0  0  0  0  0  0
    0.5933  -50.2286  -17.9944 C   0  0  0  0  0  0  0  0  0  0  0  0
    1.4335  -50.3282  -19.0936 C   0  0  0  0  0  0  0  0  0  0  0  0
    1.3585  -51.4955  -19.8003 C   0  0  0  0  0  0  0  0  0  0  0  0
    2.3100  -49.2826  -19.3859 N   0  0  0  0  0  0  0  0  0  0  0  0
    3.6243  -49.1961  -18.7964 C   0  0  0  0  0  0  0  0  0  0  0  0
    4.6655  -49.1710  -19.9132 C   0  0  0  0  0  0  0  0  0  0  0  0
    4.1715  -48.9453  -21.1565 O   0  0  0  0  0  0  0  0  0  0  0  0
    3.1180  -48.1206  -21.3546 C   0  0  0  0  0  0  0  0  0  0  0  0
    1.9964  -48.2176  -20.3288 C   0  0  0  0  0  0  0  0  0  0  0  0
   -1.0928  -50.9567  -16.4377 N   0  0  0  0  0  0  0  0  0  0  0  0
   -0.7034  -49.8006  -15.6063 C   0  0  0  0  0  0  0  0  0  0  0  0
   -0.4274  -50.2638  -14.2068 C   0  0  0  0  0  0  0  0  0  0  0  0
   -1.3119  -51.2641  -13.8049 O   0  0  0  0  0  0  0  0  0  0  0  0
   -2.4883  -51.2737  -14.5367 C   0  0  0  0  0  0  0  0  0  0  0  0
   -2.2048  -51.7102  -15.9813 C   0  0  0  0  0  0  0  0  0  0  0  0
  7  8  1  0  0  0
  8  1  1  0  0  0
  1  2  2  0  0  0
  2  3  1  0  0  0
  3  4  2  0  0  0
  4  5  1  0  0  0
  5 25  1  0  0  0
 25 27  1  0  0  0
 27 28  2  0  0  0
 28 29  1  0  0  0
 29 30  2  0  0  0
 30 31  1  0  0  0
 31 32  2  0  0  0
 31 33  1  0  0  0
 33 34  1  0  0  0
 34 35  1  0  0  0
 35 36  1  0  0  0
 36 37  1  0  0  0
 37 38  1  0  0  0
 29 39  1  0  0  0
 39 40  1  0  0  0
 40 41  1  0  0  0
 41 42  1  0  0  0
 42 43  1  0  0  0
 43 44  1  0  0  0
  5  6  2  0  0  0
  8  9  1  0  0  0
  9 10  2  0  0  0
 10 11  1  0  0  0
 11 12  2  0  0  0
 12 13  1  0  0  0
 13 14  2  0  0  0
 13 21  1  0  0  0
 21 22  1  0  0  0
 21 23  1  0  0  0
 21 24  1  0  0  0
 11 15  1  0  0  0
 15 16  1  0  0  0
 16 17  1  0  0  0
 17 18  1  0  0  0
 18 19  1  0  0  0
 19 20  1  0  0  0
  6  1  1  0  0  0
 14  9  1  0  0  0
 20 15  1  0  0  0
 32 27  1  0  0  0
 38 33  1  0  0  0
 44 39  1  0  0  0
 25 26  1  0  0  0
M  END
> <minimizedAffinity>
-8.52164

> <CNNscore>
0.4174633920

> <CNNaffinity>
7.4475183487

> <CNN_VS>
3.1090662479

> <CNNaffinity_variance>
0.0832606331

$$$$
[H]c1nc(N([H])c2c([H])c(N3C([H])([H])C([H])([H])OC([H])([H])C3([H])[H])c([H])c(N3C([H])([H])C([H])([H])OC([H])([H])C3([H])[H])c2[H])nc(N(c2c([H])c(N3C([H])([H])C([H])([H])OC([H])([H])C3([H])[H])c([H])c(C(F)(F)F)c2[H])C([H])([H])[H])c1[H]


 44 49  0  0  0  0  0  0  0  0999 V2000
    0.0883  -52.9140  -23.1126 C   0  0  0  0  0  0  0  0  0  0  0  0
   -0.7263  -53.9079  -23.6392 C   0  0  0  0  0  0  0  0  0  0  0  0
   -1.2516  -54.8443  -22.7853 C   0  0  0  0  0  0  0  0  0  0  0  0
   -0.9630  -54.7674  -21.4810 N   0  0  0  0  0  0  0  0  0  0  0  0
   -0.1768  -53.8164  -20.9368 C   0  0  0  0  0  0  0  0  0  0  0  0
    0.3309  -52.8950  -21.8195 N   0  0  0  0  0  0  0  0  0  0  0  0
   -0.0268  -51.7161  -25.3324 C   0  0  0  0  0  0  0  0  0  0  0  0
    0.6460  -52.0159  -24.0808 N   0  0  0  0  0  0  0  0  0  0  0  0
    1.9024  -51.4356  -23.8046 C   0  0  0  0  0  0  0  0  0  0  0  0
    2.0587  -50.1561  -23.3062 C   0  0  0  0  0  0  0  0  0  0  0  0
    3.2856  -49.6044  -23.0254 C   0  0  0  0  0  0  0  0  0  0  0  0
    4.4054  -50.3969  -23.2657 C   0  0  0  0  0  0  0  0  0  0  0  0
    4.3116  -51.6682  -23.7587 C   0  0  0  0  0  0  0  0  0  0  0  0
    3.0459  -52.1593  -24.0186 C   0  0  0  0  0  0  0  0  0  0  0  0
    3.4555  -48.2838  -22.5397 N   0  0  0  0  0  0  0  0  0  0  0  0
    2.2453  -47.4704  -22.5011 C   0  0  0  0  0  0  0  0  0  0  0  0
    2.6775  -46.0698  -22.8935 C   0  0  0  0  0  0  0  0  0  0  0  0
    3.6316  -45.6869  -21.9675 O   0  0  0  0  0  0  0  0  0  0  0  0
    4.8462  -46.3208  -22.0827 C   0  0  0  0  0  0  0  0  0  0  0  0
    4.7351  -47.8285  -22.1351 C   0  0  0  0  0  0  0  0  0  0  0  0
    5.5206  -52.5106  -24.0175 C   0  0  0  0  0  0  0  0  0  0  0  0
    6.6351  -51.7481  -23.7501 F   0  0  0  0  0  0  0  0  0  0  0  0
    5.5406  -53.5954  -23.1593 F   0  0  0  0  0  0  0  0  0  0  0  0
    5.4450  -52.8930  -25.3359 F   0  0  0  0  0  0  0  0  0  0  0  0
    0.2043  -53.7742  -19.5972 N   0  0  0  0  0  0  0  0  0  0  0  0
    0.7375  -54.5860  -19.1898 H   0  0  0  0  0  0  0  0  0  0  0  0
   -0.0669  -52.7186  -18.7084 C   0  0  0  0  0  0  0  0  0  0  0  0
   -1.1059  -52.7394  -17.8047 C   0  0  0  0  0  0  0  0  0  0  0  0
   -1.3185  -51.6883  -16.9303 C   0  0  0  0  0  0  0  0  0  0  0  0
   -0.4489  -50.6237  -17.0002 C   0  0  0  0  0  0  0  0  0  0  0  0
    0.6196  -50.5303  -17.8799 C   0  0  0  0  0  0  0  0  0  0  0  0
    0.7919  -51.5889  -18.7267 C   0  0  0  0  0  0  0  0  0  0  0  0
    1.4576  -49.4157  -17.8277 N   0  0  0  0  0  0  0  0  0  0  0  0
    1.8125  -48.7808  -16.5814 C   0  0  0  0  0  0  0  0  0  0  0  0
    3.3326  -48.7953  -16.4356 C   0  0  0  0  0  0  0  0  0  0  0  0
    4.0168  -49.1075  -17.5648 O   0  0  0  0  0  0  0  0  0  0  0  0
    3.5749  -48.7211  -18.7833 C   0  0  0  0  0  0  0  0  0  0  0  0
    2.0719  -48.8226  -19.0077 C   0  0  0  0  0  0  0  0  0  0  0  0
   -2.3787  -51.6379  -15.9788 N   0  0  0  0  0  0  0  0  0  0  0  0
   -2.1889  -50.7163  -14.8413 C   0  0  0  0  0  0  0  0  0  0  0  0
   -2.2665  -51.4871  -13.5571 C   0  0  0  0  0  0  0  0  0  0  0  0
   -3.2341  -52.4899  -13.6089 O   0  0  0  0  0  0  0  0  0  0  0  0
   -4.1977  -52.2640  -14.5784 C   0  0  0  0  0  0  0  0  0  0  0  0
   -3.5773  -52.3969  -15.9767 C   0  0  0  0  0  0  0  0  0  0  0  0
  7  8  1  0  0  0
  8  1  1  0  0  0
  1  2  2  0  0  0
  2  3  1  0  0  0
  3  4  2  0  0  0
  4  5  1  0  0  0
  5 25  1  0  0  0
 25 27  1  0  0  0
 27 28  2  0  0  0
 28 29  1  0  0  0
 29 30  2  0  0  0
 30 31  1  0  0  0
 31 32  2  0  0  0
 31 33  1  0  0  0
 33 34  1  0  0  0
 34 35  1  0  0  0
 35 36  1  0  0  0
 36 37  1  0  0  0
 37 38  1  0  0  0
 29 39  1  0  0  0
 39 40  1  0  0  0
 40 41  1  0  0  0
 41 42  1  0  0  0
 42 43  1  0  0  0
 43 44  1  0  0  0
  5  6  2  0  0  0
  8  9  1  0  0  0
  9 10  2  0  0  0
 10 11  1  0  0  0
 11 12  2  0  0  0
 12 13  1  0  0  0
 13 14  2  0  0  0
 13 21  1  0  0  0
 21 22  1  0  0  0
 21 23  1  0  0  0
 21 24  1  0  0  0
 11 15  1  0  0  0
 15 16  1  0  0  0
 16 17  1  0  0  0
 17 18  1  0  0  0
 18 19  1  0  0  0
 19 20  1  0  0  0
  6  1  1  0  0  0
 14  9  1  0  0  0
 20 15  1  0  0  0
 32 27  1  0  0  0
 38 33  1  0  0  0
 44 39  1  0  0  0
 25 26  1  0  0  0
M  END
> <minimizedAffinity>
-8.34004

> <CNNscore>
0.3916008174

> <CNNaffinity>
7.2668051720

> <CNN_VS>
2.8456869125

> <CNNaffinity_variance>
0.0479736738

$$$$
[H]c1nc(N([H])c2c([H])c(N3C([H])([H])C([H])([H])OC([H])([H])C3([H])[H])c([H])c(N3C([H])([H])C([H])([H])OC([H])([H])C3([H])[H])c2[H])nc(N(c2c([H])c(N3C([H])([H])C([H])([H])OC([H])([H])C3([H])[H])c([H])c(C(F)(F)F)c2[H])C([H])([H])[H])c1[H]


 44 49  0  0  0  0  0  0  0  0999 V2000
    1.7484  -52.0103  -23.8042 C   0  0  0  0  0  0  0  0  0  0  0  0
    0.6398  -52.3584  -24.5646 C   0  0  0  0  0  0  0  0  0  0  0  0
   -0.4563  -52.8781  -23.9240 C   0  0  0  0  0  0  0  0  0  0  0  0
   -0.4197  -53.0299  -22.5951 N   0  0  0  0  0  0  0  0  0  0  0  0
    0.6392  -52.7024  -21.8269 C   0  0  0  0  0  0  0  0  0  0  0  0
    1.7181  -52.1840  -22.5002 N   0  0  0  0  0  0  0  0  0  0  0  0
    3.8386  -52.4404  -25.1540 C   0  0  0  0  0  0  0  0  0  0  0  0
    2.8716  -51.5355  -24.5581 N   0  0  0  0  0  0  0  0  0  0  0  0
    3.0426  -50.1411  -24.6913 C   0  0  0  0  0  0  0  0  0  0  0  0
    3.1001  -49.4927  -25.9105 C   0  0  0  0  0  0  0  0  0  0  0  0
    3.2513  -48.1321  -26.0308 C   0  0  0  0  0  0  0  0  0  0  0  0
    3.3489  -47.3997  -24.8502 C   0  0  0  0  0  0  0  0  0  0  0  0
    3.2995  -47.9869  -23.6170 C   0  0  0  0  0  0  0  0  0  0  0  0
    3.1462  -49.3599  -23.5705 C   0  0  0  0  0  0  0  0  0  0  0  0
    3.3383  -47.4631  -27.2772 N   0  0  0  0  0  0  0  0  0  0  0  0
    4.1775  -48.1117  -28.2786 C   0  0  0  0  0  0  0  0  0  0  0  0
    4.8816  -46.9882  -29.0165 C   0  0  0  0  0  0  0  0  0  0  0  0
    3.8837  -46.1975  -29.5583 O   0  0  0  0  0  0  0  0  0  0  0  0
    3.1782  -45.4426  -28.6513 C   0  0  0  0  0  0  0  0  0  0  0  0
    2.6426  -46.2464  -27.4872 C   0  0  0  0  0  0  0  0  0  0  0  0
    3.4093  -47.1923  -22.3542 C   0  0  0  0  0  0  0  0  0  0  0  0
    4.7460  -47.0418  -22.0615 F   0  0  0  0  0  0  0  0  0  0  0  0
    2.8766  -45.9287  -22.5362 F   0  0  0  0  0  0  0  0  0  0  0  0
    2.7343  -47.9068  -21.3930 F   0  0  0  0  0  0  0  0  0  0  0  0
    0.7264  -52.9360  -20.4561 N   0  0  0  0  0  0  0  0  0  0  0  0
    0.5469  -53.9067  -20.0887 H   0  0  0  0  0  0  0  0  0  0  0  0
    1.0377  -51.9674  -19.4851 C   0  0  0  0  0  0  0  0  0  0  0  0
    2.2146  -51.2522  -19.4811 C   0  0  0  0  0  0  0  0  0  0  0  0
    2.4664  -50.2889  -18.5202 C   0  0  0  0  0  0  0  0  0  0  0  0
    1.4927  -50.0746  -17.5712 C   0  0  0  0  0  0  0  0  0  0  0  0
    0.2836  -50.7518  -17.5103 C   0  0  0  0  0  0  0  0  0  0  0  0
    0.0768  -51.6955  -18.4768 C   0  0  0  0  0  0  0  0  0  0  0  0
   -0.6431  -50.4164  -16.5223 N   0  0  0  0  0  0  0  0  0  0  0  0
   -1.6210  -51.3597  -16.0362 C   0  0  0  0  0  0  0  0  0  0  0  0
   -1.4398  -51.5257  -14.5290 C   0  0  0  0  0  0  0  0  0  0  0  0
   -0.6512  -50.5936  -13.9373 O   0  0  0  0  0  0  0  0  0  0  0  0
   -0.6389  -49.3104  -14.3647 C   0  0  0  0  0  0  0  0  0  0  0  0
   -0.6826  -49.1126  -15.8742 C   0  0  0  0  0  0  0  0  0  0  0  0
    3.6651  -49.5207  -18.4488 N   0  0  0  0  0  0  0  0  0  0  0  0
    3.7609  -48.5671  -17.3260 C   0  0  0  0  0  0  0  0  0  0  0  0
    3.9608  -47.1817  -17.8645 C   0  0  0  0  0  0  0  0  0  0  0  0
    4.7938  -47.1724  -18.9827 O   0  0  0  0  0  0  0  0  0  0  0  0
    5.6076  -48.2908  -19.0619 C   0  0  0  0  0  0  0  0  0  0  0  0
    4.7597  -49.5379  -19.3512 C   0  0  0  0  0  0  0  0  0  0  0  0
  7  8  1  0  0  0
  8  1  1  0  0  0
  1  2  2  0  0  0
  2  3  1  0  0  0
  3  4  2  0  0  0
  4  5  1  0  0  0
  5 25  1  0  0  0
 25 27  1  0  0  0
 27 28  2  0  0  0
 28 29  1  0  0  0
 29 30  2  0  0  0
 30 31  1  0  0  0
 31 32  2  0  0  0
 31 33  1  0  0  0
 33 34  1  0  0  0
 34 35  1  0  0  0
 35 36  1  0  0  0
 36 37  1  0  0  0
 37 38  1  0  0  0
 29 39  1  0  0  0
 39 40  1  0  0  0
 40 41  1  0  0  0
 41 42  1  0  0  0
 42 43  1  0  0  0
 43 44  1  0  0  0
  5  6  2  0  0  0
  8  9  1  0  0  0
  9 10  2  0  0  0
 10 11  1  0  0  0
 11 12  2  0  0  0
 12 13  1  0  0  0
 13 14  2  0  0  0
 13 21  1  0  0  0
 21 22  1  0  0  0
 21 23  1  0  0  0
 21 24  1  0  0  0
 11 15  1  0  0  0
 15 16  1  0  0  0
 16 17  1  0  0  0
 17 18  1  0  0  0
 18 19  1  0  0  0
 19 20  1  0  0  0
  6  1  1  0  0  0
 14  9  1  0  0  0
 20 15  1  0  0  0
 32 27  1  0  0  0
 38 33  1  0  0  0
 44 39  1  0  0  0
 25 26  1  0  0  0
M  END
> <minimizedAffinity>
-7.30544

> <CNNscore>
0.1351252347

> <CNNaffinity>
6.8426160812

> <CNN_VS>
0.9246100783

> <CNNaffinity_variance>
0.0717874542

$$$$
[H]c1nc(N([H])c2c([H])c(N3C([H])([H])C([H])([H])OC([H])([H])C3([H])[H])c([H])c(N3C([H])([H])C([H])([H])OC([H])([H])C3([H])[H])c2[H])nc(N(c2c([H])c(N3C([H])([H])C([H])([H])OC([H])([H])C3([H])[H])c([H])c(C(F)(F)F)c2[H])C([H])([H])[H])c1[H]


 44 49  0  0  0  0  0  0  0  0999 V2000
   -0.1808  -53.2880  -22.1725 C   0  0  0  0  0  0  0  0  0  0  0  0
   -0.0929  -54.2052  -21.1335 C   0  0  0  0  0  0  0  0  0  0  0  0
    0.1152  -53.7353  -19.8615 C   0  0  0  0  0  0  0  0  0  0  0  0
    0.2248  -52.4160  -19.6670 N   0  0  0  0  0  0  0  0  0  0  0  0
    0.1442  -51.4986  -20.6521 C   0  0  0  0  0  0  0  0  0  0  0  0
   -0.0658  -52.0034  -21.9119 N   0  0  0  0  0  0  0  0  0  0  0  0
   -1.2162  -54.9940  -23.7196 C   0  0  0  0  0  0  0  0  0  0  0  0
   -0.3347  -53.8659  -23.4754 N   0  0  0  0  0  0  0  0  0  0  0  0
    0.4232  -53.3267  -24.5367 C   0  0  0  0  0  0  0  0  0  0  0  0
    1.6407  -52.6967  -24.3614 C   0  0  0  0  0  0  0  0  0  0  0  0
    2.3796  -52.1882  -25.4026 C   0  0  0  0  0  0  0  0  0  0  0  0
    1.8494  -52.3294  -26.6827 C   0  0  0  0  0  0  0  0  0  0  0  0
    0.6501  -52.9420  -26.9160 C   0  0  0  0  0  0  0  0  0  0  0  0
   -0.0397  -53.4301  -25.8221 C   0  0  0  0  0  0  0  0  0  0  0  0
    3.6157  -51.5171  -25.2284 N   0  0  0  0  0  0  0  0  0  0  0  0
    4.6759  -52.3074  -24.6128 C   0  0  0  0  0  0  0  0  0  0  0  0
    5.4308  -51.3510  -23.7084 C   0  0  0  0  0  0  0  0  0  0  0  0
    5.8992  -50.3367  -24.5247 O   0  0  0  0  0  0  0  0  0  0  0  0
    4.9388  -49.4703  -24.9909 C   0  0  0  0  0  0  0  0  0  0  0  0
    3.7619  -50.1677  -25.6362 C   0  0  0  0  0  0  0  0  0  0  0  0
    0.0867  -53.0854  -28.2944 C   0  0  0  0  0  0  0  0  0  0  0  0
   -0.6723  -54.2335  -28.3261 F   0  0  0  0  0  0  0  0  0  0  0  0
   -0.7509  -52.0227  -28.5820 F   0  0  0  0  0  0  0  0  0  0  0  0
    1.1657  -53.1407  -29.1447 F   0  0  0  0  0  0  0  0  0  0  0  0
    0.3441  -50.1306  -20.4794 N   0  0  0  0  0  0  0  0  0  0  0  0
   -0.2195  -49.4530  -21.0561 H   0  0  0  0  0  0  0  0  0  0  0  0
    1.2584  -49.5501  -19.5823 C   0  0  0  0  0  0  0  0  0  0  0  0
    1.0484  -49.4893  -18.2225 C   0  0  0  0  0  0  0  0  0  0  0  0
    1.9892  -48.9323  -17.3746 C   0  0  0  0  0  0  0  0  0  0  0  0
    3.1425  -48.4437  -17.9455 C   0  0  0  0  0  0  0  0  0  0  0  0
    3.4269  -48.4703  -19.3029 C   0  0  0  0  0  0  0  0  0  0  0  0
    2.4702  -49.0272  -20.1041 C   0  0  0  0  0  0  0  0  0  0  0  0
    4.6514  -47.9799  -19.7584 N   0  0  0  0  0  0  0  0  0  0  0  0
    5.9101  -48.4617  -19.2428 C   0  0  0  0  0  0  0  0  0  0  0  0
    6.7364  -49.0191  -20.3998 C   0  0  0  0  0  0  0  0  0  0  0  0
    6.2835  -48.6989  -21.6380 O   0  0  0  0  0  0  0  0  0  0  0  0
    5.7082  -47.5006  -21.8873 C   0  0  0  0  0  0  0  0  0  0  0  0
    4.7693  -46.9772  -20.8083 C   0  0  0  0  0  0  0  0  0  0  0  0
    1.8330  -48.8258  -15.9617 N   0  0  0  0  0  0  0  0  0  0  0  0
    3.0782  -48.8065  -15.1689 C   0  0  0  0  0  0  0  0  0  0  0  0
    3.0629  -49.9421  -14.1894 C   0  0  0  0  0  0  0  0  0  0  0  0
    1.7912  -50.1555  -13.6586 O   0  0  0  0  0  0  0  0  0  0  0  0
    0.9700  -49.0438  -13.7550 C   0  0  0  0  0  0  0  0  0  0  0  0
    0.6211  -48.7744  -15.2259 C   0  0  0  0  0  0  0  0  0  0  0  0
  7  8  1  0  0  0
  8  1  1  0  0  0
  1  2  2  0  0  0
  2  3  1  0  0  0
  3  4  2  0  0  0
  4  5  1  0  0  0
  5 25  1  0  0  0
 25 27  1  0  0  0
 27 28  2  0  0  0
 28 29  1  0  0  0
 29 30  2  0  0  0
 30 31  1  0  0  0
 31 32  2  0  0  0
 31 33  1  0  0  0
 33 34  1  0  0  0
 34 35  1  0  0  0
 35 36  1  0  0  0
 36 37  1  0  0  0
 37 38  1  0  0  0
 29 39  1  0  0  0
 39 40  1  0  0  0
 40 41  1  0  0  0
 41 42  1  0  0  0
 42 43  1  0  0  0
 43 44  1  0  0  0
  5  6  2  0  0  0
  8  9  1  0  0  0
  9 10  2  0  0  0
 10 11  1  0  0  0
 11 12  2  0  0  0
 12 13  1  0  0  0
 13 14  2  0  0  0
 13 21  1  0  0  0
 21 22  1  0  0  0
 21 23  1  0  0  0
 21 24  1  0  0  0
 11 15  1  0  0  0
 15 16  1  0  0  0
 16 17  1  0  0  0
 17 18  1  0  0  0
 18 19  1  0  0  0
 19 20  1  0  0  0
  6  1  1  0  0  0
 14  9  1  0  0  0
 20 15  1  0  0  0
 32 27  1  0  0  0
 38 33  1  0  0  0
 44 39  1  0  0  0
 25 26  1  0  0  0
M  END
> <minimizedAffinity>
-8.11635

> <CNNscore>
0.1192801818

> <CNNaffinity>
6.8126878738

> <CNN_VS>
0.8126186728

> <CNNaffinity_variance>
0.4092221260

$$$$
[H]c1nc(N([H])c2c([H])c(N3C([H])([H])C([H])([H])OC([H])([H])C3([H])[H])c([H])c(N3C([H])([H])C([H])([H])OC([H])([H])C3([H])[H])c2[H])nc(N(c2c([H])c(N3C([H])([H])C([H])([H])OC([H])([H])C3([H])[H])c([H])c(C(F)(F)F)c2[H])C([H])([H])[H])c1[H]


 44 49  0  0  0  0  0  0  0  0999 V2000
    1.3888  -52.4459  -25.1207 C   0  0  0  0  0  0  0  0  0  0  0  0
    0.5121  -52.6721  -26.1738 C   0  0  0  0  0  0  0  0  0  0  0  0
   -0.7481  -53.1330  -25.8888 C   0  0  0  0  0  0  0  0  0  0  0  0
   -1.0877  -53.3467  -24.6124 N   0  0  0  0  0  0  0  0  0  0  0  0
   -0.2622  -53.1375  -23.5667 C   0  0  0  0  0  0  0  0  0  0  0  0
    0.9905  -52.6751  -23.8878 N   0  0  0  0  0  0  0  0  0  0  0  0
    3.4471  -52.6980  -26.5614 C   0  0  0  0  0  0  0  0  0  0  0  0
    2.7033  -52.0269  -25.5100 N   0  0  0  0  0  0  0  0  0  0  0  0
    3.2886  -50.9440  -24.8199 C   0  0  0  0  0  0  0  0  0  0  0  0
    2.9969  -49.6203  -25.0898 C   0  0  0  0  0  0  0  0  0  0  0  0
    3.5600  -48.5721  -24.4022 C   0  0  0  0  0  0  0  0  0  0  0  0
    4.4639  -48.8913  -23.3918 C   0  0  0  0  0  0  0  0  0  0  0  0
    4.7912  -50.1815  -23.0817 C   0  0  0  0  0  0  0  0  0  0  0  0
    4.1869  -51.1861  -23.8142 C   0  0  0  0  0  0  0  0  0  0  0  0
    3.2866  -47.2118  -24.6910 N   0  0  0  0  0  0  0  0  0  0  0  0
    3.4221  -46.8298  -26.0922 C   0  0  0  0  0  0  0  0  0  0  0  0
    4.0183  -45.4344  -26.0830 C   0  0  0  0  0  0  0  0  0  0  0  0
    3.1323  -44.6409  -25.3760 O   0  0  0  0  0  0  0  0  0  0  0  0
    3.1010  -44.8642  -24.0197 C   0  0  0  0  0  0  0  0  0  0  0  0
    2.9149  -46.3201  -23.6541 C   0  0  0  0  0  0  0  0  0  0  0  0
    5.7665  -50.5145  -21.9972 C   0  0  0  0  0  0  0  0  0  0  0  0
    5.8111  -49.4509  -21.1243 F   0  0  0  0  0  0  0  0  0  0  0  0
    5.3336  -51.6200  -21.2872 F   0  0  0  0  0  0  0  0  0  0  0  0
    6.9709  -50.7376  -22.6215 F   0  0  0  0  0  0  0  0  0  0  0  0
   -0.5698  -53.4385  -22.2414 N   0  0  0  0  0  0  0  0  0  0  0  0
   -1.1440  -54.2958  -22.0302 H   0  0  0  0  0  0  0  0  0  0  0  0
   -0.1769  -52.6804  -21.1240 C   0  0  0  0  0  0  0  0  0  0  0  0
    0.7184  -51.6364  -21.1956 C   0  0  0  0  0  0  0  0  0  0  0  0
    1.0552  -50.9006  -20.0733 C   0  0  0  0  0  0  0  0  0  0  0  0
    0.4580  -51.2540  -18.8846 C   0  0  0  0  0  0  0  0  0  0  0  0
   -0.4525  -52.2894  -18.7328 C   0  0  0  0  0  0  0  0  0  0  0  0
   -0.7553  -52.9910  -19.8658 C   0  0  0  0  0  0  0  0  0  0  0  0
   -1.0224  -52.5258  -17.4812 N   0  0  0  0  0  0  0  0  0  0  0  0
   -0.3926  -52.0917  -16.2575 C   0  0  0  0  0  0  0  0  0  0  0  0
   -1.3521  -51.1690  -15.5091 C   0  0  0  0  0  0  0  0  0  0  0  0
   -2.6315  -51.1796  -15.9606 O   0  0  0  0  0  0  0  0  0  0  0  0
   -3.1994  -52.3114  -16.4355 C   0  0  0  0  0  0  0  0  0  0  0  0
   -2.3059  -53.1904  -17.3008 C   0  0  0  0  0  0  0  0  0  0  0  0
    1.9813  -49.8170  -20.0722 N   0  0  0  0  0  0  0  0  0  0  0  0
    3.1930  -49.9973  -19.2486 C   0  0  0  0  0  0  0  0  0  0  0  0
    3.2721  -48.8983  -18.2311 C   0  0  0  0  0  0  0  0  0  0  0  0
    2.8432  -47.6767  -18.7491 O   0  0  0  0  0  0  0  0  0  0  0  0
    2.9021  -47.6237  -20.1323 C   0  0  0  0  0  0  0  0  0  0  0  0
    1.8571  -48.5710  -20.7393 C   0  0  0  0  0  0  0  0  0  0  0  0
  7  8  1  0  0  0
  8  1  1  0  0  0
  1  2  2  0  0  0
  2  3  1  0  0  0
  3  4  2  0  0  0
  4  5  1  0  0  0
  5 25  1  0  0  0
 25 27  1  0  0  0
 27 28  2  0  0  0
 28 29  1  0  0  0
 29 30  2  0  0  0
 30 31  1  0  0  0
 31 32  2  0  0  0
 31 33  1  0  0  0
 33 34  1  0  0  0
 34 35  1  0  0  0
 35 36  1  0  0  0
 36 37  1  0  0  0
 37 38  1  0  0  0
 29 39  1  0  0  0
 39 40  1  0  0  0
 40 41  1  0  0  0
 41 42  1  0  0  0
 42 43  1  0  0  0
 43 44  1  0  0  0
  5  6  2  0  0  0
  8  9  1  0  0  0
  9 10  2  0  0  0
 10 11  1  0  0  0
 11 12  2  0  0  0
 12 13  1  0  0  0
 13 14  2  0  0  0
 13 21  1  0  0  0
 21 22  1  0  0  0
 21 23  1  0  0  0
 21 24  1  0  0  0
 11 15  1  0  0  0
 15 16  1  0  0  0
 16 17  1  0  0  0
 17 18  1  0  0  0
 18 19  1  0  0  0
 19 20  1  0  0  0
  6  1  1  0  0  0
 14  9  1  0  0  0
 20 15  1  0  0  0
 32 27  1  0  0  0
 38 33  1  0  0  0
 44 39  1  0  0  0
 25 26  1  0  0  0
M  END
> <minimizedAffinity>
-7.95957

> <CNNscore>
0.1176055148

> <CNNaffinity>
7.2168378830

> <CNN_VS>
0.8487399220

> <CNNaffinity_variance>
0.0978365317

$$$$
[H]c1nc(N([H])c2c([H])c(N3C([H])([H])C([H])([H])OC([H])([H])C3([H])[H])c([H])c(N3C([H])([H])C([H])([H])OC([H])([H])C3([H])[H])c2[H])nc(N(c2c([H])c(N3C([H])([H])C([H])([H])OC([H])([H])C3([H])[H])c([H])c(C(F)(F)F)c2[H])C([H])([H])[H])c1[H]


 44 49  0  0  0  0  0  0  0  0999 V2000
    0.4498  -52.9703  -25.2027 C   0  0  0  0  0  0  0  0  0  0  0  0
    0.1574  -54.3107  -25.4180 C   0  0  0  0  0  0  0  0  0  0  0  0
   -0.5478  -54.9894  -24.4567 C   0  0  0  0  0  0  0  0  0  0  0  0
   -0.9282  -54.3393  -23.3508 N   0  0  0  0  0  0  0  0  0  0  0  0
   -0.6616  -53.0394  -23.1101 C   0  0  0  0  0  0  0  0  0  0  0  0
    0.0444  -52.3906  -24.0933 N   0  0  0  0  0  0  0  0  0  0  0  0
    0.9841  -52.5709  -27.6381 C   0  0  0  0  0  0  0  0  0  0  0  0
    1.2434  -52.3546  -26.2256 N   0  0  0  0  0  0  0  0  0  0  0  0
    2.3239  -51.5381  -25.8290 C   0  0  0  0  0  0  0  0  0  0  0  0
    2.4583  -50.2149  -26.2049 C   0  0  0  0  0  0  0  0  0  0  0  0
    3.5059  -49.4225  -25.8012 C   0  0  0  0  0  0  0  0  0  0  0  0
    4.4614  -50.0095  -24.9753 C   0  0  0  0  0  0  0  0  0  0  0  0
    4.3809  -51.3131  -24.5726 C   0  0  0  0  0  0  0  0  0  0  0  0
    3.3003  -52.0519  -25.0167 C   0  0  0  0  0  0  0  0  0  0  0  0
    3.6649  -48.0730  -26.2042 N   0  0  0  0  0  0  0  0  0  0  0  0
    3.8201  -47.1099  -25.1198 C   0  0  0  0  0  0  0  0  0  0  0  0
    3.0663  -45.8687  -25.5600 C   0  0  0  0  0  0  0  0  0  0  0  0
    3.6497  -45.4640  -26.7476 O   0  0  0  0  0  0  0  0  0  0  0  0
    3.3847  -46.2658  -27.8326 C   0  0  0  0  0  0  0  0  0  0  0  0
    3.6619  -47.7311  -27.5795 C   0  0  0  0  0  0  0  0  0  0  0  0
    5.4144  -51.9362  -23.6884 C   0  0  0  0  0  0  0  0  0  0  0  0
    6.1926  -50.9271  -23.1676 F   0  0  0  0  0  0  0  0  0  0  0  0
    4.8084  -52.5861  -22.6283 F   0  0  0  0  0  0  0  0  0  0  0  0
    6.1298  -52.7984  -24.4854 F   0  0  0  0  0  0  0  0  0  0  0  0
   -0.9729  -52.3724  -21.9271 N   0  0  0  0  0  0  0  0  0  0  0  0
   -1.9832  -52.2635  -21.6502 H   0  0  0  0  0  0  0  0  0  0  0  0
   -0.0366  -51.8098  -21.0412 C   0  0  0  0  0  0  0  0  0  0  0  0
    1.1157  -51.1813  -21.4582 C   0  0  0  0  0  0  0  0  0  0  0  0
    1.9954  -50.6182  -20.5507 C   0  0  0  0  0  0  0  0  0  0  0  0
    1.6706  -50.7108  -19.2163 C   0  0  0  0  0  0  0  0  0  0  0  0
    0.5303  -51.3249  -18.7196 C   0  0  0  0  0  0  0  0  0  0  0  0
   -0.3098  -51.8693  -19.6499 C   0  0  0  0  0  0  0  0  0  0  0  0
    0.2896  -51.3190  -17.3451 N   0  0  0  0  0  0  0  0  0  0  0  0
    1.0677  -50.5150  -16.4338 C   0  0  0  0  0  0  0  0  0  0  0  0
    0.1294  -49.5738  -15.6815 C   0  0  0  0  0  0  0  0  0  0  0  0
   -1.1906  -49.8680  -15.7903 O   0  0  0  0  0  0  0  0  0  0  0  0
   -1.6213  -51.1480  -15.8626 C   0  0  0  0  0  0  0  0  0  0  0  0
   -0.7790  -52.0850  -16.7182 C   0  0  0  0  0  0  0  0  0  0  0  0
    3.2098  -49.9641  -20.9102 N   0  0  0  0  0  0  0  0  0  0  0  0
    4.4321  -50.4446  -20.2360 C   0  0  0  0  0  0  0  0  0  0  0  0
    5.0775  -49.3060  -19.5036 C   0  0  0  0  0  0  0  0  0  0  0  0
    4.9853  -48.1099  -20.2145 O   0  0  0  0  0  0  0  0  0  0  0  0
    4.7772  -48.3001  -21.5710 C   0  0  0  0  0  0  0  0  0  0  0  0
    3.3761  -48.8809  -21.8111 C   0  0  0  0  0  0  0  0  0  0  0  0
  7  8  1  0  0  0
  8  1  1  0  0  0
  1  2  2  0  0  0
  2  3  1  0  0  0
  3  4  2  0  0  0
  4  5  1  0  0  0
  5 25  1  0  0  0
 25 27  1  0  0  0
 27 28  2  0  0  0
 28 29  1  0  0  0
 29 30  2  0  0  0
 30 31  1  0  0  0
 31 32  2  0  0  0
 31 33  1  0  0  0
 33 34  1  0  0  0
 34 35  1  0  0  0
 35 36  1  0  0  0
 36 37  1  0  0  0
 37 38  1  0  0  0
 29 39  1  0  0  0
 39 40  1  0  0  0
 40 41  1  0  0  0
 41 42  1  0  0  0
 42 43  1  0  0  0
 43 44  1  0  0  0
  5  6  2  0  0  0
  8  9  1  0  0  0
  9 10  2  0  0  0
 10 11  1  0  0  0
 11 12  2  0  0  0
 12 13  1  0  0  0
 13 14  2  0  0  0
 13 21  1  0  0  0
 21 22  1  0  0  0
 21 23  1  0  0  0
 21 24  1  0  0  0
 11 15  1  0  0  0
 15 16  1  0  0  0
 16 17  1  0  0  0
 17 18  1  0  0  0
 18 19  1  0  0  0
 19 20  1  0  0  0
  6  1  1  0  0  0
 14  9  1  0  0  0
 20 15  1  0  0  0
 32 27  1  0  0  0
 38 33  1  0  0  0
 44 39  1  0  0  0
 25 26  1  0  0  0
M  END
> <minimizedAffinity>
-7.92792

> <CNNscore>
0.1074040756

> <CNNaffinity>
7.1871857643

> <CNN_VS>
0.7719330192

> <CNNaffinity_variance>
0.2067761421

$$$$
[H]N=C(N([H])[H])N([H])C([H])([H])C([H])([H])C([H])([H])[C@@]([H])(C(=O)c1nc2c([H])c([H])c([H])c([H])c2o1)N([H])C(=O)[C@@]1([H])N(C(=O)[C@]([H])(N([H])C(=O)OC([H])([H])c2c([H])c([H])c([H])c([H])c2[H])C([H])([H])c2c([H])c([H])c([H])c([H])c2[H])C([H])([H])C([H])([H])C1([H])[H]


 54 58  0  0  0  0  0  0  0  0999 V2000
    0.1479  -51.6097  -20.7110 N   0  0  0  0  0  0  0  0  0  0  0  0
    1.4726  -51.2329  -20.7098 C   0  0  0  0  0  0  0  0  0  0  0  0
    2.2852  -52.1651  -20.2722 O   0  0  0  0  0  0  0  0  0  0  0  0
   -0.6363  -51.0072  -21.0409 H   0  0  0  0  0  0  0  0  0  0  0  0
    2.0915  -50.0356  -21.0998 C   0  0  0  0  0  0  0  0  0  0  0  0
    1.1559  -48.8632  -21.4527 C   0  0  0  0  0  0  0  0  0  0  0  0
    2.2188  -47.7650  -21.5406 C   0  0  0  0  0  0  0  0  0  0  0  0
    3.5678  -48.4933  -21.7014 C   0  0  0  0  0  0  0  0  0  0  0  0
    3.0575  -49.8487  -22.1013 N   0  0  0  0  0  0  0  0  0  0  0  0
    3.5388  -50.4481  -23.2740 C   0  0  0  0  0  0  0  0  0  0  0  0
    3.0183  -51.4535  -23.8482 O   0  0  0  0  0  0  0  0  0  0  0  0
    4.7650  -49.9415  -23.9877 C   0  0  0  0  0  0  0  0  0  0  0  0
    4.5745  -50.0294  -25.4257 N   0  0  0  0  0  0  0  0  0  0  0  0
    3.9738  -48.9813  -26.1731 C   0  0  0  0  0  0  0  0  0  0  0  0
    3.5953  -47.9573  -25.5467 O   0  0  0  0  0  0  0  0  0  0  0  0
    4.8846  -50.8789  -25.9434 H   0  0  0  0  0  0  0  0  0  0  0  0
    3.7859  -49.0187  -27.5310 O   0  0  0  0  0  0  0  0  0  0  0  0
    4.6930  -48.4759  -28.4660 C   0  0  0  0  0  0  0  0  0  0  0  0
    4.0835  -47.5503  -29.4190 C   0  0  0  0  0  0  0  0  0  0  0  0
    4.4201  -47.6018  -30.7530 C   0  0  0  0  0  0  0  0  0  0  0  0
    3.8418  -46.7112  -31.6660 C   0  0  0  0  0  0  0  0  0  0  0  0
    2.9285  -45.7845  -31.1832 C   0  0  0  0  0  0  0  0  0  0  0  0
    2.5958  -45.7390  -29.8416 C   0  0  0  0  0  0  0  0  0  0  0  0
    3.1629  -46.6155  -28.9384 C   0  0  0  0  0  0  0  0  0  0  0  0
    5.9543  -50.8078  -23.5887 C   0  0  0  0  0  0  0  0  0  0  0  0
    6.9545  -50.0934  -22.7928 C   0  0  0  0  0  0  0  0  0  0  0  0
    7.8464  -49.2080  -23.3482 C   0  0  0  0  0  0  0  0  0  0  0  0
    8.7707  -48.5669  -22.5593 C   0  0  0  0  0  0  0  0  0  0  0  0
    8.8332  -48.7873  -21.2002 C   0  0  0  0  0  0  0  0  0  0  0  0
    7.9321  -49.6828  -20.6307 C   0  0  0  0  0  0  0  0  0  0  0  0
    7.0206  -50.3111  -21.4329 C   0  0  0  0  0  0  0  0  0  0  0  0
   -0.2637  -52.9581  -20.2601 C   0  0  0  0  0  0  0  0  0  0  0  0
   -0.9634  -53.6690  -21.3405 C   0  0  0  0  0  0  0  0  0  0  0  0
   -1.8658  -54.5321  -21.0464 O   0  0  0  0  0  0  0  0  0  0  0  0
   -0.6935  -53.4503  -22.7431 C   0  0  0  0  0  0  0  0  0  0  0  0
   -0.4713  -54.4297  -23.6440 N   0  0  0  0  0  0  0  0  0  0  0  0
   -0.2570  -53.9027  -24.8510 C   0  0  0  0  0  0  0  0  0  0  0  0
    0.0167  -54.4265  -26.1135 C   0  0  0  0  0  0  0  0  0  0  0  0
    0.1888  -53.5885  -27.1753 C   0  0  0  0  0  0  0  0  0  0  0  0
    0.1006  -52.2166  -27.0446 C   0  0  0  0  0  0  0  0  0  0  0  0
   -0.1741  -51.7292  -25.7686 C   0  0  0  0  0  0  0  0  0  0  0  0
   -0.3546  -52.5352  -24.6708 C   0  0  0  0  0  0  0  0  0  0  0  0
   -0.6143  -52.3322  -23.4001 O   0  0  0  0  0  0  0  0  0  0  0  0
   -1.0240  -52.8412  -18.9810 C   0  0  0  0  0  0  0  0  0  0  0  0
   -0.2677  -52.2545  -17.8354 C   0  0  0  0  0  0  0  0  0  0  0  0
   -1.2555  -51.7852  -16.7659 C   0  0  0  0  0  0  0  0  0  0  0  0
   -2.3761  -52.6596  -16.6171 N   0  0  0  0  0  0  0  0  0  0  0  0
   -2.4095  -53.5773  -17.1079 H   0  0  0  0  0  0  0  0  0  0  0  0
   -3.3207  -52.5397  -14.3906 N   0  0  0  0  0  0  0  0  0  0  0  0
   -3.4549  -52.2466  -15.7813 C   0  0  0  0  0  0  0  0  0  0  0  0
   -4.4815  -51.6488  -16.2603 N   0  0  0  0  0  0  0  0  0  0  0  0
   -3.5601  -51.8364  -13.6820 H   0  0  0  0  0  0  0  0  0  0  0  0
   -2.9751  -53.4809  -14.0480 H   0  0  0  0  0  0  0  0  0  0  0  0
   -4.4981  -51.4716  -17.3056 H   0  0  0  0  0  0  0  0  0  0  0  0
 49 50  1  0  0  0
 50 51  2  0  0  0
 50 47  1  0  0  0
 47 46  1  0  0  0
 46 45  1  0  0  0
 45 44  1  0  0  0
 44 32  1  0  0  0
 32  1  1  0  0  0
  1  2  1  0  0  0
  2  3  2  0  0  0
  2  5  1  0  0  0
  5  6  1  0  0  0
  6  7  1  0  0  0
  7  8  1  0  0  0
  8  9  1  0  0  0
  9 10  1  0  0  0
 10 11  2  0  0  0
 10 12  1  0  0  0
 12 25  1  0  0  0
 25 26  1  0  0  0
 26 27  2  0  0  0
 27 28  1  0  0  0
 28 29  2  0  0  0
 29 30  1  0  0  0
 30 31  2  0  0  0
 12 13  1  0  0  0
 13 14  1  0  0  0
 14 15  2  0  0  0
 14 17  1  0  0  0
 17 18  1  0  0  0
 18 19  1  0  0  0
 19 20  2  0  0  0
 20 21  1  0  0  0
 21 22  2  0  0  0
 22 23  1  0  0  0
 23 24  2  0  0  0
 32 33  1  0  0  0
 33 34  2  0  0  0
 33 35  1  0  0  0
 35 36  2  0  0  0
 36 37  1  0  0  0
 37 38  2  0  0  0
 38 39  1  0  0  0
 39 40  2  0  0  0
 40 41  1  0  0  0
 41 42  2  0  0  0
 42 43  1  0  0  0
  9  5  1  0  0  0
 31 26  1  0  0  0
 24 19  1  0  0  0
 43 35  1  0  0  0
 42 37  1  0  0  0
 49 52  1  0  0  0
 49 53  1  0  0  0
 51 54  1  0  0  0
 47 48  1  0  0  0
  1  4  1  0  0  0
 13 16  1  0  0  0
M  END
> <minimizedAffinity>
-8.38191

> <CNNscore>
0.6791013479

> <CNNaffinity>
7.5852556229

> <CNN_VS>
5.1511573792

> <CNNaffinity_variance>
0.2518275082

$$$$
[H]N=C(N([H])[H])N([H])C([H])([H])C([H])([H])C([H])([H])[C@@]([H])(C(=O)c1nc2c([H])c([H])c([H])c([H])c2o1)N([H])C(=O)[C@@]1([H])N(C(=O)[C@]([H])(N([H])C(=O)OC([H])([H])c2c([H])c([H])c([H])c([H])c2[H])C([H])([H])c2c([H])c([H])c([H])c([H])c2[H])C([H])([H])C([H])([H])C1([H])[H]


 54 58  0  0  0  0  0  0  0  0999 V2000
    0.9790  -53.1897  -23.7373 N   0  0  0  0  0  0  0  0  0  0  0  0
    1.3703  -51.9694  -24.2418 C   0  0  0  0  0  0  0  0  0  0  0  0
    0.3890  -51.2799  -24.7735 O   0  0  0  0  0  0  0  0  0  0  0  0
    1.6174  -53.8638  -23.2631 H   0  0  0  0  0  0  0  0  0  0  0  0
    2.6263  -51.3450  -24.2760 C   0  0  0  0  0  0  0  0  0  0  0  0
    3.7929  -52.1152  -23.6277 C   0  0  0  0  0  0  0  0  0  0  0  0
    4.9347  -51.2250  -24.1251 C   0  0  0  0  0  0  0  0  0  0  0  0
    4.2817  -49.8930  -24.5438 C   0  0  0  0  0  0  0  0  0  0  0  0
    2.9594  -50.0501  -23.8479 N   0  0  0  0  0  0  0  0  0  0  0  0
    2.5112  -49.0412  -22.9833 C   0  0  0  0  0  0  0  0  0  0  0  0
    1.5553  -49.1580  -22.1562 O   0  0  0  0  0  0  0  0  0  0  0  0
    3.1404  -47.6726  -22.9547 C   0  0  0  0  0  0  0  0  0  0  0  0
    3.4448  -47.2376  -24.3075 N   0  0  0  0  0  0  0  0  0  0  0  0
    2.8927  -46.0518  -24.8613 C   0  0  0  0  0  0  0  0  0  0  0  0
    2.1114  -45.3772  -24.1412 O   0  0  0  0  0  0  0  0  0  0  0  0
    4.0889  -47.7984  -24.9046 H   0  0  0  0  0  0  0  0  0  0  0  0
    3.1625  -45.5997  -26.1276 O   0  0  0  0  0  0  0  0  0  0  0  0
    2.2208  -45.5956  -27.1788 C   0  0  0  0  0  0  0  0  0  0  0  0
    2.7439  -46.0944  -28.4491 C   0  0  0  0  0  0  0  0  0  0  0  0
    3.8375  -46.9305  -28.4723 C   0  0  0  0  0  0  0  0  0  0  0  0
    4.3437  -47.4038  -29.6892 C   0  0  0  0  0  0  0  0  0  0  0  0
    3.7115  -47.0034  -30.8579 C   0  0  0  0  0  0  0  0  0  0  0  0
    2.6135  -46.1631  -30.8263 C   0  0  0  0  0  0  0  0  0  0  0  0
    2.1108  -45.6949  -29.6290 C   0  0  0  0  0  0  0  0  0  0  0  0
    4.4345  -47.7475  -22.1522 C   0  0  0  0  0  0  0  0  0  0  0  0
    4.2284  -48.1011  -20.7461 C   0  0  0  0  0  0  0  0  0  0  0  0
    3.5763  -47.2740  -19.8639 C   0  0  0  0  0  0  0  0  0  0  0  0
    3.4136  -47.6484  -18.5519 C   0  0  0  0  0  0  0  0  0  0  0  0
    3.8931  -48.8523  -18.0825 C   0  0  0  0  0  0  0  0  0  0  0  0
    4.5545  -49.6955  -18.9713 C   0  0  0  0  0  0  0  0  0  0  0  0
    4.7067  -49.3044  -20.2724 C   0  0  0  0  0  0  0  0  0  0  0  0
   -0.4332  -53.6278  -23.8053 C   0  0  0  0  0  0  0  0  0  0  0  0
   -0.9058  -54.0443  -22.4766 C   0  0  0  0  0  0  0  0  0  0  0  0
   -1.5959  -55.1195  -22.3612 O   0  0  0  0  0  0  0  0  0  0  0  0
   -0.6342  -53.3029  -21.2664 C   0  0  0  0  0  0  0  0  0  0  0  0
   -1.1222  -53.6162  -20.0483 N   0  0  0  0  0  0  0  0  0  0  0  0
   -0.6855  -52.7414  -19.1402 C   0  0  0  0  0  0  0  0  0  0  0  0
   -0.8669  -52.5827  -17.7672 C   0  0  0  0  0  0  0  0  0  0  0  0
   -0.2611  -51.5492  -17.1157 C   0  0  0  0  0  0  0  0  0  0  0  0
    0.5392  -50.6382  -17.7766 C   0  0  0  0  0  0  0  0  0  0  0  0
    0.6975  -50.8283  -19.1477 C   0  0  0  0  0  0  0  0  0  0  0  0
    0.1070  -51.8541  -19.8450 C   0  0  0  0  0  0  0  0  0  0  0  0
    0.0964  -52.2416  -21.0993 O   0  0  0  0  0  0  0  0  0  0  0  0
   -0.5821  -54.6514  -24.8813 C   0  0  0  0  0  0  0  0  0  0  0  0
    0.4918  -54.6545  -25.9183 C   0  0  0  0  0  0  0  0  0  0  0  0
   -0.0173  -53.9452  -27.1742 C   0  0  0  0  0  0  0  0  0  0  0  0
    0.7821  -52.8199  -27.5441 N   0  0  0  0  0  0  0  0  0  0  0  0
    0.4495  -51.8474  -27.3772 H   0  0  0  0  0  0  0  0  0  0  0  0
    2.1565  -54.2400  -28.9435 N   0  0  0  0  0  0  0  0  0  0  0  0
    2.0497  -53.0564  -28.1525 C   0  0  0  0  0  0  0  0  0  0  0  0
    3.0304  -52.2482  -27.9917 N   0  0  0  0  0  0  0  0  0  0  0  0
    2.6215  -54.2179  -29.8586 H   0  0  0  0  0  0  0  0  0  0  0  0
    1.7655  -55.1688  -28.6162 H   0  0  0  0  0  0  0  0  0  0  0  0
    2.8625  -51.3932  -27.3874 H   0  0  0  0  0  0  0  0  0  0  0  0
 49 50  1  0  0  0
 50 51  2  0  0  0
 50 47  1  0  0  0
 47 46  1  0  0  0
 46 45  1  0  0  0
 45 44  1  0  0  0
 44 32  1  0  0  0
 32  1  1  0  0  0
  1  2  1  0  0  0
  2  3  2  0  0  0
  2  5  1  0  0  0
  5  6  1  0  0  0
  6  7  1  0  0  0
  7  8  1  0  0  0
  8  9  1  0  0  0
  9 10  1  0  0  0
 10 11  2  0  0  0
 10 12  1  0  0  0
 12 25  1  0  0  0
 25 26  1  0  0  0
 26 27  2  0  0  0
 27 28  1  0  0  0
 28 29  2  0  0  0
 29 30  1  0  0  0
 30 31  2  0  0  0
 12 13  1  0  0  0
 13 14  1  0  0  0
 14 15  2  0  0  0
 14 17  1  0  0  0
 17 18  1  0  0  0
 18 19  1  0  0  0
 19 20  2  0  0  0
 20 21  1  0  0  0
 21 22  2  0  0  0
 22 23  1  0  0  0
 23 24  2  0  0  0
 32 33  1  0  0  0
 33 34  2  0  0  0
 33 35  1  0  0  0
 35 36  2  0  0  0
 36 37  1  0  0  0
 37 38  2  0  0  0
 38 39  1  0  0  0
 39 40  2  0  0  0
 40 41  1  0  0  0
 41 42  2  0  0  0
 42 43  1  0  0  0
  9  5  1  0  0  0
 31 26  1  0  0  0
 24 19  1  0  0  0
 43 35  1  0  0  0
 42 37  1  0  0  0
 49 52  1  0  0  0
 49 53  1  0  0  0
 51 54  1  0  0  0
 47 48  1  0  0  0
  1  4  1  0  0  0
 13 16  1  0  0  0
M  END
> <minimizedAffinity>
-8.23871

> <CNNscore>
0.6694017053

> <CNNaffinity>
7.7923722267

> <CNN_VS>
5.2162270546

> <CNNaffinity_variance>
0.2058617771

$$$$
[H]N=C(N([H])[H])N([H])C([H])([H])C([H])([H])C([H])([H])[C@@]([H])(C(=O)c1nc2c([H])c([H])c([H])c([H])c2o1)N([H])C(=O)[C@@]1([H])N(C(=O)[C@]([H])(N([H])C(=O)OC([H])([H])c2c([H])c([H])c([H])c([H])c2[H])C([H])([H])c2c([H])c([H])c([H])c([H])c2[H])C([H])([H])C([H])([H])C1([H])[H]


 54 58  0  0  0  0  0  0  0  0999 V2000
    0.6807  -50.4003  -19.0901 N   0  0  0  0  0  0  0  0  0  0  0  0
    1.9184  -50.2476  -19.6745 C   0  0  0  0  0  0  0  0  0  0  0  0
    2.8332  -51.0529  -19.1890 O   0  0  0  0  0  0  0  0  0  0  0  0
   -0.1693  -49.8601  -19.3595 H   0  0  0  0  0  0  0  0  0  0  0  0
    2.3576  -49.3899  -20.6943 C   0  0  0  0  0  0  0  0  0  0  0  0
    1.2938  -48.4675  -21.3202 C   0  0  0  0  0  0  0  0  0  0  0  0
    2.2382  -47.5798  -22.1348 C   0  0  0  0  0  0  0  0  0  0  0  0
    3.5624  -48.3609  -22.2466 C   0  0  0  0  0  0  0  0  0  0  0  0
    3.0646  -49.7248  -21.8601 N   0  0  0  0  0  0  0  0  0  0  0  0
    3.3126  -50.8147  -22.7067 C   0  0  0  0  0  0  0  0  0  0  0  0
    2.7439  -51.9468  -22.6273 O   0  0  0  0  0  0  0  0  0  0  0  0
    4.3158  -50.7458  -23.8286 C   0  0  0  0  0  0  0  0  0  0  0  0
    3.7776  -51.3876  -25.0162 N   0  0  0  0  0  0  0  0  0  0  0  0
    3.2334  -50.6424  -26.0961 C   0  0  0  0  0  0  0  0  0  0  0  0
    3.2205  -49.3879  -25.9948 O   0  0  0  0  0  0  0  0  0  0  0  0
    3.7851  -52.4264  -25.0981 H   0  0  0  0  0  0  0  0  0  0  0  0
    2.7265  -51.2072  -27.2383 O   0  0  0  0  0  0  0  0  0  0  0  0
    2.1734  -52.5043  -27.2960 C   0  0  0  0  0  0  0  0  0  0  0  0
    0.7630  -52.5340  -27.6784 C   0  0  0  0  0  0  0  0  0  0  0  0
   -0.2093  -52.1418  -26.7859 C   0  0  0  0  0  0  0  0  0  0  0  0
   -1.5615  -52.1761  -27.1488 C   0  0  0  0  0  0  0  0  0  0  0  0
   -1.8828  -52.6157  -28.4253 C   0  0  0  0  0  0  0  0  0  0  0  0
   -0.9002  -53.0083  -29.3159 C   0  0  0  0  0  0  0  0  0  0  0  0
    0.4338  -52.9754  -28.9626 C   0  0  0  0  0  0  0  0  0  0  0  0
    5.5814  -51.4778  -23.3967 C   0  0  0  0  0  0  0  0  0  0  0  0
    6.6112  -50.5899  -22.8531 C   0  0  0  0  0  0  0  0  0  0  0  0
    6.7963  -50.4118  -21.5033 C   0  0  0  0  0  0  0  0  0  0  0  0
    7.7729  -49.5621  -21.0427 C   0  0  0  0  0  0  0  0  0  0  0  0
    8.5902  -48.8684  -21.9089 C   0  0  0  0  0  0  0  0  0  0  0  0
    8.4085  -49.0445  -23.2779 C   0  0  0  0  0  0  0  0  0  0  0  0
    7.4308  -49.8939  -23.7161 C   0  0  0  0  0  0  0  0  0  0  0  0
    0.4567  -51.4034  -18.0248 C   0  0  0  0  0  0  0  0  0  0  0  0
   -0.5220  -52.4089  -18.4645 C   0  0  0  0  0  0  0  0  0  0  0  0
   -1.3659  -52.8788  -17.6202 O   0  0  0  0  0  0  0  0  0  0  0  0
   -0.5953  -52.9105  -19.8176 C   0  0  0  0  0  0  0  0  0  0  0  0
   -1.2570  -54.0264  -20.1880 N   0  0  0  0  0  0  0  0  0  0  0  0
   -1.1366  -54.2158  -21.5034 C   0  0  0  0  0  0  0  0  0  0  0  0
   -1.5986  -55.1777  -22.4003 C   0  0  0  0  0  0  0  0  0  0  0  0
   -1.2874  -55.0789  -23.7242 C   0  0  0  0  0  0  0  0  0  0  0  0
   -0.5183  -54.0438  -24.2183 C   0  0  0  0  0  0  0  0  0  0  0  0
   -0.0743  -53.1015  -23.2929 C   0  0  0  0  0  0  0  0  0  0  0  0
   -0.3629  -53.1608  -21.9511 C   0  0  0  0  0  0  0  0  0  0  0  0
   -0.0746  -52.4236  -20.9038 O   0  0  0  0  0  0  0  0  0  0  0  0
    0.1190  -50.7040  -16.7503 C   0  0  0  0  0  0  0  0  0  0  0  0
    0.4346  -49.2454  -16.7146 C   0  0  0  0  0  0  0  0  0  0  0  0
    1.5992  -49.0043  -15.7527 C   0  0  0  0  0  0  0  0  0  0  0  0
    2.8477  -49.4866  -16.2536 N   0  0  0  0  0  0  0  0  0  0  0  0
    3.3328  -49.0049  -17.0390 H   0  0  0  0  0  0  0  0  0  0  0  0
    3.1380  -50.8438  -14.2692 N   0  0  0  0  0  0  0  0  0  0  0  0
    3.4173  -50.6489  -15.6555 C   0  0  0  0  0  0  0  0  0  0  0  0
    4.1376  -51.4645  -16.3313 N   0  0  0  0  0  0  0  0  0  0  0  0
    2.8763  -51.7706  -13.9132 H   0  0  0  0  0  0  0  0  0  0  0  0
    3.1919  -50.0491  -13.5705 H   0  0  0  0  0  0  0  0  0  0  0  0
    4.2939  -51.2418  -17.3562 H   0  0  0  0  0  0  0  0  0  0  0  0
 49 50  1  0  0  0
 50 51  2  0  0  0
 50 47  1  0  0  0
 47 46  1  0  0  0
 46 45  1  0  0  0
 45 44  1  0  0  0
 44 32  1  0  0  0
 32  1  1  0  0  0
  1  2  1  0  0  0
  2  3  2  0  0  0
  2  5  1  0  0  0
  5  6  1  0  0  0
  6  7  1  0  0  0
  7  8  1  0  0  0
  8  9  1  0  0  0
  9 10  1  0  0  0
 10 11  2  0  0  0
 10 12  1  0  0  0
 12 25  1  0  0  0
 25 26  1  0  0  0
 26 27  2  0  0  0
 27 28  1  0  0  0
 28 29  2  0  0  0
 29 30  1  0  0  0
 30 31  2  0  0  0
 12 13  1  0  0  0
 13 14  1  0  0  0
 14 15  2  0  0  0
 14 17  1  0  0  0
 17 18  1  0  0  0
 18 19  1  0  0  0
 19 20  2  0  0  0
 20 21  1  0  0  0
 21 22  2  0  0  0
 22 23  1  0  0  0
 23 24  2  0  0  0
 32 33  1  0  0  0
 33 34  2  0  0  0
 33 35  1  0  0  0
 35 36  2  0  0  0
 36 37  1  0  0  0
 37 38  2  0  0  0
 38 39  1  0  0  0
 39 40  2  0  0  0
 40 41  1  0  0  0
 41 42  2  0  0  0
 42 43  1  0  0  0
  9  5  1  0  0  0
 31 26  1  0  0  0
 24 19  1  0  0  0
 43 35  1  0  0  0
 42 37  1  0  0  0
 49 52  1  0  0  0
 49 53  1  0  0  0
 51 54  1  0  0  0
 47 48  1  0  0  0
  1  4  1  0  0  0
 13 16  1  0  0  0
M  END
> <minimizedAffinity>
-8.86448

> <CNNscore>
0.5448201895

> <CNNaffinity>
7.5966873169

> <CNN_VS>
4.1388287544

> <CNNaffinity_variance>
0.1744445562

$$$$
[H]N=C(N([H])[H])N([H])C([H])([H])C([H])([H])C([H])([H])[C@@]([H])(C(=O)c1nc2c([H])c([H])c([H])c([H])c2o1)N([H])C(=O)[C@@]1([H])N(C(=O)[C@]([H])(N([H])C(=O)OC([H])([H])c2c([H])c([H])c([H])c([H])c2[H])C([H])([H])c2c([H])c([H])c([H])c([H])c2[H])C([H])([H])C([H])([H])C1([H])[H]


 54 58  0  0  0  0  0  0  0  0999 V2000
    1.8999  -50.5915  -19.6091 N   0  0  0  0  0  0  0  0  0  0  0  0
    3.2102  -51.0027  -19.7128 C   0  0  0  0  0  0  0  0  0  0  0  0
    3.6608  -51.6025  -18.6366 O   0  0  0  0  0  0  0  0  0  0  0  0
    1.3696  -50.1147  -20.3696 H   0  0  0  0  0  0  0  0  0  0  0  0
    4.1305  -50.8947  -20.7663 C   0  0  0  0  0  0  0  0  0  0  0  0
    5.3172  -49.9370  -20.5449 C   0  0  0  0  0  0  0  0  0  0  0  0
    6.1430  -50.3389  -21.7697 C   0  0  0  0  0  0  0  0  0  0  0  0
    5.1673  -51.0602  -22.7203 C   0  0  0  0  0  0  0  0  0  0  0  0
    3.8695  -50.6053  -22.1151 N   0  0  0  0  0  0  0  0  0  0  0  0
    2.9056  -49.9943  -22.9299 C   0  0  0  0  0  0  0  0  0  0  0  0
    1.8954  -49.3501  -22.5105 O   0  0  0  0  0  0  0  0  0  0  0  0
    2.9765  -50.0492  -24.4338 C   0  0  0  0  0  0  0  0  0  0  0  0
    3.2277  -48.7212  -24.9679 N   0  0  0  0  0  0  0  0  0  0  0  0
    4.4456  -48.3870  -25.6181 C   0  0  0  0  0  0  0  0  0  0  0  0
    5.3232  -49.2839  -25.7156 O   0  0  0  0  0  0  0  0  0  0  0  0
    2.5023  -47.9778  -24.8837 H   0  0  0  0  0  0  0  0  0  0  0  0
    4.7184  -47.1510  -26.1459 O   0  0  0  0  0  0  0  0  0  0  0  0
    3.7266  -46.2300  -26.5460 C   0  0  0  0  0  0  0  0  0  0  0  0
    3.4071  -46.2806  -27.9714 C   0  0  0  0  0  0  0  0  0  0  0  0
    4.2733  -46.8786  -28.8589 C   0  0  0  0  0  0  0  0  0  0  0  0
    3.9715  -46.9218  -30.2258 C   0  0  0  0  0  0  0  0  0  0  0  0
    2.7820  -46.3456  -30.6490 C   0  0  0  0  0  0  0  0  0  0  0  0
    1.9172  -45.7466  -29.7512 C   0  0  0  0  0  0  0  0  0  0  0  0
    2.2105  -45.7024  -28.4031 C   0  0  0  0  0  0  0  0  0  0  0  0
    1.6412  -50.5563  -24.9667 C   0  0  0  0  0  0  0  0  0  0  0  0
    1.7777  -51.4915  -26.0853 C   0  0  0  0  0  0  0  0  0  0  0  0
    2.9902  -52.0087  -26.4727 C   0  0  0  0  0  0  0  0  0  0  0  0
    3.0670  -52.8785  -27.5336 C   0  0  0  0  0  0  0  0  0  0  0  0
    1.9434  -53.2573  -28.2362 C   0  0  0  0  0  0  0  0  0  0  0  0
    0.7113  -52.7373  -27.8487 C   0  0  0  0  0  0  0  0  0  0  0  0
    0.6563  -51.8728  -26.7910 C   0  0  0  0  0  0  0  0  0  0  0  0
    1.1160  -50.8391  -18.3782 C   0  0  0  0  0  0  0  0  0  0  0  0
    0.0616  -51.8321  -18.6325 C   0  0  0  0  0  0  0  0  0  0  0  0
   -0.6887  -52.2167  -17.6656 O   0  0  0  0  0  0  0  0  0  0  0  0
   -0.1885  -52.4131  -19.9316 C   0  0  0  0  0  0  0  0  0  0  0  0
   -0.5747  -53.6888  -20.1405 N   0  0  0  0  0  0  0  0  0  0  0  0
   -0.7247  -53.9146  -21.4472 C   0  0  0  0  0  0  0  0  0  0  0  0
   -1.0956  -55.0181  -22.2138 C   0  0  0  0  0  0  0  0  0  0  0  0
   -1.1522  -54.9149  -23.5723 C   0  0  0  0  0  0  0  0  0  0  0  0
   -0.8506  -53.7378  -24.2284 C   0  0  0  0  0  0  0  0  0  0  0  0
   -0.4841  -52.6563  -23.4300 C   0  0  0  0  0  0  0  0  0  0  0  0
   -0.4134  -52.7144  -22.0593 C   0  0  0  0  0  0  0  0  0  0  0  0
   -0.1039  -51.8656  -21.1068 O   0  0  0  0  0  0  0  0  0  0  0  0
    0.6411  -49.5371  -17.8241 C   0  0  0  0  0  0  0  0  0  0  0  0
    1.2327  -49.1436  -16.5112 C   0  0  0  0  0  0  0  0  0  0  0  0
    0.5516  -49.9346  -15.3932 C   0  0  0  0  0  0  0  0  0  0  0  0
    1.4532  -50.7817  -14.6778 N   0  0  0  0  0  0  0  0  0  0  0  0
    2.4256  -50.4743  -14.4677 H   0  0  0  0  0  0  0  0  0  0  0  0
    1.7939  -52.7310  -13.2821 N   0  0  0  0  0  0  0  0  0  0  0  0
    0.9932  -52.0643  -14.2580 C   0  0  0  0  0  0  0  0  0  0  0  0
   -0.0772  -52.5807  -14.7359 N   0  0  0  0  0  0  0  0  0  0  0  0
    1.3581  -53.2020  -12.4806 H   0  0  0  0  0  0  0  0  0  0  0  0
    2.8507  -52.7624  -13.3521 H   0  0  0  0  0  0  0  0  0  0  0  0
   -0.6104  -52.0155  -15.4574 H   0  0  0  0  0  0  0  0  0  0  0  0
 49 50  1  0  0  0
 50 51  2  0  0  0
 50 47  1  0  0  0
 47 46  1  0  0  0
 46 45  1  0  0  0
 45 44  1  0  0  0
 44 32  1  0  0  0
 32  1  1  0  0  0
  1  2  1  0  0  0
  2  3  2  0  0  0
  2  5  1  0  0  0
  5  6  1  0  0  0
  6  7  1  0  0  0
  7  8  1  0  0  0
  8  9  1  0  0  0
  9 10  1  0  0  0
 10 11  2  0  0  0
 10 12  1  0  0  0
 12 25  1  0  0  0
 25 26  1  0  0  0
 26 27  2  0  0  0
 27 28  1  0  0  0
 28 29  2  0  0  0
 29 30  1  0  0  0
 30 31  2  0  0  0
 12 13  1  0  0  0
 13 14  1  0  0  0
 14 15  2  0  0  0
 14 17  1  0  0  0
 17 18  1  0  0  0
 18 19  1  0  0  0
 19 20  2  0  0  0
 20 21  1  0  0  0
 21 22  2  0  0  0
 22 23  1  0  0  0
 23 24  2  0  0  0
 32 33  1  0  0  0
 33 34  2  0  0  0
 33 35  1  0  0  0
 35 36  2  0  0  0
 36 37  1  0  0  0
 37 38  2  0  0  0
 38 39  1  0  0  0
 39 40  2  0  0  0
 40 41  1  0  0  0
 41 42  2  0  0  0
 42 43  1  0  0  0
  9  5  1  0  0  0
 31 26  1  0  0  0
 24 19  1  0  0  0
 43 35  1  0  0  0
 42 37  1  0  0  0
 49 52  1  0  0  0
 49 53  1  0  0  0
 51 54  1  0  0  0
 47 48  1  0  0  0
  1  4  1  0  0  0
 13 16  1  0  0  0
M  END
> <minimizedAffinity>
-8.22331

> <CNNscore>
0.3142736256

> <CNNaffinity>
7.2301878929

> <CNN_VS>
2.2722573280

> <CNNaffinity_variance>
0.3016694486

$$$$
[H]N=C(N([H])[H])N([H])C([H])([H])C([H])([H])C([H])([H])[C@@]([H])(C(=O)c1nc2c([H])c([H])c([H])c([H])c2o1)N([H])C(=O)[C@@]1([H])N(C(=O)[C@]([H])(N([H])C(=O)OC([H])([H])c2c([H])c([H])c([H])c([H])c2[H])C([H])([H])c2c([H])c([H])c([H])c([H])c2[H])C([H])([H])C([H])([H])C1([H])[H]


 54 58  0  0  0  0  0  0  0  0999 V2000
    4.0556  -50.8455  -23.4660 N   0  0  0  0  0  0  0  0  0  0  0  0
    5.1803  -50.0880  -23.2250 C   0  0  0  0  0  0  0  0  0  0  0  0
    5.7112  -49.5736  -24.3087 O   0  0  0  0  0  0  0  0  0  0  0  0
    3.4918  -51.3159  -22.7260 H   0  0  0  0  0  0  0  0  0  0  0  0
    5.8413  -49.7729  -22.0281 C   0  0  0  0  0  0  0  0  0  0  0  0
    7.0994  -50.6003  -21.7012 C   0  0  0  0  0  0  0  0  0  0  0  0
    7.6009  -49.7632  -20.5216 C   0  0  0  0  0  0  0  0  0  0  0  0
    6.3952  -48.9234  -20.0554 C   0  0  0  0  0  0  0  0  0  0  0  0
    5.2970  -49.6897  -20.7366 N   0  0  0  0  0  0  0  0  0  0  0  0
    4.2091  -50.1526  -19.9827 C   0  0  0  0  0  0  0  0  0  0  0  0
    3.3589  -51.0096  -20.3753 O   0  0  0  0  0  0  0  0  0  0  0  0
    3.9328  -49.6570  -18.5871 C   0  0  0  0  0  0  0  0  0  0  0  0
    2.8274  -50.4002  -18.0059 N   0  0  0  0  0  0  0  0  0  0  0  0
    2.6327  -50.4888  -16.6017 C   0  0  0  0  0  0  0  0  0  0  0  0
    3.4616  -49.9035  -15.8570 O   0  0  0  0  0  0  0  0  0  0  0  0
    2.1435  -50.8878  -18.6227 H   0  0  0  0  0  0  0  0  0  0  0  0
    1.5977  -51.1691  -16.0130 O   0  0  0  0  0  0  0  0  0  0  0  0
    0.4840  -50.5424  -15.4141 C   0  0  0  0  0  0  0  0  0  0  0  0
   -0.7986  -51.1555  -15.7540 C   0  0  0  0  0  0  0  0  0  0  0  0
   -0.8594  -52.1822  -16.6692 C   0  0  0  0  0  0  0  0  0  0  0  0
   -2.0884  -52.7660  -17.0006 C   0  0  0  0  0  0  0  0  0  0  0  0
   -3.2302  -52.2772  -16.3814 C   0  0  0  0  0  0  0  0  0  0  0  0
   -3.1608  -51.2453  -15.4632 C   0  0  0  0  0  0  0  0  0  0  0  0
   -1.9513  -50.6676  -15.1331 C   0  0  0  0  0  0  0  0  0  0  0  0
    3.5578  -48.1811  -18.6591 C   0  0  0  0  0  0  0  0  0  0  0  0
    3.1079  -47.7584  -19.9869 C   0  0  0  0  0  0  0  0  0  0  0  0
    3.7977  -46.8430  -20.7445 C   0  0  0  0  0  0  0  0  0  0  0  0
    3.3307  -46.4738  -21.9829 C   0  0  0  0  0  0  0  0  0  0  0  0
    2.1685  -47.0037  -22.5008 C   0  0  0  0  0  0  0  0  0  0  0  0
    1.4647  -47.9322  -21.7388 C   0  0  0  0  0  0  0  0  0  0  0  0
    1.9457  -48.2858  -20.5088 C   0  0  0  0  0  0  0  0  0  0  0  0
    3.5316  -51.0206  -24.8393 C   0  0  0  0  0  0  0  0  0  0  0  0
    2.0613  -50.9997  -24.8339 C   0  0  0  0  0  0  0  0  0  0  0  0
    1.4370  -50.3265  -25.7300 O   0  0  0  0  0  0  0  0  0  0  0  0
    1.2584  -51.7065  -23.8626 C   0  0  0  0  0  0  0  0  0  0  0  0
    1.0726  -51.3107  -22.5862 N   0  0  0  0  0  0  0  0  0  0  0  0
    0.2795  -52.1742  -21.9490 C   0  0  0  0  0  0  0  0  0  0  0  0
   -0.2314  -52.2632  -20.6551 C   0  0  0  0  0  0  0  0  0  0  0  0
   -1.0395  -53.3068  -20.3127 C   0  0  0  0  0  0  0  0  0  0  0  0
   -1.3766  -54.2961  -21.2154 C   0  0  0  0  0  0  0  0  0  0  0  0
   -0.8478  -54.1743  -22.4987 C   0  0  0  0  0  0  0  0  0  0  0  0
   -0.0301  -53.1412  -22.8878 C   0  0  0  0  0  0  0  0  0  0  0  0
    0.5808  -52.8064  -24.0006 O   0  0  0  0  0  0  0  0  0  0  0  0
    4.1468  -52.2344  -25.4522 C   0  0  0  0  0  0  0  0  0  0  0  0
    3.1869  -53.2092  -26.0498 C   0  0  0  0  0  0  0  0  0  0  0  0
    2.9730  -52.8670  -27.5252 C   0  0  0  0  0  0  0  0  0  0  0  0
    1.9161  -53.6180  -28.1262 N   0  0  0  0  0  0  0  0  0  0  0  0
    2.0687  -54.5967  -28.4473 H   0  0  0  0  0  0  0  0  0  0  0  0
    0.1782  -52.8393  -29.6220 N   0  0  0  0  0  0  0  0  0  0  0  0
    0.6424  -52.9961  -28.2811 C   0  0  0  0  0  0  0  0  0  0  0  0
   -0.0378  -52.6031  -27.2694 N   0  0  0  0  0  0  0  0  0  0  0  0
   -0.7943  -53.0576  -29.8680 H   0  0  0  0  0  0  0  0  0  0  0  0
    0.8134  -52.4957  -30.3973 H   0  0  0  0  0  0  0  0  0  0  0  0
    0.3836  -52.7593  -26.3089 H   0  0  0  0  0  0  0  0  0  0  0  0
 49 50  1  0  0  0
 50 51  2  0  0  0
 50 47  1  0  0  0
 47 46  1  0  0  0
 46 45  1  0  0  0
 45 44  1  0  0  0
 44 32  1  0  0  0
 32  1  1  0  0  0
  1  2  1  0  0  0
  2  3  2  0  0  0
  2  5  1  0  0  0
  5  6  1  0  0  0
  6  7  1  0  0  0
  7  8  1  0  0  0
  8  9  1  0  0  0
  9 10  1  0  0  0
 10 11  2  0  0  0
 10 12  1  0  0  0
 12 25  1  0  0  0
 25 26  1  0  0  0
 26 27  2  0  0  0
 27 28  1  0  0  0
 28 29  2  0  0  0
 29 30  1  0  0  0
 30 31  2  0  0  0
 12 13  1  0  0  0
 13 14  1  0  0  0
 14 15  2  0  0  0
 14 17  1  0  0  0
 17 18  1  0  0  0
 18 19  1  0  0  0
 19 20  2  0  0  0
 20 21  1  0  0  0
 21 22  2  0  0  0
 22 23  1  0  0  0
 23 24  2  0  0  0
 32 33  1  0  0  0
 33 34  2  0  0  0
 33 35  1  0  0  0
 35 36  2  0  0  0
 36 37  1  0  0  0
 37 38  2  0  0  0
 38 39  1  0  0  0
 39 40  2  0  0  0
 40 41  1  0  0  0
 41 42  2  0  0  0
 42 43  1  0  0  0
  9  5  1  0  0  0
 31 26  1  0  0  0
 24 19  1  0  0  0
 43 35  1  0  0  0
 42 37  1  0  0  0
 49 52  1  0  0  0
 49 53  1  0  0  0
 51 54  1  0  0  0
 47 48  1  0  0  0
  1  4  1  0  0  0
 13 16  1  0  0  0
M  END
> <minimizedAffinity>
-7.49160

> <CNNscore>
0.2652897537

> <CNNaffinity>
7.3137717247

> <CNN_VS>
1.9402687550

> <CNNaffinity_variance>
0.4244231582

$$$$
[H]N=C(N([H])[H])N([H])C([H])([H])C([H])([H])C([H])([H])[C@@]([H])(C(=O)c1nc2c([H])c([H])c([H])c([H])c2o1)N([H])C(=O)[C@@]1([H])N(C(=O)[C@]([H])(N([H])C(=O)OC([H])([H])c2c([H])c([H])c([H])c([H])c2[H])C([H])([H])c2c([H])c([H])c([H])c([H])c2[H])C([H])([H])C([H])([H])C1([H])[H]


 54 58  0  0  0  0  0  0  0  0999 V2000
    0.7957  -51.7798  -21.7838 N   0  0  0  0  0  0  0  0  0  0  0  0
    2.0285  -51.2035  -21.9955 C   0  0  0  0  0  0  0  0  0  0  0  0
    2.9994  -52.0739  -22.1385 O   0  0  0  0  0  0  0  0  0  0  0  0
   -0.0924  -51.2464  -21.6665 H   0  0  0  0  0  0  0  0  0  0  0  0
    2.4138  -49.8576  -22.0892 C   0  0  0  0  0  0  0  0  0  0  0  0
    1.3626  -48.8124  -21.6686 C   0  0  0  0  0  0  0  0  0  0  0  0
    2.2744  -47.5827  -21.6753 C   0  0  0  0  0  0  0  0  0  0  0  0
    3.5087  -47.9752  -22.5111 C   0  0  0  0  0  0  0  0  0  0  0  0
    2.9503  -49.1879  -23.2004 N   0  0  0  0  0  0  0  0  0  0  0  0
    3.0084  -49.2740  -24.5987 C   0  0  0  0  0  0  0  0  0  0  0  0
    2.3628  -50.1059  -25.3078 O   0  0  0  0  0  0  0  0  0  0  0  0
    3.8760  -48.3584  -25.4225 C   0  0  0  0  0  0  0  0  0  0  0  0
    3.1562  -47.9265  -26.6088 N   0  0  0  0  0  0  0  0  0  0  0  0
    3.0519  -46.5572  -26.9718 C   0  0  0  0  0  0  0  0  0  0  0  0
    3.6016  -45.7087  -26.2222 O   0  0  0  0  0  0  0  0  0  0  0  0
    2.6980  -48.6291  -27.2272 H   0  0  0  0  0  0  0  0  0  0  0  0
    2.3928  -46.1083  -28.0874 O   0  0  0  0  0  0  0  0  0  0  0  0
    3.0309  -45.4821  -29.1795 C   0  0  0  0  0  0  0  0  0  0  0  0
    2.8277  -46.1616  -30.4576 C   0  0  0  0  0  0  0  0  0  0  0  0
    1.6162  -46.0782  -31.1062 C   0  0  0  0  0  0  0  0  0  0  0  0
    1.4181  -46.7342  -32.3276 C   0  0  0  0  0  0  0  0  0  0  0  0
    2.4746  -47.4641  -32.8541 C   0  0  0  0  0  0  0  0  0  0  0  0
    3.6885  -47.5432  -32.1962 C   0  0  0  0  0  0  0  0  0  0  0  0
    3.8882  -46.8975  -30.9926 C   0  0  0  0  0  0  0  0  0  0  0  0
    5.1250  -49.1222  -25.8478 C   0  0  0  0  0  0  0  0  0  0  0  0
    6.1658  -49.1564  -24.8183 C   0  0  0  0  0  0  0  0  0  0  0  0
    6.7702  -48.0190  -24.3401 C   0  0  0  0  0  0  0  0  0  0  0  0
    7.7470  -48.1040  -23.3775 C   0  0  0  0  0  0  0  0  0  0  0  0
    8.1481  -49.3189  -22.8649 C   0  0  0  0  0  0  0  0  0  0  0  0
    7.5394  -50.4756  -23.3446 C   0  0  0  0  0  0  0  0  0  0  0  0
    6.5702  -50.3696  -24.3030 C   0  0  0  0  0  0  0  0  0  0  0  0
    0.6365  -53.2509  -21.7420 C   0  0  0  0  0  0  0  0  0  0  0  0
   -0.3525  -53.6884  -22.7384 C   0  0  0  0  0  0  0  0  0  0  0  0
   -1.4063  -54.3089  -22.3505 O   0  0  0  0  0  0  0  0  0  0  0  0
   -0.2094  -53.4569  -24.1574 C   0  0  0  0  0  0  0  0  0  0  0  0
    0.9707  -53.3571  -24.8038 N   0  0  0  0  0  0  0  0  0  0  0  0
    0.7644  -53.1462  -26.1052 C   0  0  0  0  0  0  0  0  0  0  0  0
    1.5935  -52.9700  -27.2119 C   0  0  0  0  0  0  0  0  0  0  0  0
    1.0483  -52.7682  -28.4454 C   0  0  0  0  0  0  0  0  0  0  0  0
   -0.3180  -52.7312  -28.6427 C   0  0  0  0  0  0  0  0  0  0  0  0
   -1.1151  -52.9111  -27.5141 C   0  0  0  0  0  0  0  0  0  0  0  0
   -0.6101  -53.1170  -26.2532 C   0  0  0  0  0  0  0  0  0  0  0  0
   -1.1293  -53.3070  -25.0625 O   0  0  0  0  0  0  0  0  0  0  0  0
    0.3563  -53.6782  -20.3397 C   0  0  0  0  0  0  0  0  0  0  0  0
   -0.1997  -52.6207  -19.4446 C   0  0  0  0  0  0  0  0  0  0  0  0
   -1.4054  -53.1817  -18.6888 C   0  0  0  0  0  0  0  0  0  0  0  0
   -1.2443  -53.1412  -17.2695 N   0  0  0  0  0  0  0  0  0  0  0  0
   -0.4676  -53.6543  -16.8028 H   0  0  0  0  0  0  0  0  0  0  0  0
   -1.6927  -51.1502  -15.9660 N   0  0  0  0  0  0  0  0  0  0  0  0
   -2.1752  -52.3829  -16.5005 C   0  0  0  0  0  0  0  0  0  0  0  0
   -3.3729  -52.7930  -16.3052 N   0  0  0  0  0  0  0  0  0  0  0  0
   -2.2648  -50.2991  -16.0142 H   0  0  0  0  0  0  0  0  0  0  0  0
   -0.7408  -51.0740  -15.5067 H   0  0  0  0  0  0  0  0  0  0  0  0
   -3.6466  -53.7209  -16.7394 H   0  0  0  0  0  0  0  0  0  0  0  0
 49 50  1  0  0  0
 50 51  2  0  0  0
 50 47  1  0  0  0
 47 46  1  0  0  0
 46 45  1  0  0  0
 45 44  1  0  0  0
 44 32  1  0  0  0
 32  1  1  0  0  0
  1  2  1  0  0  0
  2  3  2  0  0  0
  2  5  1  0  0  0
  5  6  1  0  0  0
  6  7  1  0  0  0
  7  8  1  0  0  0
  8  9  1  0  0  0
  9 10  1  0  0  0
 10 11  2  0  0  0
 10 12  1  0  0  0
 12 25  1  0  0  0
 25 26  1  0  0  0
 26 27  2  0  0  0
 27 28  1  0  0  0
 28 29  2  0  0  0
 29 30  1  0  0  0
 30 31  2  0  0  0
 12 13  1  0  0  0
 13 14  1  0  0  0
 14 15  2  0  0  0
 14 17  1  0  0  0
 17 18  1  0  0  0
 18 19  1  0  0  0
 19 20  2  0  0  0
 20 21  1  0  0  0
 21 22  2  0  0  0
 22 23  1  0  0  0
 23 24  2  0  0  0
 32 33  1  0  0  0
 33 34  2  0  0  0
 33 35  1  0  0  0
 35 36  2  0  0  0
 36 37  1  0  0  0
 37 38  2  0  0  0
 38 39  1  0  0  0
 39 40  2  0  0  0
 40 41  1  0  0  0
 41 42  2  0  0  0
 42 43  1  0  0  0
  9  5  1  0  0  0
 31 26  1  0  0  0
 24 19  1  0  0  0
 43 35  1  0  0  0
 42 37  1  0  0  0
 49 52  1  0  0  0
 49 53  1  0  0  0
 51 54  1  0  0  0
 47 48  1  0  0  0
  1  4  1  0  0  0
 13 16  1  0  0  0
M  END
> <minimizedAffinity>
-8.08209

> <CNNscore>
0.2406923622

> <CNNaffinity>
7.3069143295

> <CNN_VS>
1.7587184906

> <CNNaffinity_variance>
0.1483233273

$$$$
[H]N=C(N([H])[H])N([H])C([H])([H])C([H])([H])C([H])([H])[C@@]([H])(C(=O)c1nc2c([H])c([H])c([H])c([H])c2o1)N([H])C(=O)[C@@]1([H])N(C(=O)[C@]([H])(N([H])C(=O)OC([H])([H])c2c([H])c([H])c([H])c([H])c2[H])C([H])([H])c2c([H])c([H])c([H])c([H])c2[H])C([H])([H])C([H])([H])C1([H])[H]


 54 58  0  0  0  0  0  0  0  0999 V2000
    1.7634  -49.2348  -19.3115 N   0  0  0  0  0  0  0  0  0  0  0  0
    2.8892  -49.2699  -20.1040 C   0  0  0  0  0  0  0  0  0  0  0  0
    3.8121  -50.0961  -19.6720 O   0  0  0  0  0  0  0  0  0  0  0  0
    0.9220  -48.6515  -19.5079 H   0  0  0  0  0  0  0  0  0  0  0  0
    3.2076  -48.5831  -21.2854 C   0  0  0  0  0  0  0  0  0  0  0  0
    2.0701  -47.7713  -21.9345 C   0  0  0  0  0  0  0  0  0  0  0  0
    2.9114  -47.0223  -22.9713 C   0  0  0  0  0  0  0  0  0  0  0  0
    4.2301  -47.8106  -23.0959 C   0  0  0  0  0  0  0  0  0  0  0  0
    3.7973  -49.0970  -22.4513 N   0  0  0  0  0  0  0  0  0  0  0  0
    3.9758  -50.3064  -23.1380 C   0  0  0  0  0  0  0  0  0  0  0  0
    3.4372  -51.4122  -22.8239 O   0  0  0  0  0  0  0  0  0  0  0  0
    4.8579  -50.4144  -24.3545 C   0  0  0  0  0  0  0  0  0  0  0  0
    4.1827  -51.1765  -25.3915 N   0  0  0  0  0  0  0  0  0  0  0  0
    3.2959  -50.5678  -26.3194 C   0  0  0  0  0  0  0  0  0  0  0  0
    3.0983  -49.3291  -26.2151 O   0  0  0  0  0  0  0  0  0  0  0  0
    4.3437  -52.2026  -25.4751 H   0  0  0  0  0  0  0  0  0  0  0  0
    2.6481  -51.2472  -27.3190 O   0  0  0  0  0  0  0  0  0  0  0  0
    2.0161  -52.4963  -27.1398 C   0  0  0  0  0  0  0  0  0  0  0  0
    0.5889  -52.4925  -27.4551 C   0  0  0  0  0  0  0  0  0  0  0  0
   -0.3384  -52.1855  -26.4848 C   0  0  0  0  0  0  0  0  0  0  0  0
   -1.7064  -52.1879  -26.7840 C   0  0  0  0  0  0  0  0  0  0  0  0
   -2.0898  -52.5084  -28.0787 C   0  0  0  0  0  0  0  0  0  0  0  0
   -1.1522  -52.8158  -29.0478 C   0  0  0  0  0  0  0  0  0  0  0  0
    0.1973  -52.8139  -28.7573 C   0  0  0  0  0  0  0  0  0  0  0  0
    6.1427  -51.1355  -23.9628 C   0  0  0  0  0  0  0  0  0  0  0  0
    7.0248  -50.3335  -23.1124 C   0  0  0  0  0  0  0  0  0  0  0  0
    7.0746  -50.4855  -21.7478 C   0  0  0  0  0  0  0  0  0  0  0  0
    7.9150  -49.7038  -20.9924 C   0  0  0  0  0  0  0  0  0  0  0  0
    8.7270  -48.7525  -21.5714 C   0  0  0  0  0  0  0  0  0  0  0  0
    8.6820  -48.5935  -22.9538 C   0  0  0  0  0  0  0  0  0  0  0  0
    7.8386  -49.3806  -23.6875 C   0  0  0  0  0  0  0  0  0  0  0  0
    1.6536  -50.0803  -18.1015 C   0  0  0  0  0  0  0  0  0  0  0  0
    0.4426  -50.9120  -18.1650 C   0  0  0  0  0  0  0  0  0  0  0  0
   -0.3788  -50.9061  -17.1795 O   0  0  0  0  0  0  0  0  0  0  0  0
    0.1118  -51.7523  -19.2930 C   0  0  0  0  0  0  0  0  0  0  0  0
    0.4950  -51.5161  -20.5648 N   0  0  0  0  0  0  0  0  0  0  0  0
    0.0329  -52.4755  -21.3689 C   0  0  0  0  0  0  0  0  0  0  0  0
    0.1191  -52.7327  -22.7362 C   0  0  0  0  0  0  0  0  0  0  0  0
   -0.4864  -53.8362  -23.2606 C   0  0  0  0  0  0  0  0  0  0  0  0
   -1.1942  -54.7239  -22.4742 C   0  0  0  0  0  0  0  0  0  0  0  0
   -1.2590  -54.4346  -21.1128 C   0  0  0  0  0  0  0  0  0  0  0  0
   -0.6651  -53.3356  -20.5412 C   0  0  0  0  0  0  0  0  0  0  0  0
   -0.5807  -52.8512  -19.3240 O   0  0  0  0  0  0  0  0  0  0  0  0
    1.7710  -49.2220  -16.8862 C   0  0  0  0  0  0  0  0  0  0  0  0
    2.9634  -49.4842  -16.0271 C   0  0  0  0  0  0  0  0  0  0  0  0
    3.2586  -50.9850  -16.0178 C   0  0  0  0  0  0  0  0  0  0  0  0
    2.8324  -51.6316  -14.8168 N   0  0  0  0  0  0  0  0  0  0  0  0
    1.8206  -51.7517  -14.6021 H   0  0  0  0  0  0  0  0  0  0  0  0
    4.4578  -53.3393  -14.2636 N   0  0  0  0  0  0  0  0  0  0  0  0
    3.8254  -52.1087  -13.9117 C   0  0  0  0  0  0  0  0  0  0  0  0
    4.1250  -51.4638  -12.8463 N   0  0  0  0  0  0  0  0  0  0  0  0
    5.4749  -53.4486  -14.1766 H   0  0  0  0  0  0  0  0  0  0  0  0
    3.9055  -54.1701  -14.6205 H   0  0  0  0  0  0  0  0  0  0  0  0
    3.6049  -50.5580  -12.6630 H   0  0  0  0  0  0  0  0  0  0  0  0
 49 50  1  0  0  0
 50 51  2  0  0  0
 50 47  1  0  0  0
 47 46  1  0  0  0
 46 45  1  0  0  0
 45 44  1  0  0  0
 44 32  1  0  0  0
 32  1  1  0  0  0
  1  2  1  0  0  0
  2  3  2  0  0  0
  2  5  1  0  0  0
  5  6  1  0  0  0
  6  7  1  0  0  0
  7  8  1  0  0  0
  8  9  1  0  0  0
  9 10  1  0  0  0
 10 11  2  0  0  0
 10 12  1  0  0  0
 12 25  1  0  0  0
 25 26  1  0  0  0
 26 27  2  0  0  0
 27 28  1  0  0  0
 28 29  2  0  0  0
 29 30  1  0  0  0
 30 31  2  0  0  0
 12 13  1  0  0  0
 13 14  1  0  0  0
 14 15  2  0  0  0
 14 17  1  0  0  0
 17 18  1  0  0  0
 18 19  1  0  0  0
 19 20  2  0  0  0
 20 21  1  0  0  0
 21 22  2  0  0  0
 22 23  1  0  0  0
 23 24  2  0  0  0
 32 33  1  0  0  0
 33 34  2  0  0  0
 33 35  1  0  0  0
 35 36  2  0  0  0
 36 37  1  0  0  0
 37 38  2  0  0  0
 38 39  1  0  0  0
 39 40  2  0  0  0
 40 41  1  0  0  0
 41 42  2  0  0  0
 42 43  1  0  0  0
  9  5  1  0  0  0
 31 26  1  0  0  0
 24 19  1  0  0  0
 43 35  1  0  0  0
 42 37  1  0  0  0
 49 52  1  0  0  0
 49 53  1  0  0  0
 51 54  1  0  0  0
 47 48  1  0  0  0
  1  4  1  0  0  0
 13 16  1  0  0  0
M  END
> <minimizedAffinity>
-9.00113

> <CNNscore>
0.2262266129

> <CNNaffinity>
7.1483545303

> <CNN_VS>
1.6171480417

> <CNNaffinity_variance>
0.5442034006

$$$$
[H]N=C(N([H])[H])N([H])C([H])([H])C([H])([H])C([H])([H])[C@@]([H])(C(=O)c1nc2c([H])c([H])c([H])c([H])c2o1)N([H])C(=O)[C@@]1([H])N(C(=O)[C@]([H])(N([H])C(=O)OC([H])([H])c2c([H])c([H])c([H])c([H])c2[H])C([H])([H])c2c([H])c([H])c([H])c([H])c2[H])C([H])([H])C([H])([H])C1([H])[H]


 54 58  0  0  0  0  0  0  0  0999 V2000
    0.2403  -50.8098  -17.6876 N   0  0  0  0  0  0  0  0  0  0  0  0
   -0.0802  -51.7825  -18.6085 C   0  0  0  0  0  0  0  0  0  0  0  0
   -0.5215  -52.8938  -18.0689 O   0  0  0  0  0  0  0  0  0  0  0  0
    0.5888  -49.8582  -17.9322 H   0  0  0  0  0  0  0  0  0  0  0  0
   -0.0205  -51.7813  -20.0103 C   0  0  0  0  0  0  0  0  0  0  0  0
   -0.6307  -53.0032  -20.7237 C   0  0  0  0  0  0  0  0  0  0  0  0
   -0.5848  -52.4568  -22.1530 C   0  0  0  0  0  0  0  0  0  0  0  0
    0.4202  -51.2882  -22.1275 C   0  0  0  0  0  0  0  0  0  0  0  0
    1.1064  -51.5961  -20.8269 N   0  0  0  0  0  0  0  0  0  0  0  0
    2.5037  -51.7080  -20.7942 C   0  0  0  0  0  0  0  0  0  0  0  0
    3.1758  -52.2021  -19.8373 O   0  0  0  0  0  0  0  0  0  0  0  0
    3.3724  -51.2322  -21.9295 C   0  0  0  0  0  0  0  0  0  0  0  0
    3.1039  -52.0169  -23.1228 N   0  0  0  0  0  0  0  0  0  0  0  0
    2.9713  -51.4199  -24.4049 C   0  0  0  0  0  0  0  0  0  0  0  0
    3.0859  -50.1690  -24.4835 O   0  0  0  0  0  0  0  0  0  0  0  0
    3.0054  -53.0522  -23.0567 H   0  0  0  0  0  0  0  0  0  0  0  0
    2.7298  -52.1239  -25.5567 O   0  0  0  0  0  0  0  0  0  0  0  0
    1.7957  -53.1774  -25.6536 C   0  0  0  0  0  0  0  0  0  0  0  0
    0.7745  -52.9755  -26.6798 C   0  0  0  0  0  0  0  0  0  0  0  0
    1.0883  -53.1185  -28.0127 C   0  0  0  0  0  0  0  0  0  0  0  0
    0.1124  -52.9189  -28.9971 C   0  0  0  0  0  0  0  0  0  0  0  0
   -1.1674  -52.5744  -28.5857 C   0  0  0  0  0  0  0  0  0  0  0  0
   -1.4746  -52.4325  -27.2447 C   0  0  0  0  0  0  0  0  0  0  0  0
   -0.5160  -52.6291  -26.2711 C   0  0  0  0  0  0  0  0  0  0  0  0
    4.8337  -51.4112  -21.5335 C   0  0  0  0  0  0  0  0  0  0  0  0
    5.6119  -50.1727  -21.6026 C   0  0  0  0  0  0  0  0  0  0  0  0
    5.0377  -48.9526  -21.8660 C   0  0  0  0  0  0  0  0  0  0  0  0
    5.8123  -47.8194  -21.9267 C   0  0  0  0  0  0  0  0  0  0  0  0
    7.1752  -47.8679  -21.7271 C   0  0  0  0  0  0  0  0  0  0  0  0
    7.7635  -49.1009  -21.4592 C   0  0  0  0  0  0  0  0  0  0  0  0
    6.9756  -50.2168  -21.4038 C   0  0  0  0  0  0  0  0  0  0  0  0
    0.0723  -51.0461  -16.2361 C   0  0  0  0  0  0  0  0  0  0  0  0
   -1.1981  -50.4733  -15.7667 C   0  0  0  0  0  0  0  0  0  0  0  0
   -1.3366  -49.1987  -15.7220 O   0  0  0  0  0  0  0  0  0  0  0  0
   -2.3249  -51.2734  -15.3451 C   0  0  0  0  0  0  0  0  0  0  0  0
   -3.0680  -52.0453  -16.1651 N   0  0  0  0  0  0  0  0  0  0  0  0
   -4.0296  -52.6580  -15.4717 C   0  0  0  0  0  0  0  0  0  0  0  0
   -5.0557  -53.5446  -15.7942 C   0  0  0  0  0  0  0  0  0  0  0  0
   -5.8951  -53.9975  -14.8196 C   0  0  0  0  0  0  0  0  0  0  0  0
   -5.7643  -53.6039  -13.5023 C   0  0  0  0  0  0  0  0  0  0  0  0
   -4.7279  -52.7173  -13.2175 C   0  0  0  0  0  0  0  0  0  0  0  0
   -3.8592  -52.2352  -14.1663 C   0  0  0  0  0  0  0  0  0  0  0  0
   -2.8330  -51.4164  -14.1579 O   0  0  0  0  0  0  0  0  0  0  0  0
    1.2884  -50.5702  -15.5136 C   0  0  0  0  0  0  0  0  0  0  0  0
    2.5225  -50.4471  -16.3446 C   0  0  0  0  0  0  0  0  0  0  0  0
    3.5312  -49.5534  -15.6209 C   0  0  0  0  0  0  0  0  0  0  0  0
    3.9372  -48.4249  -16.3979 N   0  0  0  0  0  0  0  0  0  0  0  0
    4.9427  -48.2480  -16.6024 H   0  0  0  0  0  0  0  0  0  0  0  0
    2.8153  -47.4448  -18.3071 N   0  0  0  0  0  0  0  0  0  0  0  0
    2.9328  -47.5392  -16.8875 C   0  0  0  0  0  0  0  0  0  0  0  0
    2.1848  -46.8702  -16.0913 N   0  0  0  0  0  0  0  0  0  0  0  0
    1.8927  -47.4517  -18.7575 H   0  0  0  0  0  0  0  0  0  0  0  0
    3.6652  -47.3643  -18.9347 H   0  0  0  0  0  0  0  0  0  0  0  0
    2.3413  -47.0014  -15.0508 H   0  0  0  0  0  0  0  0  0  0  0  0
 49 50  1  0  0  0
 50 51  2  0  0  0
 50 47  1  0  0  0
 47 46  1  0  0  0
 46 45  1  0  0  0
 45 44  1  0  0  0
 44 32  1  0  0  0
 32  1  1  0  0  0
  1  2  1  0  0  0
  2  3  2  0  0  0
  2  5  1  0  0  0
  5  6  1  0  0  0
  6  7  1  0  0  0
  7  8  1  0  0  0
  8  9  1  0  0  0
  9 10  1  0  0  0
 10 11  2  0  0  0
 10 12  1  0  0  0
 12 25  1  0  0  0
 25 26  1  0  0  0
 26 27  2  0  0  0
 27 28  1  0  0  0
 28 29  2  0  0  0
 29 30  1  0  0  0
 30 31  2  0  0  0
 12 13  1  0  0  0
 13 14  1  0  0  0
 14 15  2  0  0  0
 14 17  1  0  0  0
 17 18  1  0  0  0
 18 19  1  0  0  0
 19 20  2  0  0  0
 20 21  1  0  0  0
 21 22  2  0  0  0
 22 23  1  0  0  0
 23 24  2  0  0  0
 32 33  1  0  0  0
 33 34  2  0  0  0
 33 35  1  0  0  0
 35 36  2  0  0  0
 36 37  1  0  0  0
 37 38  2  0  0  0
 38 39  1  0  0  0
 39 40  2  0  0  0
 40 41  1  0  0  0
 41 42  2  0  0  0
 42 43  1  0  0  0
  9  5  1  0  0  0
 31 26  1  0  0  0
 24 19  1  0  0  0
 43 35  1  0  0  0
 42 37  1  0  0  0
 49 52  1  0  0  0
 49 53  1  0  0  0
 51 54  1  0  0  0
 47 48  1  0  0  0
  1  4  1  0  0  0
 13 16  1  0  0  0
M  END
> <minimizedAffinity>
-7.95246

> <CNNscore>
0.1295408905

> <CNNaffinity>
6.9094543457

> <CNN_VS>
0.8950568438

> <CNNaffinity_variance>
0.3423594832

$$$$
[H]N=C(N([H])[H])N([H])C([H])([H])C([H])([H])C([H])([H])[C@@]([H])(C(=O)c1nc2c([H])c([H])c([H])c([H])c2o1)N([H])C(=O)[C@@]1([H])N(C(=O)[C@]([H])(N([H])C(=O)OC([H])([H])c2c([H])c([H])c([H])c([H])c2[H])C([H])([H])c2c([H])c([H])c([H])c([H])c2[H])C([H])([H])C([H])([H])C1([H])[H]


 54 58  0  0  0  0  0  0  0  0999 V2000
    2.5297  -52.5993  -23.5908 N   0  0  0  0  0  0  0  0  0  0  0  0
    1.5380  -52.0319  -22.8217 C   0  0  0  0  0  0  0  0  0  0  0  0
    1.1981  -50.8249  -23.2071 O   0  0  0  0  0  0  0  0  0  0  0  0
    2.9136  -53.5575  -23.4447 H   0  0  0  0  0  0  0  0  0  0  0  0
    0.8346  -52.5253  -21.7125 C   0  0  0  0  0  0  0  0  0  0  0  0
   -0.6932  -52.6503  -21.8694 C   0  0  0  0  0  0  0  0  0  0  0  0
   -0.9720  -53.4415  -20.5888 C   0  0  0  0  0  0  0  0  0  0  0  0
    0.2682  -53.2494  -19.6938 C   0  0  0  0  0  0  0  0  0  0  0  0
    0.8776  -52.0639  -20.3872 N   0  0  0  0  0  0  0  0  0  0  0  0
    1.1912  -50.9168  -19.6442 C   0  0  0  0  0  0  0  0  0  0  0  0
    1.4688  -49.7800  -20.1362 O   0  0  0  0  0  0  0  0  0  0  0  0
    1.2345  -50.9246  -18.1383 C   0  0  0  0  0  0  0  0  0  0  0  0
   -0.0444  -50.4897  -17.6025 N   0  0  0  0  0  0  0  0  0  0  0  0
   -0.7393  -51.2324  -16.6108 C   0  0  0  0  0  0  0  0  0  0  0  0
   -0.2147  -52.3019  -16.2047 O   0  0  0  0  0  0  0  0  0  0  0  0
   -0.4802  -49.6060  -17.9417 H   0  0  0  0  0  0  0  0  0  0  0  0
   -1.9411  -50.8522  -16.0707 O   0  0  0  0  0  0  0  0  0  0  0  0
   -2.3539  -51.1795  -14.7614 C   0  0  0  0  0  0  0  0  0  0  0  0
   -3.4469  -52.1484  -14.7061 C   0  0  0  0  0  0  0  0  0  0  0  0
   -3.8878  -52.6331  -13.4952 C   0  0  0  0  0  0  0  0  0  0  0  0
   -4.9305  -53.5665  -13.4413 C   0  0  0  0  0  0  0  0  0  0  0  0
   -5.4962  -53.9815  -14.6387 C   0  0  0  0  0  0  0  0  0  0  0  0
   -5.0474  -53.4900  -15.8511 C   0  0  0  0  0  0  0  0  0  0  0  0
   -4.0205  -52.5694  -15.9087 C   0  0  0  0  0  0  0  0  0  0  0  0
    2.3219  -49.9610  -17.6767 C   0  0  0  0  0  0  0  0  0  0  0  0
    2.7615  -50.1950  -16.2997 C   0  0  0  0  0  0  0  0  0  0  0  0
    3.5107  -51.2887  -15.9387 C   0  0  0  0  0  0  0  0  0  0  0  0
    3.8935  -51.4671  -14.6312 C   0  0  0  0  0  0  0  0  0  0  0  0
    3.5434  -50.5652  -13.6495 C   0  0  0  0  0  0  0  0  0  0  0  0
    2.7848  -49.4544  -14.0084 C   0  0  0  0  0  0  0  0  0  0  0  0
    2.4133  -49.2954  -15.3145 C   0  0  0  0  0  0  0  0  0  0  0  0
    3.1145  -51.8740  -24.7410 C   0  0  0  0  0  0  0  0  0  0  0  0
    2.8185  -52.5797  -25.9967 C   0  0  0  0  0  0  0  0  0  0  0  0
    3.7492  -53.2392  -26.5837 O   0  0  0  0  0  0  0  0  0  0  0  0
    1.5165  -52.5780  -26.6233 C   0  0  0  0  0  0  0  0  0  0  0  0
    0.3568  -52.3221  -25.9832 N   0  0  0  0  0  0  0  0  0  0  0  0
   -0.6649  -52.3946  -26.8385 C   0  0  0  0  0  0  0  0  0  0  0  0
   -2.0448  -52.2285  -26.7317 C   0  0  0  0  0  0  0  0  0  0  0  0
   -2.8354  -52.3774  -27.8327 C   0  0  0  0  0  0  0  0  0  0  0  0
   -2.3113  -52.6921  -29.0710 C   0  0  0  0  0  0  0  0  0  0  0  0
   -0.9287  -52.8505  -29.1397 C   0  0  0  0  0  0  0  0  0  0  0  0
   -0.0939  -52.7103  -28.0577 C   0  0  0  0  0  0  0  0  0  0  0  0
    1.2009  -52.8053  -27.8630 O   0  0  0  0  0  0  0  0  0  0  0  0
    4.5622  -51.6206  -24.4814 C   0  0  0  0  0  0  0  0  0  0  0  0
    5.0372  -51.9576  -23.1069 C   0  0  0  0  0  0  0  0  0  0  0  0
    6.0007  -50.8715  -22.6254 C   0  0  0  0  0  0  0  0  0  0  0  0
    5.4428  -49.5577  -22.6952 N   0  0  0  0  0  0  0  0  0  0  0  0
    5.8160  -48.8511  -23.3627 H   0  0  0  0  0  0  0  0  0  0  0  0
    3.1751  -48.7435  -22.4529 N   0  0  0  0  0  0  0  0  0  0  0  0
    4.3612  -49.2308  -21.8255 C   0  0  0  0  0  0  0  0  0  0  0  0
    4.4584  -49.3688  -20.5558 N   0  0  0  0  0  0  0  0  0  0  0  0
    2.2513  -49.0840  -22.1619 H   0  0  0  0  0  0  0  0  0  0  0  0
    3.2083  -48.0227  -23.2289 H   0  0  0  0  0  0  0  0  0  0  0  0
    5.3768  -49.7374  -20.1749 H   0  0  0  0  0  0  0  0  0  0  0  0
 49 50  1  0  0  0
 50 51  2  0  0  0
 50 47  1  0  0  0
 47 46  1  0  0  0
 46 45  1  0  0  0
 45 44  1  0  0  0
 44 32  1  0  0  0
 32  1  1  0  0  0
  1  2  1  0  0  0
  2  3  2  0  0  0
  2  5  1  0  0  0
  5  6  1  0  0  0
  6  7  1  0  0  0
  7  8  1  0  0  0
  8  9  1  0  0  0
  9 10  1  0  0  0
 10 11  2  0  0  0
 10 12  1  0  0  0
 12 25  1  0  0  0
 25 26  1  0  0  0
 26 27  2  0  0  0
 27 28  1  0  0  0
 28 29  2  0  0  0
 29 30  1  0  0  0
 30 31  2  0  0  0
 12 13  1  0  0  0
 13 14  1  0  0  0
 14 15  2  0  0  0
 14 17  1  0  0  0
 17 18  1  0  0  0
 18 19  1  0  0  0
 19 20  2  0  0  0
 20 21  1  0  0  0
 21 22  2  0  0  0
 22 23  1  0  0  0
 23 24  2  0  0  0
 32 33  1  0  0  0
 33 34  2  0  0  0
 33 35  1  0  0  0
 35 36  2  0  0  0
 36 37  1  0  0  0
 37 38  2  0  0  0
 38 39  1  0  0  0
 39 40  2  0  0  0
 40 41  1  0  0  0
 41 42  2  0  0  0
 42 43  1  0  0  0
  9  5  1  0  0  0
 31 26  1  0  0  0
 24 19  1  0  0  0
 43 35  1  0  0  0
 42 37  1  0  0  0
 49 52  1  0  0  0
 49 53  1  0  0  0
 51 54  1  0  0  0
 47 48  1  0  0  0
  1  4  1  0  0  0
 13 16  1  0  0  0
M  END
> <minimizedAffinity>
-8.19708

> <CNNscore>
0.1282596141

> <CNNaffinity>
6.9536399841

> <CNN_VS>
0.8918711543

> <CNNaffinity_variance>
0.2362612188

$$$$
[H]OC([H])([H])c1c([H])c([H])c(C([H])([H])[H])c(N(c2nc(N([H])c3c([H])c(N4C([H])([H])C([H])([H])OC([H])([H])C4([H])[H])c([H])c(N4C([H])([H])C([H])([H])OC([H])([H])C4([H])[H])c3[H])nc([H])c2[H])C([H])([H])[H])c1[H]


 38 42  0  0  0  0  0  0  0  0999 V2000
   -0.8094  -52.9887  -20.0223 N   0  0  0  0  0  0  0  0  0  0  0  0
   -1.6042  -53.3135  -19.3755 H   0  0  0  0  0  0  0  0  0  0  0  0
   -0.3958  -53.2780  -23.6609 C   0  0  0  0  0  0  0  0  0  0  0  0
   -0.9329  -54.5135  -23.9408 C   0  0  0  0  0  0  0  0  0  0  0  0
   -1.4307  -55.2242  -22.8672 C   0  0  0  0  0  0  0  0  0  0  0  0
   -1.3924  -54.7392  -21.6279 N   0  0  0  0  0  0  0  0  0  0  0  0
   -0.8763  -53.5444  -21.3348 C   0  0  0  0  0  0  0  0  0  0  0  0
   -0.3833  -52.8398  -22.3993 N   0  0  0  0  0  0  0  0  0  0  0  0
    0.9442  -51.3097  -24.2011 C   0  0  0  0  0  0  0  0  0  0  0  0
    0.1646  -52.4357  -24.6656 N   0  0  0  0  0  0  0  0  0  0  0  0
   -0.0237  -52.6762  -26.0397 C   0  0  0  0  0  0  0  0  0  0  0  0
    0.9586  -53.2953  -26.7796 C   0  0  0  0  0  0  0  0  0  0  0  0
    0.8327  -53.5411  -28.1282 C   0  0  0  0  0  0  0  0  0  0  0  0
   -0.3020  -53.1637  -28.7784 C   0  0  0  0  0  0  0  0  0  0  0  0
   -1.3244  -52.5340  -28.0733 C   0  0  0  0  0  0  0  0  0  0  0  0
   -1.1587  -52.3044  -26.7100 C   0  0  0  0  0  0  0  0  0  0  0  0
   -2.2617  -51.6472  -25.9746 C   0  0  0  0  0  0  0  0  0  0  0  0
    1.9358  -54.2111  -28.8359 C   0  0  0  0  0  0  0  0  0  0  0  0
    3.1419  -53.5051  -28.6611 O   0  0  0  0  0  0  0  0  0  0  0  0
    3.1743  -52.8116  -29.3613 H   0  0  0  0  0  0  0  0  0  0  0  0
    0.1658  -52.0968  -19.5326 C   0  0  0  0  0  0  0  0  0  0  0  0
    0.0023  -51.6225  -18.2252 C   0  0  0  0  0  0  0  0  0  0  0  0
    0.8675  -50.7694  -17.6019 C   0  0  0  0  0  0  0  0  0  0  0  0
    1.9673  -50.3607  -18.3244 C   0  0  0  0  0  0  0  0  0  0  0  0
    2.1880  -50.7999  -19.6373 C   0  0  0  0  0  0  0  0  0  0  0  0
    1.2789  -51.6617  -20.2126 C   0  0  0  0  0  0  0  0  0  0  0  0
    3.3426  -50.3307  -20.3093 N   0  0  0  0  0  0  0  0  0  0  0  0
    3.9885  -49.0786  -20.0128 C   0  0  0  0  0  0  0  0  0  0  0  0
    5.4735  -49.3415  -19.7743 C   0  0  0  0  0  0  0  0  0  0  0  0
    6.0553  -50.0845  -20.7694 O   0  0  0  0  0  0  0  0  0  0  0  0
    5.2012  -50.3610  -21.8183 C   0  0  0  0  0  0  0  0  0  0  0  0
    3.9659  -51.1133  -21.3803 C   0  0  0  0  0  0  0  0  0  0  0  0
    0.6374  -50.3052  -16.2520 N   0  0  0  0  0  0  0  0  0  0  0  0
    0.4792  -51.2062  -15.1462 C   0  0  0  0  0  0  0  0  0  0  0  0
    0.8945  -50.5382  -13.8531 C   0  0  0  0  0  0  0  0  0  0  0  0
    0.1782  -49.3426  -13.7345 O   0  0  0  0  0  0  0  0  0  0  0  0
    0.7934  -48.4552  -14.6119 C   0  0  0  0  0  0  0  0  0  0  0  0
    0.5732  -48.8756  -16.0406 C   0  0  0  0  0  0  0  0  0  0  0  0
  9 10  1  0  0  0
 10  3  1  0  0  0
  3  4  2  0  0  0
  4  5  1  0  0  0
  5  6  2  0  0  0
  6  7  1  0  0  0
  7  1  1  0  0  0
  1 21  1  0  0  0
 21 22  2  0  0  0
 22 23  1  0  0  0
 23 24  2  0  0  0
 24 25  1  0  0  0
 25 26  2  0  0  0
 25 27  1  0  0  0
 27 28  1  0  0  0
 28 29  1  0  0  0
 29 30  1  0  0  0
 30 31  1  0  0  0
 31 32  1  0  0  0
 23 33  1  0  0  0
 33 34  1  0  0  0
 34 35  1  0  0  0
 35 36  1  0  0  0
 36 37  1  0  0  0
 37 38  1  0  0  0
  7  8  2  0  0  0
 10 11  1  0  0  0
 11 12  2  0  0  0
 12 13  1  0  0  0
 13 18  1  0  0  0
 18 19  1  0  0  0
 13 14  2  0  0  0
 14 15  1  0  0  0
 15 16  2  0  0  0
 16 17  1  0  0  0
  8  3  1  0  0  0
 16 11  1  0  0  0
 26 21  1  0  0  0
 32 27  1  0  0  0
 38 33  1  0  0  0
  1  2  1  0  0  0
 19 20  1  0  0  0
M  END
> <minimizedAffinity>
-8.61889

> <CNNscore>
0.8766871095

> <CNNaffinity>
7.5937385559

> <CNN_VS>
6.6573328972

> <CNNaffinity_variance>
0.0306906737

$$$$
[H]OC([H])([H])c1c([H])c([H])c(C([H])([H])[H])c(N(c2nc(N([H])c3c([H])c(N4C([H])([H])C([H])([H])OC([H])([H])C4([H])[H])c([H])c(N4C([H])([H])C([H])([H])OC([H])([H])C4([H])[H])c3[H])nc([H])c2[H])C([H])([H])[H])c1[H]


 38 42  0  0  0  0  0  0  0  0999 V2000
   -0.6041  -53.7057  -20.0522 N   0  0  0  0  0  0  0  0  0  0  0  0
   -1.1733  -54.3424  -19.3994 H   0  0  0  0  0  0  0  0  0  0  0  0
   -0.3170  -53.4163  -23.7030 C   0  0  0  0  0  0  0  0  0  0  0  0
   -0.9127  -54.5703  -24.1573 C   0  0  0  0  0  0  0  0  0  0  0  0
   -1.4053  -55.4275  -23.1939 C   0  0  0  0  0  0  0  0  0  0  0  0
   -1.3083  -55.1513  -21.8951 N   0  0  0  0  0  0  0  0  0  0  0  0
   -0.7348  -54.0387  -21.4335 C   0  0  0  0  0  0  0  0  0  0  0  0
   -0.2470  -53.1888  -22.3888 N   0  0  0  0  0  0  0  0  0  0  0  0
    0.8742  -51.2998  -23.9549 C   0  0  0  0  0  0  0  0  0  0  0  0
    0.2456  -52.4427  -24.5797 N   0  0  0  0  0  0  0  0  0  0  0  0
    0.1981  -52.5748  -25.9803 C   0  0  0  0  0  0  0  0  0  0  0  0
   -1.0003  -52.4679  -26.6498 C   0  0  0  0  0  0  0  0  0  0  0  0
   -1.1056  -52.6034  -28.0157 C   0  0  0  0  0  0  0  0  0  0  0  0
    0.0090  -52.8549  -28.7554 C   0  0  0  0  0  0  0  0  0  0  0  0
    1.2446  -52.9714  -28.1238 C   0  0  0  0  0  0  0  0  0  0  0  0
    1.3091  -52.8268  -26.7405 C   0  0  0  0  0  0  0  0  0  0  0  0
    2.6326  -52.9395  -26.0887 C   0  0  0  0  0  0  0  0  0  0  0  0
   -2.4298  -52.4708  -28.6443 C   0  0  0  0  0  0  0  0  0  0  0  0
   -3.4528  -52.7287  -27.7110 O   0  0  0  0  0  0  0  0  0  0  0  0
   -3.6019  -53.7035  -27.7085 H   0  0  0  0  0  0  0  0  0  0  0  0
    0.1728  -52.6647  -19.5054 C   0  0  0  0  0  0  0  0  0  0  0  0
   -0.3497  -51.9898  -18.3951 C   0  0  0  0  0  0  0  0  0  0  0  0
    0.2872  -50.9732  -17.7425 C   0  0  0  0  0  0  0  0  0  0  0  0
    1.5240  -50.6028  -18.2238 C   0  0  0  0  0  0  0  0  0  0  0  0
    2.1016  -51.2394  -19.3312 C   0  0  0  0  0  0  0  0  0  0  0  0
    1.4101  -52.2599  -19.9480 C   0  0  0  0  0  0  0  0  0  0  0  0
    3.3756  -50.7963  -19.7620 N   0  0  0  0  0  0  0  0  0  0  0  0
    4.0785  -51.3527  -20.8886 C   0  0  0  0  0  0  0  0  0  0  0  0
    4.4915  -50.2124  -21.8162 C   0  0  0  0  0  0  0  0  0  0  0  0
    5.1365  -49.1937  -21.1627 O   0  0  0  0  0  0  0  0  0  0  0  0
    5.3563  -49.4528  -19.8246 C   0  0  0  0  0  0  0  0  0  0  0  0
    4.0767  -49.7147  -19.0645 C   0  0  0  0  0  0  0  0  0  0  0  0
   -0.3103  -50.3067  -16.6069 N   0  0  0  0  0  0  0  0  0  0  0  0
    0.1066  -49.0034  -16.1742 C   0  0  0  0  0  0  0  0  0  0  0  0
   -1.0232  -48.2947  -15.4585 C   0  0  0  0  0  0  0  0  0  0  0  0
   -1.4760  -49.1297  -14.4317 O   0  0  0  0  0  0  0  0  0  0  0  0
   -2.2364  -50.1100  -15.0615 C   0  0  0  0  0  0  0  0  0  0  0  0
   -1.3663  -51.0031  -15.9051 C   0  0  0  0  0  0  0  0  0  0  0  0
  9 10  1  0  0  0
 10  3  1  0  0  0
  3  4  2  0  0  0
  4  5  1  0  0  0
  5  6  2  0  0  0
  6  7  1  0  0  0
  7  1  1  0  0  0
  1 21  1  0  0  0
 21 22  2  0  0  0
 22 23  1  0  0  0
 23 24  2  0  0  0
 24 25  1  0  0  0
 25 26  2  0  0  0
 25 27  1  0  0  0
 27 28  1  0  0  0
 28 29  1  0  0  0
 29 30  1  0  0  0
 30 31  1  0  0  0
 31 32  1  0  0  0
 23 33  1  0  0  0
 33 34  1  0  0  0
 34 35  1  0  0  0
 35 36  1  0  0  0
 36 37  1  0  0  0
 37 38  1  0  0  0
  7  8  2  0  0  0
 10 11  1  0  0  0
 11 12  2  0  0  0
 12 13  1  0  0  0
 13 18  1  0  0  0
 18 19  1  0  0  0
 13 14  2  0  0  0
 14 15  1  0  0  0
 15 16  2  0  0  0
 16 17  1  0  0  0
  8  3  1  0  0  0
 16 11  1  0  0  0
 26 21  1  0  0  0
 32 27  1  0  0  0
 38 33  1  0  0  0
  1  2  1  0  0  0
 19 20  1  0  0  0
M  END
> <minimizedAffinity>
-9.73895

> <CNNscore>
0.8622184396

> <CNNaffinity>
7.5021810532

> <CNN_VS>
6.4685187340

> <CNNaffinity_variance>
0.0443588719

$$$$
[H]OC([H])([H])c1c([H])c([H])c(C([H])([H])[H])c(N(c2nc(N([H])c3c([H])c(N4C([H])([H])C([H])([H])OC([H])([H])C4([H])[H])c([H])c(N4C([H])([H])C([H])([H])OC([H])([H])C4([H])[H])c3[H])nc([H])c2[H])C([H])([H])[H])c1[H]


 38 42  0  0  0  0  0  0  0  0999 V2000
    0.1798  -53.8947  -19.5029 N   0  0  0  0  0  0  0  0  0  0  0  0
    0.7402  -54.7545  -19.1833 H   0  0  0  0  0  0  0  0  0  0  0  0
    0.1876  -53.0115  -23.0686 C   0  0  0  0  0  0  0  0  0  0  0  0
   -0.7421  -53.8710  -23.6071 C   0  0  0  0  0  0  0  0  0  0  0  0
   -1.3573  -54.7395  -22.7279 C   0  0  0  0  0  0  0  0  0  0  0  0
   -1.0655  -54.7443  -21.4289 N   0  0  0  0  0  0  0  0  0  0  0  0
   -0.1677  -53.9199  -20.8866 C   0  0  0  0  0  0  0  0  0  0  0  0
    0.4417  -53.0587  -21.7583 N   0  0  0  0  0  0  0  0  0  0  0  0
    0.2677  -51.6137  -25.0690 C   0  0  0  0  0  0  0  0  0  0  0  0
    0.9099  -52.0666  -23.8549 N   0  0  0  0  0  0  0  0  0  0  0  0
    2.1812  -51.5920  -23.4807 C   0  0  0  0  0  0  0  0  0  0  0  0
    3.3202  -52.2037  -23.9541 C   0  0  0  0  0  0  0  0  0  0  0  0
    4.5870  -51.7901  -23.6085 C   0  0  0  0  0  0  0  0  0  0  0  0
    4.7436  -50.7345  -22.7636 C   0  0  0  0  0  0  0  0  0  0  0  0
    3.6217  -50.0826  -22.2582 C   0  0  0  0  0  0  0  0  0  0  0  0
    2.3578  -50.5310  -22.6328 C   0  0  0  0  0  0  0  0  0  0  0  0
    1.1777  -49.8170  -22.0972 C   0  0  0  0  0  0  0  0  0  0  0  0
    5.7463  -52.5048  -24.1666 C   0  0  0  0  0  0  0  0  0  0  0  0
    6.6487  -51.6024  -24.7626 O   0  0  0  0  0  0  0  0  0  0  0  0
    6.3459  -51.4622  -25.6905 H   0  0  0  0  0  0  0  0  0  0  0  0
   -0.1352  -52.8841  -18.5724 C   0  0  0  0  0  0  0  0  0  0  0  0
    0.7134  -51.7712  -18.5226 C   0  0  0  0  0  0  0  0  0  0  0  0
    0.5344  -50.7034  -17.6904 C   0  0  0  0  0  0  0  0  0  0  0  0
   -0.5591  -50.7432  -16.8531 C   0  0  0  0  0  0  0  0  0  0  0  0
   -1.4464  -51.8286  -16.8552 C   0  0  0  0  0  0  0  0  0  0  0  0
   -1.2131  -52.8774  -17.7187 C   0  0  0  0  0  0  0  0  0  0  0  0
   -2.5444  -51.7904  -15.9621 N   0  0  0  0  0  0  0  0  0  0  0  0
   -2.6114  -50.9276  -14.8115 C   0  0  0  0  0  0  0  0  0  0  0  0
   -3.9267  -50.1536  -14.8594 C   0  0  0  0  0  0  0  0  0  0  0  0
   -5.0186  -50.9595  -15.0570 O   0  0  0  0  0  0  0  0  0  0  0  0
   -4.7102  -52.3050  -15.0807 C   0  0  0  0  0  0  0  0  0  0  0  0
   -3.7116  -52.6545  -16.1597 C   0  0  0  0  0  0  0  0  0  0  0  0
    1.4536  -49.5873  -17.6772 N   0  0  0  0  0  0  0  0  0  0  0  0
    2.1300  -49.1630  -16.4848 C   0  0  0  0  0  0  0  0  0  0  0  0
    3.4344  -48.4769  -16.8295 C   0  0  0  0  0  0  0  0  0  0  0  0
    3.1558  -47.4485  -17.7358 O   0  0  0  0  0  0  0  0  0  0  0  0
    2.9456  -48.0801  -18.9575 C   0  0  0  0  0  0  0  0  0  0  0  0
    1.6811  -48.8965  -18.9277 C   0  0  0  0  0  0  0  0  0  0  0  0
  9 10  1  0  0  0
 10  3  1  0  0  0
  3  4  2  0  0  0
  4  5  1  0  0  0
  5  6  2  0  0  0
  6  7  1  0  0  0
  7  1  1  0  0  0
  1 21  1  0  0  0
 21 22  2  0  0  0
 22 23  1  0  0  0
 23 24  2  0  0  0
 24 25  1  0  0  0
 25 26  2  0  0  0
 25 27  1  0  0  0
 27 28  1  0  0  0
 28 29  1  0  0  0
 29 30  1  0  0  0
 30 31  1  0  0  0
 31 32  1  0  0  0
 23 33  1  0  0  0
 33 34  1  0  0  0
 34 35  1  0  0  0
 35 36  1  0  0  0
 36 37  1  0  0  0
 37 38  1  0  0  0
  7  8  2  0  0  0
 10 11  1  0  0  0
 11 12  2  0  0  0
 12 13  1  0  0  0
 13 18  1  0  0  0
 18 19  1  0  0  0
 13 14  2  0  0  0
 14 15  1  0  0  0
 15 16  2  0  0  0
 16 17  1  0  0  0
  8  3  1  0  0  0
 16 11  1  0  0  0
 26 21  1  0  0  0
 32 27  1  0  0  0
 38 33  1  0  0  0
  1  2  1  0  0  0
 19 20  1  0  0  0
M  END
> <minimizedAffinity>
-8.31151

> <CNNscore>
0.8232860565

> <CNNaffinity>
7.3696732521

> <CNN_VS>
6.0673494339

> <CNNaffinity_variance>
0.0143864108

$$$$
[H]OC([H])([H])c1c([H])c([H])c(C([H])([H])[H])c(N(c2nc(N([H])c3c([H])c(N4C([H])([H])C([H])([H])OC([H])([H])C4([H])[H])c([H])c(N4C([H])([H])C([H])([H])OC([H])([H])C4([H])[H])c3[H])nc([H])c2[H])C([H])([H])[H])c1[H]


 38 42  0  0  0  0  0  0  0  0999 V2000
   -1.0045  -52.7840  -20.2319 N   0  0  0  0  0  0  0  0  0  0  0  0
   -1.9619  -52.8591  -19.7489 H   0  0  0  0  0  0  0  0  0  0  0  0
   -0.4060  -53.2075  -23.8314 C   0  0  0  0  0  0  0  0  0  0  0  0
   -0.8099  -54.5015  -24.0668 C   0  0  0  0  0  0  0  0  0  0  0  0
   -1.2844  -55.2045  -22.9777 C   0  0  0  0  0  0  0  0  0  0  0  0
   -1.3469  -54.6587  -21.7650 N   0  0  0  0  0  0  0  0  0  0  0  0
   -0.9605  -53.4065  -21.5150 C   0  0  0  0  0  0  0  0  0  0  0  0
   -0.4906  -52.7095  -22.5950 N   0  0  0  0  0  0  0  0  0  0  0  0
    0.8709  -51.2111  -24.4196 C   0  0  0  0  0  0  0  0  0  0  0  0
    0.1151  -52.3643  -24.8563 N   0  0  0  0  0  0  0  0  0  0  0  0
   -0.0884  -52.6287  -26.2238 C   0  0  0  0  0  0  0  0  0  0  0  0
    0.9060  -53.2131  -26.9758 C   0  0  0  0  0  0  0  0  0  0  0  0
    0.7655  -53.4798  -28.3190 C   0  0  0  0  0  0  0  0  0  0  0  0
   -0.3967  -53.1597  -28.9511 C   0  0  0  0  0  0  0  0  0  0  0  0
   -1.4323  -52.5671  -28.2332 C   0  0  0  0  0  0  0  0  0  0  0  0
   -1.2510  -52.3146  -26.8760 C   0  0  0  0  0  0  0  0  0  0  0  0
   -2.3677  -51.6976  -26.1264 C   0  0  0  0  0  0  0  0  0  0  0  0
    1.8833  -54.1093  -29.0406 C   0  0  0  0  0  0  0  0  0  0  0  0
    3.1186  -53.6920  -28.5079 O   0  0  0  0  0  0  0  0  0  0  0  0
    3.3590  -52.8503  -28.9620 H   0  0  0  0  0  0  0  0  0  0  0  0
    0.0525  -52.1161  -19.5816 C   0  0  0  0  0  0  0  0  0  0  0  0
    1.1873  -51.8154  -20.3453 C   0  0  0  0  0  0  0  0  0  0  0  0
    2.2848  -51.1581  -19.8673 C   0  0  0  0  0  0  0  0  0  0  0  0
    2.2531  -50.7740  -18.5445 C   0  0  0  0  0  0  0  0  0  0  0  0
    1.1465  -51.0450  -17.7275 C   0  0  0  0  0  0  0  0  0  0  0  0
    0.0677  -51.7116  -18.2676 C   0  0  0  0  0  0  0  0  0  0  0  0
    1.1961  -50.6165  -16.3788 N   0  0  0  0  0  0  0  0  0  0  0  0
    0.5763  -51.3256  -15.2898 C   0  0  0  0  0  0  0  0  0  0  0  0
    1.6192  -51.5469  -14.1968 C   0  0  0  0  0  0  0  0  0  0  0  0
    2.2874  -50.4005  -13.8503 O   0  0  0  0  0  0  0  0  0  0  0  0
    1.8161  -49.2746  -14.4954 C   0  0  0  0  0  0  0  0  0  0  0  0
    1.8998  -49.3880  -16.0000 C   0  0  0  0  0  0  0  0  0  0  0  0
    3.4325  -50.8869  -20.7038 N   0  0  0  0  0  0  0  0  0  0  0  0
    4.4377  -49.9287  -20.3419 C   0  0  0  0  0  0  0  0  0  0  0  0
    5.7634  -50.2824  -20.9809 C   0  0  0  0  0  0  0  0  0  0  0  0
    5.5579  -50.4157  -22.3580 O   0  0  0  0  0  0  0  0  0  0  0  0
    4.9344  -51.6489  -22.5205 C   0  0  0  0  0  0  0  0  0  0  0  0
    3.5449  -51.6269  -21.9417 C   0  0  0  0  0  0  0  0  0  0  0  0
  9 10  1  0  0  0
 10  3  1  0  0  0
  3  4  2  0  0  0
  4  5  1  0  0  0
  5  6  2  0  0  0
  6  7  1  0  0  0
  7  1  1  0  0  0
  1 21  1  0  0  0
 21 22  2  0  0  0
 22 23  1  0  0  0
 23 24  2  0  0  0
 24 25  1  0  0  0
 25 26  2  0  0  0
 25 27  1  0  0  0
 27 28  1  0  0  0
 28 29  1  0  0  0
 29 30  1  0  0  0
 30 31  1  0  0  0
 31 32  1  0  0  0
 23 33  1  0  0  0
 33 34  1  0  0  0
 34 35  1  0  0  0
 35 36  1  0  0  0
 36 37  1  0  0  0
 37 38  1  0  0  0
  7  8  2  0  0  0
 10 11  1  0  0  0
 11 12  2  0  0  0
 12 13  1  0  0  0
 13 18  1  0  0  0
 18 19  1  0  0  0
 13 14  2  0  0  0
 14 15  1  0  0  0
 15 16  2  0  0  0
 16 17  1  0  0  0
  8  3  1  0  0  0
 16 11  1  0  0  0
 26 21  1  0  0  0
 32 27  1  0  0  0
 38 33  1  0  0  0
  1  2  1  0  0  0
 19 20  1  0  0  0
M  END
> <minimizedAffinity>
-8.83179

> <CNNscore>
0.8201808333

> <CNNaffinity>
7.5894255638

> <CNN_VS>
6.2247014046

> <CNNaffinity_variance>
0.0321381465

$$$$
[H]OC([H])([H])c1c([H])c([H])c(C([H])([H])[H])c(N(c2nc(N([H])c3c([H])c(N4C([H])([H])C([H])([H])OC([H])([H])C4([H])[H])c([H])c(N4C([H])([H])C([H])([H])OC([H])([H])C4([H])[H])c3[H])nc([H])c2[H])C([H])([H])[H])c1[H]


 38 42  0  0  0  0  0  0  0  0999 V2000
   -0.0720  -54.1045  -19.9444 N   0  0  0  0  0  0  0  0  0  0  0  0
    0.0138  -55.0909  -19.5259 H   0  0  0  0  0  0  0  0  0  0  0  0
    0.2154  -53.1063  -23.4680 C   0  0  0  0  0  0  0  0  0  0  0  0
   -0.6270  -53.9829  -24.1124 C   0  0  0  0  0  0  0  0  0  0  0  0
   -1.2814  -54.9023  -23.3175 C   0  0  0  0  0  0  0  0  0  0  0  0
   -1.1059  -54.9382  -21.9982 N   0  0  0  0  0  0  0  0  0  0  0  0
   -0.2942  -54.0980  -21.3539 C   0  0  0  0  0  0  0  0  0  0  0  0
    0.3541  -53.1863  -22.1420 N   0  0  0  0  0  0  0  0  0  0  0  0
    0.3662  -51.5691  -25.3590 C   0  0  0  0  0  0  0  0  0  0  0  0
    0.9651  -52.1093  -24.1585 N   0  0  0  0  0  0  0  0  0  0  0  0
    2.2223  -51.6661  -23.7067 C   0  0  0  0  0  0  0  0  0  0  0  0
    3.3771  -52.2514  -24.1754 C   0  0  0  0  0  0  0  0  0  0  0  0
    4.6308  -51.8671  -23.7562 C   0  0  0  0  0  0  0  0  0  0  0  0
    4.7577  -50.8691  -22.8394 C   0  0  0  0  0  0  0  0  0  0  0  0
    3.6190  -50.2459  -22.3355 C   0  0  0  0  0  0  0  0  0  0  0  0
    2.3692  -50.6630  -22.7858 C   0  0  0  0  0  0  0  0  0  0  0  0
    1.1713  -49.9794  -22.2500 C   0  0  0  0  0  0  0  0  0  0  0  0
    5.8088  -52.5499  -24.3153 C   0  0  0  0  0  0  0  0  0  0  0  0
    6.9923  -51.8747  -23.9584 O   0  0  0  0  0  0  0  0  0  0  0  0
    7.1371  -51.1701  -24.6329 H   0  0  0  0  0  0  0  0  0  0  0  0
    0.0402  -52.9794  -19.1030 C   0  0  0  0  0  0  0  0  0  0  0  0
   -0.9381  -52.8181  -18.1141 C   0  0  0  0  0  0  0  0  0  0  0  0
   -0.9593  -51.7930  -17.2121 C   0  0  0  0  0  0  0  0  0  0  0  0
    0.0580  -50.8676  -17.2977 C   0  0  0  0  0  0  0  0  0  0  0  0
    1.0673  -50.9732  -18.2650 C   0  0  0  0  0  0  0  0  0  0  0  0
    1.0350  -52.0312  -19.1479 C   0  0  0  0  0  0  0  0  0  0  0  0
    2.0749  -49.9786  -18.2846 N   0  0  0  0  0  0  0  0  0  0  0  0
    3.3816  -50.1507  -17.7051 C   0  0  0  0  0  0  0  0  0  0  0  0
    4.4307  -49.7955  -18.7561 C   0  0  0  0  0  0  0  0  0  0  0  0
    4.2051  -48.5816  -19.3531 O   0  0  0  0  0  0  0  0  0  0  0  0
    3.1324  -47.8977  -18.8170 C   0  0  0  0  0  0  0  0  0  0  0  0
    1.8400  -48.6751  -18.9120 C   0  0  0  0  0  0  0  0  0  0  0  0
   -2.0047  -51.6744  -16.2203 N   0  0  0  0  0  0  0  0  0  0  0  0
   -1.8838  -50.8180  -15.0751 C   0  0  0  0  0  0  0  0  0  0  0  0
   -3.2501  -50.3823  -14.5910 C   0  0  0  0  0  0  0  0  0  0  0  0
   -4.0201  -51.5305  -14.3783 O   0  0  0  0  0  0  0  0  0  0  0  0
   -4.3972  -51.9621  -15.6460 C   0  0  0  0  0  0  0  0  0  0  0  0
   -3.2047  -52.4573  -16.4200 C   0  0  0  0  0  0  0  0  0  0  0  0
  9 10  1  0  0  0
 10  3  1  0  0  0
  3  4  2  0  0  0
  4  5  1  0  0  0
  5  6  2  0  0  0
  6  7  1  0  0  0
  7  1  1  0  0  0
  1 21  1  0  0  0
 21 22  2  0  0  0
 22 23  1  0  0  0
 23 24  2  0  0  0
 24 25  1  0  0  0
 25 26  2  0  0  0
 25 27  1  0  0  0
 27 28  1  0  0  0
 28 29  1  0  0  0
 29 30  1  0  0  0
 30 31  1  0  0  0
 31 32  1  0  0  0
 23 33  1  0  0  0
 33 34  1  0  0  0
 34 35  1  0  0  0
 35 36  1  0  0  0
 36 37  1  0  0  0
 37 38  1  0  0  0
  7  8  2  0  0  0
 10 11  1  0  0  0
 11 12  2  0  0  0
 12 13  1  0  0  0
 13 18  1  0  0  0
 18 19  1  0  0  0
 13 14  2  0  0  0
 14 15  1  0  0  0
 15 16  2  0  0  0
 16 17  1  0  0  0
  8  3  1  0  0  0
 16 11  1  0  0  0
 26 21  1  0  0  0
 32 27  1  0  0  0
 38 33  1  0  0  0
  1  2  1  0  0  0
 19 20  1  0  0  0
M  END
> <minimizedAffinity>
-8.48256

> <CNNscore>
0.8175047636

> <CNNaffinity>
7.3821878433

> <CNN_VS>
6.0349736214

> <CNNaffinity_variance>
0.0177429318

$$$$
[H]OC([H])([H])c1c([H])c([H])c(C([H])([H])[H])c(N(c2nc(N([H])c3c([H])c(N4C([H])([H])C([H])([H])OC([H])([H])C4([H])[H])c([H])c(N4C([H])([H])C([H])([H])OC([H])([H])C4([H])[H])c3[H])nc([H])c2[H])C([H])([H])[H])c1[H]


 38 42  0  0  0  0  0  0  0  0999 V2000
   -0.1735  -53.7455  -19.4602 N   0  0  0  0  0  0  0  0  0  0  0  0
   -0.1090  -54.6839  -18.9398 H   0  0  0  0  0  0  0  0  0  0  0  0
    0.1732  -53.0732  -23.0550 C   0  0  0  0  0  0  0  0  0  0  0  0
   -0.6087  -54.0465  -23.6333 C   0  0  0  0  0  0  0  0  0  0  0  0
   -1.2440  -54.9170  -22.7706 C   0  0  0  0  0  0  0  0  0  0  0  0
   -1.1065  -54.8190  -21.4500 N   0  0  0  0  0  0  0  0  0  0  0  0
   -0.3536  -53.8835  -20.8689 C   0  0  0  0  0  0  0  0  0  0  0  0
    0.2757  -53.0203  -21.7243 N   0  0  0  0  0  0  0  0  0  0  0  0
    1.1576  -50.8421  -23.1762 C   0  0  0  0  0  0  0  0  0  0  0  0
    0.8970  -52.1112  -23.8189 N   0  0  0  0  0  0  0  0  0  0  0  0
    1.3397  -52.3703  -25.1297 C   0  0  0  0  0  0  0  0  0  0  0  0
    0.4540  -52.3370  -26.1834 C   0  0  0  0  0  0  0  0  0  0  0  0
    0.8303  -52.5969  -27.4819 C   0  0  0  0  0  0  0  0  0  0  0  0
    2.1274  -52.9030  -27.7586 C   0  0  0  0  0  0  0  0  0  0  0  0
    3.0610  -52.9490  -26.7265 C   0  0  0  0  0  0  0  0  0  0  0  0
    2.6405  -52.6788  -25.4269 C   0  0  0  0  0  0  0  0  0  0  0  0
    3.6495  -52.7182  -24.3453 C   0  0  0  0  0  0  0  0  0  0  0  0
   -0.1870  -52.5355  -28.5438 C   0  0  0  0  0  0  0  0  0  0  0  0
    0.3972  -52.7524  -29.8070 O   0  0  0  0  0  0  0  0  0  0  0  0
    0.7208  -51.8784  -30.1291 H   0  0  0  0  0  0  0  0  0  0  0  0
   -0.0765  -52.5402  -18.7363 C   0  0  0  0  0  0  0  0  0  0  0  0
   -0.9100  -52.3935  -17.6204 C   0  0  0  0  0  0  0  0  0  0  0  0
   -0.9226  -51.2959  -16.8081 C   0  0  0  0  0  0  0  0  0  0  0  0
   -0.0503  -50.2773  -17.1243 C   0  0  0  0  0  0  0  0  0  0  0  0
    0.8099  -50.3635  -18.2280 C   0  0  0  0  0  0  0  0  0  0  0  0
    0.7770  -51.4977  -19.0107 C   0  0  0  0  0  0  0  0  0  0  0  0
    1.6742  -49.2713  -18.4832 N   0  0  0  0  0  0  0  0  0  0  0  0
    2.4936  -48.6464  -17.4778 C   0  0  0  0  0  0  0  0  0  0  0  0
    3.9323  -48.5934  -17.9863 C   0  0  0  0  0  0  0  0  0  0  0  0
    4.0385  -48.0640  -19.2470 O   0  0  0  0  0  0  0  0  0  0  0  0
    2.8377  -47.6087  -19.7536 C   0  0  0  0  0  0  0  0  0  0  0  0
    1.7874  -48.6929  -19.8250 C   0  0  0  0  0  0  0  0  0  0  0  0
   -1.8163  -51.1985  -15.6756 N   0  0  0  0  0  0  0  0  0  0  0  0
   -1.5471  -50.3422  -14.5558 C   0  0  0  0  0  0  0  0  0  0  0  0
   -2.8370  -49.9326  -13.8781 C   0  0  0  0  0  0  0  0  0  0  0  0
   -3.5476  -51.0953  -13.5619 O   0  0  0  0  0  0  0  0  0  0  0  0
   -4.0956  -51.5314  -14.7641 C   0  0  0  0  0  0  0  0  0  0  0  0
   -3.0183  -52.0029  -15.7040 C   0  0  0  0  0  0  0  0  0  0  0  0
  9 10  1  0  0  0
 10  3  1  0  0  0
  3  4  2  0  0  0
  4  5  1  0  0  0
  5  6  2  0  0  0
  6  7  1  0  0  0
  7  1  1  0  0  0
  1 21  1  0  0  0
 21 22  2  0  0  0
 22 23  1  0  0  0
 23 24  2  0  0  0
 24 25  1  0  0  0
 25 26  2  0  0  0
 25 27  1  0  0  0
 27 28  1  0  0  0
 28 29  1  0  0  0
 29 30  1  0  0  0
 30 31  1  0  0  0
 31 32  1  0  0  0
 23 33  1  0  0  0
 33 34  1  0  0  0
 34 35  1  0  0  0
 35 36  1  0  0  0
 36 37  1  0  0  0
 37 38  1  0  0  0
  7  8  2  0  0  0
 10 11  1  0  0  0
 11 12  2  0  0  0
 12 13  1  0  0  0
 13 18  1  0  0  0
 18 19  1  0  0  0
 13 14  2  0  0  0
 14 15  1  0  0  0
 15 16  2  0  0  0
 16 17  1  0  0  0
  8  3  1  0  0  0
 16 11  1  0  0  0
 26 21  1  0  0  0
 32 27  1  0  0  0
 38 33  1  0  0  0
  1  2  1  0  0  0
 19 20  1  0  0  0
M  END
> <minimizedAffinity>
-9.22493

> <CNNscore>
0.8096628189

> <CNNaffinity>
7.4129266739

> <CNN_VS>
6.0019712448

> <CNNaffinity_variance>
0.0353832394

$$$$
[H]OC([H])([H])c1c([H])c([H])c(C([H])([H])[H])c(N(c2nc(N([H])c3c([H])c(N4C([H])([H])C([H])([H])OC([H])([H])C4([H])[H])c([H])c(N4C([H])([H])C([H])([H])OC([H])([H])C4([H])[H])c3[H])nc([H])c2[H])C([H])([H])[H])c1[H]


 38 42  0  0  0  0  0  0  0  0999 V2000
    0.1214  -54.1637  -20.0082 N   0  0  0  0  0  0  0  0  0  0  0  0
    0.3428  -55.1541  -19.6540 H   0  0  0  0  0  0  0  0  0  0  0  0
    0.1182  -52.9986  -23.4920 C   0  0  0  0  0  0  0  0  0  0  0  0
   -0.7114  -53.8969  -24.1228 C   0  0  0  0  0  0  0  0  0  0  0  0
   -1.2572  -54.8884  -23.3325 C   0  0  0  0  0  0  0  0  0  0  0  0
   -0.9939  -54.9702  -22.0300 N   0  0  0  0  0  0  0  0  0  0  0  0
   -0.1926  -54.1102  -21.3991 C   0  0  0  0  0  0  0  0  0  0  0  0
    0.3479  -53.1269  -22.1826 N   0  0  0  0  0  0  0  0  0  0  0  0
    0.2298  -51.5882  -25.4820 C   0  0  0  0  0  0  0  0  0  0  0  0
    0.7611  -51.9283  -24.1806 N   0  0  0  0  0  0  0  0  0  0  0  0
    1.8556  -51.2321  -23.6341 C   0  0  0  0  0  0  0  0  0  0  0  0
    1.6586  -50.0611  -22.9371 C   0  0  0  0  0  0  0  0  0  0  0  0
    2.6937  -49.3331  -22.3952 C   0  0  0  0  0  0  0  0  0  0  0  0
    3.9742  -49.7701  -22.5435 C   0  0  0  0  0  0  0  0  0  0  0  0
    4.2247  -50.9494  -23.2404 C   0  0  0  0  0  0  0  0  0  0  0  0
    3.1501  -51.6572  -23.7724 C   0  0  0  0  0  0  0  0  0  0  0  0
    3.4345  -52.9155  -24.4972 C   0  0  0  0  0  0  0  0  0  0  0  0
    2.3858  -48.0934  -21.6640 C   0  0  0  0  0  0  0  0  0  0  0  0
    2.2194  -47.0165  -22.5565 O   0  0  0  0  0  0  0  0  0  0  0  0
    3.1153  -46.6406  -22.7254 H   0  0  0  0  0  0  0  0  0  0  0  0
    0.1640  -53.0778  -19.1107 C   0  0  0  0  0  0  0  0  0  0  0  0
   -0.9181  -52.9270  -18.2348 C   0  0  0  0  0  0  0  0  0  0  0  0
   -1.0175  -51.9394  -17.2969 C   0  0  0  0  0  0  0  0  0  0  0  0
    0.0264  -51.0430  -17.2240 C   0  0  0  0  0  0  0  0  0  0  0  0
    1.1382  -51.1401  -18.0725 C   0  0  0  0  0  0  0  0  0  0  0  0
    1.1815  -52.1597  -18.9990 C   0  0  0  0  0  0  0  0  0  0  0  0
    2.1667  -50.1770  -17.9322 N   0  0  0  0  0  0  0  0  0  0  0  0
    3.5509  -50.5089  -17.7164 C   0  0  0  0  0  0  0  0  0  0  0  0
    4.3953  -49.7735  -18.7545 C   0  0  0  0  0  0  0  0  0  0  0  0
    4.1140  -48.4331  -18.8255 O   0  0  0  0  0  0  0  0  0  0  0  0
    3.1943  -48.0151  -17.8845 C   0  0  0  0  0  0  0  0  0  0  0  0
    1.8744  -48.7423  -17.9973 C   0  0  0  0  0  0  0  0  0  0  0  0
   -2.1677  -51.8293  -16.4277 N   0  0  0  0  0  0  0  0  0  0  0  0
   -3.3549  -52.6120  -16.6214 C   0  0  0  0  0  0  0  0  0  0  0  0
   -4.0860  -52.8017  -15.3098 C   0  0  0  0  0  0  0  0  0  0  0  0
   -4.3085  -51.5383  -14.7520 O   0  0  0  0  0  0  0  0  0  0  0  0
   -3.0809  -51.1443  -14.2291 C   0  0  0  0  0  0  0  0  0  0  0  0
   -2.0864  -50.8902  -15.3304 C   0  0  0  0  0  0  0  0  0  0  0  0
  9 10  1  0  0  0
 10  3  1  0  0  0
  3  4  2  0  0  0
  4  5  1  0  0  0
  5  6  2  0  0  0
  6  7  1  0  0  0
  7  1  1  0  0  0
  1 21  1  0  0  0
 21 22  2  0  0  0
 22 23  1  0  0  0
 23 24  2  0  0  0
 24 25  1  0  0  0
 25 26  2  0  0  0
 25 27  1  0  0  0
 27 28  1  0  0  0
 28 29  1  0  0  0
 29 30  1  0  0  0
 30 31  1  0  0  0
 31 32  1  0  0  0
 23 33  1  0  0  0
 33 34  1  0  0  0
 34 35  1  0  0  0
 35 36  1  0  0  0
 36 37  1  0  0  0
 37 38  1  0  0  0
  7  8  2  0  0  0
 10 11  1  0  0  0
 11 12  2  0  0  0
 12 13  1  0  0  0
 13 18  1  0  0  0
 18 19  1  0  0  0
 13 14  2  0  0  0
 14 15  1  0  0  0
 15 16  2  0  0  0
 16 17  1  0  0  0
  8  3  1  0  0  0
 16 11  1  0  0  0
 26 21  1  0  0  0
 32 27  1  0  0  0
 38 33  1  0  0  0
  1  2  1  0  0  0
 19 20  1  0  0  0
M  END
> <minimizedAffinity>
-7.75514

> <CNNscore>
0.7718034387

> <CNNaffinity>
7.3864049911

> <CNN_VS>
5.7008528709

> <CNNaffinity_variance>
0.0784319043

$$$$
[H]OC([H])([H])c1c([H])c([H])c(C([H])([H])[H])c(N(c2nc(N([H])c3c([H])c(N4C([H])([H])C([H])([H])OC([H])([H])C4([H])[H])c([H])c(N4C([H])([H])C([H])([H])OC([H])([H])C4([H])[H])c3[H])nc([H])c2[H])C([H])([H])[H])c1[H]


 38 42  0  0  0  0  0  0  0  0999 V2000
   -0.8626  -53.0241  -20.0065 N   0  0  0  0  0  0  0  0  0  0  0  0
   -1.7027  -53.3549  -19.4232 H   0  0  0  0  0  0  0  0  0  0  0  0
   -0.2865  -53.1776  -23.6313 C   0  0  0  0  0  0  0  0  0  0  0  0
   -0.7591  -54.4241  -23.9719 C   0  0  0  0  0  0  0  0  0  0  0  0
   -1.2707  -55.1891  -22.9430 C   0  0  0  0  0  0  0  0  0  0  0  0
   -1.3044  -54.7436  -21.6888 N   0  0  0  0  0  0  0  0  0  0  0  0
   -0.8515  -53.5390  -21.3372 C   0  0  0  0  0  0  0  0  0  0  0  0
   -0.3448  -52.7805  -22.3574 N   0  0  0  0  0  0  0  0  0  0  0  0
    0.9485  -51.1140  -24.0534 C   0  0  0  0  0  0  0  0  0  0  0  0
    0.2792  -52.2809  -24.5846 N   0  0  0  0  0  0  0  0  0  0  0  0
    0.1972  -52.5075  -25.9714 C   0  0  0  0  0  0  0  0  0  0  0  0
   -1.0052  -52.3750  -26.6290 C   0  0  0  0  0  0  0  0  0  0  0  0
   -1.1444  -52.5990  -27.9802 C   0  0  0  0  0  0  0  0  0  0  0  0
   -0.0610  -52.9689  -28.7166 C   0  0  0  0  0  0  0  0  0  0  0  0
    1.1772  -53.1160  -28.0967 C   0  0  0  0  0  0  0  0  0  0  0  0
    1.2765  -52.8791  -26.7282 C   0  0  0  0  0  0  0  0  0  0  0  0
    2.6032  -53.0262  -26.0897 C   0  0  0  0  0  0  0  0  0  0  0  0
   -2.4701  -52.4304  -28.5970 C   0  0  0  0  0  0  0  0  0  0  0  0
   -3.4903  -52.7651  -27.6853 O   0  0  0  0  0  0  0  0  0  0  0  0
   -3.6318  -53.7384  -27.7552 H   0  0  0  0  0  0  0  0  0  0  0  0
    0.0914  -52.1637  -19.4270 C   0  0  0  0  0  0  0  0  0  0  0  0
    1.3054  -52.0020  -20.1062 C   0  0  0  0  0  0  0  0  0  0  0  0
    2.3211  -51.1921  -19.6851 C   0  0  0  0  0  0  0  0  0  0  0  0
    2.1178  -50.4971  -18.5129 C   0  0  0  0  0  0  0  0  0  0  0  0
    0.9245  -50.6156  -17.7865 C   0  0  0  0  0  0  0  0  0  0  0  0
   -0.0648  -51.4488  -18.2629 C   0  0  0  0  0  0  0  0  0  0  0  0
    0.7977  -49.8672  -16.5912 N   0  0  0  0  0  0  0  0  0  0  0  0
   -0.4610  -49.4121  -16.0609 C   0  0  0  0  0  0  0  0  0  0  0  0
   -0.5605  -49.8484  -14.6011 C   0  0  0  0  0  0  0  0  0  0  0  0
    0.5461  -49.5147  -13.8629 O   0  0  0  0  0  0  0  0  0  0  0  0
    1.4751  -48.7777  -14.5697 C   0  0  0  0  0  0  0  0  0  0  0  0
    1.9752  -49.4980  -15.8005 C   0  0  0  0  0  0  0  0  0  0  0  0
    3.5576  -51.0759  -20.4255 N   0  0  0  0  0  0  0  0  0  0  0  0
    3.7763  -51.7600  -21.6680 C   0  0  0  0  0  0  0  0  0  0  0  0
    4.7841  -51.0134  -22.5153 C   0  0  0  0  0  0  0  0  0  0  0  0
    5.9375  -50.8220  -21.7473 O   0  0  0  0  0  0  0  0  0  0  0  0
    5.6280  -49.7896  -20.8675 C   0  0  0  0  0  0  0  0  0  0  0  0
    4.5905  -50.2294  -19.8693 C   0  0  0  0  0  0  0  0  0  0  0  0
  9 10  1  0  0  0
 10  3  1  0  0  0
  3  4  2  0  0  0
  4  5  1  0  0  0
  5  6  2  0  0  0
  6  7  1  0  0  0
  7  1  1  0  0  0
  1 21  1  0  0  0
 21 22  2  0  0  0
 22 23  1  0  0  0
 23 24  2  0  0  0
 24 25  1  0  0  0
 25 26  2  0  0  0
 25 27  1  0  0  0
 27 28  1  0  0  0
 28 29  1  0  0  0
 29 30  1  0  0  0
 30 31  1  0  0  0
 31 32  1  0  0  0
 23 33  1  0  0  0
 33 34  1  0  0  0
 34 35  1  0  0  0
 35 36  1  0  0  0
 36 37  1  0  0  0
 37 38  1  0  0  0
  7  8  2  0  0  0
 10 11  1  0  0  0
 11 12  2  0  0  0
 12 13  1  0  0  0
 13 18  1  0  0  0
 18 19  1  0  0  0
 13 14  2  0  0  0
 14 15  1  0  0  0
 15 16  2  0  0  0
 16 17  1  0  0  0
  8  3  1  0  0  0
 16 11  1  0  0  0
 26 21  1  0  0  0
 32 27  1  0  0  0
 38 33  1  0  0  0
  1  2  1  0  0  0
 19 20  1  0  0  0
M  END
> <minimizedAffinity>
-9.48192

> <CNNscore>
0.6939957738

> <CNNaffinity>
7.3158783913

> <CNN_VS>
5.0771884918

> <CNNaffinity_variance>
0.0555885211

$$$$
[H]OC([H])([H])c1c([H])c([H])c(C([H])([H])[H])c(N(c2nc(N([H])c3c([H])c(N4C([H])([H])C([H])([H])OC([H])([H])C4([H])[H])c([H])c(N4C([H])([H])C([H])([H])OC([H])([H])C4([H])[H])c3[H])nc([H])c2[H])C([H])([H])[H])c1[H]


 38 42  0  0  0  0  0  0  0  0999 V2000
   -0.1447  -53.6977  -19.5416 N   0  0  0  0  0  0  0  0  0  0  0  0
   -0.0734  -54.6225  -18.9984 H   0  0  0  0  0  0  0  0  0  0  0  0
    0.2122  -53.1677  -23.1591 C   0  0  0  0  0  0  0  0  0  0  0  0
   -0.6313  -54.1109  -23.6994 C   0  0  0  0  0  0  0  0  0  0  0  0
   -1.3105  -54.9123  -22.8039 C   0  0  0  0  0  0  0  0  0  0  0  0
   -1.1566  -54.7788  -21.4882 N   0  0  0  0  0  0  0  0  0  0  0  0
   -0.3442  -53.8714  -20.9437 C   0  0  0  0  0  0  0  0  0  0  0  0
    0.3286  -53.0767  -21.8316 N   0  0  0  0  0  0  0  0  0  0  0  0
    0.2519  -51.4246  -24.8685 C   0  0  0  0  0  0  0  0  0  0  0  0
    0.9860  -52.2769  -23.9595 N   0  0  0  0  0  0  0  0  0  0  0  0
    2.3902  -52.2205  -23.8791 C   0  0  0  0  0  0  0  0  0  0  0  0
    3.0038  -51.7151  -22.7549 C   0  0  0  0  0  0  0  0  0  0  0  0
    4.3717  -51.6232  -22.6299 C   0  0  0  0  0  0  0  0  0  0  0  0
    5.1707  -52.0429  -23.6489 C   0  0  0  0  0  0  0  0  0  0  0  0
    4.5971  -52.5620  -24.8067 C   0  0  0  0  0  0  0  0  0  0  0  0
    3.2096  -52.6390  -24.8936 C   0  0  0  0  0  0  0  0  0  0  0  0
    2.6186  -53.2068  -26.1256 C   0  0  0  0  0  0  0  0  0  0  0  0
    4.9378  -51.0706  -21.3887 C   0  0  0  0  0  0  0  0  0  0  0  0
    6.3439  -51.0267  -21.4584 O   0  0  0  0  0  0  0  0  0  0  0  0
    6.6750  -51.9075  -21.1636 H   0  0  0  0  0  0  0  0  0  0  0  0
   -0.0371  -52.4744  -18.8501 C   0  0  0  0  0  0  0  0  0  0  0  0
    0.6540  -51.4363  -19.4872 C   0  0  0  0  0  0  0  0  0  0  0  0
    0.8289  -50.1895  -18.9580 C   0  0  0  0  0  0  0  0  0  0  0  0
    0.2814  -49.9586  -17.7148 C   0  0  0  0  0  0  0  0  0  0  0  0
   -0.4222  -50.9562  -17.0255 C   0  0  0  0  0  0  0  0  0  0  0  0
   -0.5662  -52.1953  -17.6119 C   0  0  0  0  0  0  0  0  0  0  0  0
   -0.9518  -50.6359  -15.7520 N   0  0  0  0  0  0  0  0  0  0  0  0
   -2.3265  -50.8470  -15.3800 C   0  0  0  0  0  0  0  0  0  0  0  0
   -2.3615  -51.6350  -14.0727 C   0  0  0  0  0  0  0  0  0  0  0  0
   -1.5624  -51.0955  -13.0974 O   0  0  0  0  0  0  0  0  0  0  0  0
   -0.9667  -49.9075  -13.4713 C   0  0  0  0  0  0  0  0  0  0  0  0
   -0.1079  -50.0505  -14.7065 C   0  0  0  0  0  0  0  0  0  0  0  0
    1.5636  -49.1615  -19.6608 N   0  0  0  0  0  0  0  0  0  0  0  0
    2.6381  -48.4316  -19.0507 C   0  0  0  0  0  0  0  0  0  0  0  0
    3.6085  -47.9370  -20.1017 C   0  0  0  0  0  0  0  0  0  0  0  0
    2.8829  -47.2138  -21.0541 O   0  0  0  0  0  0  0  0  0  0  0  0
    2.2356  -48.1706  -21.8295 C   0  0  0  0  0  0  0  0  0  0  0  0
    1.1803  -48.8850  -21.0280 C   0  0  0  0  0  0  0  0  0  0  0  0
  9 10  1  0  0  0
 10  3  1  0  0  0
  3  4  2  0  0  0
  4  5  1  0  0  0
  5  6  2  0  0  0
  6  7  1  0  0  0
  7  1  1  0  0  0
  1 21  1  0  0  0
 21 22  2  0  0  0
 22 23  1  0  0  0
 23 24  2  0  0  0
 24 25  1  0  0  0
 25 26  2  0  0  0
 25 27  1  0  0  0
 27 28  1  0  0  0
 28 29  1  0  0  0
 29 30  1  0  0  0
 30 31  1  0  0  0
 31 32  1  0  0  0
 23 33  1  0  0  0
 33 34  1  0  0  0
 34 35  1  0  0  0
 35 36  1  0  0  0
 36 37  1  0  0  0
 37 38  1  0  0  0
  7  8  2  0  0  0
 10 11  1  0  0  0
 11 12  2  0  0  0
 12 13  1  0  0  0
 13 18  1  0  0  0
 18 19  1  0  0  0
 13 14  2  0  0  0
 14 15  1  0  0  0
 15 16  2  0  0  0
 16 17  1  0  0  0
  8  3  1  0  0  0
 16 11  1  0  0  0
 26 21  1  0  0  0
 32 27  1  0  0  0
 38 33  1  0  0  0
  1  2  1  0  0  0
 19 20  1  0  0  0
M  END
> <minimizedAffinity>
-8.36330

> <CNNscore>
0.6627202034

> <CNNaffinity>
7.0577735901

> <CNN_VS>
4.6773290634

> <CNNaffinity_variance>
0.0525385439

$$$$
[H]N=C(N([H])[H])N([H])C([H])([H])C([H])([H])C([H])([H])[C@@]([H])(C(=O)c1nc([H])c([H])s1)N([H])C(=O)[C@@]([H])(N([H])C(=O)[C@@]1([H])N(C(=O)[C@]([H])(N([H])C(=O)OC([H])([H])c2c([H])c([H])c([H])c([H])c2[H])C([H])([H])c2c([H])c([H])c([H])c([H])c2[H])C([H])([H])C([H])([H])C1([H])[H])C([H])([H])C([H])([H])C([H])([H])N([H])C(=N[H])N([H])[H]


 66 69  0  0  0  0  0  0  0  0999 V2000
    5.8029  -48.2341  -23.3932 C   0  0  0  0  0  0  0  0  0  0  0  0
    5.0474  -48.9392  -22.4484 N   0  0  0  0  0  0  0  0  0  0  0  0
    3.8122  -48.3596  -22.0086 C   0  0  0  0  0  0  0  0  0  0  0  0
    3.5283  -47.2415  -22.5486 O   0  0  0  0  0  0  0  0  0  0  0  0
    5.3452  -49.8710  -22.0459 H   0  0  0  0  0  0  0  0  0  0  0  0
    2.8915  -48.8990  -21.0400 C   0  0  0  0  0  0  0  0  0  0  0  0
    2.8262  -47.9271  -19.8116 C   0  0  0  0  0  0  0  0  0  0  0  0
    4.1143  -48.2035  -19.0617 C   0  0  0  0  0  0  0  0  0  0  0  0
    4.6079  -49.5081  -19.6673 C   0  0  0  0  0  0  0  0  0  0  0  0
    3.4131  -50.0467  -20.3119 N   0  0  0  0  0  0  0  0  0  0  0  0
    2.8436  -51.2897  -20.1265 C   0  0  0  0  0  0  0  0  0  0  0  0
    3.4763  -52.2143  -19.6026 O   0  0  0  0  0  0  0  0  0  0  0  0
    1.4111  -51.5716  -20.5379 C   0  0  0  0  0  0  0  0  0  0  0  0
    1.4799  -51.5387  -21.9990 N   0  0  0  0  0  0  0  0  0  0  0  0
    0.8009  -52.5449  -22.7721 C   0  0  0  0  0  0  0  0  0  0  0  0
    0.1478  -53.4431  -22.2026 O   0  0  0  0  0  0  0  0  0  0  0  0
    2.0070  -50.8189  -22.4909 H   0  0  0  0  0  0  0  0  0  0  0  0
    0.8612  -52.5519  -24.1519 O   0  0  0  0  0  0  0  0  0  0  0  0
    0.2297  -53.4990  -24.9468 C   0  0  0  0  0  0  0  0  0  0  0  0
    0.0510  -53.2555  -26.3574 C   0  0  0  0  0  0  0  0  0  0  0  0
   -1.1042  -52.6239  -26.7745 C   0  0  0  0  0  0  0  0  0  0  0  0
   -1.3747  -52.3601  -28.1194 C   0  0  0  0  0  0  0  0  0  0  0  0
   -0.4581  -52.7425  -29.0680 C   0  0  0  0  0  0  0  0  0  0  0  0
    0.7104  -53.3850  -28.6285 C   0  0  0  0  0  0  0  0  0  0  0  0
    0.9576  -53.6347  -27.3037 C   0  0  0  0  0  0  0  0  0  0  0  0
    0.4158  -50.6628  -19.9728 C   0  0  0  0  0  0  0  0  0  0  0  0
    0.1856  -50.7831  -18.5016 C   0  0  0  0  0  0  0  0  0  0  0  0
   -0.4126  -51.9173  -18.0290 C   0  0  0  0  0  0  0  0  0  0  0  0
   -0.6593  -52.0953  -16.7008 C   0  0  0  0  0  0  0  0  0  0  0  0
   -0.3049  -51.1075  -15.7583 C   0  0  0  0  0  0  0  0  0  0  0  0
    0.2950  -49.9802  -16.2794 C   0  0  0  0  0  0  0  0  0  0  0  0
    0.5459  -49.8018  -17.6255 C   0  0  0  0  0  0  0  0  0  0  0  0
    5.6805  -48.6697  -24.8132 C   0  0  0  0  0  0  0  0  0  0  0  0
    6.6040  -49.3353  -25.3258 O   0  0  0  0  0  0  0  0  0  0  0  0
    4.5471  -48.3339  -25.5397 N   0  0  0  0  0  0  0  0  0  0  0  0
    3.8100  -47.7822  -24.9669 H   0  0  0  0  0  0  0  0  0  0  0  0
    4.1595  -48.5898  -26.9489 C   0  0  0  0  0  0  0  0  0  0  0  0
    3.8781  -47.2674  -27.4873 C   0  0  0  0  0  0  0  0  0  0  0  0
    3.8702  -46.2379  -26.7181 O   0  0  0  0  0  0  0  0  0  0  0  0
    3.6107  -46.9915  -28.8919 C   0  0  0  0  0  0  0  0  0  0  0  0
    4.0662  -47.6021  -29.9904 N   0  0  0  0  0  0  0  0  0  0  0  0
    3.7042  -47.1821  -31.1549 C   0  0  0  0  0  0  0  0  0  0  0  0
    2.8595  -46.1151  -31.2350 C   0  0  0  0  0  0  0  0  0  0  0  0
    2.6173  -45.7569  -29.5803 S   0  0  0  0  0  0  0  0  0  0  0  0
    3.0997  -49.6211  -26.9145 C   0  0  0  0  0  0  0  0  0  0  0  0
    2.8388  -50.6704  -25.9744 C   0  0  0  0  0  0  0  0  0  0  0  0
    3.6753  -51.8240  -25.6649 C   0  0  0  0  0  0  0  0  0  0  0  0
    4.0680  -52.2797  -24.4144 N   0  0  0  0  0  0  0  0  0  0  0  0
    3.2698  -52.7104  -23.8111 H   0  0  0  0  0  0  0  0  0  0  0  0
    5.3075  -52.2960  -23.7601 C   0  0  0  0  0  0  0  0  0  0  0  0
    5.3816  -52.2968  -22.3201 N   0  0  0  0  0  0  0  0  0  0  0  0
    6.4175  -52.2886  -24.3740 N   0  0  0  0  0  0  0  0  0  0  0  0
    6.2742  -52.3768  -21.8065 H   0  0  0  0  0  0  0  0  0  0  0  0
    4.4684  -52.2169  -21.7986 H   0  0  0  0  0  0  0  0  0  0  0  0
    6.4662  -52.2643  -25.4259 H   0  0  0  0  0  0  0  0  0  0  0  0
    7.2546  -48.1210  -22.9440 C   0  0  0  0  0  0  0  0  0  0  0  0
    7.6210  -49.2662  -22.0288 C   0  0  0  0  0  0  0  0  0  0  0  0
    8.5980  -48.8759  -20.9860 C   0  0  0  0  0  0  0  0  0  0  0  0
    8.1335  -49.0956  -19.6473 N   0  0  0  0  0  0  0  0  0  0  0  0
    7.7893  -49.9638  -19.2597 H   0  0  0  0  0  0  0  0  0  0  0  0
    7.4328  -46.8133  -19.3762 N   0  0  0  0  0  0  0  0  0  0  0  0
    8.1761  -47.9284  -18.7802 C   0  0  0  0  0  0  0  0  0  0  0  0
    8.7686  -47.8405  -17.7358 N   0  0  0  0  0  0  0  0  0  0  0  0
    7.4384  -45.9212  -18.8629 H   0  0  0  0  0  0  0  0  0  0  0  0
    6.9197  -46.9024  -20.2571 H   0  0  0  0  0  0  0  0  0  0  0  0
    9.2125  -47.7798  -16.9560 H   0  0  0  0  0  0  0  0  0  0  0  0
 61 62  1  0  0  0
 62 63  2  0  0  0
 62 59  1  0  0  0
 59 58  1  0  0  0
 58 57  1  0  0  0
 57 56  1  0  0  0
 56  1  1  0  0  0
  1  2  1  0  0  0
  2  3  1  0  0  0
  3  4  2  0  0  0
  3  6  1  0  0  0
  6  7  1  0  0  0
  7  8  1  0  0  0
  8  9  1  0  0  0
  9 10  1  0  0  0
 10 11  1  0  0  0
 11 12  2  0  0  0
 11 13  1  0  0  0
 13 26  1  0  0  0
 26 27  1  0  0  0
 27 28  2  0  0  0
 28 29  1  0  0  0
 29 30  2  0  0  0
 30 31  1  0  0  0
 31 32  2  0  0  0
 13 14  1  0  0  0
 14 15  1  0  0  0
 15 16  2  0  0  0
 15 18  1  0  0  0
 18 19  1  0  0  0
 19 20  1  0  0  0
 20 21  2  0  0  0
 21 22  1  0  0  0
 22 23  2  0  0  0
 23 24  1  0  0  0
 24 25  2  0  0  0
  1 33  1  0  0  0
 33 34  2  0  0  0
 33 35  1  0  0  0
 35 37  1  0  0  0
 37 45  1  0  0  0
 45 46  1  0  0  0
 46 47  1  0  0  0
 47 48  1  0  0  0
 48 50  1  0  0  0
 50 51  1  0  0  0
 50 52  2  0  0  0
 37 38  1  0  0  0
 38 39  2  0  0  0
 38 40  1  0  0  0
 40 41  2  0  0  0
 41 42  1  0  0  0
 42 43  2  0  0  0
 43 44  1  0  0  0
 10  6  1  0  0  0
 32 27  1  0  0  0
 25 20  1  0  0  0
 44 40  1  0  0  0
 61 64  1  0  0  0
 61 65  1  0  0  0
 63 66  1  0  0  0
 59 60  1  0  0  0
  2  5  1  0  0  0
 14 17  1  0  0  0
 35 36  1  0  0  0
 48 49  1  0  0  0
 51 53  1  0  0  0
 51 54  1  0  0  0
 52 55  1  0  0  0
M  END
> <minimizedAffinity>
-7.30928

> <CNNscore>
0.3268538713

> <CNNaffinity>
7.3798546791

> <CNN_VS>
2.4121341705

> <CNNaffinity_variance>
0.9637809992

$$$$
[H]N=C(N([H])[H])N([H])C([H])([H])C([H])([H])C([H])([H])[C@@]([H])(C(=O)c1nc([H])c([H])s1)N([H])C(=O)[C@@]([H])(N([H])C(=O)[C@@]1([H])N(C(=O)[C@]([H])(N([H])C(=O)OC([H])([H])c2c([H])c([H])c([H])c([H])c2[H])C([H])([H])c2c([H])c([H])c([H])c([H])c2[H])C([H])([H])C([H])([H])C1([H])[H])C([H])([H])C([H])([H])C([H])([H])N([H])C(=N[H])N([H])[H]


 66 69  0  0  0  0  0  0  0  0999 V2000
    5.4710  -47.9320  -23.1963 C   0  0  0  0  0  0  0  0  0  0  0  0
    4.7803  -48.7574  -22.3006 N   0  0  0  0  0  0  0  0  0  0  0  0
    3.6131  -48.2251  -21.6607 C   0  0  0  0  0  0  0  0  0  0  0  0
    3.3222  -47.0310  -21.9950 O   0  0  0  0  0  0  0  0  0  0  0  0
    5.0792  -49.7466  -22.0748 H   0  0  0  0  0  0  0  0  0  0  0  0
    2.7663  -48.8868  -20.7006 C   0  0  0  0  0  0  0  0  0  0  0  0
    2.8318  -48.1012  -19.3455 C   0  0  0  0  0  0  0  0  0  0  0  0
    4.1725  -48.4986  -18.7604 C   0  0  0  0  0  0  0  0  0  0  0  0
    4.5790  -49.7085  -19.5869 C   0  0  0  0  0  0  0  0  0  0  0  0
    3.3198  -50.1338  -20.1926 N   0  0  0  0  0  0  0  0  0  0  0  0
    2.7375  -51.3834  -20.1360 C   0  0  0  0  0  0  0  0  0  0  0  0
    3.3896  -52.3816  -19.8074 O   0  0  0  0  0  0  0  0  0  0  0  0
    1.2682  -51.5853  -20.4541 C   0  0  0  0  0  0  0  0  0  0  0  0
    1.2379  -51.5063  -21.9148 N   0  0  0  0  0  0  0  0  0  0  0  0
    0.3692  -52.3768  -22.6623 C   0  0  0  0  0  0  0  0  0  0  0  0
   -0.3638  -53.1955  -22.0707 O   0  0  0  0  0  0  0  0  0  0  0  0
    1.8264  -50.8494  -22.4246 H   0  0  0  0  0  0  0  0  0  0  0  0
    0.3305  -52.3392  -24.0424 O   0  0  0  0  0  0  0  0  0  0  0  0
   -0.2814  -53.3103  -24.8236 C   0  0  0  0  0  0  0  0  0  0  0  0
   -0.3244  -53.1628  -26.2580 C   0  0  0  0  0  0  0  0  0  0  0  0
    0.6893  -53.7265  -27.0077 C   0  0  0  0  0  0  0  0  0  0  0  0
    0.7436  -53.6227  -28.3997 C   0  0  0  0  0  0  0  0  0  0  0  0
   -0.2486  -52.9333  -29.0529 C   0  0  0  0  0  0  0  0  0  0  0  0
   -1.2711  -52.3644  -28.2769 C   0  0  0  0  0  0  0  0  0  0  0  0
   -1.3067  -52.4777  -26.9114 C   0  0  0  0  0  0  0  0  0  0  0  0
    0.3590  -50.6513  -19.7930 C   0  0  0  0  0  0  0  0  0  0  0  0
    0.0679  -50.9339  -18.3553 C   0  0  0  0  0  0  0  0  0  0  0  0
   -0.5643  -52.1035  -18.0389 C   0  0  0  0  0  0  0  0  0  0  0  0
   -0.8669  -52.4268  -16.7502 C   0  0  0  0  0  0  0  0  0  0  0  0
   -0.5374  -51.5592  -15.6880 C   0  0  0  0  0  0  0  0  0  0  0  0
    0.0982  -50.3910  -16.0532 C   0  0  0  0  0  0  0  0  0  0  0  0
    0.4058  -50.0652  -17.3594 C   0  0  0  0  0  0  0  0  0  0  0  0
    5.5478  -48.3911  -24.6121 C   0  0  0  0  0  0  0  0  0  0  0  0
    6.6597  -48.4294  -25.1784 O   0  0  0  0  0  0  0  0  0  0  0  0
    4.3894  -48.7700  -25.2752 N   0  0  0  0  0  0  0  0  0  0  0  0
    3.4983  -48.7191  -24.6596 H   0  0  0  0  0  0  0  0  0  0  0  0
    4.1467  -49.2305  -26.6647 C   0  0  0  0  0  0  0  0  0  0  0  0
    3.9084  -48.0039  -27.4106 C   0  0  0  0  0  0  0  0  0  0  0  0
    3.7920  -48.0304  -28.6901 O   0  0  0  0  0  0  0  0  0  0  0  0
    3.7638  -46.6879  -26.8041 C   0  0  0  0  0  0  0  0  0  0  0  0
    2.9382  -46.2717  -25.8386 N   0  0  0  0  0  0  0  0  0  0  0  0
    2.9704  -45.0413  -25.4529 C   0  0  0  0  0  0  0  0  0  0  0  0
    3.8534  -44.1895  -26.0472 C   0  0  0  0  0  0  0  0  0  0  0  0
    4.6202  -45.2316  -27.1658 S   0  0  0  0  0  0  0  0  0  0  0  0
    3.0982  -50.2710  -26.5875 C   0  0  0  0  0  0  0  0  0  0  0  0
    2.9068  -51.3460  -25.6598 C   0  0  0  0  0  0  0  0  0  0  0  0
    3.7774  -52.4919  -25.4248 C   0  0  0  0  0  0  0  0  0  0  0  0
    5.1129  -52.4832  -25.0481 N   0  0  0  0  0  0  0  0  0  0  0  0
    5.8020  -52.8849  -25.7901 H   0  0  0  0  0  0  0  0  0  0  0  0
    5.7642  -52.0547  -23.8833 C   0  0  0  0  0  0  0  0  0  0  0  0
    5.1707  -52.2654  -22.5862 N   0  0  0  0  0  0  0  0  0  0  0  0
    6.8787  -51.4492  -23.8930 N   0  0  0  0  0  0  0  0  0  0  0  0
    5.6527  -52.0241  -21.7051 H   0  0  0  0  0  0  0  0  0  0  0  0
    4.2057  -52.6909  -22.5702 H   0  0  0  0  0  0  0  0  0  0  0  0
    7.3791  -51.2285  -24.7932 H   0  0  0  0  0  0  0  0  0  0  0  0
    6.8359  -47.5532  -22.6342 C   0  0  0  0  0  0  0  0  0  0  0  0
    6.8032  -46.1623  -22.0450 C   0  0  0  0  0  0  0  0  0  0  0  0
    7.6414  -45.2012  -22.7987 C   0  0  0  0  0  0  0  0  0  0  0  0
    7.0727  -44.7963  -24.0511 N   0  0  0  0  0  0  0  0  0  0  0  0
    6.1644  -44.3765  -24.1972 H   0  0  0  0  0  0  0  0  0  0  0  0
    7.9244  -43.8463  -26.0870 N   0  0  0  0  0  0  0  0  0  0  0  0
    7.9159  -45.0248  -25.2141 C   0  0  0  0  0  0  0  0  0  0  0  0
    8.5012  -46.0433  -25.4782 N   0  0  0  0  0  0  0  0  0  0  0  0
    8.4566  -43.9194  -26.9650 H   0  0  0  0  0  0  0  0  0  0  0  0
    7.4362  -42.9797  -25.8464 H   0  0  0  0  0  0  0  0  0  0  0  0
    8.9368  -46.8062  -25.6711 H   0  0  0  0  0  0  0  0  0  0  0  0
 61 62  1  0  0  0
 62 63  2  0  0  0
 62 59  1  0  0  0
 59 58  1  0  0  0
 58 57  1  0  0  0
 57 56  1  0  0  0
 56  1  1  0  0  0
  1  2  1  0  0  0
  2  3  1  0  0  0
  3  4  2  0  0  0
  3  6  1  0  0  0
  6  7  1  0  0  0
  7  8  1  0  0  0
  8  9  1  0  0  0
  9 10  1  0  0  0
 10 11  1  0  0  0
 11 12  2  0  0  0
 11 13  1  0  0  0
 13 26  1  0  0  0
 26 27  1  0  0  0
 27 28  2  0  0  0
 28 29  1  0  0  0
 29 30  2  0  0  0
 30 31  1  0  0  0
 31 32  2  0  0  0
 13 14  1  0  0  0
 14 15  1  0  0  0
 15 16  2  0  0  0
 15 18  1  0  0  0
 18 19  1  0  0  0
 19 20  1  0  0  0
 20 21  2  0  0  0
 21 22  1  0  0  0
 22 23  2  0  0  0
 23 24  1  0  0  0
 24 25  2  0  0  0
  1 33  1  0  0  0
 33 34  2  0  0  0
 33 35  1  0  0  0
 35 37  1  0  0  0
 37 45  1  0  0  0
 45 46  1  0  0  0
 46 47  1  0  0  0
 47 48  1  0  0  0
 48 50  1  0  0  0
 50 51  1  0  0  0
 50 52  2  0  0  0
 37 38  1  0  0  0
 38 39  2  0  0  0
 38 40  1  0  0  0
 40 41  2  0  0  0
 41 42  1  0  0  0
 42 43  2  0  0  0
 43 44  1  0  0  0
 10  6  1  0  0  0
 32 27  1  0  0  0
 25 20  1  0  0  0
 44 40  1  0  0  0
 61 64  1  0  0  0
 61 65  1  0  0  0
 63 66  1  0  0  0
 59 60  1  0  0  0
  2  5  1  0  0  0
 14 17  1  0  0  0
 35 36  1  0  0  0
 48 49  1  0  0  0
 51 53  1  0  0  0
 51 54  1  0  0  0
 52 55  1  0  0  0
M  END
> <minimizedAffinity>
-6.72732

> <CNNscore>
0.2647586167

> <CNNaffinity>
7.2613677979

> <CNN_VS>
1.9225096703

> <CNNaffinity_variance>
1.0826318264

$$$$
[H]N=C(N([H])[H])N([H])C([H])([H])C([H])([H])C([H])([H])[C@@]([H])(C(=O)c1nc([H])c([H])s1)N([H])C(=O)[C@@]([H])(N([H])C(=O)[C@@]1([H])N(C(=O)[C@]([H])(N([H])C(=O)OC([H])([H])c2c([H])c([H])c([H])c([H])c2[H])C([H])([H])c2c([H])c([H])c([H])c([H])c2[H])C([H])([H])C([H])([H])C1([H])[H])C([H])([H])C([H])([H])C([H])([H])N([H])C(=N[H])N([H])[H]


 66 69  0  0  0  0  0  0  0  0999 V2000
    5.1447  -47.4580  -23.2410 C   0  0  0  0  0  0  0  0  0  0  0  0
    4.5459  -48.3673  -22.3606 N   0  0  0  0  0  0  0  0  0  0  0  0
    3.3227  -47.9776  -21.7225 C   0  0  0  0  0  0  0  0  0  0  0  0
    2.9015  -46.8194  -22.0440 O   0  0  0  0  0  0  0  0  0  0  0  0
    4.9526  -49.3196  -22.1448 H   0  0  0  0  0  0  0  0  0  0  0  0
    2.5500  -48.7427  -20.7768 C   0  0  0  0  0  0  0  0  0  0  0  0
    2.5552  -47.9939  -19.3994 C   0  0  0  0  0  0  0  0  0  0  0  0
    3.9325  -48.2818  -18.8354 C   0  0  0  0  0  0  0  0  0  0  0  0
    4.4415  -49.4243  -19.7003 C   0  0  0  0  0  0  0  0  0  0  0  0
    3.2214  -49.9470  -20.3098 N   0  0  0  0  0  0  0  0  0  0  0  0
    2.7580  -51.2464  -20.2863 C   0  0  0  0  0  0  0  0  0  0  0  0
    3.5029  -52.1888  -19.9920 O   0  0  0  0  0  0  0  0  0  0  0  0
    1.3108  -51.5746  -20.6004 C   0  0  0  0  0  0  0  0  0  0  0  0
    1.2527  -51.4295  -22.0551 N   0  0  0  0  0  0  0  0  0  0  0  0
    0.3145  -52.2109  -22.8171 C   0  0  0  0  0  0  0  0  0  0  0  0
   -0.4548  -53.0082  -22.2426 O   0  0  0  0  0  0  0  0  0  0  0  0
    1.8696  -50.7882  -22.5511 H   0  0  0  0  0  0  0  0  0  0  0  0
    0.2473  -52.1101  -24.1929 O   0  0  0  0  0  0  0  0  0  0  0  0
    0.3633  -53.1943  -25.0523 C   0  0  0  0  0  0  0  0  0  0  0  0
    0.0424  -53.0456  -26.4509 C   0  0  0  0  0  0  0  0  0  0  0  0
   -1.2177  -52.5951  -26.7921 C   0  0  0  0  0  0  0  0  0  0  0  0
   -1.6270  -52.4354  -28.1181 C   0  0  0  0  0  0  0  0  0  0  0  0
   -0.7441  -52.7374  -29.1259 C   0  0  0  0  0  0  0  0  0  0  0  0
    0.5324  -53.1959  -28.7632 C   0  0  0  0  0  0  0  0  0  0  0  0
    0.9151  -53.3458  -27.4557 C   0  0  0  0  0  0  0  0  0  0  0  0
    0.3249  -50.7659  -19.8862 C   0  0  0  0  0  0  0  0  0  0  0  0
    0.0825  -51.1436  -18.4613 C   0  0  0  0  0  0  0  0  0  0  0  0
   -0.7237  -52.2163  -18.2025 C   0  0  0  0  0  0  0  0  0  0  0  0
   -0.9943  -52.6165  -16.9283 C   0  0  0  0  0  0  0  0  0  0  0  0
   -0.4492  -51.9324  -15.8218 C   0  0  0  0  0  0  0  0  0  0  0  0
    0.3570  -50.8565  -16.1295 C   0  0  0  0  0  0  0  0  0  0  0  0
    0.6317  -50.4529  -17.4212 C   0  0  0  0  0  0  0  0  0  0  0  0
    5.3211  -47.9041  -24.6520 C   0  0  0  0  0  0  0  0  0  0  0  0
    6.4590  -48.2322  -25.0472 O   0  0  0  0  0  0  0  0  0  0  0  0
    4.2240  -47.9512  -25.5000 N   0  0  0  0  0  0  0  0  0  0  0  0
    3.2917  -47.6707  -25.0225 H   0  0  0  0  0  0  0  0  0  0  0  0
    4.0918  -48.3135  -26.9328 C   0  0  0  0  0  0  0  0  0  0  0  0
    3.5476  -47.1157  -27.5549 C   0  0  0  0  0  0  0  0  0  0  0  0
    3.1457  -46.1310  -26.8337 O   0  0  0  0  0  0  0  0  0  0  0  0
    3.4304  -46.9170  -28.9927 C   0  0  0  0  0  0  0  0  0  0  0  0
    4.0157  -47.5697  -30.0019 N   0  0  0  0  0  0  0  0  0  0  0  0
    3.7753  -47.2176  -31.2191 C   0  0  0  0  0  0  0  0  0  0  0  0
    2.9234  -46.1777  -31.4461 C   0  0  0  0  0  0  0  0  0  0  0  0
    2.4941  -45.7439  -29.8484 S   0  0  0  0  0  0  0  0  0  0  0  0
    3.3374  -49.5851  -26.9787 C   0  0  0  0  0  0  0  0  0  0  0  0
    2.8979  -50.4561  -25.9294 C   0  0  0  0  0  0  0  0  0  0  0  0
    3.6318  -51.5532  -25.3097 C   0  0  0  0  0  0  0  0  0  0  0  0
    4.1585  -51.6077  -24.0270 N   0  0  0  0  0  0  0  0  0  0  0  0
    3.4262  -51.7664  -23.2363 H   0  0  0  0  0  0  0  0  0  0  0  0
    5.4667  -51.4962  -23.5364 C   0  0  0  0  0  0  0  0  0  0  0  0
    6.5844  -51.3679  -24.4382 N   0  0  0  0  0  0  0  0  0  0  0  0
    5.7499  -51.5227  -22.3003 N   0  0  0  0  0  0  0  0  0  0  0  0
    7.5522  -51.2158  -24.1107 H   0  0  0  0  0  0  0  0  0  0  0  0
    6.3710  -51.4302  -25.4692 H   0  0  0  0  0  0  0  0  0  0  0  0
    5.0038  -51.6370  -21.5655 H   0  0  0  0  0  0  0  0  0  0  0  0
    6.4308  -46.8997  -22.6438 C   0  0  0  0  0  0  0  0  0  0  0  0
    6.1551  -45.6266  -21.8781 C   0  0  0  0  0  0  0  0  0  0  0  0
    5.8265  -44.4854  -22.7635 C   0  0  0  0  0  0  0  0  0  0  0  0
    4.4472  -44.0963  -22.7173 N   0  0  0  0  0  0  0  0  0  0  0  0
    3.9487  -43.7234  -21.9204 H   0  0  0  0  0  0  0  0  0  0  0  0
    4.5768  -43.9681  -25.1131 N   0  0  0  0  0  0  0  0  0  0  0  0
    3.7163  -44.2660  -23.9634 C   0  0  0  0  0  0  0  0  0  0  0  0
    2.5542  -44.5623  -24.0708 N   0  0  0  0  0  0  0  0  0  0  0  0
    4.1429  -44.0136  -26.0453 H   0  0  0  0  0  0  0  0  0  0  0  0
    5.5674  -43.7320  -25.0124 H   0  0  0  0  0  0  0  0  0  0  0  0
    1.6859  -44.7841  -24.1459 H   0  0  0  0  0  0  0  0  0  0  0  0
 61 62  1  0  0  0
 62 63  2  0  0  0
 62 59  1  0  0  0
 59 58  1  0  0  0
 58 57  1  0  0  0
 57 56  1  0  0  0
 56  1  1  0  0  0
  1  2  1  0  0  0
  2  3  1  0  0  0
  3  4  2  0  0  0
  3  6  1  0  0  0
  6  7  1  0  0  0
  7  8  1  0  0  0
  8  9  1  0  0  0
  9 10  1  0  0  0
 10 11  1  0  0  0
 11 12  2  0  0  0
 11 13  1  0  0  0
 13 26  1  0  0  0
 26 27  1  0  0  0
 27 28  2  0  0  0
 28 29  1  0  0  0
 29 30  2  0  0  0
 30 31  1  0  0  0
 31 32  2  0  0  0
 13 14  1  0  0  0
 14 15  1  0  0  0
 15 16  2  0  0  0
 15 18  1  0  0  0
 18 19  1  0  0  0
 19 20  1  0  0  0
 20 21  2  0  0  0
 21 22  1  0  0  0
 22 23  2  0  0  0
 23 24  1  0  0  0
 24 25  2  0  0  0
  1 33  1  0  0  0
 33 34  2  0  0  0
 33 35  1  0  0  0
 35 37  1  0  0  0
 37 45  1  0  0  0
 45 46  1  0  0  0
 46 47  1  0  0  0
 47 48  1  0  0  0
 48 50  1  0  0  0
 50 51  1  0  0  0
 50 52  2  0  0  0
 37 38  1  0  0  0
 38 39  2  0  0  0
 38 40  1  0  0  0
 40 41  2  0  0  0
 41 42  1  0  0  0
 42 43  2  0  0  0
 43 44  1  0  0  0
 10  6  1  0  0  0
 32 27  1  0  0  0
 25 20  1  0  0  0
 44 40  1  0  0  0
 61 64  1  0  0  0
 61 65  1  0  0  0
 63 66  1  0  0  0
 59 60  1  0  0  0
  2  5  1  0  0  0
 14 17  1  0  0  0
 35 36  1  0  0  0
 48 49  1  0  0  0
 51 53  1  0  0  0
 51 54  1  0  0  0
 52 55  1  0  0  0
M  END
> <minimizedAffinity>
-7.22545

> <CNNscore>
0.2501267493

> <CNNaffinity>
7.2135362625

> <CNN_VS>
1.8042984009

> <CNNaffinity_variance>
1.0470103025

$$$$
[H]N=C(N([H])[H])N([H])C([H])([H])C([H])([H])C([H])([H])[C@@]([H])(C(=O)c1nc([H])c([H])s1)N([H])C(=O)[C@@]([H])(N([H])C(=O)[C@@]1([H])N(C(=O)[C@]([H])(N([H])C(=O)OC([H])([H])c2c([H])c([H])c([H])c([H])c2[H])C([H])([H])c2c([H])c([H])c([H])c([H])c2[H])C([H])([H])C([H])([H])C1([H])[H])C([H])([H])C([H])([H])C([H])([H])N([H])C(=N[H])N([H])[H]


 66 69  0  0  0  0  0  0  0  0999 V2000
    4.9928  -47.1340  -22.3932 C   0  0  0  0  0  0  0  0  0  0  0  0
    4.3235  -48.1728  -21.7348 N   0  0  0  0  0  0  0  0  0  0  0  0
    3.4291  -47.8262  -20.6695 C   0  0  0  0  0  0  0  0  0  0  0  0
    3.3342  -46.5767  -20.4411 O   0  0  0  0  0  0  0  0  0  0  0  0
    4.4484  -49.1931  -21.9840 H   0  0  0  0  0  0  0  0  0  0  0  0
    2.6553  -48.7264  -19.8524 C   0  0  0  0  0  0  0  0  0  0  0  0
    2.7633  -48.2682  -18.3570 C   0  0  0  0  0  0  0  0  0  0  0  0
    4.1449  -48.7283  -17.9357 C   0  0  0  0  0  0  0  0  0  0  0  0
    4.5493  -49.6986  -19.0345 C   0  0  0  0  0  0  0  0  0  0  0  0
    3.2759  -50.0303  -19.6683 N   0  0  0  0  0  0  0  0  0  0  0  0
    2.7398  -51.2847  -19.8758 C   0  0  0  0  0  0  0  0  0  0  0  0
    3.4412  -52.3013  -19.8132 O   0  0  0  0  0  0  0  0  0  0  0  0
    1.2638  -51.4741  -20.1698 C   0  0  0  0  0  0  0  0  0  0  0  0
    1.2113  -51.4023  -21.6302 N   0  0  0  0  0  0  0  0  0  0  0  0
    0.2484  -52.1907  -22.3530 C   0  0  0  0  0  0  0  0  0  0  0  0
   -0.5470  -52.9317  -21.7400 O   0  0  0  0  0  0  0  0  0  0  0  0
    1.8492  -50.8079  -22.1572 H   0  0  0  0  0  0  0  0  0  0  0  0
    0.1852  -52.1587  -23.7324 O   0  0  0  0  0  0  0  0  0  0  0  0
   -0.4648  -53.1180  -24.4972 C   0  0  0  0  0  0  0  0  0  0  0  0
   -0.3799  -53.0741  -25.9366 C   0  0  0  0  0  0  0  0  0  0  0  0
    0.6729  -53.7212  -26.5533 C   0  0  0  0  0  0  0  0  0  0  0  0
    0.8494  -53.7207  -27.9390 C   0  0  0  0  0  0  0  0  0  0  0  0
   -0.0578  -53.0511  -28.7232 C   0  0  0  0  0  0  0  0  0  0  0  0
   -1.1214  -52.3967  -28.0816 C   0  0  0  0  0  0  0  0  0  0  0  0
   -1.2774  -52.4092  -26.7199 C   0  0  0  0  0  0  0  0  0  0  0  0
    0.3740  -50.5281  -19.4995 C   0  0  0  0  0  0  0  0  0  0  0  0
   -0.0076  -50.8751  -18.0975 C   0  0  0  0  0  0  0  0  0  0  0  0
   -0.6390  -52.0661  -17.8727 C   0  0  0  0  0  0  0  0  0  0  0  0
   -1.0215  -52.4478  -16.6218 C   0  0  0  0  0  0  0  0  0  0  0  0
   -0.7791  -51.6208  -15.5051 C   0  0  0  0  0  0  0  0  0  0  0  0
   -0.1411  -50.4291  -15.7784 C   0  0  0  0  0  0  0  0  0  0  0  0
    0.2475  -50.0441  -17.0463 C   0  0  0  0  0  0  0  0  0  0  0  0
    4.5318  -46.8033  -23.7713 C   0  0  0  0  0  0  0  0  0  0  0  0
    3.5768  -46.0127  -23.9186 O   0  0  0  0  0  0  0  0  0  0  0  0
    5.1690  -47.3730  -24.8642 N   0  0  0  0  0  0  0  0  0  0  0  0
    6.0009  -48.0154  -24.5976 H   0  0  0  0  0  0  0  0  0  0  0  0
    4.9234  -47.2653  -26.3235 C   0  0  0  0  0  0  0  0  0  0  0  0
    4.2662  -48.5172  -26.6680 C   0  0  0  0  0  0  0  0  0  0  0  0
    3.7305  -48.6760  -27.8253 O   0  0  0  0  0  0  0  0  0  0  0  0
    4.1744  -49.6687  -25.7813 C   0  0  0  0  0  0  0  0  0  0  0  0
    5.0743  -50.1742  -24.9319 N   0  0  0  0  0  0  0  0  0  0  0  0
    4.7848  -51.2231  -24.2394 C   0  0  0  0  0  0  0  0  0  0  0  0
    3.5569  -51.7946  -24.3950 C   0  0  0  0  0  0  0  0  0  0  0  0
    2.8551  -50.7630  -25.5648 S   0  0  0  0  0  0  0  0  0  0  0  0
    6.2177  -46.9081  -26.9442 C   0  0  0  0  0  0  0  0  0  0  0  0
    7.0641  -45.7663  -26.7629 C   0  0  0  0  0  0  0  0  0  0  0  0
    6.7852  -44.3795  -27.1169 C   0  0  0  0  0  0  0  0  0  0  0  0
    5.6256  -43.6563  -26.8763 N   0  0  0  0  0  0  0  0  0  0  0  0
    5.2664  -43.0700  -27.7214 H   0  0  0  0  0  0  0  0  0  0  0  0
    4.8103  -43.5257  -25.7437 C   0  0  0  0  0  0  0  0  0  0  0  0
    5.3888  -43.3950  -24.4295 N   0  0  0  0  0  0  0  0  0  0  0  0
    3.5430  -43.5361  -25.7948 N   0  0  0  0  0  0  0  0  0  0  0  0
    4.8208  -43.2292  -23.5828 H   0  0  0  0  0  0  0  0  0  0  0  0
    6.4388  -43.4705  -24.3642 H   0  0  0  0  0  0  0  0  0  0  0  0
    3.0283  -43.6506  -26.7067 H   0  0  0  0  0  0  0  0  0  0  0  0
    6.5016  -47.3349  -22.3186 C   0  0  0  0  0  0  0  0  0  0  0  0
    7.1309  -46.3159  -21.3974 C   0  0  0  0  0  0  0  0  0  0  0  0
    6.7967  -46.5479  -19.9730 C   0  0  0  0  0  0  0  0  0  0  0  0
    7.9279  -46.4765  -19.0947 N   0  0  0  0  0  0  0  0  0  0  0  0
    8.4558  -45.6490  -18.8519 H   0  0  0  0  0  0  0  0  0  0  0  0
    9.2657  -47.5241  -17.3959 N   0  0  0  0  0  0  0  0  0  0  0  0
    8.3326  -47.7436  -18.5060 C   0  0  0  0  0  0  0  0  0  0  0  0
    8.0042  -48.8391  -18.8824 N   0  0  0  0  0  0  0  0  0  0  0  0
    9.6507  -48.3611  -16.9371 H   0  0  0  0  0  0  0  0  0  0  0  0
    9.5269  -46.5887  -17.0734 H   0  0  0  0  0  0  0  0  0  0  0  0
    7.7558  -49.6552  -19.1671 H   0  0  0  0  0  0  0  0  0  0  0  0
 61 62  1  0  0  0
 62 63  2  0  0  0
 62 59  1  0  0  0
 59 58  1  0  0  0
 58 57  1  0  0  0
 57 56  1  0  0  0
 56  1  1  0  0  0
  1  2  1  0  0  0
  2  3  1  0  0  0
  3  4  2  0  0  0
  3  6  1  0  0  0
  6  7  1  0  0  0
  7  8  1  0  0  0
  8  9  1  0  0  0
  9 10  1  0  0  0
 10 11  1  0  0  0
 11 12  2  0  0  0
 11 13  1  0  0  0
 13 26  1  0  0  0
 26 27  1  0  0  0
 27 28  2  0  0  0
 28 29  1  0  0  0
 29 30  2  0  0  0
 30 31  1  0  0  0
 31 32  2  0  0  0
 13 14  1  0  0  0
 14 15  1  0  0  0
 15 16  2  0  0  0
 15 18  1  0  0  0
 18 19  1  0  0  0
 19 20  1  0  0  0
 20 21  2  0  0  0
 21 22  1  0  0  0
 22 23  2  0  0  0
 23 24  1  0  0  0
 24 25  2  0  0  0
  1 33  1  0  0  0
 33 34  2  0  0  0
 33 35  1  0  0  0
 35 37  1  0  0  0
 37 45  1  0  0  0
 45 46  1  0  0  0
 46 47  1  0  0  0
 47 48  1  0  0  0
 48 50  1  0  0  0
 50 51  1  0  0  0
 50 52  2  0  0  0
 37 38  1  0  0  0
 38 39  2  0  0  0
 38 40  1  0  0  0
 40 41  2  0  0  0
 41 42  1  0  0  0
 42 43  2  0  0  0
 43 44  1  0  0  0
 10  6  1  0  0  0
 32 27  1  0  0  0
 25 20  1  0  0  0
 44 40  1  0  0  0
 61 64  1  0  0  0
 61 65  1  0  0  0
 63 66  1  0  0  0
 59 60  1  0  0  0
  2  5  1  0  0  0
 14 17  1  0  0  0
 35 36  1  0  0  0
 48 49  1  0  0  0
 51 53  1  0  0  0
 51 54  1  0  0  0
 52 55  1  0  0  0
M  END
> <minimizedAffinity>
-6.36019

> <CNNscore>
0.2086917460

> <CNNaffinity>
7.0064377785

> <CNN_VS>
1.4621857405

> <CNNaffinity_variance>
1.2070584297

$$$$
[H]N=C(N([H])[H])N([H])C([H])([H])C([H])([H])C([H])([H])[C@@]([H])(C(=O)c1nc([H])c([H])s1)N([H])C(=O)[C@@]([H])(N([H])C(=O)[C@@]1([H])N(C(=O)[C@]([H])(N([H])C(=O)OC([H])([H])c2c([H])c([H])c([H])c([H])c2[H])C([H])([H])c2c([H])c([H])c([H])c([H])c2[H])C([H])([H])C([H])([H])C1([H])[H])C([H])([H])C([H])([H])C([H])([H])N([H])C(=N[H])N([H])[H]


 66 69  0  0  0  0  0  0  0  0999 V2000
    4.1412  -50.8967  -24.6831 C   0  0  0  0  0  0  0  0  0  0  0  0
    3.4884  -50.7282  -23.4559 N   0  0  0  0  0  0  0  0  0  0  0  0
    3.8033  -49.5630  -22.6824 C   0  0  0  0  0  0  0  0  0  0  0  0
    4.6586  -48.7856  -23.2175 O   0  0  0  0  0  0  0  0  0  0  0  0
    2.7813  -51.4168  -23.0756 H   0  0  0  0  0  0  0  0  0  0  0  0
    3.2676  -49.1997  -21.3948 C   0  0  0  0  0  0  0  0  0  0  0  0
    4.1288  -48.0312  -20.8026 C   0  0  0  0  0  0  0  0  0  0  0  0
    5.3923  -48.7185  -20.3241 C   0  0  0  0  0  0  0  0  0  0  0  0
    5.0199  -50.1929  -20.3250 C   0  0  0  0  0  0  0  0  0  0  0  0
    3.5597  -50.1654  -20.3452 N   0  0  0  0  0  0  0  0  0  0  0  0
    2.6934  -50.7802  -19.4648 C   0  0  0  0  0  0  0  0  0  0  0  0
    3.0739  -51.6915  -18.7203 O   0  0  0  0  0  0  0  0  0  0  0  0
    1.2421  -50.3526  -19.3564 C   0  0  0  0  0  0  0  0  0  0  0  0
    1.2649  -49.4037  -18.2429 N   0  0  0  0  0  0  0  0  0  0  0  0
    0.3929  -49.6002  -17.1150 C   0  0  0  0  0  0  0  0  0  0  0  0
   -0.3794  -50.5799  -17.0785 O   0  0  0  0  0  0  0  0  0  0  0  0
    1.8832  -48.5941  -18.2462 H   0  0  0  0  0  0  0  0  0  0  0  0
    0.3777  -48.7129  -16.0567 O   0  0  0  0  0  0  0  0  0  0  0  0
    1.3627  -48.6610  -15.0795 C   0  0  0  0  0  0  0  0  0  0  0  0
    2.0692  -49.8605  -14.7010 C   0  0  0  0  0  0  0  0  0  0  0  0
    1.5159  -50.6704  -13.7287 C   0  0  0  0  0  0  0  0  0  0  0  0
    2.1329  -51.8421  -13.2839 C   0  0  0  0  0  0  0  0  0  0  0  0
    3.3380  -52.2069  -13.8325 C   0  0  0  0  0  0  0  0  0  0  0  0
    3.8885  -51.3724  -14.8183 C   0  0  0  0  0  0  0  0  0  0  0  0
    3.2671  -50.2264  -15.2416 C   0  0  0  0  0  0  0  0  0  0  0  0
    0.2875  -51.4454  -19.1818 C   0  0  0  0  0  0  0  0  0  0  0  0
   -0.0089  -52.2521  -20.4037 C   0  0  0  0  0  0  0  0  0  0  0  0
   -0.1139  -53.6087  -20.2759 C   0  0  0  0  0  0  0  0  0  0  0  0
   -0.3772  -54.4095  -21.3466 C   0  0  0  0  0  0  0  0  0  0  0  0
   -0.5509  -53.8636  -22.6355 C   0  0  0  0  0  0  0  0  0  0  0  0
   -0.4354  -52.4918  -22.7179 C   0  0  0  0  0  0  0  0  0  0  0  0
   -0.1702  -51.6812  -21.6319 C   0  0  0  0  0  0  0  0  0  0  0  0
    3.8152  -49.9179  -25.7586 C   0  0  0  0  0  0  0  0  0  0  0  0
    2.6945  -49.9688  -26.3065 O   0  0  0  0  0  0  0  0  0  0  0  0
    4.7553  -48.9678  -26.1310 N   0  0  0  0  0  0  0  0  0  0  0  0
    5.6731  -49.0139  -25.5554 H   0  0  0  0  0  0  0  0  0  0  0  0
    4.7360  -47.9051  -27.1662 C   0  0  0  0  0  0  0  0  0  0  0  0
    3.7209  -46.9719  -26.7008 C   0  0  0  0  0  0  0  0  0  0  0  0
    2.6919  -46.7122  -27.4255 O   0  0  0  0  0  0  0  0  0  0  0  0
    3.7602  -46.2881  -25.4157 C   0  0  0  0  0  0  0  0  0  0  0  0
    2.8189  -46.1724  -24.4737 N   0  0  0  0  0  0  0  0  0  0  0  0
    3.0652  -45.5031  -23.3990 C   0  0  0  0  0  0  0  0  0  0  0  0
    4.2909  -44.9246  -23.2519 C   0  0  0  0  0  0  0  0  0  0  0  0
    5.0547  -45.3868  -24.7107 S   0  0  0  0  0  0  0  0  0  0  0  0
    4.5789  -48.5878  -28.4691 C   0  0  0  0  0  0  0  0  0  0  0  0
    5.2519  -48.3944  -29.7191 C   0  0  0  0  0  0  0  0  0  0  0  0
    6.6750  -48.5393  -30.0019 C   0  0  0  0  0  0  0  0  0  0  0  0
    7.7372  -47.9104  -29.3680 N   0  0  0  0  0  0  0  0  0  0  0  0
    8.1720  -47.0768  -29.9184 H   0  0  0  0  0  0  0  0  0  0  0  0
    8.3747  -48.1376  -28.1406 C   0  0  0  0  0  0  0  0  0  0  0  0
    8.6037  -49.4796  -27.6656 N   0  0  0  0  0  0  0  0  0  0  0  0
    8.7623  -47.2032  -27.3754 N   0  0  0  0  0  0  0  0  0  0  0  0
    9.1296  -49.6841  -26.8003 H   0  0  0  0  0  0  0  0  0  0  0  0
    8.2104  -50.2633  -28.2516 H   0  0  0  0  0  0  0  0  0  0  0  0
    8.6181  -46.1900  -27.6248 H   0  0  0  0  0  0  0  0  0  0  0  0
    4.0276  -52.3402  -25.1581 C   0  0  0  0  0  0  0  0  0  0  0  0
    2.8216  -53.0112  -24.5430 C   0  0  0  0  0  0  0  0  0  0  0  0
    1.7135  -53.1947  -25.5089 C   0  0  0  0  0  0  0  0  0  0  0  0
    2.1327  -53.1765  -26.8800 N   0  0  0  0  0  0  0  0  0  0  0  0
    3.0545  -53.3927  -27.2352 H   0  0  0  0  0  0  0  0  0  0  0  0
   -0.1394  -52.4407  -27.1431 N   0  0  0  0  0  0  0  0  0  0  0  0
    1.1006  -52.8063  -27.8358 C   0  0  0  0  0  0  0  0  0  0  0  0
    1.2013  -52.8309  -29.0353 N   0  0  0  0  0  0  0  0  0  0  0  0
   -0.9506  -52.2051  -27.7310 H   0  0  0  0  0  0  0  0  0  0  0  0
   -0.2106  -52.4080  -26.1227 H   0  0  0  0  0  0  0  0  0  0  0  0
    1.2815  -52.8507  -29.9309 H   0  0  0  0  0  0  0  0  0  0  0  0
 61 62  1  0  0  0
 62 63  2  0  0  0
 62 59  1  0  0  0
 59 58  1  0  0  0
 58 57  1  0  0  0
 57 56  1  0  0  0
 56  1  1  0  0  0
  1  2  1  0  0  0
  2  3  1  0  0  0
  3  4  2  0  0  0
  3  6  1  0  0  0
  6  7  1  0  0  0
  7  8  1  0  0  0
  8  9  1  0  0  0
  9 10  1  0  0  0
 10 11  1  0  0  0
 11 12  2  0  0  0
 11 13  1  0  0  0
 13 26  1  0  0  0
 26 27  1  0  0  0
 27 28  2  0  0  0
 28 29  1  0  0  0
 29 30  2  0  0  0
 30 31  1  0  0  0
 31 32  2  0  0  0
 13 14  1  0  0  0
 14 15  1  0  0  0
 15 16  2  0  0  0
 15 18  1  0  0  0
 18 19  1  0  0  0
 19 20  1  0  0  0
 20 21  2  0  0  0
 21 22  1  0  0  0
 22 23  2  0  0  0
 23 24  1  0  0  0
 24 25  2  0  0  0
  1 33  1  0  0  0
 33 34  2  0  0  0
 33 35  1  0  0  0
 35 37  1  0  0  0
 37 45  1  0  0  0
 45 46  1  0  0  0
 46 47  1  0  0  0
 47 48  1  0  0  0
 48 50  1  0  0  0
 50 51  1  0  0  0
 50 52  2  0  0  0
 37 38  1  0  0  0
 38 39  2  0  0  0
 38 40  1  0  0  0
 40 41  2  0  0  0
 41 42  1  0  0  0
 42 43  2  0  0  0
 43 44  1  0  0  0
 10  6  1  0  0  0
 32 27  1  0  0  0
 25 20  1  0  0  0
 44 40  1  0  0  0
 61 64  1  0  0  0
 61 65  1  0  0  0
 63 66  1  0  0  0
 59 60  1  0  0  0
  2  5  1  0  0  0
 14 17  1  0  0  0
 35 36  1  0  0  0
 48 49  1  0  0  0
 51 53  1  0  0  0
 51 54  1  0  0  0
 52 55  1  0  0  0
M  END
> <minimizedAffinity>
-7.02179

> <CNNscore>
0.1011936739

> <CNNaffinity>
7.0936293602

> <CNN_VS>
0.7178304195

> <CNNaffinity_variance>
0.9549263716

$$$$
[H]N=C(N([H])[H])N([H])C([H])([H])C([H])([H])C([H])([H])[C@@]([H])(C(=O)c1nc([H])c([H])s1)N([H])C(=O)[C@@]([H])(N([H])C(=O)[C@@]1([H])N(C(=O)[C@]([H])(N([H])C(=O)OC([H])([H])c2c([H])c([H])c([H])c([H])c2[H])C([H])([H])c2c([H])c([H])c([H])c([H])c2[H])C([H])([H])C([H])([H])C1([H])[H])C([H])([H])C([H])([H])C([H])([H])N([H])C(=N[H])N([H])[H]


 66 69  0  0  0  0  0  0  0  0999 V2000
    4.3384  -48.2030  -24.5214 C   0  0  0  0  0  0  0  0  0  0  0  0
    3.7676  -49.0234  -23.5407 N   0  0  0  0  0  0  0  0  0  0  0  0
    2.8179  -48.4348  -22.6425 C   0  0  0  0  0  0  0  0  0  0  0  0
    2.5868  -47.1994  -22.8489 O   0  0  0  0  0  0  0  0  0  0  0  0
    4.0050  -50.0484  -23.4318 H   0  0  0  0  0  0  0  0  0  0  0  0
    2.1252  -49.0832  -21.5578 C   0  0  0  0  0  0  0  0  0  0  0  0
    1.9857  -48.0683  -20.3711 C   0  0  0  0  0  0  0  0  0  0  0  0
    3.3705  -48.0383  -19.7551 C   0  0  0  0  0  0  0  0  0  0  0  0
    4.0558  -49.2555  -20.3560 C   0  0  0  0  0  0  0  0  0  0  0  0
    2.9371  -50.0580  -20.8438 N   0  0  0  0  0  0  0  0  0  0  0  0
    2.6519  -51.3747  -20.5458 C   0  0  0  0  0  0  0  0  0  0  0  0
    3.5069  -52.1221  -20.0559 O   0  0  0  0  0  0  0  0  0  0  0  0
    1.2727  -51.9582  -20.7869 C   0  0  0  0  0  0  0  0  0  0  0  0
    1.2156  -52.0665  -22.2448 N   0  0  0  0  0  0  0  0  0  0  0  0
    0.4623  -53.1294  -22.8563 C   0  0  0  0  0  0  0  0  0  0  0  0
   -0.1483  -53.9568  -22.1491 O   0  0  0  0  0  0  0  0  0  0  0  0
    1.7055  -51.4068  -22.8471 H   0  0  0  0  0  0  0  0  0  0  0  0
    0.4033  -53.2694  -24.2291 O   0  0  0  0  0  0  0  0  0  0  0  0
   -0.5219  -52.6159  -25.0320 C   0  0  0  0  0  0  0  0  0  0  0  0
   -0.4159  -52.6951  -26.4685 C   0  0  0  0  0  0  0  0  0  0  0  0
   -1.5522  -52.4836  -27.2243 C   0  0  0  0  0  0  0  0  0  0  0  0
   -1.5531  -52.5559  -28.6194 C   0  0  0  0  0  0  0  0  0  0  0  0
   -0.3791  -52.8488  -29.2693 C   0  0  0  0  0  0  0  0  0  0  0  0
    0.7670  -53.0630  -28.4872 C   0  0  0  0  0  0  0  0  0  0  0  0
    0.7473  -52.9874  -27.1188 C   0  0  0  0  0  0  0  0  0  0  0  0
    0.1691  -51.1950  -20.2075 C   0  0  0  0  0  0  0  0  0  0  0  0
   -0.0337  -51.3587  -18.7366 C   0  0  0  0  0  0  0  0  0  0  0  0
    0.5058  -50.4233  -17.8990 C   0  0  0  0  0  0  0  0  0  0  0  0
    0.3664  -50.5095  -16.5462 C   0  0  0  0  0  0  0  0  0  0  0  0
   -0.3440  -51.5758  -15.9566 C   0  0  0  0  0  0  0  0  0  0  0  0
   -0.8701  -52.4962  -16.8388 C   0  0  0  0  0  0  0  0  0  0  0  0
   -0.7295  -52.4069  -18.2096 C   0  0  0  0  0  0  0  0  0  0  0  0
    4.0967  -48.5842  -25.9417 C   0  0  0  0  0  0  0  0  0  0  0  0
    3.3292  -49.5364  -26.1926 O   0  0  0  0  0  0  0  0  0  0  0  0
    4.7221  -47.8773  -26.9587 N   0  0  0  0  0  0  0  0  0  0  0  0
    5.3362  -47.0565  -26.6052 H   0  0  0  0  0  0  0  0  0  0  0  0
    4.7050  -48.0364  -28.4339 C   0  0  0  0  0  0  0  0  0  0  0  0
    6.0905  -47.8345  -28.8306 C   0  0  0  0  0  0  0  0  0  0  0  0
    6.6443  -48.6160  -29.6873 O   0  0  0  0  0  0  0  0  0  0  0  0
    6.9401  -46.7617  -28.3329 C   0  0  0  0  0  0  0  0  0  0  0  0
    6.6731  -45.7900  -27.4546 N   0  0  0  0  0  0  0  0  0  0  0  0
    7.5823  -44.9242  -27.1592 C   0  0  0  0  0  0  0  0  0  0  0  0
    8.8031  -45.0234  -27.7579 C   0  0  0  0  0  0  0  0  0  0  0  0
    8.5784  -46.4011  -28.7462 S   0  0  0  0  0  0  0  0  0  0  0  0
    3.6459  -47.1380  -28.9431 C   0  0  0  0  0  0  0  0  0  0  0  0
    2.8667  -46.1337  -28.2819 C   0  0  0  0  0  0  0  0  0  0  0  0
    3.3337  -44.8919  -27.6767 C   0  0  0  0  0  0  0  0  0  0  0  0
    3.7789  -44.6930  -26.3775 N   0  0  0  0  0  0  0  0  0  0  0  0
    4.8456  -44.4928  -26.2832 H   0  0  0  0  0  0  0  0  0  0  0  0
    3.1198  -44.6995  -25.1406 C   0  0  0  0  0  0  0  0  0  0  0  0
    3.8300  -44.3895  -23.9246 N   0  0  0  0  0  0  0  0  0  0  0  0
    1.8927  -44.9924  -25.0085 N   0  0  0  0  0  0  0  0  0  0  0  0
    3.3619  -44.3187  -23.0065 H   0  0  0  0  0  0  0  0  0  0  0  0
    4.8686  -44.2278  -24.0106 H   0  0  0  0  0  0  0  0  0  0  0  0
    1.2961  -45.2557  -25.8357 H   0  0  0  0  0  0  0  0  0  0  0  0
    5.8143  -47.9626  -24.2281 C   0  0  0  0  0  0  0  0  0  0  0  0
    6.4027  -49.1251  -23.4628 C   0  0  0  0  0  0  0  0  0  0  0  0
    7.1598  -50.0573  -24.3301 C   0  0  0  0  0  0  0  0  0  0  0  0
    7.0094  -51.4362  -23.9668 N   0  0  0  0  0  0  0  0  0  0  0  0
    7.7461  -52.0795  -23.7102 H   0  0  0  0  0  0  0  0  0  0  0  0
    5.2798  -52.4776  -22.6641 N   0  0  0  0  0  0  0  0  0  0  0  0
    5.6415  -51.9309  -23.9761 C   0  0  0  0  0  0  0  0  0  0  0  0
    4.8986  -51.9479  -24.9234 N   0  0  0  0  0  0  0  0  0  0  0  0
    4.3442  -52.8973  -22.5750 H   0  0  0  0  0  0  0  0  0  0  0  0
    5.9128  -52.4447  -21.8608 H   0  0  0  0  0  0  0  0  0  0  0  0
    4.3472  -51.9582  -25.6339 H   0  0  0  0  0  0  0  0  0  0  0  0
 61 62  1  0  0  0
 62 63  2  0  0  0
 62 59  1  0  0  0
 59 58  1  0  0  0
 58 57  1  0  0  0
 57 56  1  0  0  0
 56  1  1  0  0  0
  1  2  1  0  0  0
  2  3  1  0  0  0
  3  4  2  0  0  0
  3  6  1  0  0  0
  6  7  1  0  0  0
  7  8  1  0  0  0
  8  9  1  0  0  0
  9 10  1  0  0  0
 10 11  1  0  0  0
 11 12  2  0  0  0
 11 13  1  0  0  0
 13 26  1  0  0  0
 26 27  1  0  0  0
 27 28  2  0  0  0
 28 29  1  0  0  0
 29 30  2  0  0  0
 30 31  1  0  0  0
 31 32  2  0  0  0
 13 14  1  0  0  0
 14 15  1  0  0  0
 15 16  2  0  0  0
 15 18  1  0  0  0
 18 19  1  0  0  0
 19 20  1  0  0  0
 20 21  2  0  0  0
 21 22  1  0  0  0
 22 23  2  0  0  0
 23 24  1  0  0  0
 24 25  2  0  0  0
  1 33  1  0  0  0
 33 34  2  0  0  0
 33 35  1  0  0  0
 35 37  1  0  0  0
 37 45  1  0  0  0
 45 46  1  0  0  0
 46 47  1  0  0  0
 47 48  1  0  0  0
 48 50  1  0  0  0
 50 51  1  0  0  0
 50 52  2  0  0  0
 37 38  1  0  0  0
 38 39  2  0  0  0
 38 40  1  0  0  0
 40 41  2  0  0  0
 41 42  1  0  0  0
 42 43  2  0  0  0
 43 44  1  0  0  0
 10  6  1  0  0  0
 32 27  1  0  0  0
 25 20  1  0  0  0
 44 40  1  0  0  0
 61 64  1  0  0  0
 61 65  1  0  0  0
 63 66  1  0  0  0
 59 60  1  0  0  0
  2  5  1  0  0  0
 14 17  1  0  0  0
 35 36  1  0  0  0
 48 49  1  0  0  0
 51 53  1  0  0  0
 51 54  1  0  0  0
 52 55  1  0  0  0
M  END
> <minimizedAffinity>
-7.45713

> <CNNscore>
0.0912498981

> <CNNaffinity>
7.0378913879

> <CNN_VS>
0.6422068477

> <CNNaffinity_variance>
1.1376494169

$$$$
[H]N=C(N([H])[H])N([H])C([H])([H])C([H])([H])C([H])([H])[C@@]([H])(C(=O)c1nc([H])c([H])s1)N([H])C(=O)[C@@]([H])(N([H])C(=O)[C@@]1([H])N(C(=O)[C@]([H])(N([H])C(=O)OC([H])([H])c2c([H])c([H])c([H])c([H])c2[H])C([H])([H])c2c([H])c([H])c([H])c([H])c2[H])C([H])([H])C([H])([H])C1([H])[H])C([H])([H])C([H])([H])C([H])([H])N([H])C(=N[H])N([H])[H]


 66 69  0  0  0  0  0  0  0  0999 V2000
    4.4267  -50.5862  -24.3625 C   0  0  0  0  0  0  0  0  0  0  0  0
    3.6407  -50.5176  -23.2057 N   0  0  0  0  0  0  0  0  0  0  0  0
    3.7385  -49.3382  -22.3966 C   0  0  0  0  0  0  0  0  0  0  0  0
    4.5450  -48.4568  -22.8381 O   0  0  0  0  0  0  0  0  0  0  0  0
    2.9854  -51.2908  -22.9029 H   0  0  0  0  0  0  0  0  0  0  0  0
    3.0394  -49.0637  -21.1668 C   0  0  0  0  0  0  0  0  0  0  0  0
    3.6310  -47.7581  -20.5318 C   0  0  0  0  0  0  0  0  0  0  0  0
    4.9487  -48.2105  -19.9343 C   0  0  0  0  0  0  0  0  0  0  0  0
    4.8387  -49.7271  -19.9325 C   0  0  0  0  0  0  0  0  0  0  0  0
    3.4030  -49.9550  -20.0747 N   0  0  0  0  0  0  0  0  0  0  0  0
    2.5839  -50.7045  -19.2556 C   0  0  0  0  0  0  0  0  0  0  0  0
    3.0510  -51.5295  -18.4613 O   0  0  0  0  0  0  0  0  0  0  0  0
    1.0766  -50.5359  -19.2781 C   0  0  0  0  0  0  0  0  0  0  0  0
    0.8299  -49.6617  -18.1311 N   0  0  0  0  0  0  0  0  0  0  0  0
    0.4942  -50.2323  -16.8533 C   0  0  0  0  0  0  0  0  0  0  0  0
    0.4182  -51.4705  -16.7164 O   0  0  0  0  0  0  0  0  0  0  0  0
    0.8829  -48.6477  -18.2137 H   0  0  0  0  0  0  0  0  0  0  0  0
    0.2382  -49.4338  -15.7558 O   0  0  0  0  0  0  0  0  0  0  0  0
   -0.5995  -49.8029  -14.7120 C   0  0  0  0  0  0  0  0  0  0  0  0
   -2.0098  -49.9923  -14.9494 C   0  0  0  0  0  0  0  0  0  0  0  0
   -2.8452  -48.8964  -14.8572 C   0  0  0  0  0  0  0  0  0  0  0  0
   -4.2256  -48.9831  -15.0530 C   0  0  0  0  0  0  0  0  0  0  0  0
   -4.7783  -50.2050  -15.3493 C   0  0  0  0  0  0  0  0  0  0  0  0
   -3.9164  -51.3099  -15.4378 C   0  0  0  0  0  0  0  0  0  0  0  0
   -2.5639  -51.2041  -15.2423 C   0  0  0  0  0  0  0  0  0  0  0  0
    0.3149  -51.7828  -19.2451 C   0  0  0  0  0  0  0  0  0  0  0  0
    0.0510  -52.4195  -20.5704 C   0  0  0  0  0  0  0  0  0  0  0  0
   -0.2693  -53.7477  -20.6000 C   0  0  0  0  0  0  0  0  0  0  0  0
   -0.5180  -54.3974  -21.7717 C   0  0  0  0  0  0  0  0  0  0  0  0
   -0.4523  -53.7180  -23.0061 C   0  0  0  0  0  0  0  0  0  0  0  0
   -0.1250  -52.3805  -22.9289 C   0  0  0  0  0  0  0  0  0  0  0  0
    0.1253  -51.7229  -21.7408 C   0  0  0  0  0  0  0  0  0  0  0  0
    4.0283  -49.7093  -25.4997 C   0  0  0  0  0  0  0  0  0  0  0  0
    2.9475  -49.9277  -26.0852 O   0  0  0  0  0  0  0  0  0  0  0  0
    4.8580  -48.6668  -25.8868 N   0  0  0  0  0  0  0  0  0  0  0  0
    5.7486  -48.5687  -25.2761 H   0  0  0  0  0  0  0  0  0  0  0  0
    4.7515  -47.6658  -26.9770 C   0  0  0  0  0  0  0  0  0  0  0  0
    3.7860  -46.6974  -26.4791 C   0  0  0  0  0  0  0  0  0  0  0  0
    2.7264  -46.4264  -27.1538 O   0  0  0  0  0  0  0  0  0  0  0  0
    3.9108  -45.9883  -25.2133 C   0  0  0  0  0  0  0  0  0  0  0  0
    5.0036  -45.5856  -24.5571 N   0  0  0  0  0  0  0  0  0  0  0  0
    4.8850  -44.9730  -23.4282 C   0  0  0  0  0  0  0  0  0  0  0  0
    3.6358  -44.7519  -22.9289 C   0  0  0  0  0  0  0  0  0  0  0  0
    2.6614  -45.4558  -24.1455 S   0  0  0  0  0  0  0  0  0  0  0  0
    4.4761  -48.4215  -28.2184 C   0  0  0  0  0  0  0  0  0  0  0  0
    4.6851  -48.0787  -29.5938 C   0  0  0  0  0  0  0  0  0  0  0  0
    4.1607  -46.9278  -30.3196 C   0  0  0  0  0  0  0  0  0  0  0  0
    4.2263  -46.6795  -31.6833 N   0  0  0  0  0  0  0  0  0  0  0  0
    4.9023  -45.8754  -31.9717 H   0  0  0  0  0  0  0  0  0  0  0  0
    3.5848  -47.2654  -32.7832 C   0  0  0  0  0  0  0  0  0  0  0  0
    2.2684  -46.8353  -33.1846 N   0  0  0  0  0  0  0  0  0  0  0  0
    4.0958  -48.2035  -33.4671 N   0  0  0  0  0  0  0  0  0  0  0  0
    1.7954  -47.1969  -34.0288 H   0  0  0  0  0  0  0  0  0  0  0  0
    1.7978  -46.1162  -32.5732 H   0  0  0  0  0  0  0  0  0  0  0  0
    5.0435  -48.6014  -33.2368 H   0  0  0  0  0  0  0  0  0  0  0  0
    4.6281  -52.0350  -24.7898 C   0  0  0  0  0  0  0  0  0  0  0  0
    3.4944  -52.9010  -24.2918 C   0  0  0  0  0  0  0  0  0  0  0  0
    2.5031  -53.2101  -25.3483 C   0  0  0  0  0  0  0  0  0  0  0  0
    3.0457  -53.1851  -26.6754 N   0  0  0  0  0  0  0  0  0  0  0  0
    4.0174  -53.2888  -26.9352 H   0  0  0  0  0  0  0  0  0  0  0  0
    2.2363  -54.0036  -28.7844 N   0  0  0  0  0  0  0  0  0  0  0  0
    2.0705  -52.9905  -27.7369 C   0  0  0  0  0  0  0  0  0  0  0  0
    1.2580  -52.1042  -27.8016 N   0  0  0  0  0  0  0  0  0  0  0  0
    1.6231  -53.9287  -29.6077 H   0  0  0  0  0  0  0  0  0  0  0  0
    2.9195  -54.7620  -28.7131 H   0  0  0  0  0  0  0  0  0  0  0  0
    0.6527  -51.4405  -27.8453 H   0  0  0  0  0  0  0  0  0  0  0  0
 61 62  1  0  0  0
 62 63  2  0  0  0
 62 59  1  0  0  0
 59 58  1  0  0  0
 58 57  1  0  0  0
 57 56  1  0  0  0
 56  1  1  0  0  0
  1  2  1  0  0  0
  2  3  1  0  0  0
  3  4  2  0  0  0
  3  6  1  0  0  0
  6  7  1  0  0  0
  7  8  1  0  0  0
  8  9  1  0  0  0
  9 10  1  0  0  0
 10 11  1  0  0  0
 11 12  2  0  0  0
 11 13  1  0  0  0
 13 26  1  0  0  0
 26 27  1  0  0  0
 27 28  2  0  0  0
 28 29  1  0  0  0
 29 30  2  0  0  0
 30 31  1  0  0  0
 31 32  2  0  0  0
 13 14  1  0  0  0
 14 15  1  0  0  0
 15 16  2  0  0  0
 15 18  1  0  0  0
 18 19  1  0  0  0
 19 20  1  0  0  0
 20 21  2  0  0  0
 21 22  1  0  0  0
 22 23  2  0  0  0
 23 24  1  0  0  0
 24 25  2  0  0  0
  1 33  1  0  0  0
 33 34  2  0  0  0
 33 35  1  0  0  0
 35 37  1  0  0  0
 37 45  1  0  0  0
 45 46  1  0  0  0
 46 47  1  0  0  0
 47 48  1  0  0  0
 48 50  1  0  0  0
 50 51  1  0  0  0
 50 52  2  0  0  0
 37 38  1  0  0  0
 38 39  2  0  0  0
 38 40  1  0  0  0
 40 41  2  0  0  0
 41 42  1  0  0  0
 42 43  2  0  0  0
 43 44  1  0  0  0
 10  6  1  0  0  0
 32 27  1  0  0  0
 25 20  1  0  0  0
 44 40  1  0  0  0
 61 64  1  0  0  0
 61 65  1  0  0  0
 63 66  1  0  0  0
 59 60  1  0  0  0
  2  5  1  0  0  0
 14 17  1  0  0  0
 35 36  1  0  0  0
 48 49  1  0  0  0
 51 53  1  0  0  0
 51 54  1  0  0  0
 52 55  1  0  0  0
M  END
> <minimizedAffinity>
-7.49952

> <CNNscore>
0.0869363993

> <CNNaffinity>
7.0493712425

> <CNN_VS>
0.6128469706

> <CNNaffinity_variance>
0.8325807452

$$$$
[H]N=C(N([H])[H])N([H])C([H])([H])C([H])([H])C([H])([H])[C@@]([H])(C(=O)c1nc([H])c([H])s1)N([H])C(=O)[C@@]([H])(N([H])C(=O)[C@@]1([H])N(C(=O)[C@]([H])(N([H])C(=O)OC([H])([H])c2c([H])c([H])c([H])c([H])c2[H])C([H])([H])c2c([H])c([H])c([H])c([H])c2[H])C([H])([H])C([H])([H])C1([H])[H])C([H])([H])C([H])([H])C([H])([H])N([H])C(=N[H])N([H])[H]


 66 69  0  0  0  0  0  0  0  0999 V2000
    0.1314  -52.4803  -23.4673 C   0  0  0  0  0  0  0  0  0  0  0  0
    1.4716  -52.2589  -23.8070 N   0  0  0  0  0  0  0  0  0  0  0  0
    1.7646  -51.1998  -24.7277 C   0  0  0  0  0  0  0  0  0  0  0  0
    0.7453  -50.5554  -25.1378 O   0  0  0  0  0  0  0  0  0  0  0  0
    2.2707  -52.8340  -23.4204 H   0  0  0  0  0  0  0  0  0  0  0  0
    3.0597  -50.8092  -25.2245 C   0  0  0  0  0  0  0  0  0  0  0  0
    3.0096  -50.7771  -26.7910 C   0  0  0  0  0  0  0  0  0  0  0  0
    3.0598  -52.2399  -27.1854 C   0  0  0  0  0  0  0  0  0  0  0  0
    3.5000  -52.9396  -25.9091 C   0  0  0  0  0  0  0  0  0  0  0  0
    4.0683  -51.8533  -25.1152 N   0  0  0  0  0  0  0  0  0  0  0  0
    5.3264  -51.7904  -24.5523 C   0  0  0  0  0  0  0  0  0  0  0  0
    6.0161  -52.8065  -24.4059 O   0  0  0  0  0  0  0  0  0  0  0  0
    5.9273  -50.4708  -24.1066 C   0  0  0  0  0  0  0  0  0  0  0  0
    6.0888  -49.7450  -25.3667 N   0  0  0  0  0  0  0  0  0  0  0  0
    5.6429  -48.3806  -25.4709 C   0  0  0  0  0  0  0  0  0  0  0  0
    5.1240  -47.8105  -24.4895 O   0  0  0  0  0  0  0  0  0  0  0  0
    6.5069  -50.1853  -26.1847 H   0  0  0  0  0  0  0  0  0  0  0  0
    5.7650  -47.6741  -26.6513 O   0  0  0  0  0  0  0  0  0  0  0  0
    5.1485  -48.0441  -27.8390 C   0  0  0  0  0  0  0  0  0  0  0  0
    4.0686  -47.2492  -28.3711 C   0  0  0  0  0  0  0  0  0  0  0  0
    3.9889  -47.0801  -29.7395 C   0  0  0  0  0  0  0  0  0  0  0  0
    2.9905  -46.3149  -30.3469 C   0  0  0  0  0  0  0  0  0  0  0  0
    2.0486  -45.7043  -29.5554 C   0  0  0  0  0  0  0  0  0  0  0  0
    2.1440  -45.8841  -28.1662 C   0  0  0  0  0  0  0  0  0  0  0  0
    3.1316  -46.6394  -27.5893 C   0  0  0  0  0  0  0  0  0  0  0  0
    7.1590  -50.5845  -23.3282 C   0  0  0  0  0  0  0  0  0  0  0  0
    7.1406  -49.9359  -21.9826 C   0  0  0  0  0  0  0  0  0  0  0  0
    8.3025  -49.3967  -21.5062 C   0  0  0  0  0  0  0  0  0  0  0  0
    8.3633  -48.7938  -20.2857 C   0  0  0  0  0  0  0  0  0  0  0  0
    7.2213  -48.7048  -19.4627 C   0  0  0  0  0  0  0  0  0  0  0  0
    6.0720  -49.2626  -19.9826 C   0  0  0  0  0  0  0  0  0  0  0  0
    6.0113  -49.8719  -21.2203 C   0  0  0  0  0  0  0  0  0  0  0  0
   -0.2907  -52.0771  -22.0960 C   0  0  0  0  0  0  0  0  0  0  0  0
   -1.4713  -52.2746  -21.7415 O   0  0  0  0  0  0  0  0  0  0  0  0
    0.6302  -51.4945  -21.2372 N   0  0  0  0  0  0  0  0  0  0  0  0
    1.6258  -51.4093  -21.6584 H   0  0  0  0  0  0  0  0  0  0  0  0
    0.5046  -50.9696  -19.8551 C   0  0  0  0  0  0  0  0  0  0  0  0
    1.8096  -50.3907  -19.5732 C   0  0  0  0  0  0  0  0  0  0  0  0
    2.6271  -50.9812  -18.7767 O   0  0  0  0  0  0  0  0  0  0  0  0
    2.3027  -49.1512  -20.1573 C   0  0  0  0  0  0  0  0  0  0  0  0
    2.7424  -48.0364  -19.5651 N   0  0  0  0  0  0  0  0  0  0  0  0
    3.1292  -47.0377  -20.2837 C   0  0  0  0  0  0  0  0  0  0  0  0
    3.0773  -47.1464  -21.6417 C   0  0  0  0  0  0  0  0  0  0  0  0
    2.4571  -48.7296  -21.8256 S   0  0  0  0  0  0  0  0  0  0  0  0
   -0.0119  -52.0811  -19.0268 C   0  0  0  0  0  0  0  0  0  0  0  0
   -0.4811  -52.1058  -17.6732 C   0  0  0  0  0  0  0  0  0  0  0  0
   -1.6401  -52.8118  -17.1398 C   0  0  0  0  0  0  0  0  0  0  0  0
   -2.4418  -52.4443  -16.0684 N   0  0  0  0  0  0  0  0  0  0  0  0
   -1.9008  -52.1499  -15.1698 H   0  0  0  0  0  0  0  0  0  0  0  0
   -3.8325  -52.3761  -15.9076 C   0  0  0  0  0  0  0  0  0  0  0  0
   -4.6112  -53.5725  -15.7043 N   0  0  0  0  0  0  0  0  0  0  0  0
   -4.4846  -51.2890  -15.9513 N   0  0  0  0  0  0  0  0  0  0  0  0
   -5.6264  -53.5531  -15.5150 H   0  0  0  0  0  0  0  0  0  0  0  0
   -4.0921  -54.4894  -15.7511 H   0  0  0  0  0  0  0  0  0  0  0  0
   -4.0069  -50.3652  -16.1187 H   0  0  0  0  0  0  0  0  0  0  0  0
   -0.2792  -53.9086  -23.8044 C   0  0  0  0  0  0  0  0  0  0  0  0
    0.2254  -54.3000  -25.1738 C   0  0  0  0  0  0  0  0  0  0  0  0
   -0.5064  -53.6222  -26.2691 C   0  0  0  0  0  0  0  0  0  0  0  0
   -0.0740  -54.0102  -27.5800 N   0  0  0  0  0  0  0  0  0  0  0  0
    0.4281  -54.8521  -27.8285 H   0  0  0  0  0  0  0  0  0  0  0  0
   -1.8067  -52.6437  -28.5303 N   0  0  0  0  0  0  0  0  0  0  0  0
   -0.4093  -53.0748  -28.6422 C   0  0  0  0  0  0  0  0  0  0  0  0
    0.3195  -52.7193  -29.5322 N   0  0  0  0  0  0  0  0  0  0  0  0
   -2.1610  -52.0134  -29.2629 H   0  0  0  0  0  0  0  0  0  0  0  0
   -2.4139  -52.9393  -27.7615 H   0  0  0  0  0  0  0  0  0  0  0  0
    0.8678  -52.4565  -30.1950 H   0  0  0  0  0  0  0  0  0  0  0  0
 61 62  1  0  0  0
 62 63  2  0  0  0
 62 59  1  0  0  0
 59 58  1  0  0  0
 58 57  1  0  0  0
 57 56  1  0  0  0
 56  1  1  0  0  0
  1  2  1  0  0  0
  2  3  1  0  0  0
  3  4  2  0  0  0
  3  6  1  0  0  0
  6  7  1  0  0  0
  7  8  1  0  0  0
  8  9  1  0  0  0
  9 10  1  0  0  0
 10 11  1  0  0  0
 11 12  2  0  0  0
 11 13  1  0  0  0
 13 26  1  0  0  0
 26 27  1  0  0  0
 27 28  2  0  0  0
 28 29  1  0  0  0
 29 30  2  0  0  0
 30 31  1  0  0  0
 31 32  2  0  0  0
 13 14  1  0  0  0
 14 15  1  0  0  0
 15 16  2  0  0  0
 15 18  1  0  0  0
 18 19  1  0  0  0
 19 20  1  0  0  0
 20 21  2  0  0  0
 21 22  1  0  0  0
 22 23  2  0  0  0
 23 24  1  0  0  0
 24 25  2  0  0  0
  1 33  1  0  0  0
 33 34  2  0  0  0
 33 35  1  0  0  0
 35 37  1  0  0  0
 37 45  1  0  0  0
 45 46  1  0  0  0
 46 47  1  0  0  0
 47 48  1  0  0  0
 48 50  1  0  0  0
 50 51  1  0  0  0
 50 52  2  0  0  0
 37 38  1  0  0  0
 38 39  2  0  0  0
 38 40  1  0  0  0
 40 41  2  0  0  0
 41 42  1  0  0  0
 42 43  2  0  0  0
 43 44  1  0  0  0
 10  6  1  0  0  0
 32 27  1  0  0  0
 25 20  1  0  0  0
 44 40  1  0  0  0
 61 64  1  0  0  0
 61 65  1  0  0  0
 63 66  1  0  0  0
 59 60  1  0  0  0
  2  5  1  0  0  0
 14 17  1  0  0  0
 35 36  1  0  0  0
 48 49  1  0  0  0
 51 53  1  0  0  0
 51 54  1  0  0  0
 52 55  1  0  0  0
M  END
> <minimizedAffinity>
-7.36474

> <CNNscore>
0.0810947493

> <CNNaffinity>
7.3460745811

> <CNN_VS>
0.5957280993

> <CNNaffinity_variance>
0.9140868187

$$$$
[H]N=C(N([H])[H])N([H])C([H])([H])C([H])([H])C([H])([H])[C@@]([H])(C(=O)c1nc([H])c([H])s1)N([H])C(=O)[C@@]([H])(N([H])C(=O)[C@@]1([H])N(C(=O)[C@]([H])(N([H])C(=O)OC([H])([H])c2c([H])c([H])c([H])c([H])c2[H])C([H])([H])c2c([H])c([H])c([H])c([H])c2[H])C([H])([H])C([H])([H])C1([H])[H])C([H])([H])C([H])([H])C([H])([H])N([H])C(=N[H])N([H])[H]


 66 69  0  0  0  0  0  0  0  0999 V2000
    4.7592  -46.2674  -23.9870 C   0  0  0  0  0  0  0  0  0  0  0  0
    4.3270  -47.5162  -23.5240 N   0  0  0  0  0  0  0  0  0  0  0  0
    3.0549  -47.5850  -22.8668 C   0  0  0  0  0  0  0  0  0  0  0  0
    2.4393  -46.4730  -22.7835 O   0  0  0  0  0  0  0  0  0  0  0  0
    4.8927  -48.4032  -23.6341 H   0  0  0  0  0  0  0  0  0  0  0  0
    2.4265  -48.7528  -22.3026 C   0  0  0  0  0  0  0  0  0  0  0  0
    1.7704  -48.3600  -20.9340 C   0  0  0  0  0  0  0  0  0  0  0  0
    2.9462  -48.2667  -19.9818 C   0  0  0  0  0  0  0  0  0  0  0  0
    4.0743  -48.9504  -20.7383 C   0  0  0  0  0  0  0  0  0  0  0  0
    3.3690  -49.7204  -21.7595 N   0  0  0  0  0  0  0  0  0  0  0  0
    3.4681  -51.0730  -22.0128 C   0  0  0  0  0  0  0  0  0  0  0  0
    4.4175  -51.7391  -21.5831 O   0  0  0  0  0  0  0  0  0  0  0  0
    2.4079  -51.8068  -22.8118 C   0  0  0  0  0  0  0  0  0  0  0  0
    2.6863  -51.3862  -24.1851 N   0  0  0  0  0  0  0  0  0  0  0  0
    2.9460  -52.3738  -25.1992 C   0  0  0  0  0  0  0  0  0  0  0  0
    2.9290  -53.5888  -24.9147 O   0  0  0  0  0  0  0  0  0  0  0  0
    2.7087  -50.4017  -24.4461 H   0  0  0  0  0  0  0  0  0  0  0  0
    3.2296  -52.0085  -26.5007 O   0  0  0  0  0  0  0  0  0  0  0  0
    2.6053  -52.5618  -27.6105 C   0  0  0  0  0  0  0  0  0  0  0  0
    1.1658  -52.5630  -27.7046 C   0  0  0  0  0  0  0  0  0  0  0  0
    0.5821  -53.0681  -28.8498 C   0  0  0  0  0  0  0  0  0  0  0  0
   -0.8015  -53.0962  -29.0404 C   0  0  0  0  0  0  0  0  0  0  0  0
   -1.6176  -52.6027  -28.0520 C   0  0  0  0  0  0  0  0  0  0  0  0
   -1.0093  -52.0910  -26.8947 C   0  0  0  0  0  0  0  0  0  0  0  0
    0.3509  -52.0726  -26.7266 C   0  0  0  0  0  0  0  0  0  0  0  0
    1.0319  -51.5596  -22.3857 C   0  0  0  0  0  0  0  0  0  0  0  0
    0.1394  -52.7567  -22.3409 C   0  0  0  0  0  0  0  0  0  0  0  0
   -0.1453  -53.3981  -23.5137 C   0  0  0  0  0  0  0  0  0  0  0  0
   -0.9553  -54.4931  -23.5514 C   0  0  0  0  0  0  0  0  0  0  0  0
   -1.5351  -55.0077  -22.3731 C   0  0  0  0  0  0  0  0  0  0  0  0
   -1.2217  -54.3291  -21.2140 C   0  0  0  0  0  0  0  0  0  0  0  0
   -0.3993  -53.2205  -21.1768 C   0  0  0  0  0  0  0  0  0  0  0  0
    5.0456  -46.1526  -25.4450 C   0  0  0  0  0  0  0  0  0  0  0  0
    4.9002  -45.0473  -26.0071 O   0  0  0  0  0  0  0  0  0  0  0  0
    5.4703  -47.2684  -26.1517 N   0  0  0  0  0  0  0  0  0  0  0  0
    5.5850  -48.1552  -25.5383 H   0  0  0  0  0  0  0  0  0  0  0  0
    5.7955  -47.4709  -27.5852 C   0  0  0  0  0  0  0  0  0  0  0  0
    4.5508  -47.9473  -28.1696 C   0  0  0  0  0  0  0  0  0  0  0  0
    4.0935  -49.1108  -27.8720 O   0  0  0  0  0  0  0  0  0  0  0  0
    3.7277  -47.1771  -29.0915 C   0  0  0  0  0  0  0  0  0  0  0  0
    3.6772  -47.2032  -30.4271 N   0  0  0  0  0  0  0  0  0  0  0  0
    2.8698  -46.4170  -31.0543 C   0  0  0  0  0  0  0  0  0  0  0  0
    2.0827  -45.5708  -30.3311 C   0  0  0  0  0  0  0  0  0  0  0  0
    2.5548  -45.9599  -28.7340 S   0  0  0  0  0  0  0  0  0  0  0  0
    7.0094  -48.3151  -27.6275 C   0  0  0  0  0  0  0  0  0  0  0  0
    8.1306  -48.3951  -26.7390 C   0  0  0  0  0  0  0  0  0  0  0  0
    8.4505  -49.4587  -25.7942 C   0  0  0  0  0  0  0  0  0  0  0  0
    7.7117  -49.8707  -24.6942 N   0  0  0  0  0  0  0  0  0  0  0  0
    8.1610  -49.6436  -23.7281 H   0  0  0  0  0  0  0  0  0  0  0  0
    6.4823  -50.5333  -24.5751 C   0  0  0  0  0  0  0  0  0  0  0  0
    6.3998  -51.8275  -23.9447 N   0  0  0  0  0  0  0  0  0  0  0  0
    5.3927  -50.0619  -25.0217 N   0  0  0  0  0  0  0  0  0  0  0  0
    5.5030  -52.3126  -23.7797 H   0  0  0  0  0  0  0  0  0  0  0  0
    7.3104  -52.2678  -23.6457 H   0  0  0  0  0  0  0  0  0  0  0  0
    5.3554  -49.1339  -25.5186 H   0  0  0  0  0  0  0  0  0  0  0  0
    5.9031  -45.7425  -23.1278 C   0  0  0  0  0  0  0  0  0  0  0  0
    6.9504  -46.8120  -22.9220 C   0  0  0  0  0  0  0  0  0  0  0  0
    7.2288  -47.0732  -21.4907 C   0  0  0  0  0  0  0  0  0  0  0  0
    8.4191  -47.8398  -21.2638 N   0  0  0  0  0  0  0  0  0  0  0  0
    9.3732  -47.5306  -21.3926 H   0  0  0  0  0  0  0  0  0  0  0  0
    8.8455  -49.4148  -19.5001 N   0  0  0  0  0  0  0  0  0  0  0  0
    8.1976  -49.1999  -20.7982 C   0  0  0  0  0  0  0  0  0  0  0  0
    7.6100  -50.0672  -21.3917 N   0  0  0  0  0  0  0  0  0  0  0  0
    8.7883  -50.3617  -19.1008 H   0  0  0  0  0  0  0  0  0  0  0  0
    9.3296  -48.6671  -18.9963 H   0  0  0  0  0  0  0  0  0  0  0  0
    7.1699  -50.7117  -21.8388 H   0  0  0  0  0  0  0  0  0  0  0  0
 61 62  1  0  0  0
 62 63  2  0  0  0
 62 59  1  0  0  0
 59 58  1  0  0  0
 58 57  1  0  0  0
 57 56  1  0  0  0
 56  1  1  0  0  0
  1  2  1  0  0  0
  2  3  1  0  0  0
  3  4  2  0  0  0
  3  6  1  0  0  0
  6  7  1  0  0  0
  7  8  1  0  0  0
  8  9  1  0  0  0
  9 10  1  0  0  0
 10 11  1  0  0  0
 11 12  2  0  0  0
 11 13  1  0  0  0
 13 26  1  0  0  0
 26 27  1  0  0  0
 27 28  2  0  0  0
 28 29  1  0  0  0
 29 30  2  0  0  0
 30 31  1  0  0  0
 31 32  2  0  0  0
 13 14  1  0  0  0
 14 15  1  0  0  0
 15 16  2  0  0  0
 15 18  1  0  0  0
 18 19  1  0  0  0
 19 20  1  0  0  0
 20 21  2  0  0  0
 21 22  1  0  0  0
 22 23  2  0  0  0
 23 24  1  0  0  0
 24 25  2  0  0  0
  1 33  1  0  0  0
 33 34  2  0  0  0
 33 35  1  0  0  0
 35 37  1  0  0  0
 37 45  1  0  0  0
 45 46  1  0  0  0
 46 47  1  0  0  0
 47 48  1  0  0  0
 48 50  1  0  0  0
 50 51  1  0  0  0
 50 52  2  0  0  0
 37 38  1  0  0  0
 38 39  2  0  0  0
 38 40  1  0  0  0
 40 41  2  0  0  0
 41 42  1  0  0  0
 42 43  2  0  0  0
 43 44  1  0  0  0
 10  6  1  0  0  0
 32 27  1  0  0  0
 25 20  1  0  0  0
 44 40  1  0  0  0
 61 64  1  0  0  0
 61 65  1  0  0  0
 63 66  1  0  0  0
 59 60  1  0  0  0
  2  5  1  0  0  0
 14 17  1  0  0  0
 35 36  1  0  0  0
 48 49  1  0  0  0
 51 53  1  0  0  0
 51 54  1  0  0  0
 52 55  1  0  0  0
M  END
> <minimizedAffinity>
-7.48121

> <CNNscore>
0.0750655830

> <CNNaffinity>
6.7945947647

> <CNN_VS>
0.5100402236

> <CNNaffinity_variance>
1.6112415791

$$$$
[H]c1nc2c(nc([H])c(=O)n2[H])c(Oc2c([H])c([H])c(N([H])C(=O)N([H])c3c([H])c(C(C([H])([H])[H])(C([H])([H])[H])C([H])([H])[H])nn3-c3c([H])c([H])c(OC([H])([H])[H])c([H])c3[H])c3c([H])c([H])c([H])c([H])c23)c1[H]


 46 51  0  0  0  0  0  0  0  0999 V2000
   -3.0744  -52.7343  -16.7080 N   0  0  0  0  0  0  0  0  0  0  0  0
   -1.6628  -52.4939  -16.8966 C   0  0  0  0  0  0  0  0  0  0  0  0
   -0.9825  -52.1498  -15.9468 O   0  0  0  0  0  0  0  0  0  0  0  0
   -1.1019  -52.6503  -18.1566 N   0  0  0  0  0  0  0  0  0  0  0  0
   -3.6170  -53.0302  -17.6052 H   0  0  0  0  0  0  0  0  0  0  0  0
   -0.1316  -51.7272  -17.8157 H   0  0  0  0  0  0  0  0  0  0  0  0
   -0.5560  -52.7980  -19.3636 C   0  0  0  0  0  0  0  0  0  0  0  0
   -1.1304  -53.7054  -20.2867 C   0  0  0  0  0  0  0  0  0  0  0  0
   -0.6780  -53.8647  -21.5307 C   0  0  0  0  0  0  0  0  0  0  0  0
    0.4274  -53.1085  -21.9797 C   0  0  0  0  0  0  0  0  0  0  0  0
    0.9903  -52.2340  -21.1338 C   0  0  0  0  0  0  0  0  0  0  0  0
    2.0549  -51.4680  -21.5943 C   0  0  0  0  0  0  0  0  0  0  0  0
    2.6677  -50.5415  -20.8007 C   0  0  0  0  0  0  0  0  0  0  0  0
    2.2022  -50.3750  -19.5275 C   0  0  0  0  0  0  0  0  0  0  0  0
    1.1507  -51.1282  -19.0633 C   0  0  0  0  0  0  0  0  0  0  0  0
    0.5148  -52.0696  -19.8397 C   0  0  0  0  0  0  0  0  0  0  0  0
    0.7649  -53.4223  -23.2778 O   0  0  0  0  0  0  0  0  0  0  0  0
    0.1902  -52.9953  -24.4359 C   0  0  0  0  0  0  0  0  0  0  0  0
   -1.1104  -52.6560  -24.6364 C   0  0  0  0  0  0  0  0  0  0  0  0
   -1.5937  -52.2180  -25.8836 C   0  0  0  0  0  0  0  0  0  0  0  0
   -0.7321  -52.1346  -26.8872 N   0  0  0  0  0  0  0  0  0  0  0  0
    0.5775  -52.4552  -26.7421 C   0  0  0  0  0  0  0  0  0  0  0  0
    1.4057  -52.2976  -27.7985 N   0  0  0  0  0  0  0  0  0  0  0  0
    2.7155  -52.5741  -27.6819 C   0  0  0  0  0  0  0  0  0  0  0  0
    3.4973  -52.4176  -28.6553 O   0  0  0  0  0  0  0  0  0  0  0  0
    3.1907  -53.0248  -26.4348 C   0  0  0  0  0  0  0  0  0  0  0  0
    2.3658  -53.1735  -25.3965 N   0  0  0  0  0  0  0  0  0  0  0  0
    1.0572  -52.8862  -25.5389 C   0  0  0  0  0  0  0  0  0  0  0  0
    1.0303  -51.9606  -28.7075 H   0  0  0  0  0  0  0  0  0  0  0  0
   -4.1454  -51.8300  -14.5798 N   0  0  0  0  0  0  0  0  0  0  0  0
   -5.1448  -52.3172  -13.8182 N   0  0  0  0  0  0  0  0  0  0  0  0
   -5.5535  -53.4849  -14.2389 C   0  0  0  0  0  0  0  0  0  0  0  0
   -4.7644  -53.7705  -15.3348 C   0  0  0  0  0  0  0  0  0  0  0  0
   -3.8439  -52.6855  -15.5621 C   0  0  0  0  0  0  0  0  0  0  0  0
   -2.2556  -48.1699  -13.5703 C   0  0  0  0  0  0  0  0  0  0  0  0
   -3.1060  -48.2761  -14.6449 C   0  0  0  0  0  0  0  0  0  0  0  0
   -3.7388  -49.4493  -14.9611 C   0  0  0  0  0  0  0  0  0  0  0  0
   -3.5723  -50.5670  -14.2360 C   0  0  0  0  0  0  0  0  0  0  0  0
   -2.7048  -50.4854  -13.1132 C   0  0  0  0  0  0  0  0  0  0  0  0
   -2.0639  -49.2931  -12.8016 C   0  0  0  0  0  0  0  0  0  0  0  0
   -1.9953  -45.7805  -13.9595 C   0  0  0  0  0  0  0  0  0  0  0  0
   -1.6035  -46.9810  -13.2591 O   0  0  0  0  0  0  0  0  0  0  0  0
   -6.6570  -54.3867  -13.7404 C   0  0  0  0  0  0  0  0  0  0  0  0
   -7.5204  -53.6239  -12.7341 C   0  0  0  0  0  0  0  0  0  0  0  0
   -7.5503  -54.8102  -14.8842 C   0  0  0  0  0  0  0  0  0  0  0  0
   -6.1167  -55.6007  -13.0844 C   0  0  0  0  0  0  0  0  0  0  0  0
 41 42  1  0  0  0
 42 35  1  0  0  0
 35 36  2  0  0  0
 36 37  1  0  0  0
 37 38  2  0  0  0
 38 39  1  0  0  0
 39 40  2  0  0  0
 38 30  1  0  0  0
 30 31  1  0  0  0
 31 32  2  0  0  0
 32 33  1  0  0  0
 33 34  2  0  0  0
 34  1  1  0  0  0
  1  2  1  0  0  0
  2  3  2  0  0  0
  2  4  1  0  0  0
  4  7  1  0  0  0
  7  8  2  0  0  0
  8  9  1  0  0  0
  9 10  2  0  0  0
 10 17  1  0  0  0
 17 18  1  0  0  0
 18 19  2  0  0  0
 19 20  1  0  0  0
 20 21  2  0  0  0
 21 22  1  0  0  0
 22 23  1  0  0  0
 23 24  1  0  0  0
 24 25  2  0  0  0
 24 26  1  0  0  0
 26 27  2  0  0  0
 27 28  1  0  0  0
 10 11  1  0  0  0
 11 12  2  0  0  0
 12 13  1  0  0  0
 13 14  2  0  0  0
 14 15  1  0  0  0
 15 16  2  0  0  0
 32 43  1  0  0  0
 43 44  1  0  0  0
 43 45  1  0  0  0
 43 46  1  0  0  0
 40 35  1  0  0  0
 34 30  1  0  0  0
 16  7  1  0  0  0
 28 18  1  0  0  0
 16 11  1  0  0  0
 28 22  2  0  0  0
  1  5  1  0  0  0
  4  6  1  0  0  0
 23 29  1  0  0  0
M  END
> <minimizedAffinity>
-8.94452

> <CNNscore>
0.1861189455

> <CNNaffinity>
7.1210126877

> <CNN_VS>
1.3253554106

> <CNNaffinity_variance>
0.2550925612

$$$$
[H]c1nc2c(nc([H])c(=O)n2[H])c(Oc2c([H])c([H])c(N([H])C(=O)N([H])c3c([H])c(C(C([H])([H])[H])(C([H])([H])[H])C([H])([H])[H])nn3-c3c([H])c([H])c(OC([H])([H])[H])c([H])c3[H])c3c([H])c([H])c([H])c([H])c23)c1[H]


 46 51  0  0  0  0  0  0  0  0999 V2000
    2.1815  -49.7278  -20.7781 N   0  0  0  0  0  0  0  0  0  0  0  0
    2.0745  -48.4940  -21.5211 C   0  0  0  0  0  0  0  0  0  0  0  0
    1.0179  -47.8881  -21.5255 O   0  0  0  0  0  0  0  0  0  0  0  0
    3.1722  -48.0191  -22.2255 N   0  0  0  0  0  0  0  0  0  0  0  0
    3.1543  -50.2156  -20.8293 H   0  0  0  0  0  0  0  0  0  0  0  0
    2.3101  -47.3807  -23.0966 H   0  0  0  0  0  0  0  0  0  0  0  0
    4.2219  -47.5569  -22.9046 C   0  0  0  0  0  0  0  0  0  0  0  0
    4.6644  -48.2411  -24.0627 C   0  0  0  0  0  0  0  0  0  0  0  0
    5.6679  -47.8087  -24.8267 C   0  0  0  0  0  0  0  0  0  0  0  0
    6.3442  -46.6150  -24.4907 C   0  0  0  0  0  0  0  0  0  0  0  0
    5.9455  -45.9376  -23.4047 C   0  0  0  0  0  0  0  0  0  0  0  0
    6.5925  -44.7455  -23.1007 C   0  0  0  0  0  0  0  0  0  0  0  0
    6.2311  -43.9880  -22.0241 C   0  0  0  0  0  0  0  0  0  0  0  0
    5.2006  -44.4284  -21.2433 C   0  0  0  0  0  0  0  0  0  0  0  0
    4.5555  -45.6059  -21.5356 C   0  0  0  0  0  0  0  0  0  0  0  0
    4.8986  -46.3903  -22.6129 C   0  0  0  0  0  0  0  0  0  0  0  0
    7.3613  -46.3395  -25.3780 O   0  0  0  0  0  0  0  0  0  0  0  0
    7.2757  -45.9440  -26.6781 C   0  0  0  0  0  0  0  0  0  0  0  0
    6.7340  -44.7935  -27.1574 C   0  0  0  0  0  0  0  0  0  0  0  0
    6.7076  -44.4851  -28.5304 C   0  0  0  0  0  0  0  0  0  0  0  0
    7.2407  -45.3593  -29.3720 N   0  0  0  0  0  0  0  0  0  0  0  0
    7.7992  -46.5201  -28.9483 C   0  0  0  0  0  0  0  0  0  0  0  0
    8.3671  -47.3389  -29.8615 N   0  0  0  0  0  0  0  0  0  0  0  0
    8.9589  -48.4815  -29.4743 C   0  0  0  0  0  0  0  0  0  0  0  0
    9.5024  -49.2438  -30.3149 O   0  0  0  0  0  0  0  0  0  0  0  0
    8.9702  -48.7910  -28.1002 C   0  0  0  0  0  0  0  0  0  0  0  0
    8.4103  -47.9743  -27.2057 N   0  0  0  0  0  0  0  0  0  0  0  0
    7.8262  -46.8329  -27.6198 C   0  0  0  0  0  0  0  0  0  0  0  0
    8.3477  -47.0859  -30.8696 H   0  0  0  0  0  0  0  0  0  0  0  0
    0.4340  -51.4253  -20.0302 N   0  0  0  0  0  0  0  0  0  0  0  0
   -0.0984  -51.6683  -18.8162 N   0  0  0  0  0  0  0  0  0  0  0  0
    0.3293  -50.8211  -17.9179 C   0  0  0  0  0  0  0  0  0  0  0  0
    1.1845  -49.9763  -18.5964 C   0  0  0  0  0  0  0  0  0  0  0  0
    1.2575  -50.3731  -19.9797 C   0  0  0  0  0  0  0  0  0  0  0  0
   -0.5100  -53.9319  -23.3185 C   0  0  0  0  0  0  0  0  0  0  0  0
   -1.0672  -54.1223  -22.0766 C   0  0  0  0  0  0  0  0  0  0  0  0
   -0.7854  -53.3009  -21.0170 C   0  0  0  0  0  0  0  0  0  0  0  0
    0.0480  -52.2541  -21.1283 C   0  0  0  0  0  0  0  0  0  0  0  0
    0.6332  -52.0270  -22.4035 C   0  0  0  0  0  0  0  0  0  0  0  0
    0.3453  -52.8669  -23.4718 C   0  0  0  0  0  0  0  0  0  0  0  0
   -0.1683  -54.4920  -25.6633 C   0  0  0  0  0  0  0  0  0  0  0  0
   -0.7871  -54.7754  -24.3896 O   0  0  0  0  0  0  0  0  0  0  0  0
    0.0493  -50.7215  -16.4377 C   0  0  0  0  0  0  0  0  0  0  0  0
   -1.1059  -51.6566  -16.0755 C   0  0  0  0  0  0  0  0  0  0  0  0
    1.2586  -51.1551  -15.6410 C   0  0  0  0  0  0  0  0  0  0  0  0
   -0.3110  -49.3397  -16.0412 C   0  0  0  0  0  0  0  0  0  0  0  0
 41 42  1  0  0  0
 42 35  1  0  0  0
 35 36  2  0  0  0
 36 37  1  0  0  0
 37 38  2  0  0  0
 38 39  1  0  0  0
 39 40  2  0  0  0
 38 30  1  0  0  0
 30 31  1  0  0  0
 31 32  2  0  0  0
 32 33  1  0  0  0
 33 34  2  0  0  0
 34  1  1  0  0  0
  1  2  1  0  0  0
  2  3  2  0  0  0
  2  4  1  0  0  0
  4  7  1  0  0  0
  7  8  2  0  0  0
  8  9  1  0  0  0
  9 10  2  0  0  0
 10 17  1  0  0  0
 17 18  1  0  0  0
 18 19  2  0  0  0
 19 20  1  0  0  0
 20 21  2  0  0  0
 21 22  1  0  0  0
 22 23  1  0  0  0
 23 24  1  0  0  0
 24 25  2  0  0  0
 24 26  1  0  0  0
 26 27  2  0  0  0
 27 28  1  0  0  0
 10 11  1  0  0  0
 11 12  2  0  0  0
 12 13  1  0  0  0
 13 14  2  0  0  0
 14 15  1  0  0  0
 15 16  2  0  0  0
 32 43  1  0  0  0
 43 44  1  0  0  0
 43 45  1  0  0  0
 43 46  1  0  0  0
 40 35  1  0  0  0
 34 30  1  0  0  0
 16  7  1  0  0  0
 28 18  1  0  0  0
 16 11  1  0  0  0
 28 22  2  0  0  0
  1  5  1  0  0  0
  4  6  1  0  0  0
 23 29  1  0  0  0
M  END
> <minimizedAffinity>
-7.10561

> <CNNscore>
0.0745494217

> <CNNaffinity>
6.7999854088

> <CNN_VS>
0.5069350004

> <CNNaffinity_variance>
0.4918529987

$$$$
[H]c1nc2c(nc([H])c(=O)n2[H])c(Oc2c([H])c([H])c(N([H])C(=O)N([H])c3c([H])c(C(C([H])([H])[H])(C([H])([H])[H])C([H])([H])[H])nn3-c3c([H])c([H])c(OC([H])([H])[H])c([H])c3[H])c3c([H])c([H])c([H])c([H])c23)c1[H]


 46 51  0  0  0  0  0  0  0  0999 V2000
    1.8045  -49.8278  -21.1210 N   0  0  0  0  0  0  0  0  0  0  0  0
    1.6365  -48.5034  -21.6719 C   0  0  0  0  0  0  0  0  0  0  0  0
    0.6565  -47.8481  -21.3657 O   0  0  0  0  0  0  0  0  0  0  0  0
    2.5876  -47.9979  -22.5473 N   0  0  0  0  0  0  0  0  0  0  0  0
    2.7004  -50.3545  -21.4483 H   0  0  0  0  0  0  0  0  0  0  0  0
    1.6096  -47.2069  -23.1196 H   0  0  0  0  0  0  0  0  0  0  0  0
    3.4966  -47.5057  -23.3889 C   0  0  0  0  0  0  0  0  0  0  0  0
    3.2318  -47.4959  -24.7800 C   0  0  0  0  0  0  0  0  0  0  0  0
    4.0645  -46.9679  -25.6774 C   0  0  0  0  0  0  0  0  0  0  0  0
    5.2786  -46.3842  -25.2528 C   0  0  0  0  0  0  0  0  0  0  0  0
    5.5572  -46.3693  -23.9414 C   0  0  0  0  0  0  0  0  0  0  0  0
    6.7370  -45.7615  -23.5282 C   0  0  0  0  0  0  0  0  0  0  0  0
    7.0814  -45.6872  -22.2093 C   0  0  0  0  0  0  0  0  0  0  0  0
    6.2269  -46.2245  -21.2891 C   0  0  0  0  0  0  0  0  0  0  0  0
    5.0587  -46.8279  -21.6883 C   0  0  0  0  0  0  0  0  0  0  0  0
    4.6863  -46.9184  -23.0099 C   0  0  0  0  0  0  0  0  0  0  0  0
    6.0161  -45.9130  -26.3166 O   0  0  0  0  0  0  0  0  0  0  0  0
    5.7481  -44.8647  -27.1429 C   0  0  0  0  0  0  0  0  0  0  0  0
    5.6200  -43.5556  -26.8014 C   0  0  0  0  0  0  0  0  0  0  0  0
    5.3475  -42.5505  -27.7483 C   0  0  0  0  0  0  0  0  0  0  0  0
    5.2196  -42.9128  -29.0167 N   0  0  0  0  0  0  0  0  0  0  0  0
    5.3428  -44.2034  -29.4142 C   0  0  0  0  0  0  0  0  0  0  0  0
    5.2483  -44.4891  -30.7319 N   0  0  0  0  0  0  0  0  0  0  0  0
    5.3979  -45.7522  -31.1655 C   0  0  0  0  0  0  0  0  0  0  0  0
    5.3255  -46.0265  -32.3914 O   0  0  0  0  0  0  0  0  0  0  0  0
    5.6571  -46.7555  -30.2115 C   0  0  0  0  0  0  0  0  0  0  0  0
    5.7526  -46.4630  -28.9130 N   0  0  0  0  0  0  0  0  0  0  0  0
    5.6018  -45.1879  -28.5046 C   0  0  0  0  0  0  0  0  0  0  0  0
    5.0592  -43.7296  -31.4161 H   0  0  0  0  0  0  0  0  0  0  0  0
    0.3066  -51.6464  -20.1499 N   0  0  0  0  0  0  0  0  0  0  0  0
   -0.0767  -51.8908  -18.8811 N   0  0  0  0  0  0  0  0  0  0  0  0
    0.3578  -50.9757  -18.0558 C   0  0  0  0  0  0  0  0  0  0  0  0
    1.0583  -50.0833  -18.8421 C   0  0  0  0  0  0  0  0  0  0  0  0
    1.0293  -50.5233  -20.2139 C   0  0  0  0  0  0  0  0  0  0  0  0
   -0.7235  -54.3513  -23.2498 C   0  0  0  0  0  0  0  0  0  0  0  0
   -1.1487  -54.5337  -21.9556 C   0  0  0  0  0  0  0  0  0  0  0  0
   -0.8401  -53.6503  -20.9551 C   0  0  0  0  0  0  0  0  0  0  0  0
   -0.1083  -52.5470  -21.1788 C   0  0  0  0  0  0  0  0  0  0  0  0
    0.3386  -52.3272  -22.5099 C   0  0  0  0  0  0  0  0  0  0  0  0
    0.0247  -53.2299  -23.5179 C   0  0  0  0  0  0  0  0  0  0  0  0
   -0.3402  -55.1278  -25.5255 C   0  0  0  0  0  0  0  0  0  0  0  0
   -1.0267  -55.2569  -24.2615 O   0  0  0  0  0  0  0  0  0  0  0  0
    0.2191  -50.8464  -16.5580 C   0  0  0  0  0  0  0  0  0  0  0  0
   -0.6540  -51.9855  -16.0288 C   0  0  0  0  0  0  0  0  0  0  0  0
    1.5713  -50.9559  -15.8910 C   0  0  0  0  0  0  0  0  0  0  0  0
   -0.3965  -49.5538  -16.1754 C   0  0  0  0  0  0  0  0  0  0  0  0
 41 42  1  0  0  0
 42 35  1  0  0  0
 35 36  2  0  0  0
 36 37  1  0  0  0
 37 38  2  0  0  0
 38 39  1  0  0  0
 39 40  2  0  0  0
 38 30  1  0  0  0
 30 31  1  0  0  0
 31 32  2  0  0  0
 32 33  1  0  0  0
 33 34  2  0  0  0
 34  1  1  0  0  0
  1  2  1  0  0  0
  2  3  2  0  0  0
  2  4  1  0  0  0
  4  7  1  0  0  0
  7  8  2  0  0  0
  8  9  1  0  0  0
  9 10  2  0  0  0
 10 17  1  0  0  0
 17 18  1  0  0  0
 18 19  2  0  0  0
 19 20  1  0  0  0
 20 21  2  0  0  0
 21 22  1  0  0  0
 22 23  1  0  0  0
 23 24  1  0  0  0
 24 25  2  0  0  0
 24 26  1  0  0  0
 26 27  2  0  0  0
 27 28  1  0  0  0
 10 11  1  0  0  0
 11 12  2  0  0  0
 12 13  1  0  0  0
 13 14  2  0  0  0
 14 15  1  0  0  0
 15 16  2  0  0  0
 32 43  1  0  0  0
 43 44  1  0  0  0
 43 45  1  0  0  0
 43 46  1  0  0  0
 40 35  1  0  0  0
 34 30  1  0  0  0
 16  7  1  0  0  0
 28 18  1  0  0  0
 16 11  1  0  0  0
 28 22  2  0  0  0
  1  5  1  0  0  0
  4  6  1  0  0  0
 23 29  1  0  0  0
M  END
> <minimizedAffinity>
-7.35973

> <CNNscore>
0.0598421395

> <CNNaffinity>
6.7259702682

> <CNN_VS>
0.4024964571

> <CNNaffinity_variance>
0.2063662112

$$$$
[H]c1nc2c(nc([H])c(=O)n2[H])c(Oc2c([H])c([H])c(N([H])C(=O)N([H])c3c([H])c(C(C([H])([H])[H])(C([H])([H])[H])C([H])([H])[H])nn3-c3c([H])c([H])c(OC([H])([H])[H])c([H])c3[H])c3c([H])c([H])c([H])c([H])c23)c1[H]


 46 51  0  0  0  0  0  0  0  0999 V2000
    2.9871  -50.9534  -23.9621 N   0  0  0  0  0  0  0  0  0  0  0  0
    4.3797  -51.0877  -23.6039 C   0  0  0  0  0  0  0  0  0  0  0  0
    4.8691  -52.1993  -23.5114 O   0  0  0  0  0  0  0  0  0  0  0  0
    5.1395  -49.9515  -23.3624 N   0  0  0  0  0  0  0  0  0  0  0  0
    2.6203  -49.9290  -24.0163 H   0  0  0  0  0  0  0  0  0  0  0  0
    5.9492  -50.6964  -22.5263 H   0  0  0  0  0  0  0  0  0  0  0  0
    5.8754  -48.8650  -23.1288 C   0  0  0  0  0  0  0  0  0  0  0  0
    5.5802  -47.6585  -23.8089 C   0  0  0  0  0  0  0  0  0  0  0  0
    6.2319  -46.5169  -23.5857 C   0  0  0  0  0  0  0  0  0  0  0  0
    7.2736  -46.4762  -22.6326 C   0  0  0  0  0  0  0  0  0  0  0  0
    7.5739  -47.5991  -21.9645 C   0  0  0  0  0  0  0  0  0  0  0  0
    8.5761  -47.5424  -21.0030 C   0  0  0  0  0  0  0  0  0  0  0  0
    8.9255  -48.6372  -20.2662 C   0  0  0  0  0  0  0  0  0  0  0  0
    8.2556  -49.8060  -20.4917 C   0  0  0  0  0  0  0  0  0  0  0  0
    7.2639  -49.8717  -21.4406 C   0  0  0  0  0  0  0  0  0  0  0  0
    6.8913  -48.7853  -22.1985 C   0  0  0  0  0  0  0  0  0  0  0  0
    7.8429  -45.2242  -22.5543 O   0  0  0  0  0  0  0  0  0  0  0  0
    7.9405  -44.3972  -21.4771 C   0  0  0  0  0  0  0  0  0  0  0  0
    9.0761  -43.9506  -20.8789 C   0  0  0  0  0  0  0  0  0  0  0  0
    9.0556  -43.0866  -19.7680 C   0  0  0  0  0  0  0  0  0  0  0  0
    7.8752  -42.7004  -19.3053 N   0  0  0  0  0  0  0  0  0  0  0  0
    6.7110  -43.1108  -19.8666 C   0  0  0  0  0  0  0  0  0  0  0  0
    5.5474  -42.6352  -19.3699 N   0  0  0  0  0  0  0  0  0  0  0  0
    4.3761  -42.9944  -19.9219 C   0  0  0  0  0  0  0  0  0  0  0  0
    3.2882  -42.5465  -19.4758 O   0  0  0  0  0  0  0  0  0  0  0  0
    4.4025  -43.8699  -21.0250 C   0  0  0  0  0  0  0  0  0  0  0  0
    5.5567  -44.3310  -21.5108 N   0  0  0  0  0  0  0  0  0  0  0  0
    6.7176  -43.9528  -20.9411 C   0  0  0  0  0  0  0  0  0  0  0  0
    5.5554  -41.9879  -18.5566 H   0  0  0  0  0  0  0  0  0  0  0  0
    1.0449  -52.5839  -23.7100 N   0  0  0  0  0  0  0  0  0  0  0  0
    0.3546  -53.2845  -24.6314 N   0  0  0  0  0  0  0  0  0  0  0  0
    0.8441  -53.1250  -25.8323 C   0  0  0  0  0  0  0  0  0  0  0  0
    1.9200  -52.2748  -25.6740 C   0  0  0  0  0  0  0  0  0  0  0  0
    2.0505  -51.9160  -24.2846 C   0  0  0  0  0  0  0  0  0  0  0  0
   -0.2453  -52.6627  -19.6706 C   0  0  0  0  0  0  0  0  0  0  0  0
   -0.4773  -53.7117  -20.5278 C   0  0  0  0  0  0  0  0  0  0  0  0
   -0.0412  -53.7026  -21.8265 C   0  0  0  0  0  0  0  0  0  0  0  0
    0.6464  -52.6702  -22.3405 C   0  0  0  0  0  0  0  0  0  0  0  0
    0.9088  -51.5739  -21.4748 C   0  0  0  0  0  0  0  0  0  0  0  0
    0.4598  -51.5893  -20.1604 C   0  0  0  0  0  0  0  0  0  0  0  0
   -0.2266  -51.6384  -17.4618 C   0  0  0  0  0  0  0  0  0  0  0  0
   -0.7009  -52.6683  -18.3561 O   0  0  0  0  0  0  0  0  0  0  0  0
    0.3909  -53.6669  -27.1667 C   0  0  0  0  0  0  0  0  0  0  0  0
    1.4816  -53.4223  -28.2109 C   0  0  0  0  0  0  0  0  0  0  0  0
    0.1630  -55.1588  -27.0810 C   0  0  0  0  0  0  0  0  0  0  0  0
   -0.8620  -53.0198  -27.6225 C   0  0  0  0  0  0  0  0  0  0  0  0
 41 42  1  0  0  0
 42 35  1  0  0  0
 35 36  2  0  0  0
 36 37  1  0  0  0
 37 38  2  0  0  0
 38 39  1  0  0  0
 39 40  2  0  0  0
 38 30  1  0  0  0
 30 31  1  0  0  0
 31 32  2  0  0  0
 32 33  1  0  0  0
 33 34  2  0  0  0
 34  1  1  0  0  0
  1  2  1  0  0  0
  2  3  2  0  0  0
  2  4  1  0  0  0
  4  7  1  0  0  0
  7  8  2  0  0  0
  8  9  1  0  0  0
  9 10  2  0  0  0
 10 17  1  0  0  0
 17 18  1  0  0  0
 18 19  2  0  0  0
 19 20  1  0  0  0
 20 21  2  0  0  0
 21 22  1  0  0  0
 22 23  1  0  0  0
 23 24  1  0  0  0
 24 25  2  0  0  0
 24 26  1  0  0  0
 26 27  2  0  0  0
 27 28  1  0  0  0
 10 11  1  0  0  0
 11 12  2  0  0  0
 12 13  1  0  0  0
 13 14  2  0  0  0
 14 15  1  0  0  0
 15 16  2  0  0  0
 32 43  1  0  0  0
 43 44  1  0  0  0
 43 45  1  0  0  0
 43 46  1  0  0  0
 40 35  1  0  0  0
 34 30  1  0  0  0
 16  7  1  0  0  0
 28 18  1  0  0  0
 16 11  1  0  0  0
 28 22  2  0  0  0
  1  5  1  0  0  0
  4  6  1  0  0  0
 23 29  1  0  0  0
M  END
> <minimizedAffinity>
-7.31562

> <CNNscore>
0.0580782779

> <CNNaffinity>
7.1141710281

> <CNN_VS>
0.4131788015

> <CNNaffinity_variance>
0.4768613875

$$$$
[H]c1nc2c(nc([H])c(=O)n2[H])c(Oc2c([H])c([H])c(N([H])C(=O)N([H])c3c([H])c(C(C([H])([H])[H])(C([H])([H])[H])C([H])([H])[H])nn3-c3c([H])c([H])c(OC([H])([H])[H])c([H])c3[H])c3c([H])c([H])c([H])c([H])c23)c1[H]


 46 51  0  0  0  0  0  0  0  0999 V2000
    2.7215  -48.4678  -22.9044 N   0  0  0  0  0  0  0  0  0  0  0  0
    2.7102  -49.9079  -22.7958 C   0  0  0  0  0  0  0  0  0  0  0  0
    3.3570  -50.5725  -23.5854 O   0  0  0  0  0  0  0  0  0  0  0  0
    1.9581  -50.5156  -21.8000 N   0  0  0  0  0  0  0  0  0  0  0  0
    2.1124  -47.9438  -22.1686 H   0  0  0  0  0  0  0  0  0  0  0  0
    1.8417  -51.6356  -22.6010 H   0  0  0  0  0  0  0  0  0  0  0  0
    1.2380  -51.1065  -20.8466 C   0  0  0  0  0  0  0  0  0  0  0  0
    1.2693  -50.5959  -19.5261 C   0  0  0  0  0  0  0  0  0  0  0  0
    0.5326  -51.0951  -18.5332 C   0  0  0  0  0  0  0  0  0  0  0  0
   -0.3293  -52.1873  -18.7770 C   0  0  0  0  0  0  0  0  0  0  0  0
   -0.3896  -52.6902  -20.0184 C   0  0  0  0  0  0  0  0  0  0  0  0
   -1.2664  -53.7416  -20.2584 C   0  0  0  0  0  0  0  0  0  0  0  0
   -1.4005  -54.2942  -21.4995 C   0  0  0  0  0  0  0  0  0  0  0  0
   -0.6490  -53.7807  -22.5179 C   0  0  0  0  0  0  0  0  0  0  0  0
    0.2210  -52.7418  -22.2899 C   0  0  0  0  0  0  0  0  0  0  0  0
    0.3777  -52.1660  -21.0499 C   0  0  0  0  0  0  0  0  0  0  0  0
   -0.9902  -52.5790  -17.6336 O   0  0  0  0  0  0  0  0  0  0  0  0
   -0.8759  -52.0844  -16.3702 C   0  0  0  0  0  0  0  0  0  0  0  0
    0.2688  -51.8160  -15.6888 C   0  0  0  0  0  0  0  0  0  0  0  0
    0.2656  -51.2960  -14.3809 C   0  0  0  0  0  0  0  0  0  0  0  0
   -0.9075  -51.0607  -13.8107 N   0  0  0  0  0  0  0  0  0  0  0  0
   -2.0803  -51.3049  -14.4462 C   0  0  0  0  0  0  0  0  0  0  0  0
   -3.2362  -50.9931  -13.8188 N   0  0  0  0  0  0  0  0  0  0  0  0
   -4.4159  -51.1908  -14.4310 C   0  0  0  0  0  0  0  0  0  0  0  0
   -5.4969  -50.8911  -13.8610 O   0  0  0  0  0  0  0  0  0  0  0  0
   -4.4066  -51.7239  -15.7347 C   0  0  0  0  0  0  0  0  0  0  0  0
   -3.2600  -52.0248  -16.3475 N   0  0  0  0  0  0  0  0  0  0  0  0
   -2.0903  -51.8140  -15.7128 C   0  0  0  0  0  0  0  0  0  0  0  0
   -3.2155  -50.5981  -12.8575 H   0  0  0  0  0  0  0  0  0  0  0  0
    4.1238  -46.5113  -23.7409 N   0  0  0  0  0  0  0  0  0  0  0  0
    4.7262  -46.3002  -24.9279 N   0  0  0  0  0  0  0  0  0  0  0  0
    4.4601  -47.2496  -25.7853 C   0  0  0  0  0  0  0  0  0  0  0  0
    3.6297  -48.1225  -25.1115 C   0  0  0  0  0  0  0  0  0  0  0  0
    3.4115  -47.6424  -23.7706 C   0  0  0  0  0  0  0  0  0  0  0  0
    4.7594  -43.7927  -20.5484 C   0  0  0  0  0  0  0  0  0  0  0  0
    5.0938  -43.4816  -21.8448 C   0  0  0  0  0  0  0  0  0  0  0  0
    4.8679  -44.3456  -22.8837 C   0  0  0  0  0  0  0  0  0  0  0  0
    4.2992  -45.5480  -22.7002 C   0  0  0  0  0  0  0  0  0  0  0  0
    3.9347  -45.8941  -21.3708 C   0  0  0  0  0  0  0  0  0  0  0  0
    4.1707  -45.0140  -20.3224 C   0  0  0  0  0  0  0  0  0  0  0  0
    3.8955  -42.5465  -18.6433 C   0  0  0  0  0  0  0  0  0  0  0  0
    5.0021  -42.9192  -19.4931 O   0  0  0  0  0  0  0  0  0  0  0  0
    4.9322  -47.4647  -27.2032 C   0  0  0  0  0  0  0  0  0  0  0  0
    4.6790  -46.1966  -28.0204 C   0  0  0  0  0  0  0  0  0  0  0  0
    6.4186  -47.7389  -27.2290 C   0  0  0  0  0  0  0  0  0  0  0  0
    4.2281  -48.5982  -27.8479 C   0  0  0  0  0  0  0  0  0  0  0  0
 41 42  1  0  0  0
 42 35  1  0  0  0
 35 36  2  0  0  0
 36 37  1  0  0  0
 37 38  2  0  0  0
 38 39  1  0  0  0
 39 40  2  0  0  0
 38 30  1  0  0  0
 30 31  1  0  0  0
 31 32  2  0  0  0
 32 33  1  0  0  0
 33 34  2  0  0  0
 34  1  1  0  0  0
  1  2  1  0  0  0
  2  3  2  0  0  0
  2  4  1  0  0  0
  4  7  1  0  0  0
  7  8  2  0  0  0
  8  9  1  0  0  0
  9 10  2  0  0  0
 10 17  1  0  0  0
 17 18  1  0  0  0
 18 19  2  0  0  0
 19 20  1  0  0  0
 20 21  2  0  0  0
 21 22  1  0  0  0
 22 23  1  0  0  0
 23 24  1  0  0  0
 24 25  2  0  0  0
 24 26  1  0  0  0
 26 27  2  0  0  0
 27 28  1  0  0  0
 10 11  1  0  0  0
 11 12  2  0  0  0
 12 13  1  0  0  0
 13 14  2  0  0  0
 14 15  1  0  0  0
 15 16  2  0  0  0
 32 43  1  0  0  0
 43 44  1  0  0  0
 43 45  1  0  0  0
 43 46  1  0  0  0
 40 35  1  0  0  0
 34 30  1  0  0  0
 16  7  1  0  0  0
 28 18  1  0  0  0
 16 11  1  0  0  0
 28 22  2  0  0  0
  1  5  1  0  0  0
  4  6  1  0  0  0
 23 29  1  0  0  0
M  END
> <minimizedAffinity>
-7.84589

> <CNNscore>
0.0423629805

> <CNNaffinity>
6.6812295914

> <CNN_VS>
0.2830367982

> <CNNaffinity_variance>
0.0587174408

$$$$
[H]c1nc2c(nc([H])c(=O)n2[H])c(Oc2c([H])c([H])c(N([H])C(=O)N([H])c3c([H])c(C(C([H])([H])[H])(C([H])([H])[H])C([H])([H])[H])nn3-c3c([H])c([H])c(OC([H])([H])[H])c([H])c3[H])c3c([H])c([H])c([H])c([H])c23)c1[H]


 46 51  0  0  0  0  0  0  0  0999 V2000
    1.8764  -48.8142  -17.4165 N   0  0  0  0  0  0  0  0  0  0  0  0
    1.9321  -50.1803  -17.8820 C   0  0  0  0  0  0  0  0  0  0  0  0
    2.2691  -51.0614  -17.1116 O   0  0  0  0  0  0  0  0  0  0  0  0
    1.6089  -50.4703  -19.2003 N   0  0  0  0  0  0  0  0  0  0  0  0
    1.5751  -48.0825  -18.1653 H   0  0  0  0  0  0  0  0  0  0  0  0
    2.4353  -51.5762  -19.1372 H   0  0  0  0  0  0  0  0  0  0  0  0
    1.3003  -50.7567  -20.4650 C   0  0  0  0  0  0  0  0  0  0  0  0
    1.7668  -49.9194  -21.5075 C   0  0  0  0  0  0  0  0  0  0  0  0
    1.5499  -50.1722  -22.7985 C   0  0  0  0  0  0  0  0  0  0  0  0
    0.8214  -51.3214  -23.1778 C   0  0  0  0  0  0  0  0  0  0  0  0
    0.3720  -52.1404  -22.2162 C   0  0  0  0  0  0  0  0  0  0  0  0
   -0.3132  -53.2876  -22.5987 C   0  0  0  0  0  0  0  0  0  0  0  0
   -0.7838  -54.1814  -21.6804 C   0  0  0  0  0  0  0  0  0  0  0  0
   -0.5586  -53.9250  -20.3579 C   0  0  0  0  0  0  0  0  0  0  0  0
    0.1172  -52.7931  -19.9702 C   0  0  0  0  0  0  0  0  0  0  0  0
    0.6018  -51.8745  -20.8730 C   0  0  0  0  0  0  0  0  0  0  0  0
    0.6791  -51.4052  -24.5454 O   0  0  0  0  0  0  0  0  0  0  0  0
    1.5060  -51.9904  -25.4551 C   0  0  0  0  0  0  0  0  0  0  0  0
    2.8191  -52.3025  -25.2967 C   0  0  0  0  0  0  0  0  0  0  0  0
    3.5776  -52.9169  -26.3107 C   0  0  0  0  0  0  0  0  0  0  0  0
    2.9698  -53.1991  -27.4542 N   0  0  0  0  0  0  0  0  0  0  0  0
    1.6607  -52.9147  -27.6646 C   0  0  0  0  0  0  0  0  0  0  0  0
    1.0978  -53.2772  -28.8387 N   0  0  0  0  0  0  0  0  0  0  0  0
   -0.2049  -53.0410  -29.0689 C   0  0  0  0  0  0  0  0  0  0  0  0
   -0.7416  -53.3869  -30.1532 O   0  0  0  0  0  0  0  0  0  0  0  0
   -0.9554  -52.4138  -28.0554 C   0  0  0  0  0  0  0  0  0  0  0  0
   -0.3916  -52.0631  -26.8979 N   0  0  0  0  0  0  0  0  0  0  0  0
    0.9158  -52.3142  -26.6908 C   0  0  0  0  0  0  0  0  0  0  0  0
    1.6731  -53.7415  -29.5694 H   0  0  0  0  0  0  0  0  0  0  0  0
    1.4958  -48.1823  -14.9773 N   0  0  0  0  0  0  0  0  0  0  0  0
    2.3448  -47.7054  -14.0456 N   0  0  0  0  0  0  0  0  0  0  0  0
    3.5327  -47.4771  -14.5399 C   0  0  0  0  0  0  0  0  0  0  0  0
    3.4414  -47.8217  -15.8734 C   0  0  0  0  0  0  0  0  0  0  0  0
    2.1086  -48.2879  -16.1609 C   0  0  0  0  0  0  0  0  0  0  0  0
   -2.5195  -49.1489  -14.0130 C   0  0  0  0  0  0  0  0  0  0  0  0
   -1.5006  -49.2848  -13.1007 C   0  0  0  0  0  0  0  0  0  0  0  0
   -0.2058  -48.9506  -13.3983 C   0  0  0  0  0  0  0  0  0  0  0  0
    0.1468  -48.4628  -14.5985 C   0  0  0  0  0  0  0  0  0  0  0  0
   -0.8875  -48.3032  -15.5602 C   0  0  0  0  0  0  0  0  0  0  0  0
   -2.1972  -48.6481  -15.2518 C   0  0  0  0  0  0  0  0  0  0  0  0
   -4.7540  -49.7037  -14.8056 C   0  0  0  0  0  0  0  0  0  0  0  0
   -3.8315  -49.5016  -13.7130 O   0  0  0  0  0  0  0  0  0  0  0  0
    4.8011  -46.9869  -13.8838 C   0  0  0  0  0  0  0  0  0  0  0  0
    5.3796  -48.0970  -13.0047 C   0  0  0  0  0  0  0  0  0  0  0  0
    5.8371  -46.6417  -14.9292 C   0  0  0  0  0  0  0  0  0  0  0  0
    4.5554  -45.7905  -13.0445 C   0  0  0  0  0  0  0  0  0  0  0  0
 41 42  1  0  0  0
 42 35  1  0  0  0
 35 36  2  0  0  0
 36 37  1  0  0  0
 37 38  2  0  0  0
 38 39  1  0  0  0
 39 40  2  0  0  0
 38 30  1  0  0  0
 30 31  1  0  0  0
 31 32  2  0  0  0
 32 33  1  0  0  0
 33 34  2  0  0  0
 34  1  1  0  0  0
  1  2  1  0  0  0
  2  3  2  0  0  0
  2  4  1  0  0  0
  4  7  1  0  0  0
  7  8  2  0  0  0
  8  9  1  0  0  0
  9 10  2  0  0  0
 10 17  1  0  0  0
 17 18  1  0  0  0
 18 19  2  0  0  0
 19 20  1  0  0  0
 20 21  2  0  0  0
 21 22  1  0  0  0
 22 23  1  0  0  0
 23 24  1  0  0  0
 24 25  2  0  0  0
 24 26  1  0  0  0
 26 27  2  0  0  0
 27 28  1  0  0  0
 10 11  1  0  0  0
 11 12  2  0  0  0
 12 13  1  0  0  0
 13 14  2  0  0  0
 14 15  1  0  0  0
 15 16  2  0  0  0
 32 43  1  0  0  0
 43 44  1  0  0  0
 43 45  1  0  0  0
 43 46  1  0  0  0
 40 35  1  0  0  0
 34 30  1  0  0  0
 16  7  1  0  0  0
 28 18  1  0  0  0
 16 11  1  0  0  0
 28 22  2  0  0  0
  1  5  1  0  0  0
  4  6  1  0  0  0
 23 29  1  0  0  0
M  END
> <minimizedAffinity>
-9.02508

> <CNNscore>
0.0421039648

> <CNNaffinity>
6.7062277794

> <CNN_VS>
0.2823587656

> <CNNaffinity_variance>
0.0884261578

$$$$
[H]c1nc2c(nc([H])c(=O)n2[H])c(Oc2c([H])c([H])c(N([H])C(=O)N([H])c3c([H])c(C(C([H])([H])[H])(C([H])([H])[H])C([H])([H])[H])nn3-c3c([H])c([H])c(OC([H])([H])[H])c([H])c3[H])c3c([H])c([H])c([H])c([H])c23)c1[H]


 46 51  0  0  0  0  0  0  0  0999 V2000
    2.5935  -50.5226  -20.3531 N   0  0  0  0  0  0  0  0  0  0  0  0
    3.0085  -49.2150  -20.8043 C   0  0  0  0  0  0  0  0  0  0  0  0
    2.2831  -48.2564  -20.6083 O   0  0  0  0  0  0  0  0  0  0  0  0
    4.2225  -49.0683  -21.4611 N   0  0  0  0  0  0  0  0  0  0  0  0
    3.2910  -51.3303  -20.5724 H   0  0  0  0  0  0  0  0  0  0  0  0
    3.7109  -47.9639  -22.1154 H   0  0  0  0  0  0  0  0  0  0  0  0
    5.3868  -48.9197  -22.0927 C   0  0  0  0  0  0  0  0  0  0  0  0
    5.4054  -48.7502  -23.4985 C   0  0  0  0  0  0  0  0  0  0  0  0
    6.5234  -48.5371  -24.1929 C   0  0  0  0  0  0  0  0  0  0  0  0
    7.7659  -48.4740  -23.5240 C   0  0  0  0  0  0  0  0  0  0  0  0
    7.7837  -48.6222  -22.1917 C   0  0  0  0  0  0  0  0  0  0  0  0
    9.0056  -48.5233  -21.5367 C   0  0  0  0  0  0  0  0  0  0  0  0
    9.1037  -48.6418  -20.1803 C   0  0  0  0  0  0  0  0  0  0  0  0
    7.9582  -48.8562  -19.4679 C   0  0  0  0  0  0  0  0  0  0  0  0
    6.7457  -48.9561  -20.1069 C   0  0  0  0  0  0  0  0  0  0  0  0
    6.6168  -48.8419  -21.4721 C   0  0  0  0  0  0  0  0  0  0  0  0
    8.8071  -48.2703  -24.4028 O   0  0  0  0  0  0  0  0  0  0  0  0
    9.0334  -47.2101  -25.2265 C   0  0  0  0  0  0  0  0  0  0  0  0
    9.1997  -45.9090  -24.8713 C   0  0  0  0  0  0  0  0  0  0  0  0
    9.4370  -44.8922  -25.8151 C   0  0  0  0  0  0  0  0  0  0  0  0
    9.5027  -45.2365  -27.0933 N   0  0  0  0  0  0  0  0  0  0  0  0
    9.3495  -46.5200  -27.5034 C   0  0  0  0  0  0  0  0  0  0  0  0
    9.4788  -46.8013  -28.8190 N   0  0  0  0  0  0  0  0  0  0  0  0
    9.3659  -48.0666  -29.2573 C   0  0  0  0  0  0  0  0  0  0  0  0
    9.4982  -48.3408  -30.4782 O   0  0  0  0  0  0  0  0  0  0  0  0
    9.1151  -49.0779  -28.3095 C   0  0  0  0  0  0  0  0  0  0  0  0
    8.9930  -48.7907  -27.0120 N   0  0  0  0  0  0  0  0  0  0  0  0
    9.1137  -47.5142  -26.5981 C   0  0  0  0  0  0  0  0  0  0  0  0
    9.6666  -46.0369  -29.4979 H   0  0  0  0  0  0  0  0  0  0  0  0
    0.4450  -51.7633  -19.7713 N   0  0  0  0  0  0  0  0  0  0  0  0
   -0.2588  -51.8203  -18.6234 N   0  0  0  0  0  0  0  0  0  0  0  0
    0.2417  -51.0367  -17.7053 C   0  0  0  0  0  0  0  0  0  0  0  0
    1.3308  -50.4327  -18.3005 C   0  0  0  0  0  0  0  0  0  0  0  0
    1.4680  -50.9107  -19.6529 C   0  0  0  0  0  0  0  0  0  0  0  0
   -0.6457  -54.0967  -23.1407 C   0  0  0  0  0  0  0  0  0  0  0  0
   -0.9062  -54.5099  -21.8559 C   0  0  0  0  0  0  0  0  0  0  0  0
   -0.5789  -53.7492  -20.7646 C   0  0  0  0  0  0  0  0  0  0  0  0
    0.0111  -52.5489  -20.8832 C   0  0  0  0  0  0  0  0  0  0  0  0
    0.2854  -52.0913  -22.2005 C   0  0  0  0  0  0  0  0  0  0  0  0
   -0.0462  -52.8704  -23.3017 C   0  0  0  0  0  0  0  0  0  0  0  0
   -0.2388  -54.6581  -25.4747 C   0  0  0  0  0  0  0  0  0  0  0  0
   -0.9668  -54.8769  -24.2469 O   0  0  0  0  0  0  0  0  0  0  0  0
   -0.1720  -50.7989  -16.2729 C   0  0  0  0  0  0  0  0  0  0  0  0
   -1.5625  -51.3929  -16.0408 C   0  0  0  0  0  0  0  0  0  0  0  0
    0.7851  -51.4859  -15.3257 C   0  0  0  0  0  0  0  0  0  0  0  0
   -0.2083  -49.3537  -15.9469 C   0  0  0  0  0  0  0  0  0  0  0  0
 41 42  1  0  0  0
 42 35  1  0  0  0
 35 36  2  0  0  0
 36 37  1  0  0  0
 37 38  2  0  0  0
 38 39  1  0  0  0
 39 40  2  0  0  0
 38 30  1  0  0  0
 30 31  1  0  0  0
 31 32  2  0  0  0
 32 33  1  0  0  0
 33 34  2  0  0  0
 34  1  1  0  0  0
  1  2  1  0  0  0
  2  3  2  0  0  0
  2  4  1  0  0  0
  4  7  1  0  0  0
  7  8  2  0  0  0
  8  9  1  0  0  0
  9 10  2  0  0  0
 10 17  1  0  0  0
 17 18  1  0  0  0
 18 19  2  0  0  0
 19 20  1  0  0  0
 20 21  2  0  0  0
 21 22  1  0  0  0
 22 23  1  0  0  0
 23 24  1  0  0  0
 24 25  2  0  0  0
 24 26  1  0  0  0
 26 27  2  0  0  0
 27 28  1  0  0  0
 10 11  1  0  0  0
 11 12  2  0  0  0
 12 13  1  0  0  0
 13 14  2  0  0  0
 14 15  1  0  0  0
 15 16  2  0  0  0
 32 43  1  0  0  0
 43 44  1  0  0  0
 43 45  1  0  0  0
 43 46  1  0  0  0
 40 35  1  0  0  0
 34 30  1  0  0  0
 16  7  1  0  0  0
 28 18  1  0  0  0
 16 11  1  0  0  0
 28 22  2  0  0  0
  1  5  1  0  0  0
  4  6  1  0  0  0
 23 29  1  0  0  0
M  END
> <minimizedAffinity>
-7.63216

> <CNNscore>
0.0392429419

> <CNNaffinity>
6.7493562698

> <CNN_VS>
0.2648645937

> <CNNaffinity_variance>
0.1220608577

$$$$
[H]c1nc2c(nc([H])c(=O)n2[H])c(Oc2c([H])c([H])c(N([H])C(=O)N([H])c3c([H])c(C(C([H])([H])[H])(C([H])([H])[H])C([H])([H])[H])nn3-c3c([H])c([H])c(OC([H])([H])[H])c([H])c3[H])c3c([H])c([H])c([H])c([H])c23)c1[H]


 46 51  0  0  0  0  0  0  0  0999 V2000
    2.9520  -48.6890  -22.7041 N   0  0  0  0  0  0  0  0  0  0  0  0
    2.7684  -50.1201  -22.6424 C   0  0  0  0  0  0  0  0  0  0  0  0
    3.2931  -50.8274  -23.4838 O   0  0  0  0  0  0  0  0  0  0  0  0
    1.9917  -50.6700  -21.6319 N   0  0  0  0  0  0  0  0  0  0  0  0
    2.4451  -48.1236  -21.9229 H   0  0  0  0  0  0  0  0  0  0  0  0
    1.7032  -51.7359  -22.4627 H   0  0  0  0  0  0  0  0  0  0  0  0
    1.2470  -51.2052  -20.6646 C   0  0  0  0  0  0  0  0  0  0  0  0
    1.3156  -50.6764  -19.3528 C   0  0  0  0  0  0  0  0  0  0  0  0
    0.5596  -51.1186  -18.3475 C   0  0  0  0  0  0  0  0  0  0  0  0
   -0.3626  -52.1656  -18.5684 C   0  0  0  0  0  0  0  0  0  0  0  0
   -0.4590  -52.6840  -19.8010 C   0  0  0  0  0  0  0  0  0  0  0  0
   -1.3938  -53.6894  -20.0187 C   0  0  0  0  0  0  0  0  0  0  0  0
   -1.5666  -54.2533  -21.2498 C   0  0  0  0  0  0  0  0  0  0  0  0
   -0.7953  -53.7980  -22.2810 C   0  0  0  0  0  0  0  0  0  0  0  0
    0.1319  -52.8048  -22.0751 C   0  0  0  0  0  0  0  0  0  0  0  0
    0.3286  -52.2191  -20.8456 C   0  0  0  0  0  0  0  0  0  0  0  0
   -1.0359  -52.5023  -17.4147 O   0  0  0  0  0  0  0  0  0  0  0  0
   -0.9063  -51.9747  -16.1663 C   0  0  0  0  0  0  0  0  0  0  0  0
    0.2421  -51.7847  -15.4650 C   0  0  0  0  0  0  0  0  0  0  0  0
    0.2560  -51.2196  -14.1760 C   0  0  0  0  0  0  0  0  0  0  0  0
   -0.9039  -50.8607  -13.6445 N   0  0  0  0  0  0  0  0  0  0  0  0
   -2.0792  -51.0224  -14.3013 C   0  0  0  0  0  0  0  0  0  0  0  0
   -3.2163  -50.5868  -13.7148 N   0  0  0  0  0  0  0  0  0  0  0  0
   -4.3949  -50.7008  -14.3502 C   0  0  0  0  0  0  0  0  0  0  0  0
   -5.4573  -50.2859  -13.8187 O   0  0  0  0  0  0  0  0  0  0  0  0
   -4.4039  -51.2792  -15.6344 C   0  0  0  0  0  0  0  0  0  0  0  0
   -3.2754  -51.7028  -16.2069 N   0  0  0  0  0  0  0  0  0  0  0  0
   -2.1061  -51.5739  -15.5499 C   0  0  0  0  0  0  0  0  0  0  0  0
   -3.1821  -50.1608  -12.7673 H   0  0  0  0  0  0  0  0  0  0  0  0
    4.9588  -47.4981  -23.7283 N   0  0  0  0  0  0  0  0  0  0  0  0
    5.1169  -46.9074  -24.9293 N   0  0  0  0  0  0  0  0  0  0  0  0
    4.0088  -46.9065  -25.6217 C   0  0  0  0  0  0  0  0  0  0  0  0
    3.0779  -47.5288  -24.8145 C   0  0  0  0  0  0  0  0  0  0  0  0
    3.6996  -47.9208  -23.5751 C   0  0  0  0  0  0  0  0  0  0  0  0
    8.3646  -47.8223  -21.2218 C   0  0  0  0  0  0  0  0  0  0  0  0
    7.9488  -46.6147  -21.7297 C   0  0  0  0  0  0  0  0  0  0  0  0
    6.8353  -46.5000  -22.5193 C   0  0  0  0  0  0  0  0  0  0  0  0
    6.0767  -47.5604  -22.8405 C   0  0  0  0  0  0  0  0  0  0  0  0
    6.4774  -48.8218  -22.3225 C   0  0  0  0  0  0  0  0  0  0  0  0
    7.6100  -48.9302  -21.5258 C   0  0  0  0  0  0  0  0  0  0  0  0
    9.3749  -48.5499  -19.1293 C   0  0  0  0  0  0  0  0  0  0  0  0
    9.5035  -47.9384  -20.4312 O   0  0  0  0  0  0  0  0  0  0  0  0
    3.7110  -46.4033  -27.0136 C   0  0  0  0  0  0  0  0  0  0  0  0
    4.6581  -45.2501  -27.3500 C   0  0  0  0  0  0  0  0  0  0  0  0
    3.9400  -47.4976  -28.0311 C   0  0  0  0  0  0  0  0  0  0  0  0
    2.3134  -45.9258  -27.1352 C   0  0  0  0  0  0  0  0  0  0  0  0
 41 42  1  0  0  0
 42 35  1  0  0  0
 35 36  2  0  0  0
 36 37  1  0  0  0
 37 38  2  0  0  0
 38 39  1  0  0  0
 39 40  2  0  0  0
 38 30  1  0  0  0
 30 31  1  0  0  0
 31 32  2  0  0  0
 32 33  1  0  0  0
 33 34  2  0  0  0
 34  1  1  0  0  0
  1  2  1  0  0  0
  2  3  2  0  0  0
  2  4  1  0  0  0
  4  7  1  0  0  0
  7  8  2  0  0  0
  8  9  1  0  0  0
  9 10  2  0  0  0
 10 17  1  0  0  0
 17 18  1  0  0  0
 18 19  2  0  0  0
 19 20  1  0  0  0
 20 21  2  0  0  0
 21 22  1  0  0  0
 22 23  1  0  0  0
 23 24  1  0  0  0
 24 25  2  0  0  0
 24 26  1  0  0  0
 26 27  2  0  0  0
 27 28  1  0  0  0
 10 11  1  0  0  0
 11 12  2  0  0  0
 12 13  1  0  0  0
 13 14  2  0  0  0
 14 15  1  0  0  0
 15 16  2  0  0  0
 32 43  1  0  0  0
 43 44  1  0  0  0
 43 45  1  0  0  0
 43 46  1  0  0  0
 40 35  1  0  0  0
 34 30  1  0  0  0
 16  7  1  0  0  0
 28 18  1  0  0  0
 16 11  1  0  0  0
 28 22  2  0  0  0
  1  5  1  0  0  0
  4  6  1  0  0  0
 23 29  1  0  0  0
M  END
> <minimizedAffinity>
-8.02168

> <CNNscore>
0.0387431718

> <CNNaffinity>
6.5955438614

> <CNN_VS>
0.2555322945

> <CNNaffinity_variance>
0.0872577280

$$$$
[H]c1nc2c(nc([H])c(=O)n2[H])c(Oc2c([H])c([H])c(N([H])C(=O)N([H])c3c([H])c(C(C([H])([H])[H])(C([H])([H])[H])C([H])([H])[H])nn3-c3c([H])c([H])c(OC([H])([H])[H])c([H])c3[H])c3c([H])c([H])c([H])c([H])c23)c1[H]


 46 51  0  0  0  0  0  0  0  0999 V2000
    1.5009  -49.9156  -21.9398 N   0  0  0  0  0  0  0  0  0  0  0  0
    2.7656  -50.1464  -22.5979 C   0  0  0  0  0  0  0  0  0  0  0  0
    3.5054  -51.0202  -22.1825 O   0  0  0  0  0  0  0  0  0  0  0  0
    3.1247  -49.3663  -23.6884 N   0  0  0  0  0  0  0  0  0  0  0  0
    0.8989  -49.1124  -22.3633 H   0  0  0  0  0  0  0  0  0  0  0  0
    4.4539  -49.5831  -23.3787 H   0  0  0  0  0  0  0  0  0  0  0  0
    3.4767  -48.6211  -24.7359 C   0  0  0  0  0  0  0  0  0  0  0  0
    3.8786  -49.2490  -25.9399 C   0  0  0  0  0  0  0  0  0  0  0  0
    4.1878  -48.5734  -27.0470 C   0  0  0  0  0  0  0  0  0  0  0  0
    4.1235  -47.1624  -27.0514 C   0  0  0  0  0  0  0  0  0  0  0  0
    3.7387  -46.5359  -25.9303 C   0  0  0  0  0  0  0  0  0  0  0  0
    3.6436  -45.1494  -25.9531 C   0  0  0  0  0  0  0  0  0  0  0  0
    3.2392  -44.4404  -24.8589 C   0  0  0  0  0  0  0  0  0  0  0  0
    2.9184  -45.1320  -23.7256 C   0  0  0  0  0  0  0  0  0  0  0  0
    3.0101  -46.5028  -23.6935 C   0  0  0  0  0  0  0  0  0  0  0  0
    3.4155  -47.2433  -24.7801 C   0  0  0  0  0  0  0  0  0  0  0  0
    4.4976  -46.6398  -28.2698 O   0  0  0  0  0  0  0  0  0  0  0  0
    3.7954  -46.6065  -29.4358 C   0  0  0  0  0  0  0  0  0  0  0  0
    2.5740  -46.0501  -29.6488 C   0  0  0  0  0  0  0  0  0  0  0  0
    1.9436  -46.0695  -30.9071 C   0  0  0  0  0  0  0  0  0  0  0  0
    2.5828  -46.6522  -31.9113 N   0  0  0  0  0  0  0  0  0  0  0  0
    3.8053  -47.2183  -31.7566 C   0  0  0  0  0  0  0  0  0  0  0  0
    4.4164  -47.7502  -32.8385 N   0  0  0  0  0  0  0  0  0  0  0  0
    5.6420  -48.2902  -32.7292 C   0  0  0  0  0  0  0  0  0  0  0  0
    6.2252  -48.7754  -33.7331 O   0  0  0  0  0  0  0  0  0  0  0  0
    6.2621  -48.2796  -31.4646 C   0  0  0  0  0  0  0  0  0  0  0  0
    5.6523  -47.7487  -30.4030 N   0  0  0  0  0  0  0  0  0  0  0  0
    4.4247  -47.2105  -30.5401 C   0  0  0  0  0  0  0  0  0  0  0  0
    3.9382  -47.7427  -33.7615 H   0  0  0  0  0  0  0  0  0  0  0  0
    0.2879  -51.7302  -20.6244 N   0  0  0  0  0  0  0  0  0  0  0  0
    0.1047  -51.8869  -19.2984 N   0  0  0  0  0  0  0  0  0  0  0  0
    0.5837  -50.8796  -18.6177 C   0  0  0  0  0  0  0  0  0  0  0  0
    1.1014  -50.0179  -19.5637 C   0  0  0  0  0  0  0  0  0  0  0  0
    0.9122  -50.5756  -20.8788 C   0  0  0  0  0  0  0  0  0  0  0  0
   -0.9829  -54.7154  -23.3558 C   0  0  0  0  0  0  0  0  0  0  0  0
   -0.9654  -54.9326  -21.9987 C   0  0  0  0  0  0  0  0  0  0  0  0
   -0.5798  -53.9641  -21.1100 C   0  0  0  0  0  0  0  0  0  0  0  0
   -0.2013  -52.7394  -21.5098 C   0  0  0  0  0  0  0  0  0  0  0  0
   -0.2173  -52.4826  -22.9076 C   0  0  0  0  0  0  0  0  0  0  0  0
   -0.6059  -53.4714  -23.8024 C   0  0  0  0  0  0  0  0  0  0  0  0
   -0.4693  -56.0161  -25.3490 C   0  0  0  0  0  0  0  0  0  0  0  0
   -1.3620  -55.7048  -24.2574 O   0  0  0  0  0  0  0  0  0  0  0  0
    0.6473  -50.6302  -17.1301 C   0  0  0  0  0  0  0  0  0  0  0  0
    0.1444  -49.2170  -16.8302 C   0  0  0  0  0  0  0  0  0  0  0  0
   -0.2460  -51.6018  -16.3930 C   0  0  0  0  0  0  0  0  0  0  0  0
    2.0287  -50.7669  -16.6112 C   0  0  0  0  0  0  0  0  0  0  0  0
 41 42  1  0  0  0
 42 35  1  0  0  0
 35 36  2  0  0  0
 36 37  1  0  0  0
 37 38  2  0  0  0
 38 39  1  0  0  0
 39 40  2  0  0  0
 38 30  1  0  0  0
 30 31  1  0  0  0
 31 32  2  0  0  0
 32 33  1  0  0  0
 33 34  2  0  0  0
 34  1  1  0  0  0
  1  2  1  0  0  0
  2  3  2  0  0  0
  2  4  1  0  0  0
  4  7  1  0  0  0
  7  8  2  0  0  0
  8  9  1  0  0  0
  9 10  2  0  0  0
 10 17  1  0  0  0
 17 18  1  0  0  0
 18 19  2  0  0  0
 19 20  1  0  0  0
 20 21  2  0  0  0
 21 22  1  0  0  0
 22 23  1  0  0  0
 23 24  1  0  0  0
 24 25  2  0  0  0
 24 26  1  0  0  0
 26 27  2  0  0  0
 27 28  1  0  0  0
 10 11  1  0  0  0
 11 12  2  0  0  0
 12 13  1  0  0  0
 13 14  2  0  0  0
 14 15  1  0  0  0
 15 16  2  0  0  0
 32 43  1  0  0  0
 43 44  1  0  0  0
 43 45  1  0  0  0
 43 46  1  0  0  0
 40 35  1  0  0  0
 34 30  1  0  0  0
 16  7  1  0  0  0
 28 18  1  0  0  0
 16 11  1  0  0  0
 28 22  2  0  0  0
  1  5  1  0  0  0
  4  6  1  0  0  0
 23 29  1  0  0  0
M  END
> <minimizedAffinity>
-8.95779

> <CNNscore>
0.0342625156

> <CNNaffinity>
6.6238584518

> <CNN_VS>
0.2269500494

> <CNNaffinity_variance>
0.1852678359

$$$$
[H]c1nc(N2C([H])([H])[C@@]3([H])N(C([H])([H])[H])C([H])([H])[C@]2([H])C3([H])[H])c([H])nc1-c1c([H])c([H])c([H])c2c([H])c([H])c([H])c([H])c12


 24 28  0  0  0  0  0  0  0  0999 V2000
    0.0494  -53.0555  -23.2723 C   0  0  0  0  0  0  0  0  0  0  0  0
    0.0372  -51.7917  -22.7227 C   0  0  0  0  0  0  0  0  0  0  0  0
   -0.0509  -51.6310  -21.4024 N   0  0  0  0  0  0  0  0  0  0  0  0
   -0.1338  -52.6735  -20.5160 C   0  0  0  0  0  0  0  0  0  0  0  0
   -0.1230  -53.9122  -21.0648 C   0  0  0  0  0  0  0  0  0  0  0  0
   -0.0321  -54.0822  -22.4144 N   0  0  0  0  0  0  0  0  0  0  0  0
   -0.3267  -52.2783  -19.1375 C   0  0  0  0  0  0  0  0  0  0  0  0
   -1.2529  -53.0147  -18.3611 C   0  0  0  0  0  0  0  0  0  0  0  0
   -1.5425  -52.7469  -17.0674 C   0  0  0  0  0  0  0  0  0  0  0  0
   -0.9158  -51.7058  -16.4493 C   0  0  0  0  0  0  0  0  0  0  0  0
    0.0012  -50.9547  -17.1820 C   0  0  0  0  0  0  0  0  0  0  0  0
    0.6004  -49.8782  -16.5391 C   0  0  0  0  0  0  0  0  0  0  0  0
    1.4878  -49.0717  -17.2085 C   0  0  0  0  0  0  0  0  0  0  0  0
    1.7662  -49.3542  -18.5254 C   0  0  0  0  0  0  0  0  0  0  0  0
    1.1822  -50.4186  -19.1807 C   0  0  0  0  0  0  0  0  0  0  0  0
    0.2958  -51.2273  -18.5034 C   0  0  0  0  0  0  0  0  0  0  0  0
   -0.8233  -53.1417  -28.7433 C   0  0  0  0  0  0  0  0  0  0  0  0
   -0.8178  -53.2904  -27.3068 N   0  0  0  0  0  0  0  0  0  0  0  0
   -0.6025  -51.9945  -26.6430 C   0  0  0  0  0  0  0  0  0  0  0  0
    0.5329  -52.2798  -25.6721 C   0  0  0  0  0  0  0  0  0  0  0  0
    1.3617  -53.2086  -26.5871 C   0  0  0  0  0  0  0  0  0  0  0  0
    0.1851  -54.1754  -26.8220 C   0  0  0  0  0  0  0  0  0  0  0  0
   -0.1515  -54.4782  -25.3589 C   0  0  0  0  0  0  0  0  0  0  0  0
    0.1438  -53.2366  -24.6725 N   0  0  0  0  0  0  0  0  0  0  0  0
 17 18  1  0  0  0
 18 19  1  0  0  0
 19 20  1  0  0  0
 20 21  1  0  0  0
 21 22  1  0  0  0
 22 23  1  0  0  0
 23 24  1  0  0  0
 24  1  1  0  0  0
  1  2  2  0  0  0
  2  3  1  0  0  0
  3  4  2  0  0  0
  4  5  1  0  0  0
  5  6  2  0  0  0
  4  7  1  0  0  0
  7  8  2  0  0  0
  8  9  1  0  0  0
  9 10  2  0  0  0
 10 11  1  0  0  0
 11 12  2  0  0  0
 12 13  1  0  0  0
 13 14  2  0  0  0
 14 15  1  0  0  0
 15 16  2  0  0  0
 22 18  1  0  0  0
  6  1  1  0  0  0
 16  7  1  0  0  0
 24 20  1  0  0  0
 16 11  1  0  0  0
M  END
> <minimizedAffinity>
-8.05276

> <CNNscore>
0.5299357772

> <CNNaffinity>
6.3810110092

> <CNN_VS>
3.3815259933

> <CNNaffinity_variance>
0.0241894387

$$$$
[H]c1nc(N2C([H])([H])[C@@]3([H])N(C([H])([H])[H])C([H])([H])[C@]2([H])C3([H])[H])c([H])nc1-c1c([H])c([H])c([H])c2c([H])c([H])c([H])c([H])c12


 24 28  0  0  0  0  0  0  0  0999 V2000
    0.1694  -52.2728  -23.6634 C   0  0  0  0  0  0  0  0  0  0  0  0
    1.1705  -51.3930  -23.3124 C   0  0  0  0  0  0  0  0  0  0  0  0
    1.2863  -50.9702  -22.0536 N   0  0  0  0  0  0  0  0  0  0  0  0
    0.4481  -51.3627  -21.0422 C   0  0  0  0  0  0  0  0  0  0  0  0
   -0.5341  -52.2260  -21.3964 C   0  0  0  0  0  0  0  0  0  0  0  0
   -0.6565  -52.6623  -22.6822 N   0  0  0  0  0  0  0  0  0  0  0  0
    0.6847  -50.7059  -19.7749 C   0  0  0  0  0  0  0  0  0  0  0  0
    1.5130  -49.5584  -19.7683 C   0  0  0  0  0  0  0  0  0  0  0  0
    1.8302  -48.8564  -18.6567 C   0  0  0  0  0  0  0  0  0  0  0  0
    1.3330  -49.2601  -17.4531 C   0  0  0  0  0  0  0  0  0  0  0  0
    0.5156  -50.3881  -17.4182 C   0  0  0  0  0  0  0  0  0  0  0  0
    0.0499  -50.7986  -16.1748 C   0  0  0  0  0  0  0  0  0  0  0  0
   -0.7316  -51.9218  -16.0584 C   0  0  0  0  0  0  0  0  0  0  0  0
   -1.0394  -52.6276  -17.1981 C   0  0  0  0  0  0  0  0  0  0  0  0
   -0.5874  -52.2358  -18.4413 C   0  0  0  0  0  0  0  0  0  0  0  0
    0.1928  -51.1056  -18.5532 C   0  0  0  0  0  0  0  0  0  0  0  0
    0.3956  -52.9123  -29.1627 C   0  0  0  0  0  0  0  0  0  0  0  0
    0.1872  -52.5160  -27.7896 N   0  0  0  0  0  0  0  0  0  0  0  0
    1.4277  -52.6474  -27.0084 C   0  0  0  0  0  0  0  0  0  0  0  0
    0.9948  -53.4500  -25.7912 C   0  0  0  0  0  0  0  0  0  0  0  0
    0.0299  -54.4179  -26.5117 C   0  0  0  0  0  0  0  0  0  0  0  0
   -0.8092  -53.2748  -27.1147 C   0  0  0  0  0  0  0  0  0  0  0  0
   -1.1392  -52.5306  -25.8174 C   0  0  0  0  0  0  0  0  0  0  0  0
    0.0387  -52.7283  -24.9968 N   0  0  0  0  0  0  0  0  0  0  0  0
 17 18  1  0  0  0
 18 19  1  0  0  0
 19 20  1  0  0  0
 20 21  1  0  0  0
 21 22  1  0  0  0
 22 23  1  0  0  0
 23 24  1  0  0  0
 24  1  1  0  0  0
  1  2  2  0  0  0
  2  3  1  0  0  0
  3  4  2  0  0  0
  4  5  1  0  0  0
  5  6  2  0  0  0
  4  7  1  0  0  0
  7  8  2  0  0  0
  8  9  1  0  0  0
  9 10  2  0  0  0
 10 11  1  0  0  0
 11 12  2  0  0  0
 12 13  1  0  0  0
 13 14  2  0  0  0
 14 15  1  0  0  0
 15 16  2  0  0  0
 22 18  1  0  0  0
  6  1  1  0  0  0
 16  7  1  0  0  0
 24 20  1  0  0  0
 16 11  1  0  0  0
M  END
> <minimizedAffinity>
-7.86115

> <CNNscore>
0.4311467707

> <CNNaffinity>
6.3385896683

> <CNN_VS>
2.7328624725

> <CNNaffinity_variance>
0.1144826189

$$$$
[H]c1nc(N2C([H])([H])[C@@]3([H])N(C([H])([H])[H])C([H])([H])[C@]2([H])C3([H])[H])c([H])nc1-c1c([H])c([H])c([H])c2c([H])c([H])c([H])c([H])c12


 24 28  0  0  0  0  0  0  0  0999 V2000
    0.0193  -51.3262  -18.2070 C   0  0  0  0  0  0  0  0  0  0  0  0
   -0.4485  -52.6076  -18.4034 C   0  0  0  0  0  0  0  0  0  0  0  0
   -0.4918  -53.1295  -19.6291 N   0  0  0  0  0  0  0  0  0  0  0  0
   -0.0887  -52.4571  -20.7538 C   0  0  0  0  0  0  0  0  0  0  0  0
    0.3679  -51.1975  -20.5519 C   0  0  0  0  0  0  0  0  0  0  0  0
    0.4152  -50.6592  -19.3002 N   0  0  0  0  0  0  0  0  0  0  0  0
   -0.3161  -53.1669  -21.9939 C   0  0  0  0  0  0  0  0  0  0  0  0
   -0.9899  -54.4098  -21.9314 C   0  0  0  0  0  0  0  0  0  0  0  0
   -1.2556  -55.1852  -23.0072 C   0  0  0  0  0  0  0  0  0  0  0  0
   -0.8587  -54.7648  -24.2419 C   0  0  0  0  0  0  0  0  0  0  0  0
   -0.1893  -53.5470  -24.3441 C   0  0  0  0  0  0  0  0  0  0  0  0
    0.2348  -53.1578  -25.6090 C   0  0  0  0  0  0  0  0  0  0  0  0
    0.9315  -51.9870  -25.7818 C   0  0  0  0  0  0  0  0  0  0  0  0
    1.1987  -51.2136  -24.6764 C   0  0  0  0  0  0  0  0  0  0  0  0
    0.7856  -51.5824  -23.4127 C   0  0  0  0  0  0  0  0  0  0  0  0
    0.0832  -52.7559  -23.2453 C   0  0  0  0  0  0  0  0  0  0  0  0
   -0.9457  -48.4904  -13.5455 C   0  0  0  0  0  0  0  0  0  0  0  0
   -0.6603  -48.9759  -14.8755 N   0  0  0  0  0  0  0  0  0  0  0  0
   -1.5838  -50.0586  -15.2514 C   0  0  0  0  0  0  0  0  0  0  0  0
   -0.6556  -51.1622  -15.7347 C   0  0  0  0  0  0  0  0  0  0  0  0
    0.4607  -50.9713  -14.6838 C   0  0  0  0  0  0  0  0  0  0  0  0
    0.6591  -49.4839  -15.0338 C   0  0  0  0  0  0  0  0  0  0  0  0
    0.9041  -49.6383  -16.5377 C   0  0  0  0  0  0  0  0  0  0  0  0
    0.0702  -50.7635  -16.9096 N   0  0  0  0  0  0  0  0  0  0  0  0
 17 18  1  0  0  0
 18 19  1  0  0  0
 19 20  1  0  0  0
 20 21  1  0  0  0
 21 22  1  0  0  0
 22 23  1  0  0  0
 23 24  1  0  0  0
 24  1  1  0  0  0
  1  2  2  0  0  0
  2  3  1  0  0  0
  3  4  2  0  0  0
  4  5  1  0  0  0
  5  6  2  0  0  0
  4  7  1  0  0  0
  7  8  2  0  0  0
  8  9  1  0  0  0
  9 10  2  0  0  0
 10 11  1  0  0  0
 11 12  2  0  0  0
 12 13  1  0  0  0
 13 14  2  0  0  0
 14 15  1  0  0  0
 15 16  2  0  0  0
 22 18  1  0  0  0
  6  1  1  0  0  0
 16  7  1  0  0  0
 24 20  1  0  0  0
 16 11  1  0  0  0
M  END
> <minimizedAffinity>
-7.65869

> <CNNscore>
0.3562681973

> <CNNaffinity>
5.6901617050

> <CNN_VS>
2.0272235870

> <CNNaffinity_variance>
0.1884311140

$$$$
[H]c1nc(N2C([H])([H])[C@@]3([H])N(C([H])([H])[H])C([H])([H])[C@]2([H])C3([H])[H])c([H])nc1-c1c([H])c([H])c([H])c2c([H])c([H])c([H])c([H])c12


 24 28  0  0  0  0  0  0  0  0999 V2000
    1.0377  -51.3651  -21.7889 C   0  0  0  0  0  0  0  0  0  0  0  0
    1.4449  -50.5758  -22.8428 C   0  0  0  0  0  0  0  0  0  0  0  0
    1.2923  -50.9960  -24.0986 N   0  0  0  0  0  0  0  0  0  0  0  0
    0.7375  -52.2048  -24.4312 C   0  0  0  0  0  0  0  0  0  0  0  0
    0.3418  -52.9749  -23.3891 C   0  0  0  0  0  0  0  0  0  0  0  0
    0.4947  -52.5496  -22.1029 N   0  0  0  0  0  0  0  0  0  0  0  0
    0.7610  -52.5096  -25.8454 C   0  0  0  0  0  0  0  0  0  0  0  0
    2.0105  -52.8128  -26.4366 C   0  0  0  0  0  0  0  0  0  0  0  0
    2.1814  -53.1009  -27.7470 C   0  0  0  0  0  0  0  0  0  0  0  0
    1.0959  -53.1055  -28.5719 C   0  0  0  0  0  0  0  0  0  0  0  0
   -0.1519  -52.8087  -28.0273 C   0  0  0  0  0  0  0  0  0  0  0  0
   -1.2366  -52.7864  -28.8959 C   0  0  0  0  0  0  0  0  0  0  0  0
   -2.4912  -52.4674  -28.4373 C   0  0  0  0  0  0  0  0  0  0  0  0
   -2.6461  -52.1708  -27.1033 C   0  0  0  0  0  0  0  0  0  0  0  0
   -1.5820  -52.1884  -26.2253 C   0  0  0  0  0  0  0  0  0  0  0  0
   -0.3260  -52.5132  -26.6895 C   0  0  0  0  0  0  0  0  0  0  0  0
    0.2949  -49.9457  -16.4846 C   0  0  0  0  0  0  0  0  0  0  0  0
    0.3147  -50.1020  -17.9202 N   0  0  0  0  0  0  0  0  0  0  0  0
    0.1983  -51.5197  -18.2984 C   0  0  0  0  0  0  0  0  0  0  0  0
    1.3541  -51.7229  -19.2658 C   0  0  0  0  0  0  0  0  0  0  0  0
    2.3977  -50.8533  -18.5298 C   0  0  0  0  0  0  0  0  0  0  0  0
    1.4953  -49.6044  -18.5388 C   0  0  0  0  0  0  0  0  0  0  0  0
    1.2203  -49.5374  -20.0440 C   0  0  0  0  0  0  0  0  0  0  0  0
    1.1943  -50.9276  -20.4523 N   0  0  0  0  0  0  0  0  0  0  0  0
 17 18  1  0  0  0
 18 19  1  0  0  0
 19 20  1  0  0  0
 20 21  1  0  0  0
 21 22  1  0  0  0
 22 23  1  0  0  0
 23 24  1  0  0  0
 24  1  1  0  0  0
  1  2  2  0  0  0
  2  3  1  0  0  0
  3  4  2  0  0  0
  4  5  1  0  0  0
  5  6  2  0  0  0
  4  7  1  0  0  0
  7  8  2  0  0  0
  8  9  1  0  0  0
  9 10  2  0  0  0
 10 11  1  0  0  0
 11 12  2  0  0  0
 12 13  1  0  0  0
 13 14  2  0  0  0
 14 15  1  0  0  0
 15 16  2  0  0  0
 22 18  1  0  0  0
  6  1  1  0  0  0
 16  7  1  0  0  0
 24 20  1  0  0  0
 16 11  1  0  0  0
M  END
> <minimizedAffinity>
-8.32488

> <CNNscore>
0.3523553014

> <CNNaffinity>
6.0365133286

> <CNN_VS>
2.1269974709

> <CNNaffinity_variance>
0.0961464643

$$$$
[H]c1nc(N2C([H])([H])[C@@]3([H])N(C([H])([H])[H])C([H])([H])[C@]2([H])C3([H])[H])c([H])nc1-c1c([H])c([H])c([H])c2c([H])c([H])c([H])c([H])c12


 24 28  0  0  0  0  0  0  0  0999 V2000
    1.0850  -51.3122  -21.8104 C   0  0  0  0  0  0  0  0  0  0  0  0
    1.5090  -50.5443  -22.8734 C   0  0  0  0  0  0  0  0  0  0  0  0
    1.3405  -50.9723  -24.1245 N   0  0  0  0  0  0  0  0  0  0  0  0
    0.7524  -52.1689  -24.4433 C   0  0  0  0  0  0  0  0  0  0  0  0
    0.3403  -52.9182  -23.3924 C   0  0  0  0  0  0  0  0  0  0  0  0
    0.5094  -52.4848  -22.1109 N   0  0  0  0  0  0  0  0  0  0  0  0
    0.7622  -52.4878  -25.8546 C   0  0  0  0  0  0  0  0  0  0  0  0
    2.0058  -52.7985  -26.4545 C   0  0  0  0  0  0  0  0  0  0  0  0
    2.1640  -53.0998  -27.7634 C   0  0  0  0  0  0  0  0  0  0  0  0
    1.0708  -53.1112  -28.5781 C   0  0  0  0  0  0  0  0  0  0  0  0
   -0.1715  -52.8075  -28.0248 C   0  0  0  0  0  0  0  0  0  0  0  0
   -1.2642  -52.7924  -28.8833 C   0  0  0  0  0  0  0  0  0  0  0  0
   -2.5141  -52.4673  -28.4162 C   0  0  0  0  0  0  0  0  0  0  0  0
   -2.6561  -52.1573  -27.0838 C   0  0  0  0  0  0  0  0  0  0  0  0
   -1.5839  -52.1674  -26.2157 C   0  0  0  0  0  0  0  0  0  0  0  0
   -0.3327  -52.4985  -26.6884 C   0  0  0  0  0  0  0  0  0  0  0  0
    2.6837  -50.6070  -16.5522 C   0  0  0  0  0  0  0  0  0  0  0  0
    2.1682  -51.0368  -17.8310 N   0  0  0  0  0  0  0  0  0  0  0  0
    3.1309  -50.7579  -18.9088 C   0  0  0  0  0  0  0  0  0  0  0  0
    2.2956  -50.0249  -19.9472 C   0  0  0  0  0  0  0  0  0  0  0  0
    1.4460  -49.1792  -18.9725 C   0  0  0  0  0  0  0  0  0  0  0  0
    0.9434  -50.4133  -18.1987 C   0  0  0  0  0  0  0  0  0  0  0  0
    0.3741  -51.2027  -19.3812 C   0  0  0  0  0  0  0  0  0  0  0  0
    1.2585  -50.8663  -20.4787 N   0  0  0  0  0  0  0  0  0  0  0  0
 17 18  1  0  0  0
 18 19  1  0  0  0
 19 20  1  0  0  0
 20 21  1  0  0  0
 21 22  1  0  0  0
 22 23  1  0  0  0
 23 24  1  0  0  0
 24  1  1  0  0  0
  1  2  2  0  0  0
  2  3  1  0  0  0
  3  4  2  0  0  0
  4  5  1  0  0  0
  5  6  2  0  0  0
  4  7  1  0  0  0
  7  8  2  0  0  0
  8  9  1  0  0  0
  9 10  2  0  0  0
 10 11  1  0  0  0
 11 12  2  0  0  0
 12 13  1  0  0  0
 13 14  2  0  0  0
 14 15  1  0  0  0
 15 16  2  0  0  0
 22 18  1  0  0  0
  6  1  1  0  0  0
 16  7  1  0  0  0
 24 20  1  0  0  0
 16 11  1  0  0  0
M  END
> <minimizedAffinity>
-8.31732

> <CNNscore>
0.2994044125

> <CNNaffinity>
5.8769464493

> <CNN_VS>
1.7595837116

> <CNNaffinity_variance>
0.0715988800

$$$$
[H]c1nc(N2C([H])([H])[C@@]3([H])N(C([H])([H])[H])C([H])([H])[C@]2([H])C3([H])[H])c([H])nc1-c1c([H])c([H])c([H])c2c([H])c([H])c([H])c([H])c12


 24 28  0  0  0  0  0  0  0  0999 V2000
    0.1510  -52.7403  -22.2227 C   0  0  0  0  0  0  0  0  0  0  0  0
    0.1527  -51.4348  -21.7811 C   0  0  0  0  0  0  0  0  0  0  0  0
    0.1788  -51.1642  -20.4762 N   0  0  0  0  0  0  0  0  0  0  0  0
    0.2050  -52.1289  -19.5025 C   0  0  0  0  0  0  0  0  0  0  0  0
    0.2011  -53.4093  -19.9454 C   0  0  0  0  0  0  0  0  0  0  0  0
    0.1754  -53.6917  -21.2789 N   0  0  0  0  0  0  0  0  0  0  0  0
    0.1254  -51.6217  -18.1497 C   0  0  0  0  0  0  0  0  0  0  0  0
    1.2217  -50.8745  -17.6573 C   0  0  0  0  0  0  0  0  0  0  0  0
    1.2885  -50.3548  -16.4104 C   0  0  0  0  0  0  0  0  0  0  0  0
    0.2458  -50.5499  -15.5540 C   0  0  0  0  0  0  0  0  0  0  0  0
   -0.8512  -51.2836  -16.0013 C   0  0  0  0  0  0  0  0  0  0  0  0
   -1.8853  -51.4972  -15.0979 C   0  0  0  0  0  0  0  0  0  0  0  0
   -2.9828  -52.2409  -15.4566 C   0  0  0  0  0  0  0  0  0  0  0  0
   -3.0316  -52.7674  -16.7263 C   0  0  0  0  0  0  0  0  0  0  0  0
   -2.0155  -52.5658  -17.6376 C   0  0  0  0  0  0  0  0  0  0  0  0
   -0.9187  -51.8154  -17.2741 C   0  0  0  0  0  0  0  0  0  0  0  0
   -0.9327  -52.9205  -27.6537 C   0  0  0  0  0  0  0  0  0  0  0  0
   -0.9143  -52.9639  -26.2102 N   0  0  0  0  0  0  0  0  0  0  0  0
   -0.2725  -51.7617  -25.6543 C   0  0  0  0  0  0  0  0  0  0  0  0
    0.7540  -52.3262  -24.6843 C   0  0  0  0  0  0  0  0  0  0  0  0
    1.2073  -53.5314  -25.5382 C   0  0  0  0  0  0  0  0  0  0  0  0
   -0.2234  -54.0867  -25.6753 C   0  0  0  0  0  0  0  0  0  0  0  0
   -0.5770  -54.1650  -24.1871 C   0  0  0  0  0  0  0  0  0  0  0  0
    0.1244  -53.0380  -23.6059 N   0  0  0  0  0  0  0  0  0  0  0  0
 17 18  1  0  0  0
 18 19  1  0  0  0
 19 20  1  0  0  0
 20 21  1  0  0  0
 21 22  1  0  0  0
 22 23  1  0  0  0
 23 24  1  0  0  0
 24  1  1  0  0  0
  1  2  2  0  0  0
  2  3  1  0  0  0
  3  4  2  0  0  0
  4  5  1  0  0  0
  5  6  2  0  0  0
  4  7  1  0  0  0
  7  8  2  0  0  0
  8  9  1  0  0  0
  9 10  2  0  0  0
 10 11  1  0  0  0
 11 12  2  0  0  0
 12 13  1  0  0  0
 13 14  2  0  0  0
 14 15  1  0  0  0
 15 16  2  0  0  0
 22 18  1  0  0  0
  6  1  1  0  0  0
 16  7  1  0  0  0
 24 20  1  0  0  0
 16 11  1  0  0  0
M  END
> <minimizedAffinity>
-7.36867

> <CNNscore>
0.2893125713

> <CNNaffinity>
6.0627741814

> <CNN_VS>
1.7540367842

> <CNNaffinity_variance>
0.0735988542

$$$$
[H]c1nc(N2C([H])([H])[C@@]3([H])N(C([H])([H])[H])C([H])([H])[C@]2([H])C3([H])[H])c([H])nc1-c1c([H])c([H])c([H])c2c([H])c([H])c([H])c([H])c12


 24 28  0  0  0  0  0  0  0  0999 V2000
    1.6080  -51.1469  -21.9668 C   0  0  0  0  0  0  0  0  0  0  0  0
    1.8777  -50.3865  -23.0841 C   0  0  0  0  0  0  0  0  0  0  0  0
    1.6065  -50.8565  -24.3016 N   0  0  0  0  0  0  0  0  0  0  0  0
    1.0569  -52.0911  -24.5323 C   0  0  0  0  0  0  0  0  0  0  0  0
    0.7968  -52.8326  -23.4286 C   0  0  0  0  0  0  0  0  0  0  0  0
    1.0713  -52.3564  -22.1810 N   0  0  0  0  0  0  0  0  0  0  0  0
    0.9404  -52.4470  -25.9299 C   0  0  0  0  0  0  0  0  0  0  0  0
    2.1218  -52.8030  -26.6230 C   0  0  0  0  0  0  0  0  0  0  0  0
    2.1622  -53.1422  -27.9316 C   0  0  0  0  0  0  0  0  0  0  0  0
    1.0042  -53.1488  -28.6510 C   0  0  0  0  0  0  0  0  0  0  0  0
   -0.1801  -52.8009  -28.0042 C   0  0  0  0  0  0  0  0  0  0  0  0
   -1.3409  -52.7822  -28.7681 C   0  0  0  0  0  0  0  0  0  0  0  0
   -2.5395  -52.4151  -28.2071 C   0  0  0  0  0  0  0  0  0  0  0  0
   -2.5616  -52.0669  -26.8768 C   0  0  0  0  0  0  0  0  0  0  0  0
   -1.4203  -52.0800  -26.1017 C   0  0  0  0  0  0  0  0  0  0  0  0
   -0.2210  -52.4532  -26.6682 C   0  0  0  0  0  0  0  0  0  0  0  0
    3.3304  -48.2026  -17.6004 C   0  0  0  0  0  0  0  0  0  0  0  0
    3.1553  -49.0039  -18.7891 N   0  0  0  0  0  0  0  0  0  0  0  0
    2.1058  -48.4418  -19.6544 C   0  0  0  0  0  0  0  0  0  0  0  0
    1.2021  -49.6331  -19.9325 C   0  0  0  0  0  0  0  0  0  0  0  0
    1.2569  -50.2695  -18.5258 C   0  0  0  0  0  0  0  0  0  0  0  0
    2.7954  -50.3550  -18.5265 C   0  0  0  0  0  0  0  0  0  0  0  0
    2.9761  -51.1309  -19.8346 C   0  0  0  0  0  0  0  0  0  0  0  0
    1.8912  -50.6565  -20.6700 N   0  0  0  0  0  0  0  0  0  0  0  0
 17 18  1  0  0  0
 18 19  1  0  0  0
 19 20  1  0  0  0
 20 21  1  0  0  0
 21 22  1  0  0  0
 22 23  1  0  0  0
 23 24  1  0  0  0
 24  1  1  0  0  0
  1  2  2  0  0  0
  2  3  1  0  0  0
  3  4  2  0  0  0
  4  5  1  0  0  0
  5  6  2  0  0  0
  4  7  1  0  0  0
  7  8  2  0  0  0
  8  9  1  0  0  0
  9 10  2  0  0  0
 10 11  1  0  0  0
 11 12  2  0  0  0
 12 13  1  0  0  0
 13 14  2  0  0  0
 14 15  1  0  0  0
 15 16  2  0  0  0
 22 18  1  0  0  0
  6  1  1  0  0  0
 16  7  1  0  0  0
 24 20  1  0  0  0
 16 11  1  0  0  0
M  END
> <minimizedAffinity>
-7.99231

> <CNNscore>
0.2480310053

> <CNNaffinity>
5.7893190384

> <CNN_VS>
1.4359306097

> <CNNaffinity_variance>
0.0675503463

$$$$
[H]c1nc(N2C([H])([H])[C@@]3([H])N(C([H])([H])[H])C([H])([H])[C@]2([H])C3([H])[H])c([H])nc1-c1c([H])c([H])c([H])c2c([H])c([H])c([H])c([H])c12


 24 28  0  0  0  0  0  0  0  0999 V2000
    0.1952  -52.6635  -23.3276 C   0  0  0  0  0  0  0  0  0  0  0  0
   -0.9530  -52.5158  -22.5798 C   0  0  0  0  0  0  0  0  0  0  0  0
   -0.8802  -52.1947  -21.2882 N   0  0  0  0  0  0  0  0  0  0  0  0
    0.3014  -51.9927  -20.6229 C   0  0  0  0  0  0  0  0  0  0  0  0
    1.4251  -52.1418  -21.3650 C   0  0  0  0  0  0  0  0  0  0  0  0
    1.3563  -52.4692  -22.6866 N   0  0  0  0  0  0  0  0  0  0  0  0
    0.1600  -51.7552  -19.2027 C   0  0  0  0  0  0  0  0  0  0  0  0
   -0.6948  -52.6127  -18.4700 C   0  0  0  0  0  0  0  0  0  0  0  0
   -0.9314  -52.4975  -17.1433 C   0  0  0  0  0  0  0  0  0  0  0  0
   -0.3195  -51.4993  -16.4448 C   0  0  0  0  0  0  0  0  0  0  0  0
    0.5277  -50.6322  -17.1321 C   0  0  0  0  0  0  0  0  0  0  0  0
    1.1118  -49.6028  -16.4039 C   0  0  0  0  0  0  0  0  0  0  0  0
    1.9303  -48.6888  -17.0211 C   0  0  0  0  0  0  0  0  0  0  0  0
    2.1551  -48.8168  -18.3718 C   0  0  0  0  0  0  0  0  0  0  0  0
    1.5851  -49.8322  -19.1118 C   0  0  0  0  0  0  0  0  0  0  0  0
    0.7681  -50.7491  -18.4870 C   0  0  0  0  0  0  0  0  0  0  0  0
    0.7316  -52.8644  -28.8389 C   0  0  0  0  0  0  0  0  0  0  0  0
    0.4554  -52.5720  -27.4518 N   0  0  0  0  0  0  0  0  0  0  0  0
    1.6398  -52.8208  -26.6141 C   0  0  0  0  0  0  0  0  0  0  0  0
    1.1023  -53.6996  -25.4952 C   0  0  0  0  0  0  0  0  0  0  0  0
    0.1460  -54.5624  -26.3485 C   0  0  0  0  0  0  0  0  0  0  0  0
   -0.6092  -53.3383  -26.9012 C   0  0  0  0  0  0  0  0  0  0  0  0
   -0.9885  -52.6880  -25.5674 C   0  0  0  0  0  0  0  0  0  0  0  0
    0.1285  -53.0032  -24.6997 N   0  0  0  0  0  0  0  0  0  0  0  0
 17 18  1  0  0  0
 18 19  1  0  0  0
 19 20  1  0  0  0
 20 21  1  0  0  0
 21 22  1  0  0  0
 22 23  1  0  0  0
 23 24  1  0  0  0
 24  1  1  0  0  0
  1  2  2  0  0  0
  2  3  1  0  0  0
  3  4  2  0  0  0
  4  5  1  0  0  0
  5  6  2  0  0  0
  4  7  1  0  0  0
  7  8  2  0  0  0
  8  9  1  0  0  0
  9 10  2  0  0  0
 10 11  1  0  0  0
 11 12  2  0  0  0
 12 13  1  0  0  0
 13 14  2  0  0  0
 14 15  1  0  0  0
 15 16  2  0  0  0
 22 18  1  0  0  0
  6  1  1  0  0  0
 16  7  1  0  0  0
 24 20  1  0  0  0
 16 11  1  0  0  0
M  END
> <minimizedAffinity>
-7.38799

> <CNNscore>
0.2449297309

> <CNNaffinity>
5.9834003448

> <CNN_VS>
1.4655126333

> <CNNaffinity_variance>
0.0634377450

$$$$
[H]c1nc(N2C([H])([H])[C@@]3([H])N(C([H])([H])[H])C([H])([H])[C@]2([H])C3([H])[H])c([H])nc1-c1c([H])c([H])c([H])c2c([H])c([H])c([H])c([H])c12


 24 28  0  0  0  0  0  0  0  0999 V2000
    2.7233  -50.5839  -23.2016 C   0  0  0  0  0  0  0  0  0  0  0  0
    1.4516  -51.0064  -22.8794 C   0  0  0  0  0  0  0  0  0  0  0  0
    0.6014  -51.3779  -23.8364 N   0  0  0  0  0  0  0  0  0  0  0  0
    0.9126  -51.3699  -25.1715 C   0  0  0  0  0  0  0  0  0  0  0  0
    2.1639  -50.9515  -25.4794 C   0  0  0  0  0  0  0  0  0  0  0  0
    3.0377  -50.5713  -24.5046 N   0  0  0  0  0  0  0  0  0  0  0  0
   -0.1867  -51.7110  -26.0483 C   0  0  0  0  0  0  0  0  0  0  0  0
   -1.5019  -51.4636  -25.5880 C   0  0  0  0  0  0  0  0  0  0  0  0
   -2.6200  -51.7464  -26.2944 C   0  0  0  0  0  0  0  0  0  0  0  0
   -2.4989  -52.3065  -27.5315 C   0  0  0  0  0  0  0  0  0  0  0  0
   -1.2198  -52.5681  -28.0185 C   0  0  0  0  0  0  0  0  0  0  0  0
   -1.1249  -53.1706  -29.2672 C   0  0  0  0  0  0  0  0  0  0  0  0
    0.1014  -53.4904  -29.7962 C   0  0  0  0  0  0  0  0  0  0  0  0
    1.2279  -53.2019  -29.0619 C   0  0  0  0  0  0  0  0  0  0  0  0
    1.1545  -52.6033  -27.8209 C   0  0  0  0  0  0  0  0  0  0  0  0
   -0.0781  -52.2806  -27.2965 C   0  0  0  0  0  0  0  0  0  0  0  0
    5.1347  -48.9782  -18.4784 C   0  0  0  0  0  0  0  0  0  0  0  0
    4.3795  -49.1467  -19.6979 N   0  0  0  0  0  0  0  0  0  0  0  0
    3.7888  -50.4928  -19.7711 C   0  0  0  0  0  0  0  0  0  0  0  0
    4.2088  -50.9882  -21.1463 C   0  0  0  0  0  0  0  0  0  0  0  0
    5.6384  -50.4025  -21.1516 C   0  0  0  0  0  0  0  0  0  0  0  0
    5.1476  -48.9670  -20.8819 C   0  0  0  0  0  0  0  0  0  0  0  0
    4.1589  -48.8460  -22.0453 C   0  0  0  0  0  0  0  0  0  0  0  0
    3.6335  -50.1884  -22.1930 N   0  0  0  0  0  0  0  0  0  0  0  0
 17 18  1  0  0  0
 18 19  1  0  0  0
 19 20  1  0  0  0
 20 21  1  0  0  0
 21 22  1  0  0  0
 22 23  1  0  0  0
 23 24  1  0  0  0
 24  1  1  0  0  0
  1  2  2  0  0  0
  2  3  1  0  0  0
  3  4  2  0  0  0
  4  5  1  0  0  0
  5  6  2  0  0  0
  4  7  1  0  0  0
  7  8  2  0  0  0
  8  9  1  0  0  0
  9 10  2  0  0  0
 10 11  1  0  0  0
 11 12  2  0  0  0
 12 13  1  0  0  0
 13 14  2  0  0  0
 14 15  1  0  0  0
 15 16  2  0  0  0
 22 18  1  0  0  0
  6  1  1  0  0  0
 16  7  1  0  0  0
 24 20  1  0  0  0
 16 11  1  0  0  0
M  END
> <minimizedAffinity>
-6.20473

> <CNNscore>
0.2196394503

> <CNNaffinity>
5.6250238419

> <CNN_VS>
1.2354770899

> <CNNaffinity_variance>
0.1739825457

$$$$
[H]c1nc([H])c(-c2c(OC([H])([H])[H])nc3sc(N([H])C(=O)N([H])C([H])([H])C([H])([H])[H])nc3c2[H])c([H])c1[H]


 25 27  0  0  0  0  0  0  0  0999 V2000
   -0.3675  -54.2551  -24.0819 C   0  0  0  0  0  0  0  0  0  0  0  0
    0.3818  -53.3489  -23.5018 N   0  0  0  0  0  0  0  0  0  0  0  0
    0.2408  -53.1066  -22.2222 C   0  0  0  0  0  0  0  0  0  0  0  0
    0.9526  -52.1740  -21.4290 C   0  0  0  0  0  0  0  0  0  0  0  0
    0.6692  -52.0576  -20.1032 C   0  0  0  0  0  0  0  0  0  0  0  0
   -0.2961  -52.8054  -19.4404 C   0  0  0  0  0  0  0  0  0  0  0  0
   -0.9564  -53.6804  -20.2086 N   0  0  0  0  0  0  0  0  0  0  0  0
   -0.7037  -53.8311  -21.5478 C   0  0  0  0  0  0  0  0  0  0  0  0
   -1.3349  -54.8209  -22.7985 S   0  0  0  0  0  0  0  0  0  0  0  0
    0.0340  -54.1122  -27.7962 N   0  0  0  0  0  0  0  0  0  0  0  0
    0.0216  -53.6975  -26.4450 C   0  0  0  0  0  0  0  0  0  0  0  0
    0.3350  -52.5096  -26.1694 O   0  0  0  0  0  0  0  0  0  0  0  0
   -0.3444  -54.6446  -25.4687 N   0  0  0  0  0  0  0  0  0  0  0  0
   -0.2144  -55.0815  -28.0971 H   0  0  0  0  0  0  0  0  0  0  0  0
   -0.5943  -55.5987  -25.7090 H   0  0  0  0  0  0  0  0  0  0  0  0
   -0.8380  -52.5702  -29.4427 C   0  0  0  0  0  0  0  0  0  0  0  0
    0.4012  -53.1806  -28.8304 C   0  0  0  0  0  0  0  0  0  0  0  0
    1.4315  -51.0856  -19.3158 C   0  0  0  0  0  0  0  0  0  0  0  0
    0.9487  -49.8492  -18.9444 C   0  0  0  0  0  0  0  0  0  0  0  0
    1.7502  -48.9828  -18.1975 C   0  0  0  0  0  0  0  0  0  0  0  0
    3.0255  -49.3400  -17.8200 C   0  0  0  0  0  0  0  0  0  0  0  0
    3.4722  -50.5474  -18.1935 N   0  0  0  0  0  0  0  0  0  0  0  0
    2.7035  -51.4019  -18.9209 C   0  0  0  0  0  0  0  0  0  0  0  0
   -0.5660  -52.6714  -18.1043 O   0  0  0  0  0  0  0  0  0  0  0  0
   -1.7763  -52.9567  -17.4845 C   0  0  0  0  0  0  0  0  0  0  0  0
 16 17  1  0  0  0
 17 10  1  0  0  0
 10 11  1  0  0  0
 11 12  2  0  0  0
 11 13  1  0  0  0
 13  1  1  0  0  0
  1  2  2  0  0  0
  2  3  1  0  0  0
  3  4  2  0  0  0
  4  5  1  0  0  0
  5 18  1  0  0  0
 18 19  2  0  0  0
 19 20  1  0  0  0
 20 21  2  0  0  0
 21 22  1  0  0  0
 22 23  2  0  0  0
  5  6  2  0  0  0
  6 24  1  0  0  0
 24 25  1  0  0  0
  6  7  1  0  0  0
  7  8  2  0  0  0
  8  9  1  0  0  0
  9  1  1  0  0  0
  8  3  1  0  0  0
 23 18  1  0  0  0
 10 14  1  0  0  0
 13 15  1  0  0  0
M  END
> <minimizedAffinity>
-7.28168

> <CNNscore>
0.8842183948

> <CNNaffinity>
6.6746873856

> <CNN_VS>
5.9018812180

> <CNNaffinity_variance>
0.1013370007

$$$$
[H]c1nc([H])c(-c2c(OC([H])([H])[H])nc3sc(N([H])C(=O)N([H])C([H])([H])C([H])([H])[H])nc3c2[H])c([H])c1[H]


 25 27  0  0  0  0  0  0  0  0999 V2000
   -0.1100  -52.8890  -20.7279 C   0  0  0  0  0  0  0  0  0  0  0  0
   -0.5943  -53.1558  -21.9168 N   0  0  0  0  0  0  0  0  0  0  0  0
   -0.0400  -52.6297  -22.9808 C   0  0  0  0  0  0  0  0  0  0  0  0
   -0.4193  -52.8003  -24.3346 C   0  0  0  0  0  0  0  0  0  0  0  0
    0.2792  -52.1700  -25.3177 C   0  0  0  0  0  0  0  0  0  0  0  0
    1.3731  -51.3431  -25.0939 C   0  0  0  0  0  0  0  0  0  0  0  0
    1.7142  -51.1961  -23.8079 N   0  0  0  0  0  0  0  0  0  0  0  0
    1.0392  -51.8120  -22.7856 C   0  0  0  0  0  0  0  0  0  0  0  0
    1.1930  -51.8482  -21.0775 S   0  0  0  0  0  0  0  0  0  0  0  0
   -1.1248  -53.0162  -17.1320 N   0  0  0  0  0  0  0  0  0  0  0  0
   -0.6456  -52.5041  -18.3591 C   0  0  0  0  0  0  0  0  0  0  0  0
   -0.2876  -51.2984  -18.4180 O   0  0  0  0  0  0  0  0  0  0  0  0
   -0.5934  -53.3785  -19.4622 N   0  0  0  0  0  0  0  0  0  0  0  0
   -1.4384  -54.0054  -17.0109 H   0  0  0  0  0  0  0  0  0  0  0  0
   -0.8862  -54.3482  -19.3967 H   0  0  0  0  0  0  0  0  0  0  0  0
   -2.6166  -51.6866  -15.7695 C   0  0  0  0  0  0  0  0  0  0  0  0
   -1.1971  -52.1614  -15.9758 C   0  0  0  0  0  0  0  0  0  0  0  0
   -0.1408  -52.3765  -26.7058 C   0  0  0  0  0  0  0  0  0  0  0  0
   -1.4524  -52.3312  -27.1269 C   0  0  0  0  0  0  0  0  0  0  0  0
   -1.7611  -52.5469  -28.4719 C   0  0  0  0  0  0  0  0  0  0  0  0
   -0.7740  -52.8067  -29.3964 C   0  0  0  0  0  0  0  0  0  0  0  0
    0.4935  -52.8456  -28.9621 N   0  0  0  0  0  0  0  0  0  0  0  0
    0.8097  -52.6377  -27.6556 C   0  0  0  0  0  0  0  0  0  0  0  0
    2.0618  -50.7173  -26.0989 O   0  0  0  0  0  0  0  0  0  0  0  0
    3.0050  -49.7100  -25.9363 C   0  0  0  0  0  0  0  0  0  0  0  0
 16 17  1  0  0  0
 17 10  1  0  0  0
 10 11  1  0  0  0
 11 12  2  0  0  0
 11 13  1  0  0  0
 13  1  1  0  0  0
  1  2  2  0  0  0
  2  3  1  0  0  0
  3  4  2  0  0  0
  4  5  1  0  0  0
  5 18  1  0  0  0
 18 19  2  0  0  0
 19 20  1  0  0  0
 20 21  2  0  0  0
 21 22  1  0  0  0
 22 23  2  0  0  0
  5  6  2  0  0  0
  6 24  1  0  0  0
 24 25  1  0  0  0
  6  7  1  0  0  0
  7  8  2  0  0  0
  8  9  1  0  0  0
  9  1  1  0  0  0
  8  3  1  0  0  0
 23 18  1  0  0  0
 10 14  1  0  0  0
 13 15  1  0  0  0
M  END
> <minimizedAffinity>
-7.90018

> <CNNscore>
0.8227552772

> <CNNaffinity>
6.3602123260

> <CNN_VS>
5.2328982353

> <CNNaffinity_variance>
0.2039451152

$$$$
[H]c1nc([H])c(-c2c(OC([H])([H])[H])nc3sc(N([H])C(=O)N([H])C([H])([H])C([H])([H])[H])nc3c2[H])c([H])c1[H]


 25 27  0  0  0  0  0  0  0  0999 V2000
   -0.3324  -52.8448  -19.2634 C   0  0  0  0  0  0  0  0  0  0  0  0
   -0.7949  -53.1021  -20.4631 N   0  0  0  0  0  0  0  0  0  0  0  0
   -0.0694  -52.8206  -21.5169 C   0  0  0  0  0  0  0  0  0  0  0  0
   -0.3973  -53.0245  -22.8794 C   0  0  0  0  0  0  0  0  0  0  0  0
    0.4880  -52.6680  -23.8493 C   0  0  0  0  0  0  0  0  0  0  0  0
    1.7318  -52.0997  -23.6034 C   0  0  0  0  0  0  0  0  0  0  0  0
    2.0212  -51.9161  -22.3095 N   0  0  0  0  0  0  0  0  0  0  0  0
    1.1597  -52.2605  -21.2998 C   0  0  0  0  0  0  0  0  0  0  0  0
    1.1990  -52.1715  -19.5872 S   0  0  0  0  0  0  0  0  0  0  0  0
   -1.6964  -52.3339  -15.8203 N   0  0  0  0  0  0  0  0  0  0  0  0
   -1.0414  -52.0620  -17.0429 C   0  0  0  0  0  0  0  0  0  0  0  0
   -0.5323  -50.9244  -17.2215 O   0  0  0  0  0  0  0  0  0  0  0  0
   -0.9925  -53.0884  -18.0063 N   0  0  0  0  0  0  0  0  0  0  0  0
   -2.1408  -53.2545  -15.6043 H   0  0  0  0  0  0  0  0  0  0  0  0
   -1.4086  -54.0002  -17.8454 H   0  0  0  0  0  0  0  0  0  0  0  0
   -3.1022  -50.6031  -14.8834 C   0  0  0  0  0  0  0  0  0  0  0  0
   -1.7728  -51.3170  -14.8042 C   0  0  0  0  0  0  0  0  0  0  0  0
    0.1140  -52.9005  -25.2464 C   0  0  0  0  0  0  0  0  0  0  0  0
   -0.5851  -51.9955  -26.0159 C   0  0  0  0  0  0  0  0  0  0  0  0
   -0.9045  -52.3054  -27.3398 C   0  0  0  0  0  0  0  0  0  0  0  0
   -0.5326  -53.5074  -27.8995 C   0  0  0  0  0  0  0  0  0  0  0  0
    0.1463  -54.3706  -27.1308 N   0  0  0  0  0  0  0  0  0  0  0  0
    0.4645  -54.0831  -25.8400 C   0  0  0  0  0  0  0  0  0  0  0  0
    2.6078  -51.7474  -24.5955 O   0  0  0  0  0  0  0  0  0  0  0  0
    3.8267  -52.3590  -24.8619 C   0  0  0  0  0  0  0  0  0  0  0  0
 16 17  1  0  0  0
 17 10  1  0  0  0
 10 11  1  0  0  0
 11 12  2  0  0  0
 11 13  1  0  0  0
 13  1  1  0  0  0
  1  2  2  0  0  0
  2  3  1  0  0  0
  3  4  2  0  0  0
  4  5  1  0  0  0
  5 18  1  0  0  0
 18 19  2  0  0  0
 19 20  1  0  0  0
 20 21  2  0  0  0
 21 22  1  0  0  0
 22 23  2  0  0  0
  5  6  2  0  0  0
  6 24  1  0  0  0
 24 25  1  0  0  0
  6  7  1  0  0  0
  7  8  2  0  0  0
  8  9  1  0  0  0
  9  1  1  0  0  0
  8  3  1  0  0  0
 23 18  1  0  0  0
 10 14  1  0  0  0
 13 15  1  0  0  0
M  END
> <minimizedAffinity>
-7.43255

> <CNNscore>
0.6864558458

> <CNNaffinity>
6.1583919525

> <CNN_VS>
4.2274641991

> <CNNaffinity_variance>
0.1927264929

$$$$
[H]c1nc([H])c(-c2c(OC([H])([H])[H])nc3sc(N([H])C(=O)N([H])C([H])([H])C([H])([H])[H])nc3c2[H])c([H])c1[H]


 25 27  0  0  0  0  0  0  0  0999 V2000
    0.3561  -51.6155  -20.2592 C   0  0  0  0  0  0  0  0  0  0  0  0
    0.4586  -51.3315  -21.5351 N   0  0  0  0  0  0  0  0  0  0  0  0
    0.1340  -52.2294  -22.4321 C   0  0  0  0  0  0  0  0  0  0  0  0
    0.1781  -52.1068  -23.8423 C   0  0  0  0  0  0  0  0  0  0  0  0
   -0.2004  -53.1536  -24.6248 C   0  0  0  0  0  0  0  0  0  0  0  0
   -0.6421  -54.3769  -24.1360 C   0  0  0  0  0  0  0  0  0  0  0  0
   -0.6760  -54.4709  -22.8011 N   0  0  0  0  0  0  0  0  0  0  0  0
   -0.3042  -53.4419  -21.9746 C   0  0  0  0  0  0  0  0  0  0  0  0
   -0.2230  -53.2179  -20.2760 S   0  0  0  0  0  0  0  0  0  0  0  0
    2.2168  -49.9660  -17.4675 N   0  0  0  0  0  0  0  0  0  0  0  0
    1.9433  -50.8263  -18.5551 C   0  0  0  0  0  0  0  0  0  0  0  0
    2.8413  -51.6170  -18.9473 O   0  0  0  0  0  0  0  0  0  0  0  0
    0.6680  -50.7527  -19.1486 N   0  0  0  0  0  0  0  0  0  0  0  0
    1.5197  -49.2855  -17.0899 H   0  0  0  0  0  0  0  0  0  0  0  0
   -0.0443  -50.1088  -18.8192 H   0  0  0  0  0  0  0  0  0  0  0  0
    3.5117  -51.0460  -15.7335 C   0  0  0  0  0  0  0  0  0  0  0  0
    3.5059  -50.0039  -16.8277 C   0  0  0  0  0  0  0  0  0  0  0  0
   -0.1461  -52.9853  -26.0790 C   0  0  0  0  0  0  0  0  0  0  0  0
   -1.2184  -52.5857  -26.8472 C   0  0  0  0  0  0  0  0  0  0  0  0
   -1.0762  -52.4580  -28.2308 C   0  0  0  0  0  0  0  0  0  0  0  0
    0.1239  -52.7253  -28.8512 C   0  0  0  0  0  0  0  0  0  0  0  0
    1.1515  -53.1124  -28.0824 N   0  0  0  0  0  0  0  0  0  0  0  0
    1.0284  -53.2413  -26.7339 C   0  0  0  0  0  0  0  0  0  0  0  0
   -1.0178  -55.4185  -24.9421 O   0  0  0  0  0  0  0  0  0  0  0  0
   -1.0374  -56.7608  -24.5837 C   0  0  0  0  0  0  0  0  0  0  0  0
 16 17  1  0  0  0
 17 10  1  0  0  0
 10 11  1  0  0  0
 11 12  2  0  0  0
 11 13  1  0  0  0
 13  1  1  0  0  0
  1  2  2  0  0  0
  2  3  1  0  0  0
  3  4  2  0  0  0
  4  5  1  0  0  0
  5 18  1  0  0  0
 18 19  2  0  0  0
 19 20  1  0  0  0
 20 21  2  0  0  0
 21 22  1  0  0  0
 22 23  2  0  0  0
  5  6  2  0  0  0
  6 24  1  0  0  0
 24 25  1  0  0  0
  6  7  1  0  0  0
  7  8  2  0  0  0
  8  9  1  0  0  0
  9  1  1  0  0  0
  8  3  1  0  0  0
 23 18  1  0  0  0
 10 14  1  0  0  0
 13 15  1  0  0  0
M  END
> <minimizedAffinity>
-6.70520

> <CNNscore>
0.6380204558

> <CNNaffinity>
6.3042440414

> <CNN_VS>
4.0222368240

> <CNNaffinity_variance>
0.2544511557

$$$$
[H]c1nc([H])c(-c2c(OC([H])([H])[H])nc3sc(N([H])C(=O)N([H])C([H])([H])C([H])([H])[H])nc3c2[H])c([H])c1[H]


 25 27  0  0  0  0  0  0  0  0999 V2000
   -0.1917  -53.4926  -23.7042 C   0  0  0  0  0  0  0  0  0  0  0  0
    0.6485  -52.5554  -23.3370 N   0  0  0  0  0  0  0  0  0  0  0  0
    0.7507  -52.2288  -22.0725 C   0  0  0  0  0  0  0  0  0  0  0  0
    1.5942  -51.2509  -21.4913 C   0  0  0  0  0  0  0  0  0  0  0  0
    1.5662  -51.0459  -20.1465 C   0  0  0  0  0  0  0  0  0  0  0  0
    0.7481  -51.7421  -19.2653 C   0  0  0  0  0  0  0  0  0  0  0  0
   -0.0405  -52.6612  -19.8356 N   0  0  0  0  0  0  0  0  0  0  0  0
   -0.0448  -52.9011  -21.1857 C   0  0  0  0  0  0  0  0  0  0  0  0
   -0.8955  -53.9666  -22.2266 S   0  0  0  0  0  0  0  0  0  0  0  0
   -1.0225  -53.5609  -27.3487 N   0  0  0  0  0  0  0  0  0  0  0  0
   -0.7969  -53.0573  -26.0474 C   0  0  0  0  0  0  0  0  0  0  0  0
   -0.9321  -51.8228  -25.8399 O   0  0  0  0  0  0  0  0  0  0  0  0
   -0.4291  -53.9723  -25.0417 N   0  0  0  0  0  0  0  0  0  0  0  0
   -0.9286  -54.5725  -27.5924 H   0  0  0  0  0  0  0  0  0  0  0  0
   -0.3246  -54.9649  -25.2269 H   0  0  0  0  0  0  0  0  0  0  0  0
   -0.3715  -52.7080  -29.5163 C   0  0  0  0  0  0  0  0  0  0  0  0
   -1.4003  -52.6651  -28.4104 C   0  0  0  0  0  0  0  0  0  0  0  0
    2.4580  -50.0295  -19.5830 C   0  0  0  0  0  0  0  0  0  0  0  0
    2.0978  -48.7133  -19.3885 C   0  0  0  0  0  0  0  0  0  0  0  0
    3.0177  -47.8106  -18.8501 C   0  0  0  0  0  0  0  0  0  0  0  0
    4.2898  -48.2102  -18.5058 C   0  0  0  0  0  0  0  0  0  0  0  0
    4.6159  -49.4951  -18.7048 N   0  0  0  0  0  0  0  0  0  0  0  0
    3.7311  -50.3858  -19.2281 C   0  0  0  0  0  0  0  0  0  0  0  0
    0.7351  -51.5191  -17.9140 O   0  0  0  0  0  0  0  0  0  0  0  0
   -0.3897  -51.2558  -17.1420 C   0  0  0  0  0  0  0  0  0  0  0  0
 16 17  1  0  0  0
 17 10  1  0  0  0
 10 11  1  0  0  0
 11 12  2  0  0  0
 11 13  1  0  0  0
 13  1  1  0  0  0
  1  2  2  0  0  0
  2  3  1  0  0  0
  3  4  2  0  0  0
  4  5  1  0  0  0
  5 18  1  0  0  0
 18 19  2  0  0  0
 19 20  1  0  0  0
 20 21  2  0  0  0
 21 22  1  0  0  0
 22 23  2  0  0  0
  5  6  2  0  0  0
  6 24  1  0  0  0
 24 25  1  0  0  0
  6  7  1  0  0  0
  7  8  2  0  0  0
  8  9  1  0  0  0
  9  1  1  0  0  0
  8  3  1  0  0  0
 23 18  1  0  0  0
 10 14  1  0  0  0
 13 15  1  0  0  0
M  END
> <minimizedAffinity>
-6.44912

> <CNNscore>
0.5576803088

> <CNNaffinity>
6.2547731400

> <CNN_VS>
3.4881637096

> <CNNaffinity_variance>
0.1824700236

$$$$
[H]c1nc([H])c(-c2c(OC([H])([H])[H])nc3sc(N([H])C(=O)N([H])C([H])([H])C([H])([H])[H])nc3c2[H])c([H])c1[H]


 25 27  0  0  0  0  0  0  0  0999 V2000
   -0.7369  -53.1176  -19.2152 C   0  0  0  0  0  0  0  0  0  0  0  0
    0.3896  -52.5697  -19.6025 N   0  0  0  0  0  0  0  0  0  0  0  0
    0.7087  -52.5610  -20.8730 C   0  0  0  0  0  0  0  0  0  0  0  0
    1.8712  -52.0209  -21.4751 C   0  0  0  0  0  0  0  0  0  0  0  0
    2.0359  -52.1036  -22.8232 C   0  0  0  0  0  0  0  0  0  0  0  0
    1.1244  -52.6961  -23.6884 C   0  0  0  0  0  0  0  0  0  0  0  0
    0.0334  -53.1997  -23.0986 N   0  0  0  0  0  0  0  0  0  0  0  0
   -0.1738  -53.1384  -21.7445 C   0  0  0  0  0  0  0  0  0  0  0  0
   -1.4140  -53.6614  -20.6812 S   0  0  0  0  0  0  0  0  0  0  0  0
   -1.5857  -52.2482  -15.6796 N   0  0  0  0  0  0  0  0  0  0  0  0
   -1.0815  -52.1210  -16.9939 C   0  0  0  0  0  0  0  0  0  0  0  0
   -0.5169  -51.0464  -17.3286 O   0  0  0  0  0  0  0  0  0  0  0  0
   -1.2392  -53.2138  -17.8685 N   0  0  0  0  0  0  0  0  0  0  0  0
   -2.0650  -53.1098  -15.3341 H   0  0  0  0  0  0  0  0  0  0  0  0
   -1.6973  -54.0731  -17.5816 H   0  0  0  0  0  0  0  0  0  0  0  0
   -2.7219  -50.3457  -14.7105 C   0  0  0  0  0  0  0  0  0  0  0  0
   -1.4487  -51.1586  -14.7488 C   0  0  0  0  0  0  0  0  0  0  0  0
    3.2492  -51.5279  -23.4084 C   0  0  0  0  0  0  0  0  0  0  0  0
    4.4081  -52.2401  -23.6307 C   0  0  0  0  0  0  0  0  0  0  0  0
    5.5206  -51.6058  -24.1884 C   0  0  0  0  0  0  0  0  0  0  0  0
    5.4852  -50.2708  -24.5245 C   0  0  0  0  0  0  0  0  0  0  0  0
    4.3468  -49.6001  -24.2984 N   0  0  0  0  0  0  0  0  0  0  0  0
    3.2553  -50.2039  -23.7560 C   0  0  0  0  0  0  0  0  0  0  0  0
    1.3106  -52.7694  -25.0433 O   0  0  0  0  0  0  0  0  0  0  0  0
    0.7161  -53.6883  -25.8994 C   0  0  0  0  0  0  0  0  0  0  0  0
 16 17  1  0  0  0
 17 10  1  0  0  0
 10 11  1  0  0  0
 11 12  2  0  0  0
 11 13  1  0  0  0
 13  1  1  0  0  0
  1  2  2  0  0  0
  2  3  1  0  0  0
  3  4  2  0  0  0
  4  5  1  0  0  0
  5 18  1  0  0  0
 18 19  2  0  0  0
 19 20  1  0  0  0
 20 21  2  0  0  0
 21 22  1  0  0  0
 22 23  2  0  0  0
  5  6  2  0  0  0
  6 24  1  0  0  0
 24 25  1  0  0  0
  6  7  1  0  0  0
  7  8  2  0  0  0
  8  9  1  0  0  0
  9  1  1  0  0  0
  8  3  1  0  0  0
 23 18  1  0  0  0
 10 14  1  0  0  0
 13 15  1  0  0  0
M  END
> <minimizedAffinity>
-6.54883

> <CNNscore>
0.5046626329

> <CNNaffinity>
5.8574504852

> <CNN_VS>
2.9560363293

> <CNNaffinity_variance>
0.1147736907

$$$$
[H]c1nc([H])c(-c2c(OC([H])([H])[H])nc3sc(N([H])C(=O)N([H])C([H])([H])C([H])([H])[H])nc3c2[H])c([H])c1[H]


 25 27  0  0  0  0  0  0  0  0999 V2000
    0.0846  -51.9711  -19.2161 C   0  0  0  0  0  0  0  0  0  0  0  0
    0.4362  -51.6636  -20.4413 N   0  0  0  0  0  0  0  0  0  0  0  0
    0.0707  -52.4313  -21.4378 C   0  0  0  0  0  0  0  0  0  0  0  0
    0.3525  -52.2628  -22.8154 C   0  0  0  0  0  0  0  0  0  0  0  0
   -0.1137  -53.1687  -23.7173 C   0  0  0  0  0  0  0  0  0  0  0  0
   -0.8704  -54.2857  -23.3853 C   0  0  0  0  0  0  0  0  0  0  0  0
   -1.1250  -54.4254  -22.0786 N   0  0  0  0  0  0  0  0  0  0  0  0
   -0.6756  -53.5372  -21.1355 C   0  0  0  0  0  0  0  0  0  0  0  0
   -0.8076  -53.4070  -19.4303 S   0  0  0  0  0  0  0  0  0  0  0  0
   -0.1533  -50.5743  -15.7565 N   0  0  0  0  0  0  0  0  0  0  0  0
   -0.4909  -51.2994  -16.9218 C   0  0  0  0  0  0  0  0  0  0  0  0
   -1.5625  -51.9602  -16.9392 O   0  0  0  0  0  0  0  0  0  0  0  0
    0.3982  -51.2438  -18.0129 N   0  0  0  0  0  0  0  0  0  0  0  0
    0.7189  -50.0052  -15.6721 H   0  0  0  0  0  0  0  0  0  0  0  0
    1.2584  -50.7056  -17.9814 H   0  0  0  0  0  0  0  0  0  0  0  0
   -0.2288  -50.4553  -13.3420 C   0  0  0  0  0  0  0  0  0  0  0  0
   -1.0300  -50.5999  -14.6150 C   0  0  0  0  0  0  0  0  0  0  0  0
    0.1943  -52.9561  -25.1336 C   0  0  0  0  0  0  0  0  0  0  0  0
   -0.6470  -52.3116  -26.0149 C   0  0  0  0  0  0  0  0  0  0  0  0
   -0.2729  -52.1598  -27.3520 C   0  0  0  0  0  0  0  0  0  0  0  0
    0.9302  -52.6448  -27.8144 C   0  0  0  0  0  0  0  0  0  0  0  0
    1.7306  -53.2678  -26.9380 N   0  0  0  0  0  0  0  0  0  0  0  0
    1.3801  -53.4234  -25.6330 C   0  0  0  0  0  0  0  0  0  0  0  0
   -1.3291  -55.1862  -24.3098 O   0  0  0  0  0  0  0  0  0  0  0  0
   -0.8663  -56.4849  -24.4823 C   0  0  0  0  0  0  0  0  0  0  0  0
 16 17  1  0  0  0
 17 10  1  0  0  0
 10 11  1  0  0  0
 11 12  2  0  0  0
 11 13  1  0  0  0
 13  1  1  0  0  0
  1  2  2  0  0  0
  2  3  1  0  0  0
  3  4  2  0  0  0
  4  5  1  0  0  0
  5 18  1  0  0  0
 18 19  2  0  0  0
 19 20  1  0  0  0
 20 21  2  0  0  0
 21 22  1  0  0  0
 22 23  2  0  0  0
  5  6  2  0  0  0
  6 24  1  0  0  0
 24 25  1  0  0  0
  6  7  1  0  0  0
  7  8  2  0  0  0
  8  9  1  0  0  0
  9  1  1  0  0  0
  8  3  1  0  0  0
 23 18  1  0  0  0
 10 14  1  0  0  0
 13 15  1  0  0  0
M  END
> <minimizedAffinity>
-6.35172

> <CNNscore>
0.4806984961

> <CNNaffinity>
5.9597067833

> <CNN_VS>
2.8648221493

> <CNNaffinity_variance>
0.1832040250

$$$$
[H]c1nc([H])c(-c2c(OC([H])([H])[H])nc3sc(N([H])C(=O)N([H])C([H])([H])C([H])([H])[H])nc3c2[H])c([H])c1[H]


 25 27  0  0  0  0  0  0  0  0999 V2000
    0.6504  -52.8962  -22.6484 C   0  0  0  0  0  0  0  0  0  0  0  0
    1.0852  -52.0228  -21.7724 N   0  0  0  0  0  0  0  0  0  0  0  0
    0.6261  -52.0443  -20.5456 C   0  0  0  0  0  0  0  0  0  0  0  0
    0.9734  -51.1899  -19.4710 C   0  0  0  0  0  0  0  0  0  0  0  0
    0.3894  -51.3613  -18.2540 C   0  0  0  0  0  0  0  0  0  0  0  0
   -0.5539  -52.3410  -17.9694 C   0  0  0  0  0  0  0  0  0  0  0  0
   -0.8672  -53.1371  -18.9988 N   0  0  0  0  0  0  0  0  0  0  0  0
   -0.3037  -53.0006  -20.2414 C   0  0  0  0  0  0  0  0  0  0  0  0
   -0.4630  -53.8147  -21.7428 S   0  0  0  0  0  0  0  0  0  0  0  0
    0.5465  -52.7969  -26.3842 N   0  0  0  0  0  0  0  0  0  0  0  0
    0.1273  -52.6701  -25.0404 C   0  0  0  0  0  0  0  0  0  0  0  0
   -1.0388  -52.2590  -24.8021 O   0  0  0  0  0  0  0  0  0  0  0  0
    1.0453  -53.0137  -24.0288 N   0  0  0  0  0  0  0  0  0  0  0  0
    1.4986  -53.1313  -26.6549 H   0  0  0  0  0  0  0  0  0  0  0  0
    1.9820  -53.3436  -24.2392 H   0  0  0  0  0  0  0  0  0  0  0  0
    0.1703  -52.9922  -28.7653 C   0  0  0  0  0  0  0  0  0  0  0  0
   -0.3558  -52.4579  -27.4535 C   0  0  0  0  0  0  0  0  0  0  0  0
    0.7797  -50.4608  -17.1665 C   0  0  0  0  0  0  0  0  0  0  0  0
    0.0489  -49.3569  -16.7828 C   0  0  0  0  0  0  0  0  0  0  0  0
    0.5019  -48.5495  -15.7370 C   0  0  0  0  0  0  0  0  0  0  0  0
    1.6747  -48.8345  -15.0738 C   0  0  0  0  0  0  0  0  0  0  0  0
    2.3673  -49.9132  -15.4656 N   0  0  0  0  0  0  0  0  0  0  0  0
    1.9390  -50.7090  -16.4823 C   0  0  0  0  0  0  0  0  0  0  0  0
   -1.1303  -52.4955  -16.7366 O   0  0  0  0  0  0  0  0  0  0  0  0
   -2.4373  -52.1649  -16.4006 C   0  0  0  0  0  0  0  0  0  0  0  0
 16 17  1  0  0  0
 17 10  1  0  0  0
 10 11  1  0  0  0
 11 12  2  0  0  0
 11 13  1  0  0  0
 13  1  1  0  0  0
  1  2  2  0  0  0
  2  3  1  0  0  0
  3  4  2  0  0  0
  4  5  1  0  0  0
  5 18  1  0  0  0
 18 19  2  0  0  0
 19 20  1  0  0  0
 20 21  2  0  0  0
 21 22  1  0  0  0
 22 23  2  0  0  0
  5  6  2  0  0  0
  6 24  1  0  0  0
 24 25  1  0  0  0
  6  7  1  0  0  0
  7  8  2  0  0  0
  8  9  1  0  0  0
  9  1  1  0  0  0
  8  3  1  0  0  0
 23 18  1  0  0  0
 10 14  1  0  0  0
 13 15  1  0  0  0
M  END
> <minimizedAffinity>
-6.22116

> <CNNscore>
0.4743007123

> <CNNaffinity>
5.8692135811

> <CNN_VS>
2.7837722301

> <CNNaffinity_variance>
0.1096076965

$$$$
[H]c1nc([H])c(-c2c(OC([H])([H])[H])nc3sc(N([H])C(=O)N([H])C([H])([H])C([H])([H])[H])nc3c2[H])c([H])c1[H]


 25 27  0  0  0  0  0  0  0  0999 V2000
   -2.3620  -53.4815  -21.6409 C   0  0  0  0  0  0  0  0  0  0  0  0
   -1.8560  -53.7943  -22.8093 N   0  0  0  0  0  0  0  0  0  0  0  0
   -0.9544  -53.0191  -23.3592 C   0  0  0  0  0  0  0  0  0  0  0  0
   -0.3000  -53.1915  -24.6032 C   0  0  0  0  0  0  0  0  0  0  0  0
    0.6177  -52.2763  -25.0177 C   0  0  0  0  0  0  0  0  0  0  0  0
    0.9779  -51.1460  -24.2945 C   0  0  0  0  0  0  0  0  0  0  0  0
    0.3476  -51.0028  -23.1223 N   0  0  0  0  0  0  0  0  0  0  0  0
   -0.5834  -51.8999  -22.6655 C   0  0  0  0  0  0  0  0  0  0  0  0
   -1.5565  -52.0294  -21.2589 S   0  0  0  0  0  0  0  0  0  0  0  0
   -4.2499  -55.0050  -18.7963 N   0  0  0  0  0  0  0  0  0  0  0  0
   -3.2600  -54.2766  -19.4943 C   0  0  0  0  0  0  0  0  0  0  0  0
   -2.3414  -53.7162  -18.8405 O   0  0  0  0  0  0  0  0  0  0  0  0
   -3.3545  -54.2155  -20.8984 N   0  0  0  0  0  0  0  0  0  0  0  0
   -5.0400  -55.4945  -19.2737 H   0  0  0  0  0  0  0  0  0  0  0  0
   -4.1025  -54.6737  -21.4095 H   0  0  0  0  0  0  0  0  0  0  0  0
   -3.6297  -53.8216  -16.7803 C   0  0  0  0  0  0  0  0  0  0  0  0
   -4.1964  -55.0964  -17.3606 C   0  0  0  0  0  0  0  0  0  0  0  0
    1.2770  -52.4933  -26.3078 C   0  0  0  0  0  0  0  0  0  0  0  0
    0.6013  -52.6842  -27.4939 C   0  0  0  0  0  0  0  0  0  0  0  0
    1.3140  -52.8907  -28.6772 C   0  0  0  0  0  0  0  0  0  0  0  0
    2.6910  -52.9080  -28.6856 C   0  0  0  0  0  0  0  0  0  0  0  0
    3.3248  -52.7201  -27.5195 N   0  0  0  0  0  0  0  0  0  0  0  0
    2.6447  -52.5179  -26.3590 C   0  0  0  0  0  0  0  0  0  0  0  0
    1.9042  -50.2364  -24.7311 O   0  0  0  0  0  0  0  0  0  0  0  0
    2.3942  -49.1587  -24.0037 C   0  0  0  0  0  0  0  0  0  0  0  0
 16 17  1  0  0  0
 17 10  1  0  0  0
 10 11  1  0  0  0
 11 12  2  0  0  0
 11 13  1  0  0  0
 13  1  1  0  0  0
  1  2  2  0  0  0
  2  3  1  0  0  0
  3  4  2  0  0  0
  4  5  1  0  0  0
  5 18  1  0  0  0
 18 19  2  0  0  0
 19 20  1  0  0  0
 20 21  2  0  0  0
 21 22  1  0  0  0
 22 23  2  0  0  0
  5  6  2  0  0  0
  6 24  1  0  0  0
 24 25  1  0  0  0
  6  7  1  0  0  0
  7  8  2  0  0  0
  8  9  1  0  0  0
  9  1  1  0  0  0
  8  3  1  0  0  0
 23 18  1  0  0  0
 10 14  1  0  0  0
 13 15  1  0  0  0
M  END
> <minimizedAffinity>
18.48765

> <CNNscore>
0.4453196824

> <CNNaffinity>
5.6400899887

> <CNN_VS>
2.5116431713

> <CNNaffinity_variance>
0.8881047368

$$$$
[H]c1c([H])c([H])c(C2=NC([H])([H])C(=O)N(C([H])([H])[H])c3c([H])c([H])c(Cl)c([H])c32)c(F)c1[H]


 21 23  0  0  0  0  0  0  0  0999 V2000
   -0.8965  -52.4761  -21.0509 C   0  0  0  0  0  0  0  0  0  0  0  0
   -0.5388  -53.3035  -22.1562 N   0  0  0  0  0  0  0  0  0  0  0  0
    0.5781  -52.8452  -22.9244 C   0  0  0  0  0  0  0  0  0  0  0  0
    1.4988  -52.1301  -22.1804 C   0  0  0  0  0  0  0  0  0  0  0  0
    2.6667  -51.7403  -22.7831 C   0  0  0  0  0  0  0  0  0  0  0  0
    2.8948  -52.0704  -24.1089 C   0  0  0  0  0  0  0  0  0  0  0  0
    4.3743  -51.5786  -24.8955 Cl  0  0  0  0  0  0  0  0  0  0  0  0
    1.9966  -52.7747  -24.8559 C   0  0  0  0  0  0  0  0  0  0  0  0
    0.8039  -53.1647  -24.2384 C   0  0  0  0  0  0  0  0  0  0  0  0
   -0.0494  -53.8403  -25.1793 C   0  0  0  0  0  0  0  0  0  0  0  0
   -0.7893  -54.8768  -24.8031 N   0  0  0  0  0  0  0  0  0  0  0  0
   -0.9265  -55.5147  -23.5137 C   0  0  0  0  0  0  0  0  0  0  0  0
   -1.2394  -54.5166  -22.4446 C   0  0  0  0  0  0  0  0  0  0  0  0
   -2.2177  -54.7556  -21.7146 O   0  0  0  0  0  0  0  0  0  0  0  0
   -0.1466  -53.4593  -26.5601 C   0  0  0  0  0  0  0  0  0  0  0  0
    0.5699  -53.9066  -27.6088 C   0  0  0  0  0  0  0  0  0  0  0  0
    0.3334  -53.5524  -28.9371 C   0  0  0  0  0  0  0  0  0  0  0  0
   -0.6875  -52.6884  -29.2464 C   0  0  0  0  0  0  0  0  0  0  0  0
   -1.4427  -52.2044  -28.2079 C   0  0  0  0  0  0  0  0  0  0  0  0
   -1.1914  -52.5699  -26.9005 C   0  0  0  0  0  0  0  0  0  0  0  0
   -1.9398  -52.0903  -25.8754 F   0  0  0  0  0  0  0  0  0  0  0  0
  1  2  1  0  0  0
  2  3  1  0  0  0
  3  4  2  0  0  0
  4  5  1  0  0  0
  5  6  2  0  0  0
  6  7  1  0  0  0
  6  8  1  0  0  0
  8  9  2  0  0  0
  9 10  1  0  0  0
 10 11  2  0  0  0
 11 12  1  0  0  0
 12 13  1  0  0  0
 13 14  2  0  0  0
 10 15  1  0  0  0
 15 16  2  0  0  0
 16 17  1  0  0  0
 17 18  2  0  0  0
 18 19  1  0  0  0
 19 20  2  0  0  0
 20 21  1  0  0  0
 13  2  1  0  0  0
 20 15  1  0  0  0
  9  3  1  0  0  0
M  END
> <minimizedAffinity>
-8.81282

> <CNNscore>
0.8637768030

> <CNNaffinity>
6.2765665054

> <CNN_VS>
5.4215526581

> <CNNaffinity_variance>
0.1939759552

$$$$
[H]c1c([H])c([H])c(C2=NC([H])([H])C(=O)N(C([H])([H])[H])c3c([H])c([H])c(Cl)c([H])c32)c(F)c1[H]


 21 23  0  0  0  0  0  0  0  0999 V2000
   -0.4494  -52.0151  -20.4329 C   0  0  0  0  0  0  0  0  0  0  0  0
   -0.3199  -52.9240  -21.5243 N   0  0  0  0  0  0  0  0  0  0  0  0
    0.7240  -52.6161  -22.4534 C   0  0  0  0  0  0  0  0  0  0  0  0
    1.7978  -51.9639  -21.8752 C   0  0  0  0  0  0  0  0  0  0  0  0
    2.9073  -51.7217  -22.6430 C   0  0  0  0  0  0  0  0  0  0  0  0
    2.9265  -52.1334  -23.9653 C   0  0  0  0  0  0  0  0  0  0  0  0
    4.3289  -51.8295  -24.9606 Cl  0  0  0  0  0  0  0  0  0  0  0  0
    1.8755  -52.7773  -24.5499 C   0  0  0  0  0  0  0  0  0  0  0  0
    0.7435  -53.0166  -23.7645 C   0  0  0  0  0  0  0  0  0  0  0  0
   -0.2861  -53.6453  -24.5484 C   0  0  0  0  0  0  0  0  0  0  0  0
   -1.0639  -54.5838  -24.0215 N   0  0  0  0  0  0  0  0  0  0  0  0
   -1.0891  -55.1449  -22.6900 C   0  0  0  0  0  0  0  0  0  0  0  0
   -1.1631  -54.0724  -21.6500 C   0  0  0  0  0  0  0  0  0  0  0  0
   -2.0546  -54.1781  -20.7892 O   0  0  0  0  0  0  0  0  0  0  0  0
   -0.5284  -53.3200  -25.9257 C   0  0  0  0  0  0  0  0  0  0  0  0
   -1.1156  -52.2230  -26.4404 C   0  0  0  0  0  0  0  0  0  0  0  0
   -1.2148  -51.9451  -27.8038 C   0  0  0  0  0  0  0  0  0  0  0  0
   -0.6955  -52.8220  -28.7234 C   0  0  0  0  0  0  0  0  0  0  0  0
   -0.0901  -53.9562  -28.2437 C   0  0  0  0  0  0  0  0  0  0  0  0
   -0.0021  -54.2103  -26.8895 C   0  0  0  0  0  0  0  0  0  0  0  0
    0.5974  -55.3324  -26.4176 F   0  0  0  0  0  0  0  0  0  0  0  0
  1  2  1  0  0  0
  2  3  1  0  0  0
  3  4  2  0  0  0
  4  5  1  0  0  0
  5  6  2  0  0  0
  6  7  1  0  0  0
  6  8  1  0  0  0
  8  9  2  0  0  0
  9 10  1  0  0  0
 10 11  2  0  0  0
 11 12  1  0  0  0
 12 13  1  0  0  0
 13 14  2  0  0  0
 10 15  1  0  0  0
 15 16  2  0  0  0
 16 17  1  0  0  0
 17 18  2  0  0  0
 18 19  1  0  0  0
 19 20  2  0  0  0
 20 21  1  0  0  0
 13  2  1  0  0  0
 20 15  1  0  0  0
  9  3  1  0  0  0
M  END
> <minimizedAffinity>
-8.30446

> <CNNscore>
0.5963240266

> <CNNaffinity>
6.0286474228

> <CNN_VS>
3.5950272083

> <CNNaffinity_variance>
0.2179644406

$$$$
[H]c1c([H])c([H])c(C2=NC([H])([H])C(=O)N(C([H])([H])[H])c3c([H])c([H])c(Cl)c([H])c32)c(F)c1[H]


 21 23  0  0  0  0  0  0  0  0999 V2000
    1.7543  -46.5854  -26.1202 C   0  0  0  0  0  0  0  0  0  0  0  0
    2.8002  -46.3953  -27.0709 N   0  0  0  0  0  0  0  0  0  0  0  0
    2.3901  -46.4204  -28.4416 C   0  0  0  0  0  0  0  0  0  0  0  0
    1.0959  -45.9727  -28.6349 C   0  0  0  0  0  0  0  0  0  0  0  0
    0.6332  -45.8418  -29.9186 C   0  0  0  0  0  0  0  0  0  0  0  0
    1.4653  -46.1563  -30.9804 C   0  0  0  0  0  0  0  0  0  0  0  0
    0.8923  -46.0007  -32.6227 Cl  0  0  0  0  0  0  0  0  0  0  0  0
    2.7437  -46.5993  -30.8060 C   0  0  0  0  0  0  0  0  0  0  0  0
    3.2091  -46.7372  -29.4944 C   0  0  0  0  0  0  0  0  0  0  0  0
    4.5459  -47.2689  -29.4908 C   0  0  0  0  0  0  0  0  0  0  0  0
    5.4425  -46.8476  -28.6065 N   0  0  0  0  0  0  0  0  0  0  0  0
    5.3283  -45.8765  -27.5424 C   0  0  0  0  0  0  0  0  0  0  0  0
    4.1527  -46.1682  -26.6649 C   0  0  0  0  0  0  0  0  0  0  0  0
    4.3594  -46.2220  -25.4396 O   0  0  0  0  0  0  0  0  0  0  0  0
    4.9967  -48.2572  -30.4297 C   0  0  0  0  0  0  0  0  0  0  0  0
    5.6346  -48.0753  -31.6015 C   0  0  0  0  0  0  0  0  0  0  0  0
    6.1283  -49.1059  -32.4015 C   0  0  0  0  0  0  0  0  0  0  0  0
    5.9748  -50.4128  -32.0108 C   0  0  0  0  0  0  0  0  0  0  0  0
    5.3272  -50.6458  -30.8236 C   0  0  0  0  0  0  0  0  0  0  0  0
    4.8478  -49.6100  -30.0469 C   0  0  0  0  0  0  0  0  0  0  0  0
    4.2081  -49.8429  -28.8732 F   0  0  0  0  0  0  0  0  0  0  0  0
  1  2  1  0  0  0
  2  3  1  0  0  0
  3  4  2  0  0  0
  4  5  1  0  0  0
  5  6  2  0  0  0
  6  7  1  0  0  0
  6  8  1  0  0  0
  8  9  2  0  0  0
  9 10  1  0  0  0
 10 11  2  0  0  0
 11 12  1  0  0  0
 12 13  1  0  0  0
 13 14  2  0  0  0
 10 15  1  0  0  0
 15 16  2  0  0  0
 16 17  1  0  0  0
 17 18  2  0  0  0
 18 19  1  0  0  0
 19 20  2  0  0  0
 20 21  1  0  0  0
 13  2  1  0  0  0
 20 15  1  0  0  0
  9  3  1  0  0  0
M  END
> <minimizedAffinity>
3.16292

> <CNNscore>
0.4316457808

> <CNNaffinity>
4.3689785004

> <CNN_VS>
1.8858511448

> <CNNaffinity_variance>
0.5118409395

$$$$
[H]c1c([H])c([H])c(C2=NC([H])([H])C(=O)N(C([H])([H])[H])c3c([H])c([H])c(Cl)c([H])c32)c(F)c1[H]


 21 23  0  0  0  0  0  0  0  0999 V2000
   -0.9295  -55.3507  -23.2606 C   0  0  0  0  0  0  0  0  0  0  0  0
   -0.7132  -53.9986  -22.8616 N   0  0  0  0  0  0  0  0  0  0  0  0
    0.1306  -53.2347  -23.7288 C   0  0  0  0  0  0  0  0  0  0  0  0
    0.0658  -53.6366  -25.0506 C   0  0  0  0  0  0  0  0  0  0  0  0
    0.7415  -52.9039  -25.9916 C   0  0  0  0  0  0  0  0  0  0  0  0
    1.4641  -51.7889  -25.6001 C   0  0  0  0  0  0  0  0  0  0  0  0
    2.3355  -50.8457  -26.7836 Cl  0  0  0  0  0  0  0  0  0  0  0  0
    1.5380  -51.3801  -24.3008 C   0  0  0  0  0  0  0  0  0  0  0  0
    0.8521  -52.1344  -23.3435 C   0  0  0  0  0  0  0  0  0  0  0  0
    1.0847  -51.6033  -22.0269 C   0  0  0  0  0  0  0  0  0  0  0  0
    0.1144  -51.5844  -21.1205 N   0  0  0  0  0  0  0  0  0  0  0  0
   -1.2540  -52.0423  -21.1992 C   0  0  0  0  0  0  0  0  0  0  0  0
   -1.3272  -53.4532  -21.6906 C   0  0  0  0  0  0  0  0  0  0  0  0
   -1.9952  -54.2551  -21.0141 O   0  0  0  0  0  0  0  0  0  0  0  0
    2.3471  -51.0565  -21.6162 C   0  0  0  0  0  0  0  0  0  0  0  0
    3.4927  -51.7049  -21.3331 C   0  0  0  0  0  0  0  0  0  0  0  0
    4.7046  -51.0787  -21.0409 C   0  0  0  0  0  0  0  0  0  0  0  0
    4.7838  -49.7084  -21.0260 C   0  0  0  0  0  0  0  0  0  0  0  0
    3.6388  -49.0058  -21.3059 C   0  0  0  0  0  0  0  0  0  0  0  0
    2.4503  -49.6467  -21.5938 C   0  0  0  0  0  0  0  0  0  0  0  0
    1.3195  -48.9498  -21.8706 F   0  0  0  0  0  0  0  0  0  0  0  0
  1  2  1  0  0  0
  2  3  1  0  0  0
  3  4  2  0  0  0
  4  5  1  0  0  0
  5  6  2  0  0  0
  6  7  1  0  0  0
  6  8  1  0  0  0
  8  9  2  0  0  0
  9 10  1  0  0  0
 10 11  2  0  0  0
 11 12  1  0  0  0
 12 13  1  0  0  0
 13 14  2  0  0  0
 10 15  1  0  0  0
 15 16  2  0  0  0
 16 17  1  0  0  0
 17 18  2  0  0  0
 18 19  1  0  0  0
 19 20  2  0  0  0
 20 21  1  0  0  0
 13  2  1  0  0  0
 20 15  1  0  0  0
  9  3  1  0  0  0
M  END
> <minimizedAffinity>
-6.36890

> <CNNscore>
0.4225048721

> <CNNaffinity>
5.6044135094

> <CNN_VS>
2.3678920269

> <CNNaffinity_variance>
0.2668165565

$$$$
[H]c1c([H])c([H])c(C2=NC([H])([H])C(=O)N(C([H])([H])[H])c3c([H])c([H])c(Cl)c([H])c32)c(F)c1[H]


 21 23  0  0  0  0  0  0  0  0999 V2000
   -0.1621  -53.5593  -25.6832 C   0  0  0  0  0  0  0  0  0  0  0  0
    0.8846  -53.2561  -24.7631 N   0  0  0  0  0  0  0  0  0  0  0  0
    0.4740  -53.1064  -23.4004 C   0  0  0  0  0  0  0  0  0  0  0  0
   -0.6282  -53.8748  -23.0724 C   0  0  0  0  0  0  0  0  0  0  0  0
   -1.0414  -53.9027  -21.7656 C   0  0  0  0  0  0  0  0  0  0  0  0
   -0.3508  -53.1695  -20.8147 C   0  0  0  0  0  0  0  0  0  0  0  0
   -0.8649  -53.1885  -19.1459 Cl  0  0  0  0  0  0  0  0  0  0  0  0
    0.7375  -52.4068  -21.1226 C   0  0  0  0  0  0  0  0  0  0  0  0
    1.1514  -52.3766  -22.4581 C   0  0  0  0  0  0  0  0  0  0  0  0
    2.2674  -51.4825  -22.6162 C   0  0  0  0  0  0  0  0  0  0  0  0
    3.2566  -51.7719  -23.4536 N   0  0  0  0  0  0  0  0  0  0  0  0
    3.4478  -52.9086  -24.3251 C   0  0  0  0  0  0  0  0  0  0  0  0
    2.2464  -53.1418  -25.1850 C   0  0  0  0  0  0  0  0  0  0  0  0
    2.4380  -53.2514  -26.4090 O   0  0  0  0  0  0  0  0  0  0  0  0
    2.3933  -50.2525  -21.8864 C   0  0  0  0  0  0  0  0  0  0  0  0
    1.7184  -49.1000  -22.0574 C   0  0  0  0  0  0  0  0  0  0  0  0
    1.8362  -47.9841  -21.2285 C   0  0  0  0  0  0  0  0  0  0  0  0
    2.6886  -48.0140  -20.1530 C   0  0  0  0  0  0  0  0  0  0  0  0
    3.3999  -49.1683  -19.9419 C   0  0  0  0  0  0  0  0  0  0  0  0
    3.2664  -50.2614  -20.7746 C   0  0  0  0  0  0  0  0  0  0  0  0
    3.9706  -51.4019  -20.5636 F   0  0  0  0  0  0  0  0  0  0  0  0
  1  2  1  0  0  0
  2  3  1  0  0  0
  3  4  2  0  0  0
  4  5  1  0  0  0
  5  6  2  0  0  0
  6  7  1  0  0  0
  6  8  1  0  0  0
  8  9  2  0  0  0
  9 10  1  0  0  0
 10 11  2  0  0  0
 11 12  1  0  0  0
 12 13  1  0  0  0
 13 14  2  0  0  0
 10 15  1  0  0  0
 15 16  2  0  0  0
 16 17  1  0  0  0
 17 18  2  0  0  0
 18 19  1  0  0  0
 19 20  2  0  0  0
 20 21  1  0  0  0
 13  2  1  0  0  0
 20 15  1  0  0  0
  9  3  1  0  0  0
M  END
> <minimizedAffinity>
-7.18800

> <CNNscore>
0.3629716039

> <CNNaffinity>
5.6210508347

> <CNN_VS>
2.0402817726

> <CNNaffinity_variance>
0.1513867825

$$$$
[H]c1c([H])c([H])c(C2=NC([H])([H])C(=O)N(C([H])([H])[H])c3c([H])c([H])c(Cl)c([H])c32)c(F)c1[H]


 21 23  0  0  0  0  0  0  0  0999 V2000
    0.7930  -53.1784  -26.6841 C   0  0  0  0  0  0  0  0  0  0  0  0
    1.5423  -53.0441  -25.4780 N   0  0  0  0  0  0  0  0  0  0  0  0
    0.7820  -53.1633  -24.2716 C   0  0  0  0  0  0  0  0  0  0  0  0
   -0.3169  -53.9938  -24.3958 C   0  0  0  0  0  0  0  0  0  0  0  0
   -1.0539  -54.2766  -23.2752 C   0  0  0  0  0  0  0  0  0  0  0  0
   -0.6829  -53.7306  -22.0575 C   0  0  0  0  0  0  0  0  0  0  0  0
   -1.6122  -54.0753  -20.6196 Cl  0  0  0  0  0  0  0  0  0  0  0  0
    0.3977  -52.9097  -21.9189 C   0  0  0  0  0  0  0  0  0  0  0  0
    1.1428  -52.6191  -23.0661 C   0  0  0  0  0  0  0  0  0  0  0  0
    2.2028  -51.6976  -22.7546 C   0  0  0  0  0  0  0  0  0  0  0  0
    3.3923  -51.8089  -23.3342 N   0  0  0  0  0  0  0  0  0  0  0  0
    3.8754  -52.7552  -24.3137 C   0  0  0  0  0  0  0  0  0  0  0  0
    2.9570  -52.8343  -25.4916 C   0  0  0  0  0  0  0  0  0  0  0  0
    3.4677  -52.7050  -26.6183 O   0  0  0  0  0  0  0  0  0  0  0  0
    2.0562  -50.6286  -21.8073 C   0  0  0  0  0  0  0  0  0  0  0  0
    1.3927  -49.4654  -21.9474 C   0  0  0  0  0  0  0  0  0  0  0  0
    1.2172  -48.5274  -20.9299 C   0  0  0  0  0  0  0  0  0  0  0  0
    1.7416  -48.7602  -19.6829 C   0  0  0  0  0  0  0  0  0  0  0  0
    2.4292  -49.9329  -19.4950 C   0  0  0  0  0  0  0  0  0  0  0  0
    2.5893  -50.8478  -20.5164 C   0  0  0  0  0  0  0  0  0  0  0  0
    3.2693  -52.0068  -20.3281 F   0  0  0  0  0  0  0  0  0  0  0  0
  1  2  1  0  0  0
  2  3  1  0  0  0
  3  4  2  0  0  0
  4  5  1  0  0  0
  5  6  2  0  0  0
  6  7  1  0  0  0
  6  8  1  0  0  0
  8  9  2  0  0  0
  9 10  1  0  0  0
 10 11  2  0  0  0
 11 12  1  0  0  0
 12 13  1  0  0  0
 13 14  2  0  0  0
 10 15  1  0  0  0
 15 16  2  0  0  0
 16 17  1  0  0  0
 17 18  2  0  0  0
 18 19  1  0  0  0
 19 20  2  0  0  0
 20 21  1  0  0  0
 13  2  1  0  0  0
 20 15  1  0  0  0
  9  3  1  0  0  0
M  END
> <minimizedAffinity>
-7.39131

> <CNNscore>
0.3397301435

> <CNNaffinity>
5.5651435852

> <CNN_VS>
1.8906470537

> <CNNaffinity_variance>
0.1622582674

$$$$
[H]c1c([H])c([H])c(C2=NC([H])([H])C(=O)N(C([H])([H])[H])c3c([H])c([H])c(Cl)c([H])c32)c(F)c1[H]


 21 23  0  0  0  0  0  0  0  0999 V2000
    2.7012  -49.7893  -23.5500 C   0  0  0  0  0  0  0  0  0  0  0  0
    2.7202  -50.5291  -22.3309 N   0  0  0  0  0  0  0  0  0  0  0  0
    1.5911  -51.3820  -22.1177 C   0  0  0  0  0  0  0  0  0  0  0  0
    1.0379  -51.8627  -23.2905 C   0  0  0  0  0  0  0  0  0  0  0  0
    0.0240  -52.7816  -23.2078 C   0  0  0  0  0  0  0  0  0  0  0  0
   -0.4162  -53.2034  -21.9640 C   0  0  0  0  0  0  0  0  0  0  0  0
   -1.7099  -54.3696  -21.8382 Cl  0  0  0  0  0  0  0  0  0  0  0  0
    0.1189  -52.7384  -20.7985 C   0  0  0  0  0  0  0  0  0  0  0  0
    1.1487  -51.7965  -20.8880 C   0  0  0  0  0  0  0  0  0  0  0  0
    1.5531  -51.3705  -19.5747 C   0  0  0  0  0  0  0  0  0  0  0  0
    2.8299  -51.1279  -19.3020 N   0  0  0  0  0  0  0  0  0  0  0  0
    4.0018  -51.2060  -20.1440 C   0  0  0  0  0  0  0  0  0  0  0  0
    3.8120  -50.4351  -21.4117 C   0  0  0  0  0  0  0  0  0  0  0  0
    4.6969  -49.6152  -21.7145 O   0  0  0  0  0  0  0  0  0  0  0  0
    0.6287  -51.1967  -18.4899 C   0  0  0  0  0  0  0  0  0  0  0  0
   -0.2046  -52.1012  -17.9416 C   0  0  0  0  0  0  0  0  0  0  0  0
   -0.9959  -51.8676  -16.8167 C   0  0  0  0  0  0  0  0  0  0  0  0
   -0.9593  -50.6456  -16.1926 C   0  0  0  0  0  0  0  0  0  0  0  0
   -0.1257  -49.6913  -16.7195 C   0  0  0  0  0  0  0  0  0  0  0  0
    0.6499  -49.9450  -17.8331 C   0  0  0  0  0  0  0  0  0  0  0  0
    1.4737  -49.0000  -18.3520 F   0  0  0  0  0  0  0  0  0  0  0  0
  1  2  1  0  0  0
  2  3  1  0  0  0
  3  4  2  0  0  0
  4  5  1  0  0  0
  5  6  2  0  0  0
  6  7  1  0  0  0
  6  8  1  0  0  0
  8  9  2  0  0  0
  9 10  1  0  0  0
 10 11  2  0  0  0
 11 12  1  0  0  0
 12 13  1  0  0  0
 13 14  2  0  0  0
 10 15  1  0  0  0
 15 16  2  0  0  0
 16 17  1  0  0  0
 17 18  2  0  0  0
 18 19  1  0  0  0
 19 20  2  0  0  0
 20 21  1  0  0  0
 13  2  1  0  0  0
 20 15  1  0  0  0
  9  3  1  0  0  0
M  END
> <minimizedAffinity>
-6.78422

> <CNNscore>
0.3360668719

> <CNNaffinity>
5.0981521606

> <CNN_VS>
1.7133200169

> <CNNaffinity_variance>
0.1611121297

$$$$
[H]c1c([H])c([H])c(C2=NC([H])([H])C(=O)N(C([H])([H])[H])c3c([H])c([H])c(Cl)c([H])c32)c(F)c1[H]


 21 23  0  0  0  0  0  0  0  0999 V2000
    4.4638  -51.4660  -25.1721 C   0  0  0  0  0  0  0  0  0  0  0  0
    3.0702  -51.3352  -24.8985 N   0  0  0  0  0  0  0  0  0  0  0  0
    2.7486  -50.6236  -23.6994 C   0  0  0  0  0  0  0  0  0  0  0  0
    3.6828  -49.6596  -23.3666 C   0  0  0  0  0  0  0  0  0  0  0  0
    3.4227  -48.8355  -22.3025 C   0  0  0  0  0  0  0  0  0  0  0  0
    2.2417  -48.9855  -21.5946 C   0  0  0  0  0  0  0  0  0  0  0  0
    1.8948  -47.9485  -20.2330 Cl  0  0  0  0  0  0  0  0  0  0  0  0
    1.3108  -49.9315  -21.9102 C   0  0  0  0  0  0  0  0  0  0  0  0
    1.5834  -50.7739  -22.9926 C   0  0  0  0  0  0  0  0  0  0  0  0
    0.5334  -51.7450  -23.1482 C   0  0  0  0  0  0  0  0  0  0  0  0
    0.1334  -52.1258  -24.3558 N   0  0  0  0  0  0  0  0  0  0  0  0
    0.5926  -51.7274  -25.6668 C   0  0  0  0  0  0  0  0  0  0  0  0
    2.0778  -51.8590  -25.7853 C   0  0  0  0  0  0  0  0  0  0  0  0
    2.5146  -52.4935  -26.7618 O   0  0  0  0  0  0  0  0  0  0  0  0
   -0.1485  -52.3441  -22.0358 C   0  0  0  0  0  0  0  0  0  0  0  0
   -1.4611  -52.6111  -21.8983 C   0  0  0  0  0  0  0  0  0  0  0  0
   -2.0205  -53.2932  -20.8176 C   0  0  0  0  0  0  0  0  0  0  0  0
   -1.2181  -53.7404  -19.7977 C   0  0  0  0  0  0  0  0  0  0  0  0
    0.1272  -53.4877  -19.8942 C   0  0  0  0  0  0  0  0  0  0  0  0
    0.6594  -52.8117  -20.9740 C   0  0  0  0  0  0  0  0  0  0  0  0
    1.9900  -52.5633  -21.0675 F   0  0  0  0  0  0  0  0  0  0  0  0
  1  2  1  0  0  0
  2  3  1  0  0  0
  3  4  2  0  0  0
  4  5  1  0  0  0
  5  6  2  0  0  0
  6  7  1  0  0  0
  6  8  1  0  0  0
  8  9  2  0  0  0
  9 10  1  0  0  0
 10 11  2  0  0  0
 11 12  1  0  0  0
 12 13  1  0  0  0
 13 14  2  0  0  0
 10 15  1  0  0  0
 15 16  2  0  0  0
 16 17  1  0  0  0
 17 18  2  0  0  0
 18 19  1  0  0  0
 19 20  2  0  0  0
 20 21  1  0  0  0
 13  2  1  0  0  0
 20 15  1  0  0  0
  9  3  1  0  0  0
M  END
> <minimizedAffinity>
-5.90366

> <CNNscore>
0.2822781503

> <CNNaffinity>
5.5189003944

> <CNN_VS>
1.5578650236

> <CNNaffinity_variance>
0.1201836094

$$$$
[H]c1c([H])c([H])c(C2=NC([H])([H])C(=O)N(C([H])([H])[H])c3c([H])c([H])c(Cl)c([H])c32)c(F)c1[H]


 21 23  0  0  0  0  0  0  0  0999 V2000
    0.9399  -52.9635  -26.4703 C   0  0  0  0  0  0  0  0  0  0  0  0
    1.6781  -52.9091  -25.2512 N   0  0  0  0  0  0  0  0  0  0  0  0
    0.8951  -53.0236  -24.0589 C   0  0  0  0  0  0  0  0  0  0  0  0
   -0.2460  -53.7874  -24.2236 C   0  0  0  0  0  0  0  0  0  0  0  0
   -1.0136  -54.0638  -23.1220 C   0  0  0  0  0  0  0  0  0  0  0  0
   -0.6305  -53.5779  -21.8828 C   0  0  0  0  0  0  0  0  0  0  0  0
   -1.5979  -53.9153  -20.4686 Cl  0  0  0  0  0  0  0  0  0  0  0  0
    0.4917  -52.8232  -21.7042 C   0  0  0  0  0  0  0  0  0  0  0  0
    1.2681  -52.5386  -22.8320 C   0  0  0  0  0  0  0  0  0  0  0  0
    2.3728  -51.6877  -22.4777 C   0  0  0  0  0  0  0  0  0  0  0  0
    3.5626  -51.8468  -23.0456 N   0  0  0  0  0  0  0  0  0  0  0  0
    4.0067  -52.7873  -24.0488 C   0  0  0  0  0  0  0  0  0  0  0  0
    3.1023  -52.7780  -25.2402 C   0  0  0  0  0  0  0  0  0  0  0  0
    3.6354  -52.6421  -26.3556 O   0  0  0  0  0  0  0  0  0  0  0  0
    2.2719  -50.6426  -21.4984 C   0  0  0  0  0  0  0  0  0  0  0  0
    2.5668  -50.6887  -20.1854 C   0  0  0  0  0  0  0  0  0  0  0  0
    2.5353  -49.5882  -19.3286 C   0  0  0  0  0  0  0  0  0  0  0  0
    2.1824  -48.3523  -19.8104 C   0  0  0  0  0  0  0  0  0  0  0  0
    1.8704  -48.2588  -21.1435 C   0  0  0  0  0  0  0  0  0  0  0  0
    1.9097  -49.3614  -21.9734 C   0  0  0  0  0  0  0  0  0  0  0  0
    1.6010  -49.2664  -23.2913 F   0  0  0  0  0  0  0  0  0  0  0  0
  1  2  1  0  0  0
  2  3  1  0  0  0
  3  4  2  0  0  0
  4  5  1  0  0  0
  5  6  2  0  0  0
  6  7  1  0  0  0
  6  8  1  0  0  0
  8  9  2  0  0  0
  9 10  1  0  0  0
 10 11  2  0  0  0
 11 12  1  0  0  0
 12 13  1  0  0  0
 13 14  2  0  0  0
 10 15  1  0  0  0
 15 16  2  0  0  0
 16 17  1  0  0  0
 17 18  2  0  0  0
 18 19  1  0  0  0
 19 20  2  0  0  0
 20 21  1  0  0  0
 13  2  1  0  0  0
 20 15  1  0  0  0
  9  3  1  0  0  0
M  END
> <minimizedAffinity>
-6.63381

> <CNNscore>
0.2739097178

> <CNNaffinity>
5.4667868614

> <CNN_VS>
1.4974060059

> <CNNaffinity_variance>
0.1265154630

$$$$
[H]N=C(N([H])[H])N([H])C([H])([H])C([H])([H])C([H])([H])[C@@]([H])(C(=O)c1nc2c([H])c([H])c([H])c([H])c2s1)N([H])C(=O)[C@@]([H])(N([H])C(=O)[C@@]([H])(N([H])[H])C([H])([H])c1c([H])c([H])c([H])c([H])c1[H])C([H])([H])c1c([H])c([H])c([H])c([H])c1[H]


 50 53  0  0  0  0  0  0  0  0999 V2000
    3.7089  -50.6360  -19.3436 C   0  0  0  0  0  0  0  0  0  0  0  0
    3.7855  -51.8707  -19.5535 O   0  0  0  0  0  0  0  0  0  0  0  0
    2.8655  -50.1270  -18.3577 N   0  0  0  0  0  0  0  0  0  0  0  0
    2.8207  -49.1105  -18.1762 H   0  0  0  0  0  0  0  0  0  0  0  0
    4.5651  -49.7439  -20.1961 C   0  0  0  0  0  0  0  0  0  0  0  0
    5.8419  -50.5457  -22.1282 C   0  0  0  0  0  0  0  0  0  0  0  0
    6.8726  -50.5730  -21.4087 O   0  0  0  0  0  0  0  0  0  0  0  0
    4.6235  -50.1205  -21.5619 N   0  0  0  0  0  0  0  0  0  0  0  0
    3.7625  -50.0845  -22.1508 H   0  0  0  0  0  0  0  0  0  0  0  0
    7.3822  -51.2990  -23.7913 N   0  0  0  0  0  0  0  0  0  0  0  0
    5.9874  -50.9765  -23.5559 C   0  0  0  0  0  0  0  0  0  0  0  0
    7.9440  -51.4239  -22.9320 H   0  0  0  0  0  0  0  0  0  0  0  0
    7.7909  -50.5312  -24.3478 H   0  0  0  0  0  0  0  0  0  0  0  0
    5.2134  -52.2679  -23.7874 C   0  0  0  0  0  0  0  0  0  0  0  0
    4.0651  -51.9568  -24.6677 C   0  0  0  0  0  0  0  0  0  0  0  0
    3.8337  -50.6738  -25.1222 C   0  0  0  0  0  0  0  0  0  0  0  0
    2.7499  -50.3741  -25.9336 C   0  0  0  0  0  0  0  0  0  0  0  0
    1.8730  -51.3629  -26.3069 C   0  0  0  0  0  0  0  0  0  0  0  0
    2.0622  -52.6632  -25.8783 C   0  0  0  0  0  0  0  0  0  0  0  0
    3.1664  -52.9311  -25.0598 C   0  0  0  0  0  0  0  0  0  0  0  0
    4.1261  -48.3208  -19.9786 C   0  0  0  0  0  0  0  0  0  0  0  0
    3.8135  -47.5604  -21.1860 C   0  0  0  0  0  0  0  0  0  0  0  0
    2.6554  -47.5668  -21.8822 C   0  0  0  0  0  0  0  0  0  0  0  0
    2.4971  -46.7851  -23.0060 C   0  0  0  0  0  0  0  0  0  0  0  0
    3.5218  -45.9531  -23.4762 C   0  0  0  0  0  0  0  0  0  0  0  0
    4.6951  -45.9500  -22.7663 C   0  0  0  0  0  0  0  0  0  0  0  0
    4.8413  -46.7294  -21.6531 C   0  0  0  0  0  0  0  0  0  0  0  0
    2.0318  -51.0286  -17.5538 C   0  0  0  0  0  0  0  0  0  0  0  0
    0.7064  -51.0326  -18.1342 C   0  0  0  0  0  0  0  0  0  0  0  0
   -0.2608  -50.5400  -17.4522 O   0  0  0  0  0  0  0  0  0  0  0  0
    0.3984  -51.5694  -19.4718 C   0  0  0  0  0  0  0  0  0  0  0  0
    0.0738  -52.8092  -19.7951 N   0  0  0  0  0  0  0  0  0  0  0  0
   -0.1781  -53.1229  -21.0251 C   0  0  0  0  0  0  0  0  0  0  0  0
   -0.5420  -54.4066  -21.4807 C   0  0  0  0  0  0  0  0  0  0  0  0
   -0.7955  -54.6370  -22.7888 C   0  0  0  0  0  0  0  0  0  0  0  0
   -0.7177  -53.6574  -23.7436 C   0  0  0  0  0  0  0  0  0  0  0  0
   -0.3657  -52.3982  -23.3310 C   0  0  0  0  0  0  0  0  0  0  0  0
   -0.0969  -52.1345  -21.9702 C   0  0  0  0  0  0  0  0  0  0  0  0
    0.3448  -50.7952  -21.0117 S   0  0  0  0  0  0  0  0  0  0  0  0
    1.8966  -50.2914  -16.1714 C   0  0  0  0  0  0  0  0  0  0  0  0
    2.3408  -48.8896  -16.2934 C   0  0  0  0  0  0  0  0  0  0  0  0
    3.4735  -48.4574  -15.4199 C   0  0  0  0  0  0  0  0  0  0  0  0
    4.2673  -49.4660  -14.8175 N   0  0  0  0  0  0  0  0  0  0  0  0
    4.8320  -50.1715  -15.3959 H   0  0  0  0  0  0  0  0  0  0  0  0
    4.3738  -49.6216  -13.4247 C   0  0  0  0  0  0  0  0  0  0  0  0
    3.9368  -50.7836  -12.7474 N   0  0  0  0  0  0  0  0  0  0  0  0
    4.9078  -48.6578  -12.7404 N   0  0  0  0  0  0  0  0  0  0  0  0
    3.1318  -51.3377  -13.1140 H   0  0  0  0  0  0  0  0  0  0  0  0
    4.4063  -51.1087  -11.8758 H   0  0  0  0  0  0  0  0  0  0  0  0
    5.2575  -47.7832  -13.1697 H   0  0  0  0  0  0  0  0  0  0  0  0
 10 11  1  0  0  0
 11 14  1  0  0  0
 14 15  1  0  0  0
 15 16  2  0  0  0
 16 17  1  0  0  0
 17 18  2  0  0  0
 18 19  1  0  0  0
 19 20  2  0  0  0
 11  6  1  0  0  0
  6  7  2  0  0  0
  6  8  1  0  0  0
  8  5  1  0  0  0
  5 21  1  0  0  0
 21 22  1  0  0  0
 22 23  2  0  0  0
 23 24  1  0  0  0
 24 25  2  0  0  0
 25 26  1  0  0  0
 26 27  2  0  0  0
  5  1  1  0  0  0
  1  2  2  0  0  0
  1  3  1  0  0  0
  3 28  1  0  0  0
 28 40  1  0  0  0
 40 41  1  0  0  0
 41 42  1  0  0  0
 42 43  1  0  0  0
 43 45  1  0  0  0
 45 46  1  0  0  0
 45 47  2  0  0  0
 28 29  1  0  0  0
 29 30  2  0  0  0
 29 31  1  0  0  0
 31 32  2  0  0  0
 32 33  1  0  0  0
 33 34  2  0  0  0
 34 35  1  0  0  0
 35 36  2  0  0  0
 36 37  1  0  0  0
 37 38  2  0  0  0
 38 39  1  0  0  0
 20 15  1  0  0  0
 27 22  1  0  0  0
 39 31  1  0  0  0
 38 33  1  0  0  0
 10 12  1  0  0  0
 10 13  1  0  0  0
  8  9  1  0  0  0
  3  4  1  0  0  0
 43 44  1  0  0  0
 46 48  1  0  0  0
 46 49  1  0  0  0
 47 50  1  0  0  0
M  END
> <minimizedAffinity>
-7.09646

> <CNNscore>
0.4318182766

> <CNNaffinity>
6.8840074539

> <CNN_VS>
2.9726402760

> <CNNaffinity_variance>
0.3862091005

$$$$
[H]N=C(N([H])[H])N([H])C([H])([H])C([H])([H])C([H])([H])[C@@]([H])(C(=O)c1nc2c([H])c([H])c([H])c([H])c2s1)N([H])C(=O)[C@@]([H])(N([H])C(=O)[C@@]([H])(N([H])[H])C([H])([H])c1c([H])c([H])c([H])c([H])c1[H])C([H])([H])c1c([H])c([H])c([H])c([H])c1[H]


 50 53  0  0  0  0  0  0  0  0999 V2000
    4.4001  -51.1882  -22.6549 C   0  0  0  0  0  0  0  0  0  0  0  0
    4.6451  -51.7763  -21.5738 O   0  0  0  0  0  0  0  0  0  0  0  0
    3.7392  -49.9612  -22.6702 N   0  0  0  0  0  0  0  0  0  0  0  0
    3.5570  -49.4722  -23.5624 H   0  0  0  0  0  0  0  0  0  0  0  0
    4.8531  -51.8635  -23.9176 C   0  0  0  0  0  0  0  0  0  0  0  0
    3.2304  -52.1778  -25.7272 C   0  0  0  0  0  0  0  0  0  0  0  0
    2.9386  -53.3002  -25.2416 O   0  0  0  0  0  0  0  0  0  0  0  0
    4.2149  -51.3936  -25.0935 N   0  0  0  0  0  0  0  0  0  0  0  0
    4.4731  -50.4639  -25.4917 H   0  0  0  0  0  0  0  0  0  0  0  0
    3.4455  -51.1123  -27.8543 N   0  0  0  0  0  0  0  0  0  0  0  0
    2.4963  -51.7497  -26.9612 C   0  0  0  0  0  0  0  0  0  0  0  0
    4.4377  -51.2883  -27.6212 H   0  0  0  0  0  0  0  0  0  0  0  0
    3.2710  -50.0951  -27.8215 H   0  0  0  0  0  0  0  0  0  0  0  0
    1.9776  -52.9739  -27.7048 C   0  0  0  0  0  0  0  0  0  0  0  0
    0.5220  -52.7989  -27.9065 C   0  0  0  0  0  0  0  0  0  0  0  0
   -0.3191  -52.4962  -26.8542 C   0  0  0  0  0  0  0  0  0  0  0  0
   -1.6858  -52.3477  -27.0351 C   0  0  0  0  0  0  0  0  0  0  0  0
   -2.2374  -52.5006  -28.2835 C   0  0  0  0  0  0  0  0  0  0  0  0
   -1.4370  -52.8032  -29.3689 C   0  0  0  0  0  0  0  0  0  0  0  0
   -0.0612  -52.9465  -29.1510 C   0  0  0  0  0  0  0  0  0  0  0  0
    6.3554  -51.7961  -23.9756 C   0  0  0  0  0  0  0  0  0  0  0  0
    6.9378  -50.4639  -23.8349 C   0  0  0  0  0  0  0  0  0  0  0  0
    6.8526  -49.4354  -24.7071 C   0  0  0  0  0  0  0  0  0  0  0  0
    7.4481  -48.2224  -24.4365 C   0  0  0  0  0  0  0  0  0  0  0  0
    8.1647  -48.0001  -23.2531 C   0  0  0  0  0  0  0  0  0  0  0  0
    8.2483  -49.0469  -22.3710 C   0  0  0  0  0  0  0  0  0  0  0  0
    7.6539  -50.2456  -22.6497 C   0  0  0  0  0  0  0  0  0  0  0  0
    3.2978  -49.3384  -21.4167 C   0  0  0  0  0  0  0  0  0  0  0  0
    1.8518  -49.3820  -21.3920 C   0  0  0  0  0  0  0  0  0  0  0  0
    1.2092  -48.2799  -21.2663 O   0  0  0  0  0  0  0  0  0  0  0  0
    1.0667  -50.6240  -21.5064 C   0  0  0  0  0  0  0  0  0  0  0  0
    0.8759  -51.3689  -22.5814 N   0  0  0  0  0  0  0  0  0  0  0  0
    0.1606  -52.4455  -22.5163 C   0  0  0  0  0  0  0  0  0  0  0  0
   -0.1000  -53.3171  -23.5934 C   0  0  0  0  0  0  0  0  0  0  0  0
   -0.8543  -54.4270  -23.4262 C   0  0  0  0  0  0  0  0  0  0  0  0
   -1.4067  -54.7744  -22.2214 C   0  0  0  0  0  0  0  0  0  0  0  0
   -1.1709  -53.9457  -21.1548 C   0  0  0  0  0  0  0  0  0  0  0  0
   -0.3861  -52.7819  -21.3060 C   0  0  0  0  0  0  0  0  0  0  0  0
    0.1732  -51.5053  -20.3237 S   0  0  0  0  0  0  0  0  0  0  0  0
    3.6821  -47.8232  -21.5881 C   0  0  0  0  0  0  0  0  0  0  0  0
    4.6104  -47.4067  -20.5194 C   0  0  0  0  0  0  0  0  0  0  0  0
    4.0296  -46.6405  -19.3754 C   0  0  0  0  0  0  0  0  0  0  0  0
    2.8339  -47.1289  -18.7906 N   0  0  0  0  0  0  0  0  0  0  0  0
    1.8726  -46.7104  -19.0188 H   0  0  0  0  0  0  0  0  0  0  0  0
    2.8143  -48.1908  -17.8700 C   0  0  0  0  0  0  0  0  0  0  0  0
    3.9889  -48.7281  -17.2943 N   0  0  0  0  0  0  0  0  0  0  0  0
    1.6643  -48.6853  -17.5306 N   0  0  0  0  0  0  0  0  0  0  0  0
    4.8871  -48.7254  -17.8260 H   0  0  0  0  0  0  0  0  0  0  0  0
    3.9825  -49.1339  -16.3345 H   0  0  0  0  0  0  0  0  0  0  0  0
    0.7641  -48.3365  -17.9043 H   0  0  0  0  0  0  0  0  0  0  0  0
 10 11  1  0  0  0
 11 14  1  0  0  0
 14 15  1  0  0  0
 15 16  2  0  0  0
 16 17  1  0  0  0
 17 18  2  0  0  0
 18 19  1  0  0  0
 19 20  2  0  0  0
 11  6  1  0  0  0
  6  7  2  0  0  0
  6  8  1  0  0  0
  8  5  1  0  0  0
  5 21  1  0  0  0
 21 22  1  0  0  0
 22 23  2  0  0  0
 23 24  1  0  0  0
 24 25  2  0  0  0
 25 26  1  0  0  0
 26 27  2  0  0  0
  5  1  1  0  0  0
  1  2  2  0  0  0
  1  3  1  0  0  0
  3 28  1  0  0  0
 28 40  1  0  0  0
 40 41  1  0  0  0
 41 42  1  0  0  0
 42 43  1  0  0  0
 43 45  1  0  0  0
 45 46  1  0  0  0
 45 47  2  0  0  0
 28 29  1  0  0  0
 29 30  2  0  0  0
 29 31  1  0  0  0
 31 32  2  0  0  0
 32 33  1  0  0  0
 33 34  2  0  0  0
 34 35  1  0  0  0
 35 36  2  0  0  0
 36 37  1  0  0  0
 37 38  2  0  0  0
 38 39  1  0  0  0
 20 15  1  0  0  0
 27 22  1  0  0  0
 39 31  1  0  0  0
 38 33  1  0  0  0
 10 12  1  0  0  0
 10 13  1  0  0  0
  8  9  1  0  0  0
  3  4  1  0  0  0
 43 44  1  0  0  0
 46 48  1  0  0  0
 46 49  1  0  0  0
 47 50  1  0  0  0
M  END
> <minimizedAffinity>
-8.22292

> <CNNscore>
0.3418740928

> <CNNaffinity>
7.0602912903

> <CNN_VS>
2.4137306213

> <CNNaffinity_variance>
0.3149838746

$$$$
[H]N=C(N([H])[H])N([H])C([H])([H])C([H])([H])C([H])([H])[C@@]([H])(C(=O)c1nc2c([H])c([H])c([H])c([H])c2s1)N([H])C(=O)[C@@]([H])(N([H])C(=O)[C@@]([H])(N([H])[H])C([H])([H])c1c([H])c([H])c([H])c([H])c1[H])C([H])([H])c1c([H])c([H])c([H])c([H])c1[H]


 50 53  0  0  0  0  0  0  0  0999 V2000
    1.4118  -51.9941  -25.0011 C   0  0  0  0  0  0  0  0  0  0  0  0
    0.5944  -51.2237  -25.5603 O   0  0  0  0  0  0  0  0  0  0  0  0
    0.9772  -52.9889  -24.1270 N   0  0  0  0  0  0  0  0  0  0  0  0
    1.6534  -53.6329  -23.6840 H   0  0  0  0  0  0  0  0  0  0  0  0
    2.8659  -51.7952  -25.3201 C   0  0  0  0  0  0  0  0  0  0  0  0
    3.5253  -49.8338  -26.6332 C   0  0  0  0  0  0  0  0  0  0  0  0
    3.4014  -50.5195  -27.6797 O   0  0  0  0  0  0  0  0  0  0  0  0
    3.2699  -50.4376  -25.3858 N   0  0  0  0  0  0  0  0  0  0  0  0
    3.3779  -49.8819  -24.5088 H   0  0  0  0  0  0  0  0  0  0  0  0
    3.6208  -47.9878  -28.1462 N   0  0  0  0  0  0  0  0  0  0  0  0
    3.9389  -48.4026  -26.7929 C   0  0  0  0  0  0  0  0  0  0  0  0
    2.9705  -48.6181  -28.6457 H   0  0  0  0  0  0  0  0  0  0  0  0
    4.5069  -47.9373  -28.6740 H   0  0  0  0  0  0  0  0  0  0  0  0
    3.1040  -47.5180  -25.8759 C   0  0  0  0  0  0  0  0  0  0  0  0
    3.8196  -47.3987  -24.5859 C   0  0  0  0  0  0  0  0  0  0  0  0
    3.1423  -47.4161  -23.3829 C   0  0  0  0  0  0  0  0  0  0  0  0
    3.8065  -47.2880  -22.1725 C   0  0  0  0  0  0  0  0  0  0  0  0
    5.1715  -47.1397  -22.1466 C   0  0  0  0  0  0  0  0  0  0  0  0
    5.8945  -47.1169  -23.3243 C   0  0  0  0  0  0  0  0  0  0  0  0
    5.1925  -47.2485  -24.5288 C   0  0  0  0  0  0  0  0  0  0  0  0
    3.6769  -52.6227  -24.3595 C   0  0  0  0  0  0  0  0  0  0  0  0
    4.4037  -51.8770  -23.3350 C   0  0  0  0  0  0  0  0  0  0  0  0
    3.9623  -51.5288  -22.1062 C   0  0  0  0  0  0  0  0  0  0  0  0
    4.7671  -50.8285  -21.2337 C   0  0  0  0  0  0  0  0  0  0  0  0
    6.0710  -50.4475  -21.5770 C   0  0  0  0  0  0  0  0  0  0  0  0
    6.5144  -50.8034  -22.8250 C   0  0  0  0  0  0  0  0  0  0  0  0
    5.7077  -51.4977  -23.6824 C   0  0  0  0  0  0  0  0  0  0  0  0
   -0.4511  -53.1439  -23.8274 C   0  0  0  0  0  0  0  0  0  0  0  0
   -0.5704  -53.4732  -22.4236 C   0  0  0  0  0  0  0  0  0  0  0  0
   -1.0748  -54.6071  -22.1026 O   0  0  0  0  0  0  0  0  0  0  0  0
   -0.1418  -52.5801  -21.3323 C   0  0  0  0  0  0  0  0  0  0  0  0
    0.4268  -51.3910  -21.4311 N   0  0  0  0  0  0  0  0  0  0  0  0
    0.7386  -50.7215  -20.3684 C   0  0  0  0  0  0  0  0  0  0  0  0
    1.3375  -49.4452  -20.3557 C   0  0  0  0  0  0  0  0  0  0  0  0
    1.6189  -48.8179  -19.1912 C   0  0  0  0  0  0  0  0  0  0  0  0
    1.3466  -49.3690  -17.9667 C   0  0  0  0  0  0  0  0  0  0  0  0
    0.7641  -50.6100  -17.9467 C   0  0  0  0  0  0  0  0  0  0  0  0
    0.4611  -51.2834  -19.1501 C   0  0  0  0  0  0  0  0  0  0  0  0
   -0.2415  -52.7641  -19.6206 S   0  0  0  0  0  0  0  0  0  0  0  0
   -0.8668  -54.4411  -24.6130 C   0  0  0  0  0  0  0  0  0  0  0  0
    0.2515  -54.9110  -25.4531 C   0  0  0  0  0  0  0  0  0  0  0  0
    0.0706  -54.8272  -26.9341 C   0  0  0  0  0  0  0  0  0  0  0  0
   -0.5038  -53.6447  -27.4651 N   0  0  0  0  0  0  0  0  0  0  0  0
   -1.3977  -53.2109  -27.0603 H   0  0  0  0  0  0  0  0  0  0  0  0
    0.0477  -52.9539  -28.5579 C   0  0  0  0  0  0  0  0  0  0  0  0
   -0.6971  -52.6313  -29.7159 N   0  0  0  0  0  0  0  0  0  0  0  0
    1.2907  -52.5902  -28.4876 N   0  0  0  0  0  0  0  0  0  0  0  0
   -1.4753  -53.2504  -30.0332 H   0  0  0  0  0  0  0  0  0  0  0  0
   -0.4869  -51.7753  -30.2716 H   0  0  0  0  0  0  0  0  0  0  0  0
    1.8932  -52.7840  -27.6685 H   0  0  0  0  0  0  0  0  0  0  0  0
 10 11  1  0  0  0
 11 14  1  0  0  0
 14 15  1  0  0  0
 15 16  2  0  0  0
 16 17  1  0  0  0
 17 18  2  0  0  0
 18 19  1  0  0  0
 19 20  2  0  0  0
 11  6  1  0  0  0
  6  7  2  0  0  0
  6  8  1  0  0  0
  8  5  1  0  0  0
  5 21  1  0  0  0
 21 22  1  0  0  0
 22 23  2  0  0  0
 23 24  1  0  0  0
 24 25  2  0  0  0
 25 26  1  0  0  0
 26 27  2  0  0  0
  5  1  1  0  0  0
  1  2  2  0  0  0
  1  3  1  0  0  0
  3 28  1  0  0  0
 28 40  1  0  0  0
 40 41  1  0  0  0
 41 42  1  0  0  0
 42 43  1  0  0  0
 43 45  1  0  0  0
 45 46  1  0  0  0
 45 47  2  0  0  0
 28 29  1  0  0  0
 29 30  2  0  0  0
 29 31  1  0  0  0
 31 32  2  0  0  0
 32 33  1  0  0  0
 33 34  2  0  0  0
 34 35  1  0  0  0
 35 36  2  0  0  0
 36 37  1  0  0  0
 37 38  2  0  0  0
 38 39  1  0  0  0
 20 15  1  0  0  0
 27 22  1  0  0  0
 39 31  1  0  0  0
 38 33  1  0  0  0
 10 12  1  0  0  0
 10 13  1  0  0  0
  8  9  1  0  0  0
  3  4  1  0  0  0
 43 44  1  0  0  0
 46 48  1  0  0  0
 46 49  1  0  0  0
 47 50  1  0  0  0
M  END
> <minimizedAffinity>
-7.34987

> <CNNscore>
0.2775419652

> <CNNaffinity>
7.3922629356

> <CNN_VS>
2.0516631603

> <CNNaffinity_variance>
0.2510324419

$$$$
[H]N=C(N([H])[H])N([H])C([H])([H])C([H])([H])C([H])([H])[C@@]([H])(C(=O)c1nc2c([H])c([H])c([H])c([H])c2s1)N([H])C(=O)[C@@]([H])(N([H])C(=O)[C@@]([H])(N([H])[H])C([H])([H])c1c([H])c([H])c([H])c([H])c1[H])C([H])([H])c1c([H])c([H])c([H])c([H])c1[H]


 50 53  0  0  0  0  0  0  0  0999 V2000
    3.5482  -50.6591  -19.2348 C   0  0  0  0  0  0  0  0  0  0  0  0
    3.6390  -51.8941  -19.4368 O   0  0  0  0  0  0  0  0  0  0  0  0
    2.7101  -50.1543  -18.2422 N   0  0  0  0  0  0  0  0  0  0  0  0
    2.6537  -49.1372  -18.0674 H   0  0  0  0  0  0  0  0  0  0  0  0
    4.3816  -49.7617  -20.1042 C   0  0  0  0  0  0  0  0  0  0  0  0
    5.6672  -50.5822  -22.0225 C   0  0  0  0  0  0  0  0  0  0  0  0
    6.6973  -50.5897  -21.3018 O   0  0  0  0  0  0  0  0  0  0  0  0
    4.4447  -50.1588  -21.4640 N   0  0  0  0  0  0  0  0  0  0  0  0
    3.5840  -50.1391  -22.0541 H   0  0  0  0  0  0  0  0  0  0  0  0
    7.2138  -51.3579  -23.6695 N   0  0  0  0  0  0  0  0  0  0  0  0
    5.8179  -51.0337  -23.4433 C   0  0  0  0  0  0  0  0  0  0  0  0
    7.7729  -51.4695  -22.8066 H   0  0  0  0  0  0  0  0  0  0  0  0
    7.6233  -50.5978  -24.2359 H   0  0  0  0  0  0  0  0  0  0  0  0
    5.0461  -52.3294  -23.6583 C   0  0  0  0  0  0  0  0  0  0  0  0
    3.8992  -52.0322  -24.5453 C   0  0  0  0  0  0  0  0  0  0  0  0
    3.0790  -53.0356  -25.0215 C   0  0  0  0  0  0  0  0  0  0  0  0
    2.0133  -52.7641  -25.8661 C   0  0  0  0  0  0  0  0  0  0  0  0
    1.7488  -51.4725  -26.2504 C   0  0  0  0  0  0  0  0  0  0  0  0
    2.5408  -50.4332  -25.7999 C   0  0  0  0  0  0  0  0  0  0  0  0
    3.6088  -50.7424  -24.9485 C   0  0  0  0  0  0  0  0  0  0  0  0
    3.9114  -48.3456  -19.9080 C   0  0  0  0  0  0  0  0  0  0  0  0
    3.9564  -47.4911  -21.0919 C   0  0  0  0  0  0  0  0  0  0  0  0
    5.0155  -46.7954  -21.5612 C   0  0  0  0  0  0  0  0  0  0  0  0
    4.9149  -46.0326  -22.7046 C   0  0  0  0  0  0  0  0  0  0  0  0
    3.7189  -45.9432  -23.4289 C   0  0  0  0  0  0  0  0  0  0  0  0
    2.6469  -46.6511  -22.9487 C   0  0  0  0  0  0  0  0  0  0  0  0
    2.7578  -47.4043  -21.8136 C   0  0  0  0  0  0  0  0  0  0  0  0
    1.8987  -51.0612  -17.4217 C   0  0  0  0  0  0  0  0  0  0  0  0
    0.5741  -51.1090  -18.0018 C   0  0  0  0  0  0  0  0  0  0  0  0
   -0.4098  -50.6551  -17.3169 O   0  0  0  0  0  0  0  0  0  0  0  0
    0.2850  -51.6485  -19.3425 C   0  0  0  0  0  0  0  0  0  0  0  0
   -0.0250  -52.8912  -19.6691 N   0  0  0  0  0  0  0  0  0  0  0  0
   -0.2612  -53.2072  -20.9017 C   0  0  0  0  0  0  0  0  0  0  0  0
   -0.6086  -54.4941  -21.3609 C   0  0  0  0  0  0  0  0  0  0  0  0
   -0.8464  -54.7267  -22.6716 C   0  0  0  0  0  0  0  0  0  0  0  0
   -0.7676  -53.7465  -23.6256 C   0  0  0  0  0  0  0  0  0  0  0  0
   -0.4314  -52.4841  -23.2094 C   0  0  0  0  0  0  0  0  0  0  0  0
   -0.1792  -52.2180  -21.8460 C   0  0  0  0  0  0  0  0  0  0  0  0
    0.2403  -50.8748  -20.8830 S   0  0  0  0  0  0  0  0  0  0  0  0
    1.7446  -50.3020  -16.0532 C   0  0  0  0  0  0  0  0  0  0  0  0
    2.2938  -51.1158  -14.9518 C   0  0  0  0  0  0  0  0  0  0  0  0
    1.3115  -51.7711  -14.0360 C   0  0  0  0  0  0  0  0  0  0  0  0
    0.1183  -52.2853  -14.6035 N   0  0  0  0  0  0  0  0  0  0  0  0
    0.1221  -53.0926  -15.3101 H   0  0  0  0  0  0  0  0  0  0  0  0
   -1.1548  -51.7792  -14.2891 C   0  0  0  0  0  0  0  0  0  0  0  0
   -2.2807  -51.9634  -15.1246 N   0  0  0  0  0  0  0  0  0  0  0  0
   -1.2963  -51.1267  -13.1772 N   0  0  0  0  0  0  0  0  0  0  0  0
   -2.1647  -52.0366  -16.1593 H   0  0  0  0  0  0  0  0  0  0  0  0
   -3.2419  -52.0302  -14.7278 H   0  0  0  0  0  0  0  0  0  0  0  0
   -0.5194  -50.9614  -12.5134 H   0  0  0  0  0  0  0  0  0  0  0  0
 10 11  1  0  0  0
 11 14  1  0  0  0
 14 15  1  0  0  0
 15 16  2  0  0  0
 16 17  1  0  0  0
 17 18  2  0  0  0
 18 19  1  0  0  0
 19 20  2  0  0  0
 11  6  1  0  0  0
  6  7  2  0  0  0
  6  8  1  0  0  0
  8  5  1  0  0  0
  5 21  1  0  0  0
 21 22  1  0  0  0
 22 23  2  0  0  0
 23 24  1  0  0  0
 24 25  2  0  0  0
 25 26  1  0  0  0
 26 27  2  0  0  0
  5  1  1  0  0  0
  1  2  2  0  0  0
  1  3  1  0  0  0
  3 28  1  0  0  0
 28 40  1  0  0  0
 40 41  1  0  0  0
 41 42  1  0  0  0
 42 43  1  0  0  0
 43 45  1  0  0  0
 45 46  1  0  0  0
 45 47  2  0  0  0
 28 29  1  0  0  0
 29 30  2  0  0  0
 29 31  1  0  0  0
 31 32  2  0  0  0
 32 33  1  0  0  0
 33 34  2  0  0  0
 34 35  1  0  0  0
 35 36  2  0  0  0
 36 37  1  0  0  0
 37 38  2  0  0  0
 38 39  1  0  0  0
 20 15  1  0  0  0
 27 22  1  0  0  0
 39 31  1  0  0  0
 38 33  1  0  0  0
 10 12  1  0  0  0
 10 13  1  0  0  0
  8  9  1  0  0  0
  3  4  1  0  0  0
 43 44  1  0  0  0
 46 48  1  0  0  0
 46 49  1  0  0  0
 47 50  1  0  0  0
M  END
> <minimizedAffinity>
-7.27106

> <CNNscore>
0.2311575264

> <CNNaffinity>
6.9350113869

> <CNN_VS>
1.6030800343

> <CNNaffinity_variance>
0.4096686244

$$$$
[H]N=C(N([H])[H])N([H])C([H])([H])C([H])([H])C([H])([H])[C@@]([H])(C(=O)c1nc2c([H])c([H])c([H])c([H])c2s1)N([H])C(=O)[C@@]([H])(N([H])C(=O)[C@@]([H])(N([H])[H])C([H])([H])c1c([H])c([H])c([H])c([H])c1[H])C([H])([H])c1c([H])c([H])c([H])c([H])c1[H]


 50 53  0  0  0  0  0  0  0  0999 V2000
    3.4013  -50.4163  -22.7706 C   0  0  0  0  0  0  0  0  0  0  0  0
    4.6450  -50.5688  -22.7051 O   0  0  0  0  0  0  0  0  0  0  0  0
    2.7958  -49.9535  -23.9376 N   0  0  0  0  0  0  0  0  0  0  0  0
    1.7691  -49.8479  -23.9921 H   0  0  0  0  0  0  0  0  0  0  0  0
    2.6057  -50.7572  -21.5431 C   0  0  0  0  0  0  0  0  0  0  0  0
    3.2994  -50.7224  -19.1929 C   0  0  0  0  0  0  0  0  0  0  0  0
    3.2286  -51.9775  -19.1756 O   0  0  0  0  0  0  0  0  0  0  0  0
    2.9836  -50.0358  -20.3823 N   0  0  0  0  0  0  0  0  0  0  0  0
    3.0295  -48.9933  -20.4072 H   0  0  0  0  0  0  0  0  0  0  0  0
    4.8124  -49.1347  -18.2462 N   0  0  0  0  0  0  0  0  0  0  0  0
    3.7236  -50.0394  -17.9285 C   0  0  0  0  0  0  0  0  0  0  0  0
    4.9214  -48.9332  -19.2547 H   0  0  0  0  0  0  0  0  0  0  0  0
    5.6851  -49.5605  -17.8952 H   0  0  0  0  0  0  0  0  0  0  0  0
    2.5900  -49.1651  -17.4080 C   0  0  0  0  0  0  0  0  0  0  0  0
    1.5772  -50.0532  -16.7949 C   0  0  0  0  0  0  0  0  0  0  0  0
    0.3337  -50.2303  -17.3684 C   0  0  0  0  0  0  0  0  0  0  0  0
   -0.6245  -51.0482  -16.7891 C   0  0  0  0  0  0  0  0  0  0  0  0
   -0.3507  -51.7083  -15.6164 C   0  0  0  0  0  0  0  0  0  0  0  0
    0.8799  -51.5640  -15.0039 C   0  0  0  0  0  0  0  0  0  0  0  0
    1.8243  -50.7303  -15.6154 C   0  0  0  0  0  0  0  0  0  0  0  0
    1.1438  -50.6388  -21.8807 C   0  0  0  0  0  0  0  0  0  0  0  0
    0.3649  -51.8698  -21.7730 C   0  0  0  0  0  0  0  0  0  0  0  0
    0.0743  -52.7453  -22.7604 C   0  0  0  0  0  0  0  0  0  0  0  0
   -0.6681  -53.8790  -22.5097 C   0  0  0  0  0  0  0  0  0  0  0  0
   -1.1530  -54.1750  -21.2289 C   0  0  0  0  0  0  0  0  0  0  0  0
   -0.8553  -53.2836  -20.2302 C   0  0  0  0  0  0  0  0  0  0  0  0
   -0.1183  -52.1623  -20.4900 C   0  0  0  0  0  0  0  0  0  0  0  0
    3.6072  -49.6159  -25.1130 C   0  0  0  0  0  0  0  0  0  0  0  0
    3.4940  -48.1895  -25.3277 C   0  0  0  0  0  0  0  0  0  0  0  0
    3.5026  -47.4152  -24.3062 O   0  0  0  0  0  0  0  0  0  0  0  0
    3.3716  -47.5676  -26.6583 C   0  0  0  0  0  0  0  0  0  0  0  0
    4.0355  -47.8692  -27.7607 N   0  0  0  0  0  0  0  0  0  0  0  0
    3.8050  -47.2300  -28.8621 C   0  0  0  0  0  0  0  0  0  0  0  0
    4.4446  -47.4734  -30.0947 C   0  0  0  0  0  0  0  0  0  0  0  0
    4.1297  -46.7573  -31.1978 C   0  0  0  0  0  0  0  0  0  0  0  0
    3.1852  -45.7647  -31.1936 C   0  0  0  0  0  0  0  0  0  0  0  0
    2.5460  -45.5046  -30.0089 C   0  0  0  0  0  0  0  0  0  0  0  0
    2.8584  -46.2398  -28.8448 C   0  0  0  0  0  0  0  0  0  0  0  0
    2.3532  -46.2931  -27.2171 S   0  0  0  0  0  0  0  0  0  0  0  0
    2.8459  -50.2953  -26.3095 C   0  0  0  0  0  0  0  0  0  0  0  0
    2.8583  -51.7628  -26.1567 C   0  0  0  0  0  0  0  0  0  0  0  0
    2.9491  -52.5754  -27.4075 C   0  0  0  0  0  0  0  0  0  0  0  0
    2.0241  -53.6367  -27.5761 N   0  0  0  0  0  0  0  0  0  0  0  0
    2.2705  -54.6537  -27.3392 H   0  0  0  0  0  0  0  0  0  0  0  0
    0.7214  -53.4414  -28.0661 C   0  0  0  0  0  0  0  0  0  0  0  0
   -0.4321  -53.8702  -27.3694 N   0  0  0  0  0  0  0  0  0  0  0  0
    0.5799  -52.8303  -29.2014 N   0  0  0  0  0  0  0  0  0  0  0  0
   -0.3970  -54.7163  -26.7592 H   0  0  0  0  0  0  0  0  0  0  0  0
   -1.3338  -53.3539  -27.4492 H   0  0  0  0  0  0  0  0  0  0  0  0
    1.3776  -52.4813  -29.7612 H   0  0  0  0  0  0  0  0  0  0  0  0
 10 11  1  0  0  0
 11 14  1  0  0  0
 14 15  1  0  0  0
 15 16  2  0  0  0
 16 17  1  0  0  0
 17 18  2  0  0  0
 18 19  1  0  0  0
 19 20  2  0  0  0
 11  6  1  0  0  0
  6  7  2  0  0  0
  6  8  1  0  0  0
  8  5  1  0  0  0
  5 21  1  0  0  0
 21 22  1  0  0  0
 22 23  2  0  0  0
 23 24  1  0  0  0
 24 25  2  0  0  0
 25 26  1  0  0  0
 26 27  2  0  0  0
  5  1  1  0  0  0
  1  2  2  0  0  0
  1  3  1  0  0  0
  3 28  1  0  0  0
 28 40  1  0  0  0
 40 41  1  0  0  0
 41 42  1  0  0  0
 42 43  1  0  0  0
 43 45  1  0  0  0
 45 46  1  0  0  0
 45 47  2  0  0  0
 28 29  1  0  0  0
 29 30  2  0  0  0
 29 31  1  0  0  0
 31 32  2  0  0  0
 32 33  1  0  0  0
 33 34  2  0  0  0
 34 35  1  0  0  0
 35 36  2  0  0  0
 36 37  1  0  0  0
 37 38  2  0  0  0
 38 39  1  0  0  0
 20 15  1  0  0  0
 27 22  1  0  0  0
 39 31  1  0  0  0
 38 33  1  0  0  0
 10 12  1  0  0  0
 10 13  1  0  0  0
  8  9  1  0  0  0
  3  4  1  0  0  0
 43 44  1  0  0  0
 46 48  1  0  0  0
 46 49  1  0  0  0
 47 50  1  0  0  0
M  END
> <minimizedAffinity>
-7.97712

> <CNNscore>
0.2148523480

> <CNNaffinity>
6.6618933678

> <CNN_VS>
1.4313234091

> <CNNaffinity_variance>
0.5299125910

$$$$
[H]N=C(N([H])[H])N([H])C([H])([H])C([H])([H])C([H])([H])[C@@]([H])(C(=O)c1nc2c([H])c([H])c([H])c([H])c2s1)N([H])C(=O)[C@@]([H])(N([H])C(=O)[C@@]([H])(N([H])[H])C([H])([H])c1c([H])c([H])c([H])c([H])c1[H])C([H])([H])c1c([H])c([H])c([H])c([H])c1[H]


 50 53  0  0  0  0  0  0  0  0999 V2000
    4.2996  -51.1342  -22.7446 C   0  0  0  0  0  0  0  0  0  0  0  0
    4.4586  -51.6722  -21.6222 O   0  0  0  0  0  0  0  0  0  0  0  0
    3.7830  -49.8445  -22.8550 N   0  0  0  0  0  0  0  0  0  0  0  0
    3.6719  -49.3991  -23.7811 H   0  0  0  0  0  0  0  0  0  0  0  0
    4.6929  -51.9394  -23.9499 C   0  0  0  0  0  0  0  0  0  0  0  0
    3.1201  -52.2763  -25.7989 C   0  0  0  0  0  0  0  0  0  0  0  0
    2.7763  -53.3683  -25.2791 O   0  0  0  0  0  0  0  0  0  0  0  0
    4.1086  -51.4981  -25.1642 N   0  0  0  0  0  0  0  0  0  0  0  0
    4.4096  -50.5939  -25.5901 H   0  0  0  0  0  0  0  0  0  0  0  0
    3.4469  -51.3547  -27.9783 N   0  0  0  0  0  0  0  0  0  0  0  0
    2.4404  -51.8762  -27.0728 C   0  0  0  0  0  0  0  0  0  0  0  0
    4.4206  -51.5796  -27.7117 H   0  0  0  0  0  0  0  0  0  0  0  0
    3.3384  -50.3284  -28.0086 H   0  0  0  0  0  0  0  0  0  0  0  0
    1.8582  -53.1067  -27.7565 C   0  0  0  0  0  0  0  0  0  0  0  0
    0.4029  -52.8904  -27.9168 C   0  0  0  0  0  0  0  0  0  0  0  0
   -0.1986  -52.9340  -29.1588 C   0  0  0  0  0  0  0  0  0  0  0  0
   -1.5588  -52.7156  -29.3162 C   0  0  0  0  0  0  0  0  0  0  0  0
   -2.3459  -52.4482  -28.2230 C   0  0  0  0  0  0  0  0  0  0  0  0
   -1.7907  -52.3946  -26.9584 C   0  0  0  0  0  0  0  0  0  0  0  0
   -0.4141  -52.6196  -26.8352 C   0  0  0  0  0  0  0  0  0  0  0  0
    6.1952  -52.0187  -23.9943 C   0  0  0  0  0  0  0  0  0  0  0  0
    6.9056  -50.7690  -23.7348 C   0  0  0  0  0  0  0  0  0  0  0  0
    7.4004  -50.3370  -22.5539 C   0  0  0  0  0  0  0  0  0  0  0  0
    8.0619  -49.1318  -22.4584 C   0  0  0  0  0  0  0  0  0  0  0  0
    8.2512  -48.3038  -23.5728 C   0  0  0  0  0  0  0  0  0  0  0  0
    7.7474  -48.7467  -24.7690 C   0  0  0  0  0  0  0  0  0  0  0  0
    7.0928  -49.9435  -24.8522 C   0  0  0  0  0  0  0  0  0  0  0  0
    3.3953  -49.0932  -21.6553 C   0  0  0  0  0  0  0  0  0  0  0  0
    1.9524  -49.1385  -21.5581 C   0  0  0  0  0  0  0  0  0  0  0  0
    1.3090  -48.0315  -21.4963 O   0  0  0  0  0  0  0  0  0  0  0  0
    1.1712  -50.3879  -21.5285 C   0  0  0  0  0  0  0  0  0  0  0  0
    0.8825  -51.1901  -22.5385 N   0  0  0  0  0  0  0  0  0  0  0  0
    0.1869  -52.2644  -22.3462 C   0  0  0  0  0  0  0  0  0  0  0  0
   -0.1704  -53.1935  -23.3446 C   0  0  0  0  0  0  0  0  0  0  0  0
   -0.8944  -54.2957  -23.0453 C   0  0  0  0  0  0  0  0  0  0  0  0
   -1.3225  -54.5802  -21.7752 C   0  0  0  0  0  0  0  0  0  0  0  0
   -0.9905  -53.6946  -20.7824 C   0  0  0  0  0  0  0  0  0  0  0  0
   -0.2351  -52.5375  -21.0718 C   0  0  0  0  0  0  0  0  0  0  0  0
    0.4064  -51.2080  -20.2183 S   0  0  0  0  0  0  0  0  0  0  0  0
    3.7588  -47.6037  -22.0044 C   0  0  0  0  0  0  0  0  0  0  0  0
    4.6604  -47.5570  -23.1715 C   0  0  0  0  0  0  0  0  0  0  0  0
    4.2501  -46.6835  -24.3125 C   0  0  0  0  0  0  0  0  0  0  0  0
    4.7019  -47.0336  -25.6100 N   0  0  0  0  0  0  0  0  0  0  0  0
    5.4454  -46.4617  -26.1309 H   0  0  0  0  0  0  0  0  0  0  0  0
    4.2125  -48.1484  -26.3123 C   0  0  0  0  0  0  0  0  0  0  0  0
    4.8954  -48.7242  -27.4085 N   0  0  0  0  0  0  0  0  0  0  0  0
    3.0913  -48.6722  -25.9240 N   0  0  0  0  0  0  0  0  0  0  0  0
    5.4859  -48.1323  -28.0334 H   0  0  0  0  0  0  0  0  0  0  0  0
    4.8248  -49.7435  -27.6132 H   0  0  0  0  0  0  0  0  0  0  0  0
    2.5422  -48.3095  -25.1249 H   0  0  0  0  0  0  0  0  0  0  0  0
 10 11  1  0  0  0
 11 14  1  0  0  0
 14 15  1  0  0  0
 15 16  2  0  0  0
 16 17  1  0  0  0
 17 18  2  0  0  0
 18 19  1  0  0  0
 19 20  2  0  0  0
 11  6  1  0  0  0
  6  7  2  0  0  0
  6  8  1  0  0  0
  8  5  1  0  0  0
  5 21  1  0  0  0
 21 22  1  0  0  0
 22 23  2  0  0  0
 23 24  1  0  0  0
 24 25  2  0  0  0
 25 26  1  0  0  0
 26 27  2  0  0  0
  5  1  1  0  0  0
  1  2  2  0  0  0
  1  3  1  0  0  0
  3 28  1  0  0  0
 28 40  1  0  0  0
 40 41  1  0  0  0
 41 42  1  0  0  0
 42 43  1  0  0  0
 43 45  1  0  0  0
 45 46  1  0  0  0
 45 47  2  0  0  0
 28 29  1  0  0  0
 29 30  2  0  0  0
 29 31  1  0  0  0
 31 32  2  0  0  0
 32 33  1  0  0  0
 33 34  2  0  0  0
 34 35  1  0  0  0
 35 36  2  0  0  0
 36 37  1  0  0  0
 37 38  2  0  0  0
 38 39  1  0  0  0
 20 15  1  0  0  0
 27 22  1  0  0  0
 39 31  1  0  0  0
 38 33  1  0  0  0
 10 12  1  0  0  0
 10 13  1  0  0  0
  8  9  1  0  0  0
  3  4  1  0  0  0
 43 44  1  0  0  0
 46 48  1  0  0  0
 46 49  1  0  0  0
 47 50  1  0  0  0
M  END
> <minimizedAffinity>
-8.05417

> <CNNscore>
0.2131010890

> <CNNaffinity>
6.8609137535

> <CNN_VS>
1.4620682001

> <CNNaffinity_variance>
0.3739538789

$$$$
[H]N=C(N([H])[H])N([H])C([H])([H])C([H])([H])C([H])([H])[C@@]([H])(C(=O)c1nc2c([H])c([H])c([H])c([H])c2s1)N([H])C(=O)[C@@]([H])(N([H])C(=O)[C@@]([H])(N([H])[H])C([H])([H])c1c([H])c([H])c([H])c([H])c1[H])C([H])([H])c1c([H])c([H])c([H])c([H])c1[H]


 50 53  0  0  0  0  0  0  0  0999 V2000
    2.9076  -50.2742  -21.5258 C   0  0  0  0  0  0  0  0  0  0  0  0
    3.2238  -49.1240  -21.1366 O   0  0  0  0  0  0  0  0  0  0  0  0
    3.5477  -50.8645  -22.6140 N   0  0  0  0  0  0  0  0  0  0  0  0
    3.2963  -51.8197  -22.9183 H   0  0  0  0  0  0  0  0  0  0  0  0
    1.8191  -50.9771  -20.7662 C   0  0  0  0  0  0  0  0  0  0  0  0
    2.4560  -50.8772  -18.4018 C   0  0  0  0  0  0  0  0  0  0  0  0
    3.3912  -51.6825  -18.6418 O   0  0  0  0  0  0  0  0  0  0  0  0
    1.6072  -50.4813  -19.4547 N   0  0  0  0  0  0  0  0  0  0  0  0
    0.8214  -49.8204  -19.2669 H   0  0  0  0  0  0  0  0  0  0  0  0
    3.6325  -50.0445  -16.4968 N   0  0  0  0  0  0  0  0  0  0  0  0
    2.3131  -50.3884  -16.9926 C   0  0  0  0  0  0  0  0  0  0  0  0
    4.3545  -49.9491  -17.2311 H   0  0  0  0  0  0  0  0  0  0  0  0
    3.9222  -50.7859  -15.8391 H   0  0  0  0  0  0  0  0  0  0  0  0
    1.5075  -49.0957  -16.9732 C   0  0  0  0  0  0  0  0  0  0  0  0
    0.2020  -49.3843  -16.3388 C   0  0  0  0  0  0  0  0  0  0  0  0
   -0.3356  -50.6561  -16.3450 C   0  0  0  0  0  0  0  0  0  0  0  0
   -1.5661  -50.9283  -15.7667 C   0  0  0  0  0  0  0  0  0  0  0  0
   -2.2843  -49.9230  -15.1669 C   0  0  0  0  0  0  0  0  0  0  0  0
   -1.7884  -48.6334  -15.1343 C   0  0  0  0  0  0  0  0  0  0  0  0
   -0.5430  -48.3931  -15.7279 C   0  0  0  0  0  0  0  0  0  0  0  0
    0.5787  -50.9849  -21.6185 C   0  0  0  0  0  0  0  0  0  0  0  0
   -0.0980  -52.2733  -21.7443 C   0  0  0  0  0  0  0  0  0  0  0  0
   -0.9180  -52.8601  -20.8447 C   0  0  0  0  0  0  0  0  0  0  0  0
   -1.4987  -54.0828  -21.1036 C   0  0  0  0  0  0  0  0  0  0  0  0
   -1.2677  -54.7701  -22.3026 C   0  0  0  0  0  0  0  0  0  0  0  0
   -0.4349  -54.1705  -23.2123 C   0  0  0  0  0  0  0  0  0  0  0  0
    0.1357  -52.9577  -22.9452 C   0  0  0  0  0  0  0  0  0  0  0  0
    4.5970  -50.1411  -23.3418 C   0  0  0  0  0  0  0  0  0  0  0  0
    4.2053  -50.0855  -24.7335 C   0  0  0  0  0  0  0  0  0  0  0  0
    4.7996  -49.2498  -25.5027 O   0  0  0  0  0  0  0  0  0  0  0  0
    3.1598  -50.9388  -25.3260 C   0  0  0  0  0  0  0  0  0  0  0  0
    1.8601  -50.7066  -25.3887 N   0  0  0  0  0  0  0  0  0  0  0  0
    1.0670  -51.5584  -25.9547 C   0  0  0  0  0  0  0  0  0  0  0  0
   -0.3287  -51.4096  -26.0864 C   0  0  0  0  0  0  0  0  0  0  0  0
   -1.0759  -52.3525  -26.7039 C   0  0  0  0  0  0  0  0  0  0  0  0
   -0.5382  -53.4957  -27.2342 C   0  0  0  0  0  0  0  0  0  0  0  0
    0.8172  -53.6688  -27.1214 C   0  0  0  0  0  0  0  0  0  0  0  0
    1.6170  -52.6974  -26.4810 C   0  0  0  0  0  0  0  0  0  0  0  0
    3.2674  -52.4655  -26.1205 S   0  0  0  0  0  0  0  0  0  0  0  0
    5.8378  -51.1052  -23.2797 C   0  0  0  0  0  0  0  0  0  0  0  0
    7.0014  -50.4052  -22.7026 C   0  0  0  0  0  0  0  0  0  0  0  0
    7.0276  -50.2410  -21.2175 C   0  0  0  0  0  0  0  0  0  0  0  0
    6.7649  -48.9517  -20.6893 N   0  0  0  0  0  0  0  0  0  0  0  0
    6.7490  -48.0732  -21.3051 H   0  0  0  0  0  0  0  0  0  0  0  0
    6.5092  -48.7243  -19.3261 C   0  0  0  0  0  0  0  0  0  0  0  0
    5.2555  -48.9874  -18.7270 N   0  0  0  0  0  0  0  0  0  0  0  0
    7.4737  -48.2643  -18.5910 N   0  0  0  0  0  0  0  0  0  0  0  0
    4.3756  -48.8975  -19.2812 H   0  0  0  0  0  0  0  0  0  0  0  0
    5.1847  -49.2752  -17.7280 H   0  0  0  0  0  0  0  0  0  0  0  0
    8.4187  -48.0574  -18.9593 H   0  0  0  0  0  0  0  0  0  0  0  0
 10 11  1  0  0  0
 11 14  1  0  0  0
 14 15  1  0  0  0
 15 16  2  0  0  0
 16 17  1  0  0  0
 17 18  2  0  0  0
 18 19  1  0  0  0
 19 20  2  0  0  0
 11  6  1  0  0  0
  6  7  2  0  0  0
  6  8  1  0  0  0
  8  5  1  0  0  0
  5 21  1  0  0  0
 21 22  1  0  0  0
 22 23  2  0  0  0
 23 24  1  0  0  0
 24 25  2  0  0  0
 25 26  1  0  0  0
 26 27  2  0  0  0
  5  1  1  0  0  0
  1  2  2  0  0  0
  1  3  1  0  0  0
  3 28  1  0  0  0
 28 40  1  0  0  0
 40 41  1  0  0  0
 41 42  1  0  0  0
 42 43  1  0  0  0
 43 45  1  0  0  0
 45 46  1  0  0  0
 45 47  2  0  0  0
 28 29  1  0  0  0
 29 30  2  0  0  0
 29 31  1  0  0  0
 31 32  2  0  0  0
 32 33  1  0  0  0
 33 34  2  0  0  0
 34 35  1  0  0  0
 35 36  2  0  0  0
 36 37  1  0  0  0
 37 38  2  0  0  0
 38 39  1  0  0  0
 20 15  1  0  0  0
 27 22  1  0  0  0
 39 31  1  0  0  0
 38 33  1  0  0  0
 10 12  1  0  0  0
 10 13  1  0  0  0
  8  9  1  0  0  0
  3  4  1  0  0  0
 43 44  1  0  0  0
 46 48  1  0  0  0
 46 49  1  0  0  0
 47 50  1  0  0  0
M  END
> <minimizedAffinity>
-7.88171

> <CNNscore>
0.1842192113

> <CNNaffinity>
6.8491106033

> <CNN_VS>
1.2617377043

> <CNNaffinity_variance>
0.4786401391

$$$$
[H]N=C(N([H])[H])N([H])C([H])([H])C([H])([H])C([H])([H])[C@@]([H])(C(=O)c1nc2c([H])c([H])c([H])c([H])c2s1)N([H])C(=O)[C@@]([H])(N([H])C(=O)[C@@]([H])(N([H])[H])C([H])([H])c1c([H])c([H])c([H])c([H])c1[H])C([H])([H])c1c([H])c([H])c([H])c([H])c1[H]


 50 53  0  0  0  0  0  0  0  0999 V2000
    2.9179  -49.5711  -21.6084 C   0  0  0  0  0  0  0  0  0  0  0  0
    2.2595  -48.8546  -20.8162 O   0  0  0  0  0  0  0  0  0  0  0  0
    4.2533  -49.2887  -21.8901 N   0  0  0  0  0  0  0  0  0  0  0  0
    4.7962  -49.8934  -22.5288 H   0  0  0  0  0  0  0  0  0  0  0  0
    2.2037  -50.7378  -22.2286 C   0  0  0  0  0  0  0  0  0  0  0  0
    1.6956  -51.2508  -24.5705 C   0  0  0  0  0  0  0  0  0  0  0  0
    0.4711  -51.1447  -24.3058 O   0  0  0  0  0  0  0  0  0  0  0  0
    2.6372  -51.0591  -23.5398 N   0  0  0  0  0  0  0  0  0  0  0  0
    3.6564  -51.1534  -23.7443 H   0  0  0  0  0  0  0  0  0  0  0  0
    3.5160  -51.5859  -26.0804 N   0  0  0  0  0  0  0  0  0  0  0  0
    2.0684  -51.5754  -25.9850 C   0  0  0  0  0  0  0  0  0  0  0  0
    4.0050  -51.6291  -25.1701 H   0  0  0  0  0  0  0  0  0  0  0  0
    3.8031  -50.7246  -26.5722 H   0  0  0  0  0  0  0  0  0  0  0  0
    1.6151  -52.9888  -26.3275 C   0  0  0  0  0  0  0  0  0  0  0  0
    0.4953  -52.8852  -27.2896 C   0  0  0  0  0  0  0  0  0  0  0  0
    0.7084  -52.9545  -28.6521 C   0  0  0  0  0  0  0  0  0  0  0  0
   -0.3352  -52.8414  -29.5580 C   0  0  0  0  0  0  0  0  0  0  0  0
   -1.6203  -52.6561  -29.1108 C   0  0  0  0  0  0  0  0  0  0  0  0
   -1.8850  -52.5808  -27.7563 C   0  0  0  0  0  0  0  0  0  0  0  0
   -0.8081  -52.6986  -26.8689 C   0  0  0  0  0  0  0  0  0  0  0  0
    2.2687  -51.8949  -21.2685 C   0  0  0  0  0  0  0  0  0  0  0  0
    0.9864  -52.4944  -20.9078 C   0  0  0  0  0  0  0  0  0  0  0  0
    0.2847  -52.3060  -19.7685 C   0  0  0  0  0  0  0  0  0  0  0  0
   -0.9253  -52.9340  -19.5665 C   0  0  0  0  0  0  0  0  0  0  0  0
   -1.4806  -53.7912  -20.5257 C   0  0  0  0  0  0  0  0  0  0  0  0
   -0.7648  -53.9791  -21.6803 C   0  0  0  0  0  0  0  0  0  0  0  0
    0.4342  -53.3513  -21.8701 C   0  0  0  0  0  0  0  0  0  0  0  0
    4.9141  -48.1306  -21.2767 C   0  0  0  0  0  0  0  0  0  0  0  0
    5.4186  -47.2973  -22.3466 C   0  0  0  0  0  0  0  0  0  0  0  0
    6.6127  -46.8404  -22.2541 O   0  0  0  0  0  0  0  0  0  0  0  0
    4.6394  -46.9416  -23.5460 C   0  0  0  0  0  0  0  0  0  0  0  0
    4.8126  -47.3701  -24.7843 N   0  0  0  0  0  0  0  0  0  0  0  0
    4.0318  -46.9668  -25.7344 C   0  0  0  0  0  0  0  0  0  0  0  0
    4.1182  -47.3642  -27.0843 C   0  0  0  0  0  0  0  0  0  0  0  0
    3.2486  -46.8943  -28.0072 C   0  0  0  0  0  0  0  0  0  0  0  0
    2.2427  -46.0163  -27.6998 C   0  0  0  0  0  0  0  0  0  0  0  0
    2.1335  -45.6111  -26.3945 C   0  0  0  0  0  0  0  0  0  0  0  0
    3.0300  -46.0889  -25.4140 C   0  0  0  0  0  0  0  0  0  0  0  0
    3.2810  -45.8969  -23.7385 S   0  0  0  0  0  0  0  0  0  0  0  0
    6.1794  -48.7430  -20.5719 C   0  0  0  0  0  0  0  0  0  0  0  0
    6.4759  -50.0791  -21.1233 C   0  0  0  0  0  0  0  0  0  0  0  0
    7.6411  -50.1874  -22.0526 C   0  0  0  0  0  0  0  0  0  0  0  0
    7.4707  -50.9378  -23.2434 N   0  0  0  0  0  0  0  0  0  0  0  0
    7.8205  -51.9476  -23.3387 H   0  0  0  0  0  0  0  0  0  0  0  0
    6.8367  -50.4202  -24.3861 C   0  0  0  0  0  0  0  0  0  0  0  0
    7.5487  -49.9942  -25.5312 N   0  0  0  0  0  0  0  0  0  0  0  0
    5.5418  -50.3447  -24.3860 N   0  0  0  0  0  0  0  0  0  0  0  0
    8.5099  -49.5981  -25.4388 H   0  0  0  0  0  0  0  0  0  0  0  0
    7.1322  -50.0671  -26.4836 H   0  0  0  0  0  0  0  0  0  0  0  0
    4.9559  -50.6460  -23.5876 H   0  0  0  0  0  0  0  0  0  0  0  0
 10 11  1  0  0  0
 11 14  1  0  0  0
 14 15  1  0  0  0
 15 16  2  0  0  0
 16 17  1  0  0  0
 17 18  2  0  0  0
 18 19  1  0  0  0
 19 20  2  0  0  0
 11  6  1  0  0  0
  6  7  2  0  0  0
  6  8  1  0  0  0
  8  5  1  0  0  0
  5 21  1  0  0  0
 21 22  1  0  0  0
 22 23  2  0  0  0
 23 24  1  0  0  0
 24 25  2  0  0  0
 25 26  1  0  0  0
 26 27  2  0  0  0
  5  1  1  0  0  0
  1  2  2  0  0  0
  1  3  1  0  0  0
  3 28  1  0  0  0
 28 40  1  0  0  0
 40 41  1  0  0  0
 41 42  1  0  0  0
 42 43  1  0  0  0
 43 45  1  0  0  0
 45 46  1  0  0  0
 45 47  2  0  0  0
 28 29  1  0  0  0
 29 30  2  0  0  0
 29 31  1  0  0  0
 31 32  2  0  0  0
 32 33  1  0  0  0
 33 34  2  0  0  0
 34 35  1  0  0  0
 35 36  2  0  0  0
 36 37  1  0  0  0
 37 38  2  0  0  0
 38 39  1  0  0  0
 20 15  1  0  0  0
 27 22  1  0  0  0
 39 31  1  0  0  0
 38 33  1  0  0  0
 10 12  1  0  0  0
 10 13  1  0  0  0
  8  9  1  0  0  0
  3  4  1  0  0  0
 43 44  1  0  0  0
 46 48  1  0  0  0
 46 49  1  0  0  0
 47 50  1  0  0  0
M  END
> <minimizedAffinity>
-7.65930

> <CNNscore>
0.1804329753

> <CNNaffinity>
6.5524091721

> <CNN_VS>
1.1822706461

> <CNNaffinity_variance>
0.8737235069

$$$$
[H]N=C(N([H])[H])N([H])C([H])([H])C([H])([H])C([H])([H])[C@@]([H])(C(=O)c1nc2c([H])c([H])c([H])c([H])c2s1)N([H])C(=O)[C@@]([H])(N([H])C(=O)[C@@]([H])(N([H])[H])C([H])([H])c1c([H])c([H])c([H])c([H])c1[H])C([H])([H])c1c([H])c([H])c([H])c([H])c1[H]


 50 53  0  0  0  0  0  0  0  0999 V2000
    2.0061  -51.6869  -23.5715 C   0  0  0  0  0  0  0  0  0  0  0  0
    3.0599  -52.2575  -23.1997 O   0  0  0  0  0  0  0  0  0  0  0  0
    1.8850  -50.2994  -23.5196 N   0  0  0  0  0  0  0  0  0  0  0  0
    1.0217  -49.8334  -23.8450 H   0  0  0  0  0  0  0  0  0  0  0  0
    0.8949  -52.5640  -24.0733 C   0  0  0  0  0  0  0  0  0  0  0  0
   -0.3867  -52.5879  -21.9845 C   0  0  0  0  0  0  0  0  0  0  0  0
   -0.2910  -51.3352  -21.9365 O   0  0  0  0  0  0  0  0  0  0  0  0
    0.2101  -53.2788  -23.0581 N   0  0  0  0  0  0  0  0  0  0  0  0
    0.1458  -54.3195  -23.1049 H   0  0  0  0  0  0  0  0  0  0  0  0
   -1.6373  -54.5318  -21.3818 N   0  0  0  0  0  0  0  0  0  0  0  0
   -1.1423  -53.2634  -20.8810 C   0  0  0  0  0  0  0  0  0  0  0  0
   -1.1921  -54.8488  -22.2598 H   0  0  0  0  0  0  0  0  0  0  0  0
   -2.6525  -54.4304  -21.5407 H   0  0  0  0  0  0  0  0  0  0  0  0
   -0.1938  -53.6046  -19.7388 C   0  0  0  0  0  0  0  0  0  0  0  0
   -0.5794  -52.7845  -18.5687 C   0  0  0  0  0  0  0  0  0  0  0  0
   -1.6545  -53.1268  -17.7729 C   0  0  0  0  0  0  0  0  0  0  0  0
   -2.0299  -52.3527  -16.6854 C   0  0  0  0  0  0  0  0  0  0  0  0
   -1.3287  -51.2137  -16.3741 C   0  0  0  0  0  0  0  0  0  0  0  0
   -0.2444  -50.8292  -17.1401 C   0  0  0  0  0  0  0  0  0  0  0  0
    0.1075  -51.6335  -18.2312 C   0  0  0  0  0  0  0  0  0  0  0  0
   -0.0084  -51.7303  -24.9417 C   0  0  0  0  0  0  0  0  0  0  0  0
   -0.1455  -52.1741  -26.3266 C   0  0  0  0  0  0  0  0  0  0  0  0
    0.8417  -52.5549  -27.1672 C   0  0  0  0  0  0  0  0  0  0  0  0
    0.5623  -52.9622  -28.4537 C   0  0  0  0  0  0  0  0  0  0  0  0
   -0.7485  -53.0003  -28.9473 C   0  0  0  0  0  0  0  0  0  0  0  0
   -1.7468  -52.6130  -28.0904 C   0  0  0  0  0  0  0  0  0  0  0  0
   -1.4584  -52.2107  -26.8165 C   0  0  0  0  0  0  0  0  0  0  0  0
    2.9868  -49.4752  -23.0088 C   0  0  0  0  0  0  0  0  0  0  0  0
    2.4952  -48.7543  -21.8546 C   0  0  0  0  0  0  0  0  0  0  0  0
    1.7890  -47.7019  -22.0466 O   0  0  0  0  0  0  0  0  0  0  0  0
    2.7559  -49.1602  -20.4620 C   0  0  0  0  0  0  0  0  0  0  0  0
    2.5033  -48.4810  -19.3566 N   0  0  0  0  0  0  0  0  0  0  0  0
    2.7859  -48.9833  -18.1978 C   0  0  0  0  0  0  0  0  0  0  0  0
    2.5521  -48.3542  -16.9579 C   0  0  0  0  0  0  0  0  0  0  0  0
    2.8739  -48.9636  -15.7944 C   0  0  0  0  0  0  0  0  0  0  0  0
    3.4387  -50.2108  -15.7413 C   0  0  0  0  0  0  0  0  0  0  0  0
    3.6785  -50.8480  -16.9315 C   0  0  0  0  0  0  0  0  0  0  0  0
    3.3503  -50.2310  -18.1582 C   0  0  0  0  0  0  0  0  0  0  0  0
    3.4401  -50.6067  -19.8191 S   0  0  0  0  0  0  0  0  0  0  0  0
    3.2075  -48.3961  -24.1311 C   0  0  0  0  0  0  0  0  0  0  0  0
    4.5752  -48.4966  -24.6757 C   0  0  0  0  0  0  0  0  0  0  0  0
    5.0030  -49.8304  -25.1963 C   0  0  0  0  0  0  0  0  0  0  0  0
    6.2919  -50.2990  -24.8369 N   0  0  0  0  0  0  0  0  0  0  0  0
    7.1834  -49.9506  -25.3217 H   0  0  0  0  0  0  0  0  0  0  0  0
    6.5015  -51.2526  -23.8259 C   0  0  0  0  0  0  0  0  0  0  0  0
    7.1276  -50.9417  -22.5966 N   0  0  0  0  0  0  0  0  0  0  0  0
    6.0892  -52.4648  -24.0331 N   0  0  0  0  0  0  0  0  0  0  0  0
    7.8559  -50.1955  -22.5483 H   0  0  0  0  0  0  0  0  0  0  0  0
    6.8762  -51.4463  -21.7202 H   0  0  0  0  0  0  0  0  0  0  0  0
    5.6154  -52.7618  -24.9042 H   0  0  0  0  0  0  0  0  0  0  0  0
 10 11  1  0  0  0
 11 14  1  0  0  0
 14 15  1  0  0  0
 15 16  2  0  0  0
 16 17  1  0  0  0
 17 18  2  0  0  0
 18 19  1  0  0  0
 19 20  2  0  0  0
 11  6  1  0  0  0
  6  7  2  0  0  0
  6  8  1  0  0  0
  8  5  1  0  0  0
  5 21  1  0  0  0
 21 22  1  0  0  0
 22 23  2  0  0  0
 23 24  1  0  0  0
 24 25  2  0  0  0
 25 26  1  0  0  0
 26 27  2  0  0  0
  5  1  1  0  0  0
  1  2  2  0  0  0
  1  3  1  0  0  0
  3 28  1  0  0  0
 28 40  1  0  0  0
 40 41  1  0  0  0
 41 42  1  0  0  0
 42 43  1  0  0  0
 43 45  1  0  0  0
 45 46  1  0  0  0
 45 47  2  0  0  0
 28 29  1  0  0  0
 29 30  2  0  0  0
 29 31  1  0  0  0
 31 32  2  0  0  0
 32 33  1  0  0  0
 33 34  2  0  0  0
 34 35  1  0  0  0
 35 36  2  0  0  0
 36 37  1  0  0  0
 37 38  2  0  0  0
 38 39  1  0  0  0
 20 15  1  0  0  0
 27 22  1  0  0  0
 39 31  1  0  0  0
 38 33  1  0  0  0
 10 12  1  0  0  0
 10 13  1  0  0  0
  8  9  1  0  0  0
  3  4  1  0  0  0
 43 44  1  0  0  0
 46 48  1  0  0  0
 46 49  1  0  0  0
 47 50  1  0  0  0
M  END
> <minimizedAffinity>
-8.17642

> <CNNscore>
0.1759657264

> <CNNaffinity>
6.9155249596

> <CNN_VS>
1.2168953419

> <CNNaffinity_variance>
0.5502088070

$$$$
[H]OC(=O)c1c([H])c([H])c(-c2c([H])c(C([H])([H])[H])c(C#N)c(C([H])([H])[H])c2[H])c([H])c1[H]


 20 21  0  0  0  0  0  0  0  0999 V2000
   -2.4492  -52.3791  -27.4513 C   0  0  0  0  0  0  0  0  0  0  0  0
   -1.1697  -52.4889  -26.7222 C   0  0  0  0  0  0  0  0  0  0  0  0
   -1.1741  -52.4416  -25.3201 C   0  0  0  0  0  0  0  0  0  0  0  0
   -0.0085  -52.5397  -24.6054 C   0  0  0  0  0  0  0  0  0  0  0  0
    1.1891  -52.6871  -25.2581 C   0  0  0  0  0  0  0  0  0  0  0  0
    1.2433  -52.7396  -26.6592 C   0  0  0  0  0  0  0  0  0  0  0  0
    2.5324  -52.8980  -27.3592 C   0  0  0  0  0  0  0  0  0  0  0  0
    0.0553  -52.6378  -27.3391 C   0  0  0  0  0  0  0  0  0  0  0  0
   -0.0339  -52.4888  -23.1628 C   0  0  0  0  0  0  0  0  0  0  0  0
    0.5657  -51.4502  -22.4750 C   0  0  0  0  0  0  0  0  0  0  0  0
    0.5261  -51.4274  -21.1055 C   0  0  0  0  0  0  0  0  0  0  0  0
   -0.1002  -52.4191  -20.3814 C   0  0  0  0  0  0  0  0  0  0  0  0
   -0.6871  -53.4371  -21.0793 C   0  0  0  0  0  0  0  0  0  0  0  0
   -0.6651  -53.4895  -22.4554 C   0  0  0  0  0  0  0  0  0  0  0  0
   -0.1115  -52.3438  -18.9269 C   0  0  0  0  0  0  0  0  0  0  0  0
   -0.9579  -53.1558  -18.1918 O   0  0  0  0  0  0  0  0  0  0  0  0
    0.6389  -51.5481  -18.3115 O   0  0  0  0  0  0  0  0  0  0  0  0
   -1.9739  -53.0093  -18.2298 H   0  0  0  0  0  0  0  0  0  0  0  0
    0.0597  -52.6865  -28.7804 C   0  0  0  0  0  0  0  0  0  0  0  0
    0.0735  -52.7218  -29.9346 N   0  0  0  0  0  0  0  0  0  0  0  0
  1  2  1  0  0  0
  2  3  2  0  0  0
  3  4  1  0  0  0
  4  5  2  0  0  0
  5  6  1  0  0  0
  6  7  1  0  0  0
  6  8  2  0  0  0
  8 19  1  0  0  0
 19 20  3  0  0  0
  4  9  1  0  0  0
  9 10  2  0  0  0
 10 11  1  0  0  0
 11 12  2  0  0  0
 12 13  1  0  0  0
 13 14  2  0  0  0
 12 15  1  0  0  0
 15 16  1  0  0  0
 15 17  2  0  0  0
  8  2  1  0  0  0
 14  9  1  0  0  0
 16 18  1  0  0  0
M  END
> <minimizedAffinity>
-7.67732

> <CNNscore>
0.6838198304

> <CNNaffinity>
5.4796981812

> <CNN_VS>
3.7471263409

> <CNNaffinity_variance>
0.1676238626

$$$$
[H]OC(=O)c1c([H])c([H])c(-c2c([H])c(C([H])([H])[H])c(C#N)c(C([H])([H])[H])c2[H])c([H])c1[H]


 20 21  0  0  0  0  0  0  0  0999 V2000
    2.4899  -52.9311  -27.3087 C   0  0  0  0  0  0  0  0  0  0  0  0
    1.1913  -52.7530  -26.6284 C   0  0  0  0  0  0  0  0  0  0  0  0
    1.1539  -52.6995  -25.2270 C   0  0  0  0  0  0  0  0  0  0  0  0
   -0.0306  -52.5354  -24.5568 C   0  0  0  0  0  0  0  0  0  0  0  0
   -1.2062  -52.4202  -25.2544 C   0  0  0  0  0  0  0  0  0  0  0  0
   -1.2185  -52.4677  -26.6567 C   0  0  0  0  0  0  0  0  0  0  0  0
   -2.4840  -52.3436  -27.4050 C   0  0  0  0  0  0  0  0  0  0  0  0
   -0.0128  -52.6331  -27.2913 C   0  0  0  0  0  0  0  0  0  0  0  0
   -0.0482  -52.4829  -23.1142 C   0  0  0  0  0  0  0  0  0  0  0  0
    0.5263  -51.4268  -22.4317 C   0  0  0  0  0  0  0  0  0  0  0  0
    0.4949  -51.4029  -21.0620 C   0  0  0  0  0  0  0  0  0  0  0  0
   -0.0987  -52.4107  -20.3325 C   0  0  0  0  0  0  0  0  0  0  0  0
   -0.6611  -53.4459  -21.0252 C   0  0  0  0  0  0  0  0  0  0  0  0
   -0.6465  -53.4998  -22.4013 C   0  0  0  0  0  0  0  0  0  0  0  0
   -0.1029  -52.3334  -18.8781 C   0  0  0  0  0  0  0  0  0  0  0  0
   -0.9302  -53.1595  -18.1369 O   0  0  0  0  0  0  0  0  0  0  0  0
    0.6367  -51.5234  -18.2682 O   0  0  0  0  0  0  0  0  0  0  0  0
   -1.9488  -53.0314  -18.1691 H   0  0  0  0  0  0  0  0  0  0  0  0
    0.0259  -52.6881  -28.7318 C   0  0  0  0  0  0  0  0  0  0  0  0
    0.0562  -52.7212  -29.8857 N   0  0  0  0  0  0  0  0  0  0  0  0
  1  2  1  0  0  0
  2  3  2  0  0  0
  3  4  1  0  0  0
  4  5  2  0  0  0
  5  6  1  0  0  0
  6  7  1  0  0  0
  6  8  2  0  0  0
  8 19  1  0  0  0
 19 20  3  0  0  0
  4  9  1  0  0  0
  9 10  2  0  0  0
 10 11  1  0  0  0
 11 12  2  0  0  0
 12 13  1  0  0  0
 13 14  2  0  0  0
 12 15  1  0  0  0
 15 16  1  0  0  0
 15 17  2  0  0  0
  8  2  1  0  0  0
 14  9  1  0  0  0
 16 18  1  0  0  0
M  END
> <minimizedAffinity>
-7.68000

> <CNNscore>
0.6833506227

> <CNNaffinity>
5.4778351784

> <CNN_VS>
3.7432820797

> <CNNaffinity_variance>
0.1700247824

$$$$
[H]OC(=O)c1c([H])c([H])c(-c2c([H])c(C([H])([H])[H])c(C#N)c(C([H])([H])[H])c2[H])c([H])c1[H]


 20 21  0  0  0  0  0  0  0  0999 V2000
    0.5103  -53.3636  -24.5002 C   0  0  0  0  0  0  0  0  0  0  0  0
    0.6090  -52.6527  -23.2096 C   0  0  0  0  0  0  0  0  0  0  0  0
    1.4383  -51.5256  -23.1102 C   0  0  0  0  0  0  0  0  0  0  0  0
    1.5582  -50.8375  -21.9307 C   0  0  0  0  0  0  0  0  0  0  0  0
    0.8620  -51.2458  -20.8214 C   0  0  0  0  0  0  0  0  0  0  0  0
    0.0203  -52.3673  -20.8726 C   0  0  0  0  0  0  0  0  0  0  0  0
   -0.7276  -52.8049  -19.6784 C   0  0  0  0  0  0  0  0  0  0  0  0
   -0.0732  -53.0297  -22.0712 C   0  0  0  0  0  0  0  0  0  0  0  0
    2.4170  -49.6799  -21.8485 C   0  0  0  0  0  0  0  0  0  0  0  0
    3.2975  -49.3711  -22.8686 C   0  0  0  0  0  0  0  0  0  0  0  0
    4.1009  -48.2660  -22.7641 C   0  0  0  0  0  0  0  0  0  0  0  0
    4.0595  -47.4411  -21.6605 C   0  0  0  0  0  0  0  0  0  0  0  0
    3.1827  -47.7630  -20.6628 C   0  0  0  0  0  0  0  0  0  0  0  0
    2.3617  -48.8663  -20.7371 C   0  0  0  0  0  0  0  0  0  0  0  0
    4.9364  -46.2796  -21.6027 C   0  0  0  0  0  0  0  0  0  0  0  0
    5.4509  -45.7340  -22.7662 O   0  0  0  0  0  0  0  0  0  0  0  0
    5.2435  -45.7511  -20.5066 O   0  0  0  0  0  0  0  0  0  0  0  0
    6.1418  -46.2563  -23.3185 H   0  0  0  0  0  0  0  0  0  0  0  0
   -0.9257  -54.1883  -22.1735 C   0  0  0  0  0  0  0  0  0  0  0  0
   -1.6170  -55.1099  -22.2530 N   0  0  0  0  0  0  0  0  0  0  0  0
  1  2  1  0  0  0
  2  3  2  0  0  0
  3  4  1  0  0  0
  4  5  2  0  0  0
  5  6  1  0  0  0
  6  7  1  0  0  0
  6  8  2  0  0  0
  8 19  1  0  0  0
 19 20  3  0  0  0
  4  9  1  0  0  0
  9 10  2  0  0  0
 10 11  1  0  0  0
 11 12  2  0  0  0
 12 13  1  0  0  0
 13 14  2  0  0  0
 12 15  1  0  0  0
 15 16  1  0  0  0
 15 17  2  0  0  0
  8  2  1  0  0  0
 14  9  1  0  0  0
 16 18  1  0  0  0
M  END
> <minimizedAffinity>
-5.29279

> <CNNscore>
0.6196523309

> <CNNaffinity>
5.1581993103

> <CNN_VS>
3.1962902546

> <CNNaffinity_variance>
0.5610874891

$$$$
[H]OC(=O)c1c([H])c([H])c(-c2c([H])c(C([H])([H])[H])c(C#N)c(C([H])([H])[H])c2[H])c([H])c1[H]


 20 21  0  0  0  0  0  0  0  0999 V2000
    1.6194  -51.1308  -23.7773 C   0  0  0  0  0  0  0  0  0  0  0  0
    0.8072  -52.0296  -22.9328 C   0  0  0  0  0  0  0  0  0  0  0  0
    0.6693  -51.7462  -21.5659 C   0  0  0  0  0  0  0  0  0  0  0  0
   -0.0756  -52.5550  -20.7473 C   0  0  0  0  0  0  0  0  0  0  0  0
   -0.7021  -53.6630  -21.2591 C   0  0  0  0  0  0  0  0  0  0  0  0
   -0.5931  -53.9870  -22.6200 C   0  0  0  0  0  0  0  0  0  0  0  0
   -1.2677  -55.1790  -23.1684 C   0  0  0  0  0  0  0  0  0  0  0  0
    0.1612  -53.1529  -23.4069 C   0  0  0  0  0  0  0  0  0  0  0  0
   -0.2053  -52.2463  -19.3430 C   0  0  0  0  0  0  0  0  0  0  0  0
   -1.0625  -52.9652  -18.5308 C   0  0  0  0  0  0  0  0  0  0  0  0
   -1.1656  -52.6504  -17.2012 C   0  0  0  0  0  0  0  0  0  0  0  0
   -0.4330  -51.6268  -16.6393 C   0  0  0  0  0  0  0  0  0  0  0  0
    0.4086  -50.9278  -17.4584 C   0  0  0  0  0  0  0  0  0  0  0  0
    0.5354  -51.2191  -18.7985 C   0  0  0  0  0  0  0  0  0  0  0  0
   -0.5825  -51.3360  -15.2201 C   0  0  0  0  0  0  0  0  0  0  0  0
   -1.4658  -52.0687  -14.4459 O   0  0  0  0  0  0  0  0  0  0  0  0
    0.0797  -50.4224  -14.6705 O   0  0  0  0  0  0  0  0  0  0  0  0
   -2.4782  -51.9783  -14.5942 H   0  0  0  0  0  0  0  0  0  0  0  0
    0.3030  -53.4442  -24.8122 C   0  0  0  0  0  0  0  0  0  0  0  0
    0.4213  -53.6677  -25.9389 N   0  0  0  0  0  0  0  0  0  0  0  0
  1  2  1  0  0  0
  2  3  2  0  0  0
  3  4  1  0  0  0
  4  5  2  0  0  0
  5  6  1  0  0  0
  6  7  1  0  0  0
  6  8  2  0  0  0
  8 19  1  0  0  0
 19 20  3  0  0  0
  4  9  1  0  0  0
  9 10  2  0  0  0
 10 11  1  0  0  0
 11 12  2  0  0  0
 12 13  1  0  0  0
 13 14  2  0  0  0
 12 15  1  0  0  0
 15 16  1  0  0  0
 15 17  2  0  0  0
  8  2  1  0  0  0
 14  9  1  0  0  0
 16 18  1  0  0  0
M  END
> <minimizedAffinity>
-6.89735

> <CNNscore>
0.5621436238

> <CNNaffinity>
5.2433547974

> <CNN_VS>
2.9475183487

> <CNNaffinity_variance>
0.1229466572

$$$$
[H]OC(=O)c1c([H])c([H])c(-c2c([H])c(C([H])([H])[H])c(C#N)c(C([H])([H])[H])c2[H])c([H])c1[H]


 20 21  0  0  0  0  0  0  0  0999 V2000
    0.9961  -52.9270  -25.1544 C   0  0  0  0  0  0  0  0  0  0  0  0
    0.6073  -52.5866  -23.7710 C   0  0  0  0  0  0  0  0  0  0  0  0
    1.1848  -51.4675  -23.1528 C   0  0  0  0  0  0  0  0  0  0  0  0
    0.8514  -51.1173  -21.8701 C   0  0  0  0  0  0  0  0  0  0  0  0
   -0.0601  -51.8637  -21.1674 C   0  0  0  0  0  0  0  0  0  0  0  0
   -0.6640  -52.9915  -21.7438 C   0  0  0  0  0  0  0  0  0  0  0  0
   -1.6441  -53.7929  -20.9862 C   0  0  0  0  0  0  0  0  0  0  0  0
   -0.3043  -53.3098  -23.0296 C   0  0  0  0  0  0  0  0  0  0  0  0
    1.4569  -49.9619  -21.2515 C   0  0  0  0  0  0  0  0  0  0  0  0
    2.0037  -48.9479  -22.0157 C   0  0  0  0  0  0  0  0  0  0  0  0
    2.5720  -47.8626  -21.4017 C   0  0  0  0  0  0  0  0  0  0  0  0
    2.6169  -47.7471  -20.0288 C   0  0  0  0  0  0  0  0  0  0  0  0
    2.0711  -48.7597  -19.2908 C   0  0  0  0  0  0  0  0  0  0  0  0
    1.4926  -49.8635  -19.8770 C   0  0  0  0  0  0  0  0  0  0  0  0
    3.2334  -46.5713  -19.4300 C   0  0  0  0  0  0  0  0  0  0  0  0
    2.8740  -46.1662  -18.1560 O   0  0  0  0  0  0  0  0  0  0  0  0
    4.0969  -45.9036  -20.0494 O   0  0  0  0  0  0  0  0  0  0  0  0
    1.9342  -45.7906  -17.9808 H   0  0  0  0  0  0  0  0  0  0  0  0
   -0.8979  -54.4602  -23.6651 C   0  0  0  0  0  0  0  0  0  0  0  0
   -1.3676  -55.3792  -24.1831 N   0  0  0  0  0  0  0  0  0  0  0  0
  1  2  1  0  0  0
  2  3  2  0  0  0
  3  4  1  0  0  0
  4  5  2  0  0  0
  5  6  1  0  0  0
  6  7  1  0  0  0
  6  8  2  0  0  0
  8 19  1  0  0  0
 19 20  3  0  0  0
  4  9  1  0  0  0
  9 10  2  0  0  0
 10 11  1  0  0  0
 11 12  2  0  0  0
 12 13  1  0  0  0
 13 14  2  0  0  0
 12 15  1  0  0  0
 15 16  1  0  0  0
 15 17  2  0  0  0
  8  2  1  0  0  0
 14  9  1  0  0  0
 16 18  1  0  0  0
M  END
> <minimizedAffinity>
-6.44228

> <CNNscore>
0.5575098395

> <CNNaffinity>
5.1917204857

> <CNN_VS>
2.8944351673

> <CNNaffinity_variance>
0.3262999654

$$$$
[H]OC(=O)c1c([H])c([H])c(-c2c([H])c(C([H])([H])[H])c(C#N)c(C([H])([H])[H])c2[H])c([H])c1[H]


 20 21  0  0  0  0  0  0  0  0999 V2000
   -3.5142  -55.1331  -22.9704 C   0  0  0  0  0  0  0  0  0  0  0  0
   -2.1735  -54.7389  -23.4479 C   0  0  0  0  0  0  0  0  0  0  0  0
   -1.9353  -54.6544  -24.8278 C   0  0  0  0  0  0  0  0  0  0  0  0
   -0.7052  -54.2923  -25.3124 C   0  0  0  0  0  0  0  0  0  0  0  0
    0.3189  -54.0049  -24.4460 C   0  0  0  0  0  0  0  0  0  0  0  0
    0.1281  -54.0758  -23.0576 C   0  0  0  0  0  0  0  0  0  0  0  0
    1.2309  -53.7663  -22.1275 C   0  0  0  0  0  0  0  0  0  0  0  0
   -1.1172  -54.4419  -22.6114 C   0  0  0  0  0  0  0  0  0  0  0  0
   -0.4800  -54.2111  -26.7360 C   0  0  0  0  0  0  0  0  0  0  0  0
   -1.4272  -53.6583  -27.5778 C   0  0  0  0  0  0  0  0  0  0  0  0
   -1.1868  -53.5941  -28.9253 C   0  0  0  0  0  0  0  0  0  0  0  0
   -0.0160  -54.0690  -29.4765 C   0  0  0  0  0  0  0  0  0  0  0  0
    0.9079  -54.6119  -28.6282 C   0  0  0  0  0  0  0  0  0  0  0  0
    0.6970  -54.6912  -27.2695 C   0  0  0  0  0  0  0  0  0  0  0  0
    0.1863  -53.9750  -30.9158 C   0  0  0  0  0  0  0  0  0  0  0  0
   -0.7010  -53.2589  -31.7008 O   0  0  0  0  0  0  0  0  0  0  0  0
    1.1608  -54.5360  -31.4731 O   0  0  0  0  0  0  0  0  0  0  0  0
   -1.6607  -53.5995  -31.8351 H   0  0  0  0  0  0  0  0  0  0  0  0
   -1.3622  -54.5288  -21.1930 C   0  0  0  0  0  0  0  0  0  0  0  0
   -1.5478  -54.6003  -20.0554 N   0  0  0  0  0  0  0  0  0  0  0  0
  1  2  1  0  0  0
  2  3  2  0  0  0
  3  4  1  0  0  0
  4  5  2  0  0  0
  5  6  1  0  0  0
  6  7  1  0  0  0
  6  8  2  0  0  0
  8 19  1  0  0  0
 19 20  3  0  0  0
  4  9  1  0  0  0
  9 10  2  0  0  0
 10 11  1  0  0  0
 11 12  2  0  0  0
 12 13  1  0  0  0
 13 14  2  0  0  0
 12 15  1  0  0  0
 15 16  1  0  0  0
 15 17  2  0  0  0
  8  2  1  0  0  0
 14  9  1  0  0  0
 16 18  1  0  0  0
M  END
> <minimizedAffinity>
14.78900

> <CNNscore>
0.5426068306

> <CNNaffinity>
5.0407390594

> <CNN_VS>
2.7351393700

> <CNNaffinity_variance>
1.2692267895

$$$$
[H]OC(=O)c1c([H])c([H])c(-c2c([H])c(C([H])([H])[H])c(C#N)c(C([H])([H])[H])c2[H])c([H])c1[H]


 20 21  0  0  0  0  0  0  0  0999 V2000
   -1.3232  -55.5109  -23.5815 C   0  0  0  0  0  0  0  0  0  0  0  0
   -0.6841  -54.2117  -23.2909 C   0  0  0  0  0  0  0  0  0  0  0  0
   -0.6432  -53.7493  -21.9671 C   0  0  0  0  0  0  0  0  0  0  0  0
   -0.0595  -52.5490  -21.6548 C   0  0  0  0  0  0  0  0  0  0  0  0
    0.4977  -51.7767  -22.6422 C   0  0  0  0  0  0  0  0  0  0  0  0
    0.4809  -52.1975  -23.9807 C   0  0  0  0  0  0  0  0  0  0  0  0
    1.0807  -51.3654  -25.0411 C   0  0  0  0  0  0  0  0  0  0  0  0
   -0.1126  -53.4048  -24.2532 C   0  0  0  0  0  0  0  0  0  0  0  0
   -0.0276  -52.0905  -20.2862 C   0  0  0  0  0  0  0  0  0  0  0  0
    0.5767  -50.8937  -19.9487 C   0  0  0  0  0  0  0  0  0  0  0  0
    0.5921  -50.4830  -18.6415 C   0  0  0  0  0  0  0  0  0  0  0  0
    0.0173  -51.2339  -17.6386 C   0  0  0  0  0  0  0  0  0  0  0  0
   -0.5750  -52.4138  -17.9921 C   0  0  0  0  0  0  0  0  0  0  0  0
   -0.6077  -52.8547  -19.2964 C   0  0  0  0  0  0  0  0  0  0  0  0
    0.0633  -50.7486  -16.2662 C   0  0  0  0  0  0  0  0  0  0  0  0
    0.6966  -51.4902  -15.2836 O   0  0  0  0  0  0  0  0  0  0  0  0
   -0.4653  -49.6566  -15.9449 O   0  0  0  0  0  0  0  0  0  0  0  0
    0.2983  -52.3861  -14.9773 H   0  0  0  0  0  0  0  0  0  0  0  0
   -0.1546  -53.8803  -25.6140 C   0  0  0  0  0  0  0  0  0  0  0  0
   -0.1826  -54.2697  -26.7008 N   0  0  0  0  0  0  0  0  0  0  0  0
  1  2  1  0  0  0
  2  3  2  0  0  0
  3  4  1  0  0  0
  4  5  2  0  0  0
  5  6  1  0  0  0
  6  7  1  0  0  0
  6  8  2  0  0  0
  8 19  1  0  0  0
 19 20  3  0  0  0
  4  9  1  0  0  0
  9 10  2  0  0  0
 10 11  1  0  0  0
 11 12  2  0  0  0
 12 13  1  0  0  0
 13 14  2  0  0  0
 12 15  1  0  0  0
 15 16  1  0  0  0
 15 17  2  0  0  0
  8  2  1  0  0  0
 14  9  1  0  0  0
 16 18  1  0  0  0
M  END
> <minimizedAffinity>
-7.05413

> <CNNscore>
0.5285920501

> <CNNaffinity>
5.2471289635

> <CNN_VS>
2.7735905647

> <CNNaffinity_variance>
0.0795177072

$$$$
[H]OC(=O)c1c([H])c([H])c(-c2c([H])c(C([H])([H])[H])c(C#N)c(C([H])([H])[H])c2[H])c([H])c1[H]


 20 21  0  0  0  0  0  0  0  0999 V2000
   -0.9095  -54.4885  -23.5182 C   0  0  0  0  0  0  0  0  0  0  0  0
   -0.2063  -53.2589  -23.1008 C   0  0  0  0  0  0  0  0  0  0  0  0
    0.5892  -52.5750  -24.0322 C   0  0  0  0  0  0  0  0  0  0  0  0
    1.2586  -51.4302  -23.6853 C   0  0  0  0  0  0  0  0  0  0  0  0
    1.1584  -50.9333  -22.4105 C   0  0  0  0  0  0  0  0  0  0  0  0
    0.3747  -51.5828  -21.4447 C   0  0  0  0  0  0  0  0  0  0  0  0
    0.2683  -51.0468  -20.0742 C   0  0  0  0  0  0  0  0  0  0  0  0
   -0.2800  -52.7259  -21.8303 C   0  0  0  0  0  0  0  0  0  0  0  0
    2.0724  -50.7408  -24.6584 C   0  0  0  0  0  0  0  0  0  0  0  0
    2.7742  -49.5986  -24.3206 C   0  0  0  0  0  0  0  0  0  0  0  0
    3.5390  -48.9647  -25.2645 C   0  0  0  0  0  0  0  0  0  0  0  0
    3.6327  -49.4346  -26.5570 C   0  0  0  0  0  0  0  0  0  0  0  0
    2.9315  -50.5648  -26.8715 C   0  0  0  0  0  0  0  0  0  0  0  0
    2.1541  -51.2254  -25.9463 C   0  0  0  0  0  0  0  0  0  0  0  0
    4.4606  -48.7204  -27.5191 C   0  0  0  0  0  0  0  0  0  0  0  0
    4.6262  -49.2149  -28.8015 O   0  0  0  0  0  0  0  0  0  0  0  0
    5.0383  -47.6497  -27.2111 O   0  0  0  0  0  0  0  0  0  0  0  0
    5.1558  -50.0816  -28.9550 H   0  0  0  0  0  0  0  0  0  0  0  0
   -1.0978  -53.4290  -20.8730 C   0  0  0  0  0  0  0  0  0  0  0  0
   -1.7530  -53.9830  -20.1002 N   0  0  0  0  0  0  0  0  0  0  0  0
  1  2  1  0  0  0
  2  3  2  0  0  0
  3  4  1  0  0  0
  4  5  2  0  0  0
  5  6  1  0  0  0
  6  7  1  0  0  0
  6  8  2  0  0  0
  8 19  1  0  0  0
 19 20  3  0  0  0
  4  9  1  0  0  0
  9 10  2  0  0  0
 10 11  1  0  0  0
 11 12  2  0  0  0
 12 13  1  0  0  0
 13 14  2  0  0  0
 12 15  1  0  0  0
 15 16  1  0  0  0
 15 17  2  0  0  0
  8  2  1  0  0  0
 14  9  1  0  0  0
 16 18  1  0  0  0
M  END
> <minimizedAffinity>
-6.44871

> <CNNscore>
0.4968029857

> <CNNaffinity>
5.0663733482

> <CNN_VS>
2.5169894695

> <CNNaffinity_variance>
0.4937710762

$$$$
[H]OC(=O)c1c([H])c([H])c(-c2c([H])c(C([H])([H])[H])c(C#N)c(C([H])([H])[H])c2[H])c([H])c1[H]


 20 21  0  0  0  0  0  0  0  0999 V2000
    3.4177  -52.7812  -25.4713 C   0  0  0  0  0  0  0  0  0  0  0  0
    2.0166  -52.6200  -25.0333 C   0  0  0  0  0  0  0  0  0  0  0  0
    1.7297  -52.5676  -23.6611 C   0  0  0  0  0  0  0  0  0  0  0  0
    0.4428  -52.4191  -23.2127 C   0  0  0  0  0  0  0  0  0  0  0  0
   -0.5912  -52.3187  -24.1085 C   0  0  0  0  0  0  0  0  0  0  0  0
   -0.3532  -52.3659  -25.4906 C   0  0  0  0  0  0  0  0  0  0  0  0
   -1.4668  -52.2578  -26.4524 C   0  0  0  0  0  0  0  0  0  0  0  0
    0.9483  -52.5155  -25.9001 C   0  0  0  0  0  0  0  0  0  0  0  0
    0.1680  -52.3673  -21.7963 C   0  0  0  0  0  0  0  0  0  0  0  0
    0.6588  -51.3405  -21.0115 C   0  0  0  0  0  0  0  0  0  0  0  0
    0.3822  -51.3165  -19.6696 C   0  0  0  0  0  0  0  0  0  0  0  0
   -0.3793  -52.2957  -19.0685 C   0  0  0  0  0  0  0  0  0  0  0  0
   -0.8553  -53.3024  -19.8610 C   0  0  0  0  0  0  0  0  0  0  0  0
   -0.5955  -53.3554  -21.2125 C   0  0  0  0  0  0  0  0  0  0  0  0
   -0.6418  -52.2199  -17.6380 C   0  0  0  0  0  0  0  0  0  0  0  0
   -1.1194  -53.3257  -16.9556 O   0  0  0  0  0  0  0  0  0  0  0  0
   -0.4431  -51.1600  -16.9960 O   0  0  0  0  0  0  0  0  0  0  0  0
   -2.0703  -53.6704  -17.1347 H   0  0  0  0  0  0  0  0  0  0  0  0
    1.2434  -52.5694  -27.3107 C   0  0  0  0  0  0  0  0  0  0  0  0
    1.4783  -52.6234  -28.4400 N   0  0  0  0  0  0  0  0  0  0  0  0
  1  2  1  0  0  0
  2  3  2  0  0  0
  3  4  1  0  0  0
  4  5  2  0  0  0
  5  6  1  0  0  0
  6  7  1  0  0  0
  6  8  2  0  0  0
  8 19  1  0  0  0
 19 20  3  0  0  0
  4  9  1  0  0  0
  9 10  2  0  0  0
 10 11  1  0  0  0
 11 12  2  0  0  0
 12 13  1  0  0  0
 13 14  2  0  0  0
 12 15  1  0  0  0
 15 16  1  0  0  0
 15 17  2  0  0  0
  8  2  1  0  0  0
 14  9  1  0  0  0
 16 18  1  0  0  0
M  END
> <minimizedAffinity>
-7.74267

> <CNNscore>
0.4555757642

> <CNNaffinity>
5.3961677551

> <CNN_VS>
2.4583632946

> <CNNaffinity_variance>
0.2819983959

$$$$
[H]c1nc(N([H])c2c([H])c(OC([H])([H])[H])c([H])c(OC([H])([H])[H])c2[H])nc(N([H])c2nc3c(c([H])c2[H])OC(C([H])([H])[H])(C([H])([H])[H])C(=O)N3[H])c1F


 35 38  0  0  0  0  0  0  0  0999 V2000
   -0.9632  -54.0493  -21.4075 C   0  0  0  0  0  0  0  0  0  0  0  0
   -1.6591  -54.9782  -22.0761 N   0  0  0  0  0  0  0  0  0  0  0  0
   -1.5648  -55.1668  -23.3812 C   0  0  0  0  0  0  0  0  0  0  0  0
   -0.7133  -54.3779  -24.1072 C   0  0  0  0  0  0  0  0  0  0  0  0
   -0.5482  -54.4933  -25.4397 F   0  0  0  0  0  0  0  0  0  0  0  0
    0.0284  -53.3939  -23.4215 C   0  0  0  0  0  0  0  0  0  0  0  0
   -0.1151  -53.2613  -22.1200 N   0  0  0  0  0  0  0  0  0  0  0  0
   -1.1030  -53.8921  -20.0171 N   0  0  0  0  0  0  0  0  0  0  0  0
   -1.7152  -54.6577  -19.5544 H   0  0  0  0  0  0  0  0  0  0  0  0
   -0.7215  -51.8549  -16.9678 C   0  0  0  0  0  0  0  0  0  0  0  0
   -1.1498  -52.7502  -17.8957 C   0  0  0  0  0  0  0  0  0  0  0  0
   -0.5685  -52.9118  -19.1668 C   0  0  0  0  0  0  0  0  0  0  0  0
    0.4874  -52.0907  -19.4250 C   0  0  0  0  0  0  0  0  0  0  0  0
    0.9790  -51.1496  -18.5199 C   0  0  0  0  0  0  0  0  0  0  0  0
    0.3513  -51.0569  -17.2984 C   0  0  0  0  0  0  0  0  0  0  0  0
   -2.7301  -51.5296  -15.6186 C   0  0  0  0  0  0  0  0  0  0  0  0
   -1.3431  -51.7530  -15.7389 O   0  0  0  0  0  0  0  0  0  0  0  0
    2.0511  -50.3301  -18.8100 O   0  0  0  0  0  0  0  0  0  0  0  0
    2.0471  -48.9922  -18.3271 C   0  0  0  0  0  0  0  0  0  0  0  0
    0.8982  -52.5928  -24.1844 N   0  0  0  0  0  0  0  0  0  0  0  0
    0.5136  -52.1830  -25.1215 H   0  0  0  0  0  0  0  0  0  0  0  0
    2.2299  -52.2456  -23.8858 C   0  0  0  0  0  0  0  0  0  0  0  0
    3.3321  -52.6709  -24.5757 C   0  0  0  0  0  0  0  0  0  0  0  0
    4.6170  -52.2655  -24.1944 C   0  0  0  0  0  0  0  0  0  0  0  0
    4.7197  -51.4324  -23.1106 C   0  0  0  0  0  0  0  0  0  0  0  0
    5.9964  -51.0294  -22.7314 O   0  0  0  0  0  0  0  0  0  0  0  0
    6.1920  -49.9529  -21.8521 C   0  0  0  0  0  0  0  0  0  0  0  0
    6.3706  -48.6786  -22.6542 C   0  0  0  0  0  0  0  0  0  0  0  0
    7.4386  -50.2019  -21.0025 C   0  0  0  0  0  0  0  0  0  0  0  0
    5.0589  -49.7522  -20.9403 C   0  0  0  0  0  0  0  0  0  0  0  0
    5.2888  -49.2143  -19.8176 O   0  0  0  0  0  0  0  0  0  0  0  0
    3.7451  -50.1507  -21.3090 N   0  0  0  0  0  0  0  0  0  0  0  0
    3.5821  -51.0209  -22.4346 C   0  0  0  0  0  0  0  0  0  0  0  0
    2.3876  -51.4129  -22.8090 N   0  0  0  0  0  0  0  0  0  0  0  0
    2.9284  -49.8028  -20.7549 H   0  0  0  0  0  0  0  0  0  0  0  0
 16 17  1  0  0  0
 17 10  1  0  0  0
 10 11  2  0  0  0
 11 12  1  0  0  0
 12  8  1  0  0  0
  8  1  1  0  0  0
  1  2  2  0  0  0
  2  3  1  0  0  0
  3  4  2  0  0  0
  4  5  1  0  0  0
  4  6  1  0  0  0
  6 20  1  0  0  0
 20 22  1  0  0  0
 22 23  2  0  0  0
 23 24  1  0  0  0
 24 25  2  0  0  0
 25 26  1  0  0  0
 26 27  1  0  0  0
 27 28  1  0  0  0
 27 29  1  0  0  0
 27 30  1  0  0  0
 30 31  2  0  0  0
 30 32  1  0  0  0
 32 33  1  0  0  0
 33 34  2  0  0  0
  6  7  2  0  0  0
 12 13  2  0  0  0
 13 14  1  0  0  0
 14 18  1  0  0  0
 18 19  1  0  0  0
 14 15  2  0  0  0
 15 10  1  0  0  0
  7  1  1  0  0  0
 34 22  1  0  0  0
 33 25  1  0  0  0
  8  9  1  0  0  0
 20 21  1  0  0  0
 32 35  1  0  0  0
M  END
> <minimizedAffinity>
-8.05885

> <CNNscore>
0.7453334928

> <CNNaffinity>
7.1260461807

> <CNN_VS>
5.3112807274

> <CNNaffinity_variance>
0.0926039740

$$$$
[H]c1nc(N([H])c2c([H])c(OC([H])([H])[H])c([H])c(OC([H])([H])[H])c2[H])nc(N([H])c2nc3c(c([H])c2[H])OC(C([H])([H])[H])(C([H])([H])[H])C(=O)N3[H])c1F


 35 38  0  0  0  0  0  0  0  0999 V2000
   -1.2459  -53.9848  -21.3834 C   0  0  0  0  0  0  0  0  0  0  0  0
   -1.6068  -55.0999  -22.0319 N   0  0  0  0  0  0  0  0  0  0  0  0
   -1.3825  -55.3051  -23.3185 C   0  0  0  0  0  0  0  0  0  0  0  0
   -0.7466  -54.3348  -24.0455 C   0  0  0  0  0  0  0  0  0  0  0  0
   -0.4736  -54.4508  -25.3602 F   0  0  0  0  0  0  0  0  0  0  0  0
   -0.3585  -53.1532  -23.3809 C   0  0  0  0  0  0  0  0  0  0  0  0
   -0.6140  -53.0157  -22.0972 N   0  0  0  0  0  0  0  0  0  0  0  0
   -1.5102  -53.8193  -20.0122 N   0  0  0  0  0  0  0  0  0  0  0  0
   -2.2870  -54.4766  -19.6388 H   0  0  0  0  0  0  0  0  0  0  0  0
    0.7615  -51.2060  -18.7454 C   0  0  0  0  0  0  0  0  0  0  0  0
    0.1161  -52.1075  -19.5308 C   0  0  0  0  0  0  0  0  0  0  0  0
   -0.9188  -52.9492  -19.0832 C   0  0  0  0  0  0  0  0  0  0  0  0
   -1.2506  -52.8045  -17.7699 C   0  0  0  0  0  0  0  0  0  0  0  0
   -0.6302  -51.9004  -16.9072 C   0  0  0  0  0  0  0  0  0  0  0  0
    0.3734  -51.1148  -17.4270 C   0  0  0  0  0  0  0  0  0  0  0  0
    1.8371  -49.0285  -18.9942 C   0  0  0  0  0  0  0  0  0  0  0  0
    1.7696  -50.4124  -19.2559 O   0  0  0  0  0  0  0  0  0  0  0  0
   -0.9876  -51.7764  -15.5797 O   0  0  0  0  0  0  0  0  0  0  0  0
   -0.5014  -50.6659  -14.8354 C   0  0  0  0  0  0  0  0  0  0  0  0
    0.2935  -52.1674  -24.1446 N   0  0  0  0  0  0  0  0  0  0  0  0
   -0.3283  -51.5193  -24.7670 H   0  0  0  0  0  0  0  0  0  0  0  0
    1.6758  -51.9057  -24.2092 C   0  0  0  0  0  0  0  0  0  0  0  0
    2.6037  -52.7010  -24.8241 C   0  0  0  0  0  0  0  0  0  0  0  0
    3.9588  -52.3482  -24.8304 C   0  0  0  0  0  0  0  0  0  0  0  0
    4.3099  -51.1829  -24.1996 C   0  0  0  0  0  0  0  0  0  0  0  0
    5.6564  -50.8320  -24.2056 O   0  0  0  0  0  0  0  0  0  0  0  0
    6.0752  -49.5347  -23.8711 C   0  0  0  0  0  0  0  0  0  0  0  0
    6.1772  -48.7014  -25.1337 C   0  0  0  0  0  0  0  0  0  0  0  0
    7.4407  -49.5951  -23.1858 C   0  0  0  0  0  0  0  0  0  0  0  0
    5.1447  -48.8554  -22.9609 C   0  0  0  0  0  0  0  0  0  0  0  0
    5.6104  -47.9612  -22.1952 O   0  0  0  0  0  0  0  0  0  0  0  0
    3.7640  -49.1933  -22.9418 N   0  0  0  0  0  0  0  0  0  0  0  0
    3.3438  -50.4010  -23.5866 C   0  0  0  0  0  0  0  0  0  0  0  0
    2.0795  -50.7504  -23.5928 N   0  0  0  0  0  0  0  0  0  0  0  0
    3.0864  -48.5576  -22.4605 H   0  0  0  0  0  0  0  0  0  0  0  0
 16 17  1  0  0  0
 17 10  1  0  0  0
 10 11  2  0  0  0
 11 12  1  0  0  0
 12  8  1  0  0  0
  8  1  1  0  0  0
  1  2  2  0  0  0
  2  3  1  0  0  0
  3  4  2  0  0  0
  4  5  1  0  0  0
  4  6  1  0  0  0
  6 20  1  0  0  0
 20 22  1  0  0  0
 22 23  2  0  0  0
 23 24  1  0  0  0
 24 25  2  0  0  0
 25 26  1  0  0  0
 26 27  1  0  0  0
 27 28  1  0  0  0
 27 29  1  0  0  0
 27 30  1  0  0  0
 30 31  2  0  0  0
 30 32  1  0  0  0
 32 33  1  0  0  0
 33 34  2  0  0  0
  6  7  2  0  0  0
 12 13  2  0  0  0
 13 14  1  0  0  0
 14 18  1  0  0  0
 18 19  1  0  0  0
 14 15  2  0  0  0
 15 10  1  0  0  0
  7  1  1  0  0  0
 34 22  1  0  0  0
 33 25  1  0  0  0
  8  9  1  0  0  0
 20 21  1  0  0  0
 32 35  1  0  0  0
M  END
> <minimizedAffinity>
-7.86611

> <CNNscore>
0.5843842030

> <CNNaffinity>
6.9873342514

> <CNN_VS>
4.0832877159

> <CNNaffinity_variance>
0.1867037416

$$$$
[H]c1nc(N([H])c2c([H])c(OC([H])([H])[H])c([H])c(OC([H])([H])[H])c2[H])nc(N([H])c2nc3c(c([H])c2[H])OC(C([H])([H])[H])(C([H])([H])[H])C(=O)N3[H])c1F


 35 38  0  0  0  0  0  0  0  0999 V2000
   -0.5072  -53.6686  -22.0610 C   0  0  0  0  0  0  0  0  0  0  0  0
   -1.5084  -54.0364  -21.2508 N   0  0  0  0  0  0  0  0  0  0  0  0
   -1.5580  -53.7371  -19.9640 C   0  0  0  0  0  0  0  0  0  0  0  0
   -0.5378  -53.0109  -19.4105 C   0  0  0  0  0  0  0  0  0  0  0  0
   -0.4982  -52.6571  -18.1107 F   0  0  0  0  0  0  0  0  0  0  0  0
    0.5257  -52.6140  -20.2472 C   0  0  0  0  0  0  0  0  0  0  0  0
    0.5102  -52.9473  -21.5203 N   0  0  0  0  0  0  0  0  0  0  0  0
   -0.5056  -54.0152  -23.4239 N   0  0  0  0  0  0  0  0  0  0  0  0
   -0.9909  -54.9623  -23.6301 H   0  0  0  0  0  0  0  0  0  0  0  0
    0.1097  -53.1942  -26.9653 C   0  0  0  0  0  0  0  0  0  0  0  0
   -0.3103  -53.7813  -25.8142 C   0  0  0  0  0  0  0  0  0  0  0  0
    0.0168  -53.3203  -24.5257 C   0  0  0  0  0  0  0  0  0  0  0  0
    0.8069  -52.2111  -24.4950 C   0  0  0  0  0  0  0  0  0  0  0  0
    1.2742  -51.5585  -25.6362 C   0  0  0  0  0  0  0  0  0  0  0  0
    0.9068  -52.0761  -26.8576 C   0  0  0  0  0  0  0  0  0  0  0  0
   -0.5990  -52.8702  -29.2790 C   0  0  0  0  0  0  0  0  0  0  0  0
   -0.2526  -53.7044  -28.1963 O   0  0  0  0  0  0  0  0  0  0  0  0
    2.0747  -50.4357  -25.5739 O   0  0  0  0  0  0  0  0  0  0  0  0
    3.1505  -50.3038  -26.4951 C   0  0  0  0  0  0  0  0  0  0  0  0
    1.5650  -51.8685  -19.6604 N   0  0  0  0  0  0  0  0  0  0  0  0
    2.1417  -52.3475  -18.8654 H   0  0  0  0  0  0  0  0  0  0  0  0
    1.9637  -50.5551  -19.9756 C   0  0  0  0  0  0  0  0  0  0  0  0
    2.0755  -49.5261  -19.0809 C   0  0  0  0  0  0  0  0  0  0  0  0
    2.4816  -48.2531  -19.4996 C   0  0  0  0  0  0  0  0  0  0  0  0
    2.7588  -48.0861  -20.8317 C   0  0  0  0  0  0  0  0  0  0  0  0
    3.1623  -46.8212  -21.2482 O   0  0  0  0  0  0  0  0  0  0  0  0
    3.7597  -46.6207  -22.5024 C   0  0  0  0  0  0  0  0  0  0  0  0
    5.2666  -46.7079  -22.3578 C   0  0  0  0  0  0  0  0  0  0  0  0
    3.3761  -45.2421  -23.0411 C   0  0  0  0  0  0  0  0  0  0  0  0
    3.3470  -47.6219  -23.4938 C   0  0  0  0  0  0  0  0  0  0  0  0
    3.3679  -47.2907  -24.7156 O   0  0  0  0  0  0  0  0  0  0  0  0
    2.9368  -48.9222  -23.0917 N   0  0  0  0  0  0  0  0  0  0  0  0
    2.6349  -49.1504  -21.7106 C   0  0  0  0  0  0  0  0  0  0  0  0
    2.2530  -50.3351  -21.2968 N   0  0  0  0  0  0  0  0  0  0  0  0
    2.8639  -49.6820  -23.8076 H   0  0  0  0  0  0  0  0  0  0  0  0
 16 17  1  0  0  0
 17 10  1  0  0  0
 10 11  2  0  0  0
 11 12  1  0  0  0
 12  8  1  0  0  0
  8  1  1  0  0  0
  1  2  2  0  0  0
  2  3  1  0  0  0
  3  4  2  0  0  0
  4  5  1  0  0  0
  4  6  1  0  0  0
  6 20  1  0  0  0
 20 22  1  0  0  0
 22 23  2  0  0  0
 23 24  1  0  0  0
 24 25  2  0  0  0
 25 26  1  0  0  0
 26 27  1  0  0  0
 27 28  1  0  0  0
 27 29  1  0  0  0
 27 30  1  0  0  0
 30 31  2  0  0  0
 30 32  1  0  0  0
 32 33  1  0  0  0
 33 34  2  0  0  0
  6  7  2  0  0  0
 12 13  2  0  0  0
 13 14  1  0  0  0
 14 18  1  0  0  0
 18 19  1  0  0  0
 14 15  2  0  0  0
 15 10  1  0  0  0
  7  1  1  0  0  0
 34 22  1  0  0  0
 33 25  1  0  0  0
  8  9  1  0  0  0
 20 21  1  0  0  0
 32 35  1  0  0  0
M  END
> <minimizedAffinity>
-7.37275

> <CNNscore>
0.4985114634

> <CNNaffinity>
7.2285523415

> <CNN_VS>
3.6035161018

> <CNNaffinity_variance>
0.4004329145

$$$$
[H]c1nc(N([H])c2c([H])c(OC([H])([H])[H])c([H])c(OC([H])([H])[H])c2[H])nc(N([H])c2nc3c(c([H])c2[H])OC(C([H])([H])[H])(C([H])([H])[H])C(=O)N3[H])c1F


 35 38  0  0  0  0  0  0  0  0999 V2000
   -0.4664  -53.5637  -23.0148 C   0  0  0  0  0  0  0  0  0  0  0  0
   -0.7057  -54.4836  -22.0711 N   0  0  0  0  0  0  0  0  0  0  0  0
   -0.7569  -54.2118  -20.7783 C   0  0  0  0  0  0  0  0  0  0  0  0
   -0.5566  -52.9232  -20.3614 C   0  0  0  0  0  0  0  0  0  0  0  0
   -0.5890  -52.5477  -19.0675 F   0  0  0  0  0  0  0  0  0  0  0  0
   -0.3031  -51.9398  -21.3398 C   0  0  0  0  0  0  0  0  0  0  0  0
   -0.2662  -52.2814  -22.6102 N   0  0  0  0  0  0  0  0  0  0  0  0
   -0.4229  -53.9091  -24.3773 N   0  0  0  0  0  0  0  0  0  0  0  0
   -1.1713  -54.6394  -24.6627 H   0  0  0  0  0  0  0  0  0  0  0  0
    2.6820  -52.6688  -25.9315 C   0  0  0  0  0  0  0  0  0  0  0  0
    1.7494  -53.1100  -25.0473 C   0  0  0  0  0  0  0  0  0  0  0  0
    0.4278  -53.4467  -25.3933 C   0  0  0  0  0  0  0  0  0  0  0  0
    0.1238  -53.3012  -26.7132 C   0  0  0  0  0  0  0  0  0  0  0  0
    1.0307  -52.8535  -27.6743 C   0  0  0  0  0  0  0  0  0  0  0  0
    2.3034  -52.5454  -27.2500 C   0  0  0  0  0  0  0  0  0  0  0  0
    4.4186  -52.6476  -24.2156 C   0  0  0  0  0  0  0  0  0  0  0  0
    3.9619  -52.3570  -25.5176 O   0  0  0  0  0  0  0  0  0  0  0  0
    0.6935  -52.7152  -29.0056 O   0  0  0  0  0  0  0  0  0  0  0  0
   -0.6808  -52.7148  -29.3725 C   0  0  0  0  0  0  0  0  0  0  0  0
   -0.0996  -50.6213  -20.8922 N   0  0  0  0  0  0  0  0  0  0  0  0
   -0.8143  -50.2185  -20.1704 H   0  0  0  0  0  0  0  0  0  0  0  0
    0.9309  -49.7370  -21.2655 C   0  0  0  0  0  0  0  0  0  0  0  0
    1.3559  -48.6629  -20.5325 C   0  0  0  0  0  0  0  0  0  0  0  0
    2.3923  -47.8435  -20.9962 C   0  0  0  0  0  0  0  0  0  0  0  0
    2.9558  -48.1625  -22.2045 C   0  0  0  0  0  0  0  0  0  0  0  0
    3.9858  -47.3484  -22.6657 O   0  0  0  0  0  0  0  0  0  0  0  0
    4.8257  -47.7555  -23.7140 C   0  0  0  0  0  0  0  0  0  0  0  0
    6.0495  -48.4398  -23.1369 C   0  0  0  0  0  0  0  0  0  0  0  0
    5.2576  -46.5372  -24.5306 C   0  0  0  0  0  0  0  0  0  0  0  0
    4.1738  -48.7017  -24.6281 C   0  0  0  0  0  0  0  0  0  0  0  0
    4.5759  -48.7401  -25.8280 O   0  0  0  0  0  0  0  0  0  0  0  0
    3.1237  -49.5473  -24.1775 N   0  0  0  0  0  0  0  0  0  0  0  0
    2.5007  -49.2580  -22.9210 C   0  0  0  0  0  0  0  0  0  0  0  0
    1.5281  -50.0125  -22.4677 N   0  0  0  0  0  0  0  0  0  0  0  0
    2.8284  -50.3589  -24.7684 H   0  0  0  0  0  0  0  0  0  0  0  0
 16 17  1  0  0  0
 17 10  1  0  0  0
 10 11  2  0  0  0
 11 12  1  0  0  0
 12  8  1  0  0  0
  8  1  1  0  0  0
  1  2  2  0  0  0
  2  3  1  0  0  0
  3  4  2  0  0  0
  4  5  1  0  0  0
  4  6  1  0  0  0
  6 20  1  0  0  0
 20 22  1  0  0  0
 22 23  2  0  0  0
 23 24  1  0  0  0
 24 25  2  0  0  0
 25 26  1  0  0  0
 26 27  1  0  0  0
 27 28  1  0  0  0
 27 29  1  0  0  0
 27 30  1  0  0  0
 30 31  2  0  0  0
 30 32  1  0  0  0
 32 33  1  0  0  0
 33 34  2  0  0  0
  6  7  2  0  0  0
 12 13  2  0  0  0
 13 14  1  0  0  0
 14 18  1  0  0  0
 18 19  1  0  0  0
 14 15  2  0  0  0
 15 10  1  0  0  0
  7  1  1  0  0  0
 34 22  1  0  0  0
 33 25  1  0  0  0
  8  9  1  0  0  0
 20 21  1  0  0  0
 32 35  1  0  0  0
M  END
> <minimizedAffinity>
-7.96312

> <CNNscore>
0.4330065548

> <CNNaffinity>
6.9377403259

> <CNN_VS>
3.0040869713

> <CNNaffinity_variance>
0.1655246764

$$$$
[H]c1nc(N([H])c2c([H])c(OC([H])([H])[H])c([H])c(OC([H])([H])[H])c2[H])nc(N([H])c2nc3c(c([H])c2[H])OC(C([H])([H])[H])(C([H])([H])[H])C(=O)N3[H])c1F


 35 38  0  0  0  0  0  0  0  0999 V2000
    1.3161  -50.3507  -19.1898 C   0  0  0  0  0  0  0  0  0  0  0  0
    0.7014  -50.1437  -18.0179 N   0  0  0  0  0  0  0  0  0  0  0  0
   -0.1340  -51.0066  -17.4655 C   0  0  0  0  0  0  0  0  0  0  0  0
   -0.3982  -52.1838  -18.1128 C   0  0  0  0  0  0  0  0  0  0  0  0
   -1.2339  -53.1249  -17.6311 F   0  0  0  0  0  0  0  0  0  0  0  0
    0.2392  -52.4206  -19.3482 C   0  0  0  0  0  0  0  0  0  0  0  0
    1.0599  -51.5168  -19.8398 N   0  0  0  0  0  0  0  0  0  0  0  0
    2.1962  -49.3971  -19.7316 N   0  0  0  0  0  0  0  0  0  0  0  0
    2.6753  -48.7761  -18.9834 H   0  0  0  0  0  0  0  0  0  0  0  0
    2.8038  -47.4362  -22.7943 C   0  0  0  0  0  0  0  0  0  0  0  0
    2.4833  -47.8203  -21.5310 C   0  0  0  0  0  0  0  0  0  0  0  0
    2.5365  -49.1488  -21.0703 C   0  0  0  0  0  0  0  0  0  0  0  0
    2.9430  -50.0625  -21.9953 C   0  0  0  0  0  0  0  0  0  0  0  0
    3.2864  -49.7387  -23.3082 C   0  0  0  0  0  0  0  0  0  0  0  0
    3.2061  -48.4147  -23.6762 C   0  0  0  0  0  0  0  0  0  0  0  0
    3.6470  -45.1465  -22.7148 C   0  0  0  0  0  0  0  0  0  0  0  0
    2.7273  -46.1111  -23.1749 O   0  0  0  0  0  0  0  0  0  0  0  0
    3.6945  -50.6871  -24.2242 O   0  0  0  0  0  0  0  0  0  0  0  0
    4.3617  -51.8538  -23.7583 C   0  0  0  0  0  0  0  0  0  0  0  0
   -0.0448  -53.6357  -19.9986 N   0  0  0  0  0  0  0  0  0  0  0  0
   -0.0919  -54.5374  -19.3831 H   0  0  0  0  0  0  0  0  0  0  0  0
   -0.2808  -53.8401  -21.3718 C   0  0  0  0  0  0  0  0  0  0  0  0
   -1.0741  -54.8212  -21.9008 C   0  0  0  0  0  0  0  0  0  0  0  0
   -1.2422  -54.9380  -23.2860 C   0  0  0  0  0  0  0  0  0  0  0  0
   -0.5834  -54.0350  -24.0795 C   0  0  0  0  0  0  0  0  0  0  0  0
   -0.7501  -54.1508  -25.4562 O   0  0  0  0  0  0  0  0  0  0  0  0
   -0.3837  -53.1126  -26.3267 C   0  0  0  0  0  0  0  0  0  0  0  0
   -1.5846  -52.2204  -26.5740 C   0  0  0  0  0  0  0  0  0  0  0  0
    0.1000  -53.6993  -27.6532 C   0  0  0  0  0  0  0  0  0  0  0  0
    0.6932  -52.2732  -25.7868 C   0  0  0  0  0  0  0  0  0  0  0  0
    1.4499  -51.6776  -26.6086 O   0  0  0  0  0  0  0  0  0  0  0  0
    0.8786  -52.1354  -24.3841 N   0  0  0  0  0  0  0  0  0  0  0  0
    0.2124  -53.0536  -23.5102 C   0  0  0  0  0  0  0  0  0  0  0  0
    0.3559  -52.9622  -22.2095 N   0  0  0  0  0  0  0  0  0  0  0  0
    1.4938  -51.3712  -24.0201 H   0  0  0  0  0  0  0  0  0  0  0  0
 16 17  1  0  0  0
 17 10  1  0  0  0
 10 11  2  0  0  0
 11 12  1  0  0  0
 12  8  1  0  0  0
  8  1  1  0  0  0
  1  2  2  0  0  0
  2  3  1  0  0  0
  3  4  2  0  0  0
  4  5  1  0  0  0
  4  6  1  0  0  0
  6 20  1  0  0  0
 20 22  1  0  0  0
 22 23  2  0  0  0
 23 24  1  0  0  0
 24 25  2  0  0  0
 25 26  1  0  0  0
 26 27  1  0  0  0
 27 28  1  0  0  0
 27 29  1  0  0  0
 27 30  1  0  0  0
 30 31  2  0  0  0
 30 32  1  0  0  0
 32 33  1  0  0  0
 33 34  2  0  0  0
  6  7  2  0  0  0
 12 13  2  0  0  0
 13 14  1  0  0  0
 14 18  1  0  0  0
 18 19  1  0  0  0
 14 15  2  0  0  0
 15 10  1  0  0  0
  7  1  1  0  0  0
 34 22  1  0  0  0
 33 25  1  0  0  0
  8  9  1  0  0  0
 20 21  1  0  0  0
 32 35  1  0  0  0
M  END
> <minimizedAffinity>
-8.15737

> <CNNscore>
0.3487791419

> <CNNaffinity>
7.0636558533

> <CNN_VS>
2.4636557102

> <CNNaffinity_variance>
0.1334428042

$$$$
[H]c1nc(N([H])c2c([H])c(OC([H])([H])[H])c([H])c(OC([H])([H])[H])c2[H])nc(N([H])c2nc3c(c([H])c2[H])OC(C([H])([H])[H])(C([H])([H])[H])C(=O)N3[H])c1F


 35 38  0  0  0  0  0  0  0  0999 V2000
    1.1816  -51.5267  -21.4885 C   0  0  0  0  0  0  0  0  0  0  0  0
    0.4332  -51.8837  -22.5405 N   0  0  0  0  0  0  0  0  0  0  0  0
   -0.6204  -52.6776  -22.4551 C   0  0  0  0  0  0  0  0  0  0  0  0
   -0.9824  -53.1727  -21.2310 C   0  0  0  0  0  0  0  0  0  0  0  0
   -2.0388  -53.9880  -21.0425 F   0  0  0  0  0  0  0  0  0  0  0  0
   -0.2070  -52.8085  -20.1109 C   0  0  0  0  0  0  0  0  0  0  0  0
    0.8298  -52.0134  -20.2690 N   0  0  0  0  0  0  0  0  0  0  0  0
    2.2933  -50.6783  -21.6372 N   0  0  0  0  0  0  0  0  0  0  0  0
    2.9819  -50.7168  -20.8010 H   0  0  0  0  0  0  0  0  0  0  0  0
    3.0387  -47.4964  -23.3442 C   0  0  0  0  0  0  0  0  0  0  0  0
    2.7063  -48.4381  -22.4229 C   0  0  0  0  0  0  0  0  0  0  0  0
    2.6296  -49.8169  -22.6929 C   0  0  0  0  0  0  0  0  0  0  0  0
    2.9185  -50.1686  -23.9769 C   0  0  0  0  0  0  0  0  0  0  0  0
    3.2664  -49.2554  -24.9727 C   0  0  0  0  0  0  0  0  0  0  0  0
    3.3175  -47.9251  -24.6231 C   0  0  0  0  0  0  0  0  0  0  0  0
    2.7392  -45.1415  -23.9146 C   0  0  0  0  0  0  0  0  0  0  0  0
    3.0935  -46.1590  -23.0050 O   0  0  0  0  0  0  0  0  0  0  0  0
    3.5534  -49.6415  -26.2665 O   0  0  0  0  0  0  0  0  0  0  0  0
    2.9915  -50.8488  -26.7667 C   0  0  0  0  0  0  0  0  0  0  0  0
   -0.5943  -53.3271  -18.8615 N   0  0  0  0  0  0  0  0  0  0  0  0
   -0.5174  -54.4078  -18.7190 H   0  0  0  0  0  0  0  0  0  0  0  0
   -1.0789  -52.6136  -17.7482 C   0  0  0  0  0  0  0  0  0  0  0  0
   -0.4003  -51.6295  -17.0827 C   0  0  0  0  0  0  0  0  0  0  0  0
   -0.9748  -50.9804  -15.9831 C   0  0  0  0  0  0  0  0  0  0  0  0
   -2.2340  -51.3710  -15.6075 C   0  0  0  0  0  0  0  0  0  0  0  0
   -2.8053  -50.7261  -14.5147 O   0  0  0  0  0  0  0  0  0  0  0  0
   -4.1791  -50.8242  -14.2442 C   0  0  0  0  0  0  0  0  0  0  0  0
   -4.9024  -49.6670  -14.9050 C   0  0  0  0  0  0  0  0  0  0  0  0
   -4.4112  -50.7776  -12.7336 C   0  0  0  0  0  0  0  0  0  0  0  0
   -4.7696  -52.0690  -14.7519 C   0  0  0  0  0  0  0  0  0  0  0  0
   -5.7939  -52.5232  -14.1626 O   0  0  0  0  0  0  0  0  0  0  0  0
   -4.2065  -52.7416  -15.8705 N   0  0  0  0  0  0  0  0  0  0  0  0
   -2.8929  -52.3715  -16.3042 C   0  0  0  0  0  0  0  0  0  0  0  0
   -2.3359  -52.9665  -17.3319 N   0  0  0  0  0  0  0  0  0  0  0  0
   -4.7589  -53.4888  -16.3519 H   0  0  0  0  0  0  0  0  0  0  0  0
 16 17  1  0  0  0
 17 10  1  0  0  0
 10 11  2  0  0  0
 11 12  1  0  0  0
 12  8  1  0  0  0
  8  1  1  0  0  0
  1  2  2  0  0  0
  2  3  1  0  0  0
  3  4  2  0  0  0
  4  5  1  0  0  0
  4  6  1  0  0  0
  6 20  1  0  0  0
 20 22  1  0  0  0
 22 23  2  0  0  0
 23 24  1  0  0  0
 24 25  2  0  0  0
 25 26  1  0  0  0
 26 27  1  0  0  0
 27 28  1  0  0  0
 27 29  1  0  0  0
 27 30  1  0  0  0
 30 31  2  0  0  0
 30 32  1  0  0  0
 32 33  1  0  0  0
 33 34  2  0  0  0
  6  7  2  0  0  0
 12 13  2  0  0  0
 13 14  1  0  0  0
 14 18  1  0  0  0
 18 19  1  0  0  0
 14 15  2  0  0  0
 15 10  1  0  0  0
  7  1  1  0  0  0
 34 22  1  0  0  0
 33 25  1  0  0  0
  8  9  1  0  0  0
 20 21  1  0  0  0
 32 35  1  0  0  0
M  END
> <minimizedAffinity>
-7.46371

> <CNNscore>
0.2787492871

> <CNNaffinity>
6.3317270279

> <CNN_VS>
1.7649643421

> <CNNaffinity_variance>
0.0517708287

$$$$
[H]c1nc(N([H])c2c([H])c(OC([H])([H])[H])c([H])c(OC([H])([H])[H])c2[H])nc(N([H])c2nc3c(c([H])c2[H])OC(C([H])([H])[H])(C([H])([H])[H])C(=O)N3[H])c1F


 35 38  0  0  0  0  0  0  0  0999 V2000
   -0.4844  -53.5813  -23.0479 C   0  0  0  0  0  0  0  0  0  0  0  0
   -0.6770  -54.5204  -22.1124 N   0  0  0  0  0  0  0  0  0  0  0  0
   -0.6919  -54.2702  -20.8144 C   0  0  0  0  0  0  0  0  0  0  0  0
   -0.5016  -52.9849  -20.3828 C   0  0  0  0  0  0  0  0  0  0  0  0
   -0.4996  -52.6306  -19.0825 F   0  0  0  0  0  0  0  0  0  0  0  0
   -0.2971  -51.9816  -21.3523 C   0  0  0  0  0  0  0  0  0  0  0  0
   -0.2946  -52.3022  -22.6288 N   0  0  0  0  0  0  0  0  0  0  0  0
   -0.4781  -53.9042  -24.4166 N   0  0  0  0  0  0  0  0  0  0  0  0
   -1.2656  -54.5919  -24.7026 H   0  0  0  0  0  0  0  0  0  0  0  0
    2.6562  -52.7719  -25.9940 C   0  0  0  0  0  0  0  0  0  0  0  0
    1.7166  -53.1845  -25.1035 C   0  0  0  0  0  0  0  0  0  0  0  0
    0.3791  -53.4659  -25.4378 C   0  0  0  0  0  0  0  0  0  0  0  0
    0.0669  -53.2961  -26.7528 C   0  0  0  0  0  0  0  0  0  0  0  0
    0.9803  -52.8752  -27.7199 C   0  0  0  0  0  0  0  0  0  0  0  0
    2.2686  -52.6213  -27.3070 C   0  0  0  0  0  0  0  0  0  0  0  0
    4.3061  -52.4133  -24.2305 C   0  0  0  0  0  0  0  0  0  0  0  0
    3.9518  -52.5144  -25.5915 O   0  0  0  0  0  0  0  0  0  0  0  0
    0.6345  -52.7112  -29.0460 O   0  0  0  0  0  0  0  0  0  0  0  0
   -0.7420  -52.7115  -29.4050 C   0  0  0  0  0  0  0  0  0  0  0  0
   -0.1032  -50.6668  -20.8898 N   0  0  0  0  0  0  0  0  0  0  0  0
   -0.9517  -50.1706  -20.4123 H   0  0  0  0  0  0  0  0  0  0  0  0
    1.0714  -49.8938  -20.9665 C   0  0  0  0  0  0  0  0  0  0  0  0
    1.1161  -48.5298  -21.0634 C   0  0  0  0  0  0  0  0  0  0  0  0
    2.3414  -47.8559  -21.1343 C   0  0  0  0  0  0  0  0  0  0  0  0
    3.4818  -48.6160  -21.1028 C   0  0  0  0  0  0  0  0  0  0  0  0
    4.6998  -47.9467  -21.1734 O   0  0  0  0  0  0  0  0  0  0  0  0
    5.9049  -48.5849  -20.8407 C   0  0  0  0  0  0  0  0  0  0  0  0
    6.2133  -48.3383  -19.3767 C   0  0  0  0  0  0  0  0  0  0  0  0
    7.0377  -48.0280  -21.7034 C   0  0  0  0  0  0  0  0  0  0  0  0
    5.8535  -50.0374  -21.0483 C   0  0  0  0  0  0  0  0  0  0  0  0
    6.9392  -50.6403  -21.2945 O   0  0  0  0  0  0  0  0  0  0  0  0
    4.6215  -50.7428  -20.9750 N   0  0  0  0  0  0  0  0  0  0  0  0
    3.4001  -49.9960  -21.0041 C   0  0  0  0  0  0  0  0  0  0  0  0
    2.2412  -50.6070  -20.9387 N   0  0  0  0  0  0  0  0  0  0  0  0
    4.6310  -51.7867  -20.9016 H   0  0  0  0  0  0  0  0  0  0  0  0
 16 17  1  0  0  0
 17 10  1  0  0  0
 10 11  2  0  0  0
 11 12  1  0  0  0
 12  8  1  0  0  0
  8  1  1  0  0  0
  1  2  2  0  0  0
  2  3  1  0  0  0
  3  4  2  0  0  0
  4  5  1  0  0  0
  4  6  1  0  0  0
  6 20  1  0  0  0
 20 22  1  0  0  0
 22 23  2  0  0  0
 23 24  1  0  0  0
 24 25  2  0  0  0
 25 26  1  0  0  0
 26 27  1  0  0  0
 27 28  1  0  0  0
 27 29  1  0  0  0
 27 30  1  0  0  0
 30 31  2  0  0  0
 30 32  1  0  0  0
 32 33  1  0  0  0
 33 34  2  0  0  0
  6  7  2  0  0  0
 12 13  2  0  0  0
 13 14  1  0  0  0
 14 18  1  0  0  0
 18 19  1  0  0  0
 14 15  2  0  0  0
 15 10  1  0  0  0
  7  1  1  0  0  0
 34 22  1  0  0  0
 33 25  1  0  0  0
  8  9  1  0  0  0
 20 21  1  0  0  0
 32 35  1  0  0  0
M  END
> <minimizedAffinity>
-8.15608

> <CNNscore>
0.2417528778

> <CNNaffinity>
6.8024306297

> <CNN_VS>
1.6445071697

> <CNNaffinity_variance>
0.2076790035

$$$$
[H]c1nc(N([H])c2c([H])c(OC([H])([H])[H])c([H])c(OC([H])([H])[H])c2[H])nc(N([H])c2nc3c(c([H])c2[H])OC(C([H])([H])[H])(C([H])([H])[H])C(=O)N3[H])c1F


 35 38  0  0  0  0  0  0  0  0999 V2000
    1.7880  -50.5071  -21.6080 C   0  0  0  0  0  0  0  0  0  0  0  0
    1.8345  -49.1688  -21.6398 N   0  0  0  0  0  0  0  0  0  0  0  0
    1.8527  -48.4098  -20.5575 C   0  0  0  0  0  0  0  0  0  0  0  0
    1.8229  -49.0072  -19.3260 C   0  0  0  0  0  0  0  0  0  0  0  0
    1.8379  -48.3202  -18.1666 F   0  0  0  0  0  0  0  0  0  0  0  0
    1.7737  -50.4154  -19.2713 C   0  0  0  0  0  0  0  0  0  0  0  0
    1.7580  -51.1091  -20.3896 N   0  0  0  0  0  0  0  0  0  0  0  0
    1.7703  -51.2656  -22.7920 N   0  0  0  0  0  0  0  0  0  0  0  0
    2.5588  -51.0012  -23.4872 H   0  0  0  0  0  0  0  0  0  0  0  0
   -0.7663  -53.9174  -22.4342 C   0  0  0  0  0  0  0  0  0  0  0  0
    0.1271  -52.9228  -22.1919 C   0  0  0  0  0  0  0  0  0  0  0  0
    0.9010  -52.2949  -23.1852 C   0  0  0  0  0  0  0  0  0  0  0  0
    0.6969  -52.7562  -24.4506 C   0  0  0  0  0  0  0  0  0  0  0  0
   -0.2028  -53.7733  -24.7708 C   0  0  0  0  0  0  0  0  0  0  0  0
   -0.9199  -54.3336  -23.7381 C   0  0  0  0  0  0  0  0  0  0  0  0
   -1.6797  -53.8323  -20.1717 C   0  0  0  0  0  0  0  0  0  0  0  0
   -1.4914  -54.4869  -21.4063 O   0  0  0  0  0  0  0  0  0  0  0  0
   -0.3880  -54.2208  -26.0634 O   0  0  0  0  0  0  0  0  0  0  0  0
    0.0830  -55.5150  -26.4193 C   0  0  0  0  0  0  0  0  0  0  0  0
    1.7435  -51.0113  -17.9968 N   0  0  0  0  0  0  0  0  0  0  0  0
    2.6261  -51.5738  -17.6827 H   0  0  0  0  0  0  0  0  0  0  0  0
    0.6966  -50.9732  -17.0556 C   0  0  0  0  0  0  0  0  0  0  0  0
    0.6870  -50.2207  -15.9131 C   0  0  0  0  0  0  0  0  0  0  0  0
   -0.4079  -50.2557  -15.0408 C   0  0  0  0  0  0  0  0  0  0  0  0
   -1.4580  -51.0690  -15.3795 C   0  0  0  0  0  0  0  0  0  0  0  0
   -2.5462  -51.1042  -14.5129 O   0  0  0  0  0  0  0  0  0  0  0  0
   -3.7787  -51.6469  -14.9088 C   0  0  0  0  0  0  0  0  0  0  0  0
   -4.6569  -50.5416  -15.4621 C   0  0  0  0  0  0  0  0  0  0  0  0
   -4.4666  -52.2938  -13.7062 C   0  0  0  0  0  0  0  0  0  0  0  0
   -3.6386  -52.6710  -15.9516 C   0  0  0  0  0  0  0  0  0  0  0  0
   -4.5270  -53.5701  -16.0232 O   0  0  0  0  0  0  0  0  0  0  0  0
   -2.5385  -52.6514  -16.8517 N   0  0  0  0  0  0  0  0  0  0  0  0
   -1.4151  -51.8181  -16.5447 C   0  0  0  0  0  0  0  0  0  0  0  0
   -0.3792  -51.7701  -17.3479 N   0  0  0  0  0  0  0  0  0  0  0  0
   -2.5707  -53.2421  -17.7149 H   0  0  0  0  0  0  0  0  0  0  0  0
 16 17  1  0  0  0
 17 10  1  0  0  0
 10 11  2  0  0  0
 11 12  1  0  0  0
 12  8  1  0  0  0
  8  1  1  0  0  0
  1  2  2  0  0  0
  2  3  1  0  0  0
  3  4  2  0  0  0
  4  5  1  0  0  0
  4  6  1  0  0  0
  6 20  1  0  0  0
 20 22  1  0  0  0
 22 23  2  0  0  0
 23 24  1  0  0  0
 24 25  2  0  0  0
 25 26  1  0  0  0
 26 27  1  0  0  0
 27 28  1  0  0  0
 27 29  1  0  0  0
 27 30  1  0  0  0
 30 31  2  0  0  0
 30 32  1  0  0  0
 32 33  1  0  0  0
 33 34  2  0  0  0
  6  7  2  0  0  0
 12 13  2  0  0  0
 13 14  1  0  0  0
 14 18  1  0  0  0
 18 19  1  0  0  0
 14 15  2  0  0  0
 15 10  1  0  0  0
  7  1  1  0  0  0
 34 22  1  0  0  0
 33 25  1  0  0  0
  8  9  1  0  0  0
 20 21  1  0  0  0
 32 35  1  0  0  0
M  END
> <minimizedAffinity>
-7.75676

> <CNNscore>
0.2344749123

> <CNNaffinity>
6.7456908226

> <CNN_VS>
1.5816953182

> <CNNaffinity_variance>
0.0605997220

$$$$
[H]c1nc(N([H])c2c([H])c(OC([H])([H])[H])c([H])c(OC([H])([H])[H])c2[H])nc(N([H])c2nc3c(c([H])c2[H])OC(C([H])([H])[H])(C([H])([H])[H])C(=O)N3[H])c1F


 35 38  0  0  0  0  0  0  0  0999 V2000
    0.8861  -51.0534  -21.6502 C   0  0  0  0  0  0  0  0  0  0  0  0
    0.4264  -51.7116  -22.7223 N   0  0  0  0  0  0  0  0  0  0  0  0
   -0.2745  -52.8303  -22.6511 C   0  0  0  0  0  0  0  0  0  0  0  0
   -0.5564  -53.3610  -21.4209 C   0  0  0  0  0  0  0  0  0  0  0  0
   -1.2627  -54.4953  -21.2455 F   0  0  0  0  0  0  0  0  0  0  0  0
   -0.0813  -52.6827  -20.2796 C   0  0  0  0  0  0  0  0  0  0  0  0
    0.6111  -51.5729  -20.4244 N   0  0  0  0  0  0  0  0  0  0  0  0
    1.6277  -49.8662  -21.7845 N   0  0  0  0  0  0  0  0  0  0  0  0
    1.3452  -49.0968  -21.0751 H   0  0  0  0  0  0  0  0  0  0  0  0
    4.7840  -50.2835  -23.6440 C   0  0  0  0  0  0  0  0  0  0  0  0
    3.7309  -50.4547  -22.8028 C   0  0  0  0  0  0  0  0  0  0  0  0
    2.6602  -49.5499  -22.6810 C   0  0  0  0  0  0  0  0  0  0  0  0
    2.7406  -48.4522  -23.4836 C   0  0  0  0  0  0  0  0  0  0  0  0
    3.7918  -48.2129  -24.3693 C   0  0  0  0  0  0  0  0  0  0  0  0
    4.7990  -49.1494  -24.4255 C   0  0  0  0  0  0  0  0  0  0  0  0
    5.5829  -52.5271  -24.1812 C   0  0  0  0  0  0  0  0  0  0  0  0
    5.8001  -51.2164  -23.7092 O   0  0  0  0  0  0  0  0  0  0  0  0
    3.8465  -47.0902  -25.1703 O   0  0  0  0  0  0  0  0  0  0  0  0
    3.1738  -45.9094  -24.7498 C   0  0  0  0  0  0  0  0  0  0  0  0
   -0.3807  -53.2434  -19.0241 N   0  0  0  0  0  0  0  0  0  0  0  0
   -0.1933  -54.3118  -18.8920 H   0  0  0  0  0  0  0  0  0  0  0  0
   -0.9027  -52.5869  -17.8928 C   0  0  0  0  0  0  0  0  0  0  0  0
   -0.2675  -51.6028  -17.1859 C   0  0  0  0  0  0  0  0  0  0  0  0
   -0.8769  -51.0134  -16.0715 C   0  0  0  0  0  0  0  0  0  0  0  0
   -2.1249  -51.4619  -15.7245 C   0  0  0  0  0  0  0  0  0  0  0  0
   -2.7308  -50.8764  -14.6170 O   0  0  0  0  0  0  0  0  0  0  0  0
   -4.1030  -51.0333  -14.3664 C   0  0  0  0  0  0  0  0  0  0  0  0
   -4.8609  -49.8805  -14.9955 C   0  0  0  0  0  0  0  0  0  0  0  0
   -4.3526  -51.0476  -12.8579 C   0  0  0  0  0  0  0  0  0  0  0  0
   -4.6423  -52.2800  -14.9235 C   0  0  0  0  0  0  0  0  0  0  0  0
   -5.6557  -52.7910  -14.3624 O   0  0  0  0  0  0  0  0  0  0  0  0
   -4.0433  -52.8927  -16.0578 N   0  0  0  0  0  0  0  0  0  0  0  0
   -2.7395  -52.4606  -16.4629 C   0  0  0  0  0  0  0  0  0  0  0  0
   -2.1504  -52.9991  -17.5039 N   0  0  0  0  0  0  0  0  0  0  0  0
   -4.5630  -53.6420  -16.5711 H   0  0  0  0  0  0  0  0  0  0  0  0
 16 17  1  0  0  0
 17 10  1  0  0  0
 10 11  2  0  0  0
 11 12  1  0  0  0
 12  8  1  0  0  0
  8  1  1  0  0  0
  1  2  2  0  0  0
  2  3  1  0  0  0
  3  4  2  0  0  0
  4  5  1  0  0  0
  4  6  1  0  0  0
  6 20  1  0  0  0
 20 22  1  0  0  0
 22 23  2  0  0  0
 23 24  1  0  0  0
 24 25  2  0  0  0
 25 26  1  0  0  0
 26 27  1  0  0  0
 27 28  1  0  0  0
 27 29  1  0  0  0
 27 30  1  0  0  0
 30 31  2  0  0  0
 30 32  1  0  0  0
 32 33  1  0  0  0
 33 34  2  0  0  0
  6  7  2  0  0  0
 12 13  2  0  0  0
 13 14  1  0  0  0
 14 18  1  0  0  0
 18 19  1  0  0  0
 14 15  2  0  0  0
 15 10  1  0  0  0
  7  1  1  0  0  0
 34 22  1  0  0  0
 33 25  1  0  0  0
  8  9  1  0  0  0
 20 21  1  0  0  0
 32 35  1  0  0  0
M  END
> <minimizedAffinity>
-7.22413

> <CNNscore>
0.2344299108

> <CNNaffinity>
6.4065961838

> <CNN_VS>
1.5018978119

> <CNNaffinity_variance>
0.0629424006

$$$$
[H]C([H])=C([H])C(=O)N([H])c1sc(N([H])c2c([H])c([H])c3c([H])c([H])c([H])c([H])c3c2[H])nc1C(=O)N([H])[H]


 28 30  0  0  0  0  0  0  0  0999 V2000
   -0.4479  -53.5869  -22.6670 C   0  0  0  0  0  0  0  0  0  0  0  0
   -0.6108  -54.0150  -21.4540 N   0  0  0  0  0  0  0  0  0  0  0  0
   -0.1989  -53.3543  -20.4196 C   0  0  0  0  0  0  0  0  0  0  0  0
    0.5064  -51.9622  -21.1826 S   0  0  0  0  0  0  0  0  0  0  0  0
    0.1839  -52.3932  -22.8321 C   0  0  0  0  0  0  0  0  0  0  0  0
   -1.5756  -55.6529  -23.6441 N   0  0  0  0  0  0  0  0  0  0  0  0
   -0.9377  -54.3806  -23.8183 C   0  0  0  0  0  0  0  0  0  0  0  0
   -0.8266  -53.9950  -24.9991 O   0  0  0  0  0  0  0  0  0  0  0  0
   -0.9794  -56.4883  -23.5271 H   0  0  0  0  0  0  0  0  0  0  0  0
   -2.6111  -55.7648  -23.6314 H   0  0  0  0  0  0  0  0  0  0  0  0
    0.5406  -51.6126  -23.9628 N   0  0  0  0  0  0  0  0  0  0  0  0
    1.7983  -51.7742  -24.5953 C   0  0  0  0  0  0  0  0  0  0  0  0
    2.6010  -52.6197  -24.1444 O   0  0  0  0  0  0  0  0  0  0  0  0
   -0.1022  -50.9140  -24.3486 H   0  0  0  0  0  0  0  0  0  0  0  0
    2.1819  -50.9885  -25.7493 C   0  0  0  0  0  0  0  0  0  0  0  0
    2.6373  -51.5514  -26.8462 C   0  0  0  0  0  0  0  0  0  0  0  0
   -0.2453  -53.5848  -19.0178 N   0  0  0  0  0  0  0  0  0  0  0  0
    0.2437  -54.4692  -18.6804 H   0  0  0  0  0  0  0  0  0  0  0  0
   -0.8553  -52.7885  -18.0404 C   0  0  0  0  0  0  0  0  0  0  0  0
   -0.2911  -51.6787  -17.4638 C   0  0  0  0  0  0  0  0  0  0  0  0
   -0.9496  -50.9218  -16.4910 C   0  0  0  0  0  0  0  0  0  0  0  0
   -2.2096  -51.2623  -16.0641 C   0  0  0  0  0  0  0  0  0  0  0  0
   -2.8764  -50.5222  -15.1002 C   0  0  0  0  0  0  0  0  0  0  0  0
   -4.1393  -50.8575  -14.6676 C   0  0  0  0  0  0  0  0  0  0  0  0
   -4.7256  -51.9628  -15.2283 C   0  0  0  0  0  0  0  0  0  0  0  0
   -4.0710  -52.7046  -16.1868 C   0  0  0  0  0  0  0  0  0  0  0  0
   -2.8038  -52.3715  -16.6235 C   0  0  0  0  0  0  0  0  0  0  0  0
   -2.1405  -53.1008  -17.5768 C   0  0  0  0  0  0  0  0  0  0  0  0
  6  7  1  0  0  0
  7  8  2  0  0  0
  7  1  1  0  0  0
  1  2  1  0  0  0
  2  3  2  0  0  0
  3 17  1  0  0  0
 17 19  1  0  0  0
 19 20  2  0  0  0
 20 21  1  0  0  0
 21 22  2  0  0  0
 22 23  1  0  0  0
 23 24  2  0  0  0
 24 25  1  0  0  0
 25 26  2  0  0  0
 26 27  1  0  0  0
 27 28  2  0  0  0
  3  4  1  0  0  0
  4  5  1  0  0  0
  5 11  1  0  0  0
 11 12  1  0  0  0
 12 13  2  0  0  0
 12 15  1  0  0  0
 15 16  2  0  0  0
  5  1  2  0  0  0
 28 19  1  0  0  0
 27 22  1  0  0  0
  6  9  1  0  0  0
  6 10  1  0  0  0
 17 18  1  0  0  0
 11 14  1  0  0  0
M  END
> <minimizedAffinity>
-7.59489

> <CNNscore>
0.8150265217

> <CNNaffinity>
6.1952743530

> <CNN_VS>
5.0493130684

> <CNNaffinity_variance>
0.0451897755

$$$$
[H]C([H])=C([H])C(=O)N([H])c1sc(N([H])c2c([H])c([H])c3c([H])c([H])c([H])c([H])c3c2[H])nc1C(=O)N([H])[H]


 28 30  0  0  0  0  0  0  0  0999 V2000
   -0.0893  -53.6220  -21.9942 C   0  0  0  0  0  0  0  0  0  0  0  0
    0.5989  -53.2324  -23.0216 N   0  0  0  0  0  0  0  0  0  0  0  0
    1.6223  -52.4461  -22.9187 C   0  0  0  0  0  0  0  0  0  0  0  0
    1.6673  -52.1943  -21.2004 S   0  0  0  0  0  0  0  0  0  0  0  0
    0.3003  -53.1726  -20.7704 C   0  0  0  0  0  0  0  0  0  0  0  0
   -1.3966  -55.3650  -23.3162 N   0  0  0  0  0  0  0  0  0  0  0  0
   -1.2531  -54.5230  -22.1645 C   0  0  0  0  0  0  0  0  0  0  0  0
   -2.1715  -54.6042  -21.3247 O   0  0  0  0  0  0  0  0  0  0  0  0
   -1.7916  -54.9541  -24.1777 H   0  0  0  0  0  0  0  0  0  0  0  0
   -1.1189  -56.3689  -23.3159 H   0  0  0  0  0  0  0  0  0  0  0  0
   -0.1788  -53.3669  -19.4484 N   0  0  0  0  0  0  0  0  0  0  0  0
   -0.3698  -52.2703  -18.5715 C   0  0  0  0  0  0  0  0  0  0  0  0
   -0.1101  -51.1165  -18.9760 O   0  0  0  0  0  0  0  0  0  0  0  0
   -0.3978  -54.3041  -19.0966 H   0  0  0  0  0  0  0  0  0  0  0  0
   -0.8574  -52.4465  -17.2196 C   0  0  0  0  0  0  0  0  0  0  0  0
   -1.0196  -51.4265  -16.4068 C   0  0  0  0  0  0  0  0  0  0  0  0
    2.5300  -51.8789  -23.8539 N   0  0  0  0  0  0  0  0  0  0  0  0
    3.0729  -52.5760  -24.4493 H   0  0  0  0  0  0  0  0  0  0  0  0
    2.7887  -50.5209  -24.0783 C   0  0  0  0  0  0  0  0  0  0  0  0
    2.8478  -49.5585  -23.1021 C   0  0  0  0  0  0  0  0  0  0  0  0
    3.1104  -48.2159  -23.3872 C   0  0  0  0  0  0  0  0  0  0  0  0
    3.3238  -47.7962  -24.6772 C   0  0  0  0  0  0  0  0  0  0  0  0
    3.5854  -46.4682  -24.9767 C   0  0  0  0  0  0  0  0  0  0  0  0
    3.8003  -46.0404  -26.2672 C   0  0  0  0  0  0  0  0  0  0  0  0
    3.7467  -46.9828  -27.2616 C   0  0  0  0  0  0  0  0  0  0  0  0
    3.4873  -48.3047  -26.9738 C   0  0  0  0  0  0  0  0  0  0  0  0
    3.2711  -48.7380  -25.6804 C   0  0  0  0  0  0  0  0  0  0  0  0
    3.0120  -50.0506  -25.3795 C   0  0  0  0  0  0  0  0  0  0  0  0
  6  7  1  0  0  0
  7  8  2  0  0  0
  7  1  1  0  0  0
  1  2  1  0  0  0
  2  3  2  0  0  0
  3 17  1  0  0  0
 17 19  1  0  0  0
 19 20  2  0  0  0
 20 21  1  0  0  0
 21 22  2  0  0  0
 22 23  1  0  0  0
 23 24  2  0  0  0
 24 25  1  0  0  0
 25 26  2  0  0  0
 26 27  1  0  0  0
 27 28  2  0  0  0
  3  4  1  0  0  0
  4  5  1  0  0  0
  5 11  1  0  0  0
 11 12  1  0  0  0
 12 13  2  0  0  0
 12 15  1  0  0  0
 15 16  2  0  0  0
  5  1  2  0  0  0
 28 19  1  0  0  0
 27 22  1  0  0  0
  6  9  1  0  0  0
  6 10  1  0  0  0
 17 18  1  0  0  0
 11 14  1  0  0  0
M  END
> <minimizedAffinity>
-6.45019

> <CNNscore>
0.7755863070

> <CNNaffinity>
6.2059965134

> <CNN_VS>
4.8132858276

> <CNNaffinity_variance>
0.1778876781

$$$$
[H]C([H])=C([H])C(=O)N([H])c1sc(N([H])c2c([H])c([H])c3c([H])c([H])c([H])c([H])c3c2[H])nc1C(=O)N([H])[H]


 28 30  0  0  0  0  0  0  0  0999 V2000
   -0.2733  -53.4196  -21.6329 C   0  0  0  0  0  0  0  0  0  0  0  0
   -0.8815  -53.6709  -20.5158 N   0  0  0  0  0  0  0  0  0  0  0  0
   -0.4658  -53.2162  -19.3772 C   0  0  0  0  0  0  0  0  0  0  0  0
    0.9396  -52.3254  -19.8764 S   0  0  0  0  0  0  0  0  0  0  0  0
    0.8438  -52.6445  -21.5792 C   0  0  0  0  0  0  0  0  0  0  0  0
   -1.4923  -55.2118  -22.9732 N   0  0  0  0  0  0  0  0  0  0  0  0
   -0.7892  -53.9639  -22.9108 C   0  0  0  0  0  0  0  0  0  0  0  0
   -0.6453  -53.3758  -24.0011 O   0  0  0  0  0  0  0  0  0  0  0  0
   -0.9404  -56.0842  -23.0094 H   0  0  0  0  0  0  0  0  0  0  0  0
   -2.5323  -55.2707  -22.9832 H   0  0  0  0  0  0  0  0  0  0  0  0
    1.7583  -52.1614  -22.5513 N   0  0  0  0  0  0  0  0  0  0  0  0
    1.8499  -50.7781  -22.8451 C   0  0  0  0  0  0  0  0  0  0  0  0
    1.1102  -49.9770  -22.2341 O   0  0  0  0  0  0  0  0  0  0  0  0
    2.3738  -52.8006  -23.0638 H   0  0  0  0  0  0  0  0  0  0  0  0
    2.7757  -50.2645  -23.8328 C   0  0  0  0  0  0  0  0  0  0  0  0
    3.1588  -49.0073  -23.8305 C   0  0  0  0  0  0  0  0  0  0  0  0
   -0.9280  -53.3343  -18.0382 N   0  0  0  0  0  0  0  0  0  0  0  0
   -0.9850  -54.3275  -17.6570 H   0  0  0  0  0  0  0  0  0  0  0  0
   -1.3130  -52.3026  -17.1728 C   0  0  0  0  0  0  0  0  0  0  0  0
   -0.5063  -51.2671  -16.7736 C   0  0  0  0  0  0  0  0  0  0  0  0
   -0.9470  -50.2641  -15.9060 C   0  0  0  0  0  0  0  0  0  0  0  0
   -2.2268  -50.2727  -15.4082 C   0  0  0  0  0  0  0  0  0  0  0  0
   -2.6795  -49.2855  -14.5468 C   0  0  0  0  0  0  0  0  0  0  0  0
   -3.9608  -49.2877  -14.0441 C   0  0  0  0  0  0  0  0  0  0  0  0
   -4.7874  -50.3121  -14.4276 C   0  0  0  0  0  0  0  0  0  0  0  0
   -4.3467  -51.2977  -15.2832 C   0  0  0  0  0  0  0  0  0  0  0  0
   -3.0619  -51.2991  -15.7898 C   0  0  0  0  0  0  0  0  0  0  0  0
   -2.6098  -52.2737  -16.6422 C   0  0  0  0  0  0  0  0  0  0  0  0
  6  7  1  0  0  0
  7  8  2  0  0  0
  7  1  1  0  0  0
  1  2  1  0  0  0
  2  3  2  0  0  0
  3 17  1  0  0  0
 17 19  1  0  0  0
 19 20  2  0  0  0
 20 21  1  0  0  0
 21 22  2  0  0  0
 22 23  1  0  0  0
 23 24  2  0  0  0
 24 25  1  0  0  0
 25 26  2  0  0  0
 26 27  1  0  0  0
 27 28  2  0  0  0
  3  4  1  0  0  0
  4  5  1  0  0  0
  5 11  1  0  0  0
 11 12  1  0  0  0
 12 13  2  0  0  0
 12 15  1  0  0  0
 15 16  2  0  0  0
  5  1  2  0  0  0
 28 19  1  0  0  0
 27 22  1  0  0  0
  6  9  1  0  0  0
  6 10  1  0  0  0
 17 18  1  0  0  0
 11 14  1  0  0  0
M  END
> <minimizedAffinity>
-6.85000

> <CNNscore>
0.7664948702

> <CNNaffinity>
6.0230369568

> <CNN_VS>
4.6166267395

> <CNNaffinity_variance>
0.0612356067

$$$$
[H]C([H])=C([H])C(=O)N([H])c1sc(N([H])c2c([H])c([H])c3c([H])c([H])c([H])c([H])c3c2[H])nc1C(=O)N([H])[H]


 28 30  0  0  0  0  0  0  0  0999 V2000
   -0.3065  -53.5485  -22.8249 C   0  0  0  0  0  0  0  0  0  0  0  0
   -0.4706  -53.9456  -21.6016 N   0  0  0  0  0  0  0  0  0  0  0  0
    0.0455  -53.3232  -20.5906 C   0  0  0  0  0  0  0  0  0  0  0  0
    0.8670  -52.0211  -21.3953 S   0  0  0  0  0  0  0  0  0  0  0  0
    0.4421  -52.4304  -23.0270 C   0  0  0  0  0  0  0  0  0  0  0  0
   -1.4426  -55.6199  -23.7804 N   0  0  0  0  0  0  0  0  0  0  0  0
   -0.9184  -54.2960  -23.9483 C   0  0  0  0  0  0  0  0  0  0  0  0
   -1.0146  -53.8245  -25.0989 O   0  0  0  0  0  0  0  0  0  0  0  0
   -0.7854  -56.4159  -23.8190 H   0  0  0  0  0  0  0  0  0  0  0  0
   -2.4549  -55.8072  -23.6219 H   0  0  0  0  0  0  0  0  0  0  0  0
    0.8392  -51.7026  -24.1792 N   0  0  0  0  0  0  0  0  0  0  0  0
    2.0100  -52.0520  -24.8970 C   0  0  0  0  0  0  0  0  0  0  0  0
    2.6988  -53.0177  -24.5029 O   0  0  0  0  0  0  0  0  0  0  0  0
    0.2893  -50.9077  -24.5195 H   0  0  0  0  0  0  0  0  0  0  0  0
    2.4328  -51.3231  -26.0744 C   0  0  0  0  0  0  0  0  0  0  0  0
    2.8272  -51.9428  -27.1642 C   0  0  0  0  0  0  0  0  0  0  0  0
    0.0249  -53.5345  -19.1852 N   0  0  0  0  0  0  0  0  0  0  0  0
    0.4596  -54.4479  -18.8507 H   0  0  0  0  0  0  0  0  0  0  0  0
   -0.4974  -52.6861  -18.2008 C   0  0  0  0  0  0  0  0  0  0  0  0
   -1.6186  -52.9435  -17.4531 C   0  0  0  0  0  0  0  0  0  0  0  0
   -2.0931  -52.0569  -16.4827 C   0  0  0  0  0  0  0  0  0  0  0  0
   -1.4467  -50.8714  -16.2324 C   0  0  0  0  0  0  0  0  0  0  0  0
   -1.9044  -49.9812  -15.2734 C   0  0  0  0  0  0  0  0  0  0  0  0
   -1.2617  -48.7913  -15.0171 C   0  0  0  0  0  0  0  0  0  0  0  0
   -0.1382  -48.5102  -15.7509 C   0  0  0  0  0  0  0  0  0  0  0  0
    0.3242  -49.3885  -16.7060 C   0  0  0  0  0  0  0  0  0  0  0  0
   -0.3177  -50.5833  -16.9662 C   0  0  0  0  0  0  0  0  0  0  0  0
    0.1315  -51.4669  -17.9140 C   0  0  0  0  0  0  0  0  0  0  0  0
  6  7  1  0  0  0
  7  8  2  0  0  0
  7  1  1  0  0  0
  1  2  1  0  0  0
  2  3  2  0  0  0
  3 17  1  0  0  0
 17 19  1  0  0  0
 19 20  2  0  0  0
 20 21  1  0  0  0
 21 22  2  0  0  0
 22 23  1  0  0  0
 23 24  2  0  0  0
 24 25  1  0  0  0
 25 26  2  0  0  0
 26 27  1  0  0  0
 27 28  2  0  0  0
  3  4  1  0  0  0
  4  5  1  0  0  0
  5 11  1  0  0  0
 11 12  1  0  0  0
 12 13  2  0  0  0
 12 15  1  0  0  0
 15 16  2  0  0  0
  5  1  2  0  0  0
 28 19  1  0  0  0
 27 22  1  0  0  0
  6  9  1  0  0  0
  6 10  1  0  0  0
 17 18  1  0  0  0
 11 14  1  0  0  0
M  END
> <minimizedAffinity>
-7.27071

> <CNNscore>
0.7516687512

> <CNNaffinity>
6.1976094246

> <CNN_VS>
4.6585493088

> <CNNaffinity_variance>
0.0759907365

$$$$
[H]C([H])=C([H])C(=O)N([H])c1sc(N([H])c2c([H])c([H])c3c([H])c([H])c([H])c([H])c3c2[H])nc1C(=O)N([H])[H]


 28 30  0  0  0  0  0  0  0  0999 V2000
   -0.4941  -53.7951  -22.8153 C   0  0  0  0  0  0  0  0  0  0  0  0
   -0.0058  -53.6902  -21.6188 N   0  0  0  0  0  0  0  0  0  0  0  0
    0.7549  -52.7063  -21.2592 C   0  0  0  0  0  0  0  0  0  0  0  0
    0.8246  -51.7929  -22.7353 S   0  0  0  0  0  0  0  0  0  0  0  0
   -0.1794  -52.8191  -23.7097 C   0  0  0  0  0  0  0  0  0  0  0  0
   -1.1309  -55.7194  -24.3600 N   0  0  0  0  0  0  0  0  0  0  0  0
   -1.3604  -54.9411  -23.1779 C   0  0  0  0  0  0  0  0  0  0  0  0
   -2.3337  -55.2966  -22.4839 O   0  0  0  0  0  0  0  0  0  0  0  0
   -1.4963  -55.3649  -25.2589 H   0  0  0  0  0  0  0  0  0  0  0  0
   -0.6127  -56.6229  -24.3458 H   0  0  0  0  0  0  0  0  0  0  0  0
   -0.5064  -52.5841  -25.0709 N   0  0  0  0  0  0  0  0  0  0  0  0
    0.3259  -53.0582  -26.1151 C   0  0  0  0  0  0  0  0  0  0  0  0
    1.3630  -53.6927  -25.8248 O   0  0  0  0  0  0  0  0  0  0  0  0
   -1.3516  -52.0663  -25.3310 H   0  0  0  0  0  0  0  0  0  0  0  0
    0.0108  -52.8295  -27.5096 C   0  0  0  0  0  0  0  0  0  0  0  0
    0.6084  -53.4986  -28.4702 C   0  0  0  0  0  0  0  0  0  0  0  0
    1.4078  -52.3546  -20.0466 N   0  0  0  0  0  0  0  0  0  0  0  0
    1.0363  -52.8310  -19.1690 H   0  0  0  0  0  0  0  0  0  0  0  0
    2.4733  -51.4616  -19.8774 C   0  0  0  0  0  0  0  0  0  0  0  0
    2.5328  -50.4782  -18.9226 C   0  0  0  0  0  0  0  0  0  0  0  0
    3.6250  -49.6148  -18.8018 C   0  0  0  0  0  0  0  0  0  0  0  0
    4.7023  -49.7158  -19.6473 C   0  0  0  0  0  0  0  0  0  0  0  0
    5.7934  -48.8673  -19.5408 C   0  0  0  0  0  0  0  0  0  0  0  0
    6.8766  -48.9628  -20.3846 C   0  0  0  0  0  0  0  0  0  0  0  0
    6.8420  -49.9378  -21.3480 C   0  0  0  0  0  0  0  0  0  0  0  0
    5.7623  -50.7856  -21.4617 C   0  0  0  0  0  0  0  0  0  0  0  0
    4.6735  -50.6931  -20.6170 C   0  0  0  0  0  0  0  0  0  0  0  0
    3.5921  -51.5303  -20.7188 C   0  0  0  0  0  0  0  0  0  0  0  0
  6  7  1  0  0  0
  7  8  2  0  0  0
  7  1  1  0  0  0
  1  2  1  0  0  0
  2  3  2  0  0  0
  3 17  1  0  0  0
 17 19  1  0  0  0
 19 20  2  0  0  0
 20 21  1  0  0  0
 21 22  2  0  0  0
 22 23  1  0  0  0
 23 24  2  0  0  0
 24 25  1  0  0  0
 25 26  2  0  0  0
 26 27  1  0  0  0
 27 28  2  0  0  0
  3  4  1  0  0  0
  4  5  1  0  0  0
  5 11  1  0  0  0
 11 12  1  0  0  0
 12 13  2  0  0  0
 12 15  1  0  0  0
 15 16  2  0  0  0
  5  1  2  0  0  0
 28 19  1  0  0  0
 27 22  1  0  0  0
  6  9  1  0  0  0
  6 10  1  0  0  0
 17 18  1  0  0  0
 11 14  1  0  0  0
M  END
> <minimizedAffinity>
-6.72101

> <CNNscore>
0.7218725085

> <CNNaffinity>
6.3305273056

> <CNN_VS>
4.5698337555

> <CNNaffinity_variance>
0.1493956149

$$$$
[H]C([H])=C([H])C(=O)N([H])c1sc(N([H])c2c([H])c([H])c3c([H])c([H])c([H])c([H])c3c2[H])nc1C(=O)N([H])[H]


 28 30  0  0  0  0  0  0  0  0999 V2000
    0.0776  -52.6091  -20.9947 C   0  0  0  0  0  0  0  0  0  0  0  0
    0.6144  -53.0521  -22.0886 N   0  0  0  0  0  0  0  0  0  0  0  0
    1.4859  -52.3728  -22.7632 C   0  0  0  0  0  0  0  0  0  0  0  0
    1.6012  -50.9369  -21.7922 S   0  0  0  0  0  0  0  0  0  0  0  0
    0.4626  -51.3786  -20.5598 C   0  0  0  0  0  0  0  0  0  0  0  0
   -0.9863  -53.4225  -18.8265 N   0  0  0  0  0  0  0  0  0  0  0  0
   -0.9159  -53.4254  -20.2585 C   0  0  0  0  0  0  0  0  0  0  0  0
   -1.7448  -54.1588  -20.8334 O   0  0  0  0  0  0  0  0  0  0  0  0
   -0.3362  -54.0306  -18.3024 H   0  0  0  0  0  0  0  0  0  0  0  0
   -1.6643  -52.8335  -18.2987 H   0  0  0  0  0  0  0  0  0  0  0  0
    0.1161  -50.5724  -19.4440 N   0  0  0  0  0  0  0  0  0  0  0  0
    0.9388  -50.5272  -18.2911 C   0  0  0  0  0  0  0  0  0  0  0  0
    1.9847  -51.2111  -18.2639 O   0  0  0  0  0  0  0  0  0  0  0  0
   -0.7366  -50.0041  -19.4453 H   0  0  0  0  0  0  0  0  0  0  0  0
    0.6038  -49.7118  -17.1426 C   0  0  0  0  0  0  0  0  0  0  0  0
    1.2366  -49.8402  -15.9978 C   0  0  0  0  0  0  0  0  0  0  0  0
    2.2128  -52.6124  -23.9609 N   0  0  0  0  0  0  0  0  0  0  0  0
    3.2619  -52.7550  -23.8418 H   0  0  0  0  0  0  0  0  0  0  0  0
    1.7104  -52.6814  -25.2664 C   0  0  0  0  0  0  0  0  0  0  0  0
    2.4668  -52.8938  -26.3912 C   0  0  0  0  0  0  0  0  0  0  0  0
    1.9082  -52.9529  -27.6708 C   0  0  0  0  0  0  0  0  0  0  0  0
    0.5568  -52.7983  -27.8596 C   0  0  0  0  0  0  0  0  0  0  0  0
   -0.0130  -52.8541  -29.1221 C   0  0  0  0  0  0  0  0  0  0  0  0
   -1.3665  -52.7001  -29.3188 C   0  0  0  0  0  0  0  0  0  0  0  0
   -2.1449  -52.4865  -28.2105 C   0  0  0  0  0  0  0  0  0  0  0  0
   -1.5880  -52.4294  -26.9519 C   0  0  0  0  0  0  0  0  0  0  0  0
   -0.2304  -52.5834  -26.7503 C   0  0  0  0  0  0  0  0  0  0  0  0
    0.3375  -52.5289  -25.5032 C   0  0  0  0  0  0  0  0  0  0  0  0
  6  7  1  0  0  0
  7  8  2  0  0  0
  7  1  1  0  0  0
  1  2  1  0  0  0
  2  3  2  0  0  0
  3 17  1  0  0  0
 17 19  1  0  0  0
 19 20  2  0  0  0
 20 21  1  0  0  0
 21 22  2  0  0  0
 22 23  1  0  0  0
 23 24  2  0  0  0
 24 25  1  0  0  0
 25 26  2  0  0  0
 26 27  1  0  0  0
 27 28  2  0  0  0
  3  4  1  0  0  0
  4  5  1  0  0  0
  5 11  1  0  0  0
 11 12  1  0  0  0
 12 13  2  0  0  0
 12 15  1  0  0  0
 15 16  2  0  0  0
  5  1  2  0  0  0
 28 19  1  0  0  0
 27 22  1  0  0  0
  6  9  1  0  0  0
  6 10  1  0  0  0
 17 18  1  0  0  0
 11 14  1  0  0  0
M  END
> <minimizedAffinity>
-7.73904

> <CNNscore>
0.7138774991

> <CNNaffinity>
6.3247022629

> <CNN_VS>
4.5150628090

> <CNNaffinity_variance>
0.1493705511

$$$$
[H]C([H])=C([H])C(=O)N([H])c1sc(N([H])c2c([H])c([H])c3c([H])c([H])c([H])c([H])c3c2[H])nc1C(=O)N([H])[H]


 28 30  0  0  0  0  0  0  0  0999 V2000
   -0.1034  -53.6787  -24.2735 C   0  0  0  0  0  0  0  0  0  0  0  0
    0.2007  -53.2959  -23.0727 N   0  0  0  0  0  0  0  0  0  0  0  0
    0.7713  -52.1603  -22.8256 C   0  0  0  0  0  0  0  0  0  0  0  0
    0.9208  -51.5153  -24.4317 S   0  0  0  0  0  0  0  0  0  0  0  0
    0.1998  -52.8350  -25.2972 C   0  0  0  0  0  0  0  0  0  0  0  0
   -1.6949  -55.5413  -23.5720 N   0  0  0  0  0  0  0  0  0  0  0  0
   -0.7562  -54.9886  -24.5043 C   0  0  0  0  0  0  0  0  0  0  0  0
   -0.5319  -55.6851  -25.5141 O   0  0  0  0  0  0  0  0  0  0  0  0
   -1.3286  -56.0490  -22.7503 H   0  0  0  0  0  0  0  0  0  0  0  0
   -2.7256  -55.4503  -23.6921 H   0  0  0  0  0  0  0  0  0  0  0  0
    0.0322  -52.8909  -26.7056 N   0  0  0  0  0  0  0  0  0  0  0  0
   -1.2237  -52.6207  -27.3037 C   0  0  0  0  0  0  0  0  0  0  0  0
   -2.1947  -52.3293  -26.5725 O   0  0  0  0  0  0  0  0  0  0  0  0
    0.8148  -53.1277  -27.3234 H   0  0  0  0  0  0  0  0  0  0  0  0
   -1.4161  -52.6722  -28.7378 C   0  0  0  0  0  0  0  0  0  0  0  0
   -0.4007  -52.7700  -29.5666 C   0  0  0  0  0  0  0  0  0  0  0  0
    1.2029  -51.5096  -21.6379 N   0  0  0  0  0  0  0  0  0  0  0  0
    2.0411  -50.8611  -21.7471 H   0  0  0  0  0  0  0  0  0  0  0  0
    0.6560  -51.6238  -20.3537 C   0  0  0  0  0  0  0  0  0  0  0  0
   -0.0734  -52.6939  -19.9004 C   0  0  0  0  0  0  0  0  0  0  0  0
   -0.5951  -52.7517  -18.6053 C   0  0  0  0  0  0  0  0  0  0  0  0
   -0.3966  -51.7234  -17.7171 C   0  0  0  0  0  0  0  0  0  0  0  0
   -0.9073  -51.7653  -16.4291 C   0  0  0  0  0  0  0  0  0  0  0  0
   -0.7123  -50.7384  -15.5335 C   0  0  0  0  0  0  0  0  0  0  0  0
    0.0135  -49.6569  -15.9618 C   0  0  0  0  0  0  0  0  0  0  0  0
    0.5250  -49.6061  -17.2399 C   0  0  0  0  0  0  0  0  0  0  0  0
    0.3316  -50.6343  -18.1414 C   0  0  0  0  0  0  0  0  0  0  0  0
    0.8350  -50.5971  -19.4166 C   0  0  0  0  0  0  0  0  0  0  0  0
  6  7  1  0  0  0
  7  8  2  0  0  0
  7  1  1  0  0  0
  1  2  1  0  0  0
  2  3  2  0  0  0
  3 17  1  0  0  0
 17 19  1  0  0  0
 19 20  2  0  0  0
 20 21  1  0  0  0
 21 22  2  0  0  0
 22 23  1  0  0  0
 23 24  2  0  0  0
 24 25  1  0  0  0
 25 26  2  0  0  0
 26 27  1  0  0  0
 27 28  2  0  0  0
  3  4  1  0  0  0
  4  5  1  0  0  0
  5 11  1  0  0  0
 11 12  1  0  0  0
 12 13  2  0  0  0
 12 15  1  0  0  0
 15 16  2  0  0  0
  5  1  2  0  0  0
 28 19  1  0  0  0
 27 22  1  0  0  0
  6  9  1  0  0  0
  6 10  1  0  0  0
 17 18  1  0  0  0
 11 14  1  0  0  0
M  END
> <minimizedAffinity>
-8.15967

> <CNNscore>
0.5813788176

> <CNNaffinity>
6.3700604439

> <CNN_VS>
3.7034182549

> <CNNaffinity_variance>
0.0652222261

$$$$
[H]C([H])=C([H])C(=O)N([H])c1sc(N([H])c2c([H])c([H])c3c([H])c([H])c([H])c([H])c3c2[H])nc1C(=O)N([H])[H]


 28 30  0  0  0  0  0  0  0  0999 V2000
    1.0077  -52.2188  -20.1738 C   0  0  0  0  0  0  0  0  0  0  0  0
    0.7344  -52.5013  -21.4094 N   0  0  0  0  0  0  0  0  0  0  0  0
   -0.3799  -53.0537  -21.7690 C   0  0  0  0  0  0  0  0  0  0  0  0
   -1.1728  -53.2170  -20.2319 S   0  0  0  0  0  0  0  0  0  0  0  0
    0.0693  -52.5252  -19.2373 C   0  0  0  0  0  0  0  0  0  0  0  0
    2.4045  -50.1811  -19.5486 N   0  0  0  0  0  0  0  0  0  0  0  0
    2.2980  -51.5862  -19.8131 C   0  0  0  0  0  0  0  0  0  0  0  0
    3.3616  -52.2306  -19.7182 O   0  0  0  0  0  0  0  0  0  0  0  0
    2.4960  -49.5367  -20.3508 H   0  0  0  0  0  0  0  0  0  0  0  0
    2.3930  -49.7888  -18.5837 H   0  0  0  0  0  0  0  0  0  0  0  0
   -0.0038  -52.3778  -17.8274 N   0  0  0  0  0  0  0  0  0  0  0  0
   -0.0478  -51.0946  -17.2278 C   0  0  0  0  0  0  0  0  0  0  0  0
   -0.0216  -50.0811  -17.9589 O   0  0  0  0  0  0  0  0  0  0  0  0
   -0.0264  -53.1951  -17.2096 H   0  0  0  0  0  0  0  0  0  0  0  0
   -0.1225  -50.9221  -15.7922 C   0  0  0  0  0  0  0  0  0  0  0  0
   -1.2751  -50.8772  -15.1621 C   0  0  0  0  0  0  0  0  0  0  0  0
   -0.9227  -53.4604  -23.0181 N   0  0  0  0  0  0  0  0  0  0  0  0
   -1.8958  -53.8925  -22.9782 H   0  0  0  0  0  0  0  0  0  0  0  0
   -0.3285  -53.3582  -24.2822 C   0  0  0  0  0  0  0  0  0  0  0  0
    1.0152  -53.4763  -24.5328 C   0  0  0  0  0  0  0  0  0  0  0  0
    1.5513  -53.3646  -25.8185 C   0  0  0  0  0  0  0  0  0  0  0  0
    0.7427  -53.1282  -26.9030 C   0  0  0  0  0  0  0  0  0  0  0  0
    1.2586  -53.0148  -28.1846 C   0  0  0  0  0  0  0  0  0  0  0  0
    0.4543  -52.7780  -29.2762 C   0  0  0  0  0  0  0  0  0  0  0  0
   -0.8929  -52.6559  -29.0527 C   0  0  0  0  0  0  0  0  0  0  0  0
   -1.4149  -52.7670  -27.7828 C   0  0  0  0  0  0  0  0  0  0  0  0
   -0.6113  -53.0046  -26.6850 C   0  0  0  0  0  0  0  0  0  0  0  0
   -1.1174  -53.1175  -25.4154 C   0  0  0  0  0  0  0  0  0  0  0  0
  6  7  1  0  0  0
  7  8  2  0  0  0
  7  1  1  0  0  0
  1  2  1  0  0  0
  2  3  2  0  0  0
  3 17  1  0  0  0
 17 19  1  0  0  0
 19 20  2  0  0  0
 20 21  1  0  0  0
 21 22  2  0  0  0
 22 23  1  0  0  0
 23 24  2  0  0  0
 24 25  1  0  0  0
 25 26  2  0  0  0
 26 27  1  0  0  0
 27 28  2  0  0  0
  3  4  1  0  0  0
  4  5  1  0  0  0
  5 11  1  0  0  0
 11 12  1  0  0  0
 12 13  2  0  0  0
 12 15  1  0  0  0
 15 16  2  0  0  0
  5  1  2  0  0  0
 28 19  1  0  0  0
 27 22  1  0  0  0
  6  9  1  0  0  0
  6 10  1  0  0  0
 17 18  1  0  0  0
 11 14  1  0  0  0
M  END
> <minimizedAffinity>
-6.56111

> <CNNscore>
0.5227899551

> <CNNaffinity>
6.0128307343

> <CNN_VS>
3.1434473991

> <CNNaffinity_variance>
0.2873240113

$$$$
[H]C([H])=C([H])C(=O)N([H])c1sc(N([H])c2c([H])c([H])c3c([H])c([H])c([H])c([H])c3c2[H])nc1C(=O)N([H])[H]


 28 30  0  0  0  0  0  0  0  0999 V2000
    0.8558  -52.1528  -24.2388 C   0  0  0  0  0  0  0  0  0  0  0  0
    0.7983  -52.4032  -22.9679 N   0  0  0  0  0  0  0  0  0  0  0  0
    0.0849  -53.3660  -22.4779 C   0  0  0  0  0  0  0  0  0  0  0  0
   -0.6061  -54.0290  -23.9273 S   0  0  0  0  0  0  0  0  0  0  0  0
    0.1283  -52.9483  -25.0690 C   0  0  0  0  0  0  0  0  0  0  0  0
    2.5215  -50.2569  -23.8846 N   0  0  0  0  0  0  0  0  0  0  0  0
    1.6876  -51.0385  -24.7504 C   0  0  0  0  0  0  0  0  0  0  0  0
    1.7138  -50.7143  -25.9543 O   0  0  0  0  0  0  0  0  0  0  0  0
    2.0896  -49.4805  -23.3577 H   0  0  0  0  0  0  0  0  0  0  0  0
    3.5400  -50.4420  -23.7684 H   0  0  0  0  0  0  0  0  0  0  0  0
   -0.0653  -52.9937  -26.4745 N   0  0  0  0  0  0  0  0  0  0  0  0
   -1.2850  -52.5703  -27.0586 C   0  0  0  0  0  0  0  0  0  0  0  0
   -2.2003  -52.1515  -26.3175 O   0  0  0  0  0  0  0  0  0  0  0  0
    0.6717  -53.3335  -27.1002 H   0  0  0  0  0  0  0  0  0  0  0  0
   -1.5030  -52.6084  -28.4894 C   0  0  0  0  0  0  0  0  0  0  0  0
   -0.5252  -52.8654  -29.3292 C   0  0  0  0  0  0  0  0  0  0  0  0
   -0.1526  -53.8484  -21.1621 N   0  0  0  0  0  0  0  0  0  0  0  0
   -0.2522  -54.9052  -21.0704 H   0  0  0  0  0  0  0  0  0  0  0  0
   -0.2695  -53.0986  -19.9850 C   0  0  0  0  0  0  0  0  0  0  0  0
   -1.0612  -53.4309  -18.9148 C   0  0  0  0  0  0  0  0  0  0  0  0
   -1.1373  -52.6415  -17.7641 C   0  0  0  0  0  0  0  0  0  0  0  0
   -0.4111  -51.4812  -17.6541 C   0  0  0  0  0  0  0  0  0  0  0  0
   -0.4754  -50.6871  -16.5197 C   0  0  0  0  0  0  0  0  0  0  0  0
    0.2495  -49.5229  -16.4024 C   0  0  0  0  0  0  0  0  0  0  0  0
    1.0489  -49.1682  -17.4584 C   0  0  0  0  0  0  0  0  0  0  0  0
    1.1193  -49.9508  -18.5899 C   0  0  0  0  0  0  0  0  0  0  0  0
    0.3936  -51.1195  -18.7114 C   0  0  0  0  0  0  0  0  0  0  0  0
    0.4541  -51.9082  -19.8318 C   0  0  0  0  0  0  0  0  0  0  0  0
  6  7  1  0  0  0
  7  8  2  0  0  0
  7  1  1  0  0  0
  1  2  1  0  0  0
  2  3  2  0  0  0
  3 17  1  0  0  0
 17 19  1  0  0  0
 19 20  2  0  0  0
 20 21  1  0  0  0
 21 22  2  0  0  0
 22 23  1  0  0  0
 23 24  2  0  0  0
 24 25  1  0  0  0
 25 26  2  0  0  0
 26 27  1  0  0  0
 27 28  2  0  0  0
  3  4  1  0  0  0
  4  5  1  0  0  0
  5 11  1  0  0  0
 11 12  1  0  0  0
 12 13  2  0  0  0
 12 15  1  0  0  0
 15 16  2  0  0  0
  5  1  2  0  0  0
 28 19  1  0  0  0
 27 22  1  0  0  0
  6  9  1  0  0  0
  6 10  1  0  0  0
 17 18  1  0  0  0
 11 14  1  0  0  0
M  END
> <minimizedAffinity>
-7.28142

> <CNNscore>
0.4879389703

> <CNNaffinity>
6.2540063858

> <CNN_VS>
3.0515735149

> <CNNaffinity_variance>
0.0754891559

$$$$
[H]c1nc(N([H])c2c([H])c([H])c(N3C([H])([H])C([H])([H])N(C([H])([H])[H])C([H])([H])C3([H])[H])c([H])c2OC([H])([H])[H])nc2c1N(C([H])([H])[H])C(=O)[C@@]([H])(C([H])([H])C([H])([H])[H])N2C1([H])C([H])([H])C([H])([H])C([H])([H])C1([H])[H]


 36 40  0  0  0  0  0  0  0  0999 V2000
    2.4260  -52.6161  -23.8977 C   0  0  0  0  0  0  0  0  0  0  0  0
    1.6010  -52.1077  -22.8316 N   0  0  0  0  0  0  0  0  0  0  0  0
    0.5199  -52.9872  -22.4127 C   0  0  0  0  0  0  0  0  0  0  0  0
    0.1613  -52.9383  -21.1366 N   0  0  0  0  0  0  0  0  0  0  0  0
   -0.8649  -53.7725  -20.7236 C   0  0  0  0  0  0  0  0  0  0  0  0
   -1.4293  -54.5709  -21.6247 N   0  0  0  0  0  0  0  0  0  0  0  0
   -1.0968  -54.6521  -22.9241 C   0  0  0  0  0  0  0  0  0  0  0  0
   -0.0770  -53.8243  -23.3378 C   0  0  0  0  0  0  0  0  0  0  0  0
    0.4014  -53.7919  -24.6712 N   0  0  0  0  0  0  0  0  0  0  0  0
   -0.2125  -54.6456  -25.6996 C   0  0  0  0  0  0  0  0  0  0  0  0
    1.4772  -52.9142  -25.0263 C   0  0  0  0  0  0  0  0  0  0  0  0
    1.6113  -52.4461  -26.1585 O   0  0  0  0  0  0  0  0  0  0  0  0
    1.7963  -50.8304  -22.2085 C   0  0  0  0  0  0  0  0  0  0  0  0
    2.1279  -49.6921  -23.0871 C   0  0  0  0  0  0  0  0  0  0  0  0
    2.6307  -48.6805  -22.0148 C   0  0  0  0  0  0  0  0  0  0  0  0
    3.7775  -49.5733  -21.5031 C   0  0  0  0  0  0  0  0  0  0  0  0
    2.9619  -50.8451  -21.2215 C   0  0  0  0  0  0  0  0  0  0  0  0
    4.8818  -52.5038  -23.9825 C   0  0  0  0  0  0  0  0  0  0  0  0
    3.5641  -51.7692  -24.3295 C   0  0  0  0  0  0  0  0  0  0  0  0
   -1.1770  -53.6634  -19.3534 N   0  0  0  0  0  0  0  0  0  0  0  0
   -1.7900  -54.4323  -18.9137 H   0  0  0  0  0  0  0  0  0  0  0  0
   -0.7635  -52.6434  -18.4918 C   0  0  0  0  0  0  0  0  0  0  0  0
    0.3228  -51.8282  -18.6539 C   0  0  0  0  0  0  0  0  0  0  0  0
    0.6868  -50.8246  -17.7442 C   0  0  0  0  0  0  0  0  0  0  0  0
   -0.0876  -50.6387  -16.6161 C   0  0  0  0  0  0  0  0  0  0  0  0
   -1.2005  -51.4408  -16.4062 C   0  0  0  0  0  0  0  0  0  0  0  0
   -1.5195  -52.4143  -17.3277 C   0  0  0  0  0  0  0  0  0  0  0  0
    0.2165  -49.6611  -15.6604 N   0  0  0  0  0  0  0  0  0  0  0  0
   -0.6956  -49.0894  -14.7021 C   0  0  0  0  0  0  0  0  0  0  0  0
   -0.2114  -49.5044  -13.3305 C   0  0  0  0  0  0  0  0  0  0  0  0
    1.2126  -49.2939  -13.1686 N   0  0  0  0  0  0  0  0  0  0  0  0
    1.9171  -50.5559  -13.0392 C   0  0  0  0  0  0  0  0  0  0  0  0
    1.7767  -48.4782  -14.2292 C   0  0  0  0  0  0  0  0  0  0  0  0
    1.5946  -49.1379  -15.5843 C   0  0  0  0  0  0  0  0  0  0  0  0
   -2.6305  -53.2237  -17.1300 O   0  0  0  0  0  0  0  0  0  0  0  0
   -3.7355  -52.7694  -16.4072 C   0  0  0  0  0  0  0  0  0  0  0  0
 18 19  1  0  0  0
 19  1  1  0  0  0
  1  2  1  0  0  0
  2 13  1  0  0  0
 13 14  1  0  0  0
 14 15  1  0  0  0
 15 16  1  0  0  0
 16 17  1  0  0  0
  2  3  1  0  0  0
  3  4  2  0  0  0
  4  5  1  0  0  0
  5 20  1  0  0  0
 20 22  1  0  0  0
 22 23  2  0  0  0
 23 24  1  0  0  0
 24 25  2  0  0  0
 25 26  1  0  0  0
 26 27  2  0  0  0
 27 35  1  0  0  0
 35 36  1  0  0  0
 25 28  1  0  0  0
 28 29  1  0  0  0
 29 30  1  0  0  0
 30 31  1  0  0  0
 31 32  1  0  0  0
 31 33  1  0  0  0
 33 34  1  0  0  0
  5  6  2  0  0  0
  6  7  1  0  0  0
  7  8  2  0  0  0
  8  9  1  0  0  0
  9 10  1  0  0  0
  9 11  1  0  0  0
 11 12  2  0  0  0
 11  1  1  0  0  0
 17 13  1  0  0  0
  8  3  1  0  0  0
 27 22  1  0  0  0
 34 28  1  0  0  0
 20 21  1  0  0  0
M  END
> <minimizedAffinity>
-8.05210

> <CNNscore>
0.9332457185

> <CNNaffinity>
7.7363824844

> <CNN_VS>
7.2199459076

> <CNNaffinity_variance>
0.0145114260

$$$$
[H]c1nc(N([H])c2c([H])c([H])c(N3C([H])([H])C([H])([H])N(C([H])([H])[H])C([H])([H])C3([H])[H])c([H])c2OC([H])([H])[H])nc2c1N(C([H])([H])[H])C(=O)[C@@]([H])(C([H])([H])C([H])([H])[H])N2C1([H])C([H])([H])C([H])([H])C([H])([H])C1([H])[H]


 36 40  0  0  0  0  0  0  0  0999 V2000
    2.5754  -51.9659  -24.0903 C   0  0  0  0  0  0  0  0  0  0  0  0
    2.2493  -51.6397  -22.7254 N   0  0  0  0  0  0  0  0  0  0  0  0
    1.0425  -52.2691  -22.2103 C   0  0  0  0  0  0  0  0  0  0  0  0
    1.0169  -52.5573  -20.9158 N   0  0  0  0  0  0  0  0  0  0  0  0
   -0.1250  -53.1594  -20.4126 C   0  0  0  0  0  0  0  0  0  0  0  0
   -1.1253  -53.4130  -21.2510 N   0  0  0  0  0  0  0  0  0  0  0  0
   -1.1403  -53.1384  -22.5663 C   0  0  0  0  0  0  0  0  0  0  0  0
   -0.0066  -52.5402  -23.0697 C   0  0  0  0  0  0  0  0  0  0  0  0
    0.1445  -52.1930  -24.4351 N   0  0  0  0  0  0  0  0  0  0  0  0
   -0.9489  -52.4393  -25.3877 C   0  0  0  0  0  0  0  0  0  0  0  0
    1.3599  -51.5854  -24.8907 C   0  0  0  0  0  0  0  0  0  0  0  0
    1.4028  -50.8187  -25.8547 O   0  0  0  0  0  0  0  0  0  0  0  0
    3.0294  -50.7584  -21.9053 C   0  0  0  0  0  0  0  0  0  0  0  0
    3.6305  -49.5799  -22.5591 C   0  0  0  0  0  0  0  0  0  0  0  0
    4.6589  -49.1762  -21.4613 C   0  0  0  0  0  0  0  0  0  0  0  0
    5.4316  -50.5089  -21.4926 C   0  0  0  0  0  0  0  0  0  0  0  0
    4.2416  -51.4618  -21.2979 C   0  0  0  0  0  0  0  0  0  0  0  0
    4.9120  -52.4734  -24.6678 C   0  0  0  0  0  0  0  0  0  0  0  0
    3.8190  -51.3774  -24.6436 C   0  0  0  0  0  0  0  0  0  0  0  0
   -0.0659  -53.4385  -19.0322 N   0  0  0  0  0  0  0  0  0  0  0  0
    0.7169  -54.0909  -18.6833 H   0  0  0  0  0  0  0  0  0  0  0  0
   -0.9327  -52.9448  -18.0531 C   0  0  0  0  0  0  0  0  0  0  0  0
   -2.1788  -53.4209  -17.7507 C   0  0  0  0  0  0  0  0  0  0  0  0
   -3.0027  -52.8728  -16.7567 C   0  0  0  0  0  0  0  0  0  0  0  0
   -2.5410  -51.7899  -16.0347 C   0  0  0  0  0  0  0  0  0  0  0  0
   -1.2828  -51.2698  -16.3040 C   0  0  0  0  0  0  0  0  0  0  0  0
   -0.5086  -51.8415  -17.2902 C   0  0  0  0  0  0  0  0  0  0  0  0
   -3.3088  -51.1855  -15.0313 N   0  0  0  0  0  0  0  0  0  0  0  0
   -3.0770  -51.2676  -13.6112 C   0  0  0  0  0  0  0  0  0  0  0  0
   -2.7327  -49.8725  -13.1392 C   0  0  0  0  0  0  0  0  0  0  0  0
   -3.6555  -48.8805  -13.6519 N   0  0  0  0  0  0  0  0  0  0  0  0
   -2.9955  -47.9820  -14.5808 C   0  0  0  0  0  0  0  0  0  0  0  0
   -4.8397  -49.4778  -14.2428 C   0  0  0  0  0  0  0  0  0  0  0  0
   -4.4767  -50.3694  -15.4166 C   0  0  0  0  0  0  0  0  0  0  0  0
    0.7524  -51.3312  -17.5697 O   0  0  0  0  0  0  0  0  0  0  0  0
    0.9118  -50.0455  -18.0908 C   0  0  0  0  0  0  0  0  0  0  0  0
 18 19  1  0  0  0
 19  1  1  0  0  0
  1  2  1  0  0  0
  2 13  1  0  0  0
 13 14  1  0  0  0
 14 15  1  0  0  0
 15 16  1  0  0  0
 16 17  1  0  0  0
  2  3  1  0  0  0
  3  4  2  0  0  0
  4  5  1  0  0  0
  5 20  1  0  0  0
 20 22  1  0  0  0
 22 23  2  0  0  0
 23 24  1  0  0  0
 24 25  2  0  0  0
 25 26  1  0  0  0
 26 27  2  0  0  0
 27 35  1  0  0  0
 35 36  1  0  0  0
 25 28  1  0  0  0
 28 29  1  0  0  0
 29 30  1  0  0  0
 30 31  1  0  0  0
 31 32  1  0  0  0
 31 33  1  0  0  0
 33 34  1  0  0  0
  5  6  2  0  0  0
  6  7  1  0  0  0
  7  8  2  0  0  0
  8  9  1  0  0  0
  9 10  1  0  0  0
  9 11  1  0  0  0
 11 12  2  0  0  0
 11  1  1  0  0  0
 17 13  1  0  0  0
  8  3  1  0  0  0
 27 22  1  0  0  0
 34 28  1  0  0  0
 20 21  1  0  0  0
M  END
> <minimizedAffinity>
-7.41166

> <CNNscore>
0.4570363462

> <CNNaffinity>
7.1698808670

> <CNN_VS>
3.2768962383

> <CNNaffinity_variance>
0.0557957664

$$$$
[H]c1nc(N([H])c2c([H])c([H])c(N3C([H])([H])C([H])([H])N(C([H])([H])[H])C([H])([H])C3([H])[H])c([H])c2OC([H])([H])[H])nc2c1N(C([H])([H])[H])C(=O)[C@@]([H])(C([H])([H])C([H])([H])[H])N2C1([H])C([H])([H])C([H])([H])C([H])([H])C1([H])[H]


 36 40  0  0  0  0  0  0  0  0999 V2000
   -1.4863  -49.2772  -15.3559 C   0  0  0  0  0  0  0  0  0  0  0  0
   -0.3759  -50.0088  -15.9101 N   0  0  0  0  0  0  0  0  0  0  0  0
   -0.7380  -51.1492  -16.7385 C   0  0  0  0  0  0  0  0  0  0  0  0
    0.0768  -51.4509  -17.7407 N   0  0  0  0  0  0  0  0  0  0  0  0
   -0.2575  -52.5327  -18.5392 C   0  0  0  0  0  0  0  0  0  0  0  0
   -1.3703  -53.2038  -18.2574 N   0  0  0  0  0  0  0  0  0  0  0  0
   -2.2222  -52.9320  -17.2544 C   0  0  0  0  0  0  0  0  0  0  0  0
   -1.8928  -51.8571  -16.4590 C   0  0  0  0  0  0  0  0  0  0  0  0
   -2.6868  -51.4309  -15.3656 N   0  0  0  0  0  0  0  0  0  0  0  0
   -3.9134  -52.1614  -15.0113 C   0  0  0  0  0  0  0  0  0  0  0  0
   -2.2887  -50.2934  -14.5901 C   0  0  0  0  0  0  0  0  0  0  0  0
   -2.5799  -50.1615  -13.3998 O   0  0  0  0  0  0  0  0  0  0  0  0
    0.9992  -49.6716  -15.6795 C   0  0  0  0  0  0  0  0  0  0  0  0
    1.8093  -49.2919  -16.8531 C   0  0  0  0  0  0  0  0  0  0  0  0
    3.2320  -49.4148  -16.2314 C   0  0  0  0  0  0  0  0  0  0  0  0
    3.1046  -50.9091  -15.8778 C   0  0  0  0  0  0  0  0  0  0  0  0
    1.7863  -50.8408  -15.0908 C   0  0  0  0  0  0  0  0  0  0  0  0
   -2.0730  -46.9162  -14.9919 C   0  0  0  0  0  0  0  0  0  0  0  0
   -1.1637  -48.0836  -14.5372 C   0  0  0  0  0  0  0  0  0  0  0  0
    0.6560  -52.7790  -19.5840 N   0  0  0  0  0  0  0  0  0  0  0  0
    1.7056  -52.7932  -19.3424 H   0  0  0  0  0  0  0  0  0  0  0  0
    0.3333  -53.0131  -20.9237 C   0  0  0  0  0  0  0  0  0  0  0  0
   -0.3712  -54.0751  -21.4202 C   0  0  0  0  0  0  0  0  0  0  0  0
   -0.6555  -54.2537  -22.7821 C   0  0  0  0  0  0  0  0  0  0  0  0
   -0.2037  -53.3103  -23.6836 C   0  0  0  0  0  0  0  0  0  0  0  0
    0.5161  -52.2142  -23.2293 C   0  0  0  0  0  0  0  0  0  0  0  0
    0.7714  -52.0806  -21.8818 C   0  0  0  0  0  0  0  0  0  0  0  0
   -0.4434  -53.4239  -25.0589 N   0  0  0  0  0  0  0  0  0  0  0  0
   -1.1826  -52.4962  -25.8773 C   0  0  0  0  0  0  0  0  0  0  0  0
   -0.2024  -51.8996  -26.8628 C   0  0  0  0  0  0  0  0  0  0  0  0
    0.6153  -52.9120  -27.4988 N   0  0  0  0  0  0  0  0  0  0  0  0
    2.0052  -52.7892  -27.0998 C   0  0  0  0  0  0  0  0  0  0  0  0
    0.1142  -54.2551  -27.2679 C   0  0  0  0  0  0  0  0  0  0  0  0
    0.0989  -54.5878  -25.7869 C   0  0  0  0  0  0  0  0  0  0  0  0
    1.4902  -50.9886  -21.4136 O   0  0  0  0  0  0  0  0  0  0  0  0
    0.8894  -49.7362  -21.2705 C   0  0  0  0  0  0  0  0  0  0  0  0
 18 19  1  0  0  0
 19  1  1  0  0  0
  1  2  1  0  0  0
  2 13  1  0  0  0
 13 14  1  0  0  0
 14 15  1  0  0  0
 15 16  1  0  0  0
 16 17  1  0  0  0
  2  3  1  0  0  0
  3  4  2  0  0  0
  4  5  1  0  0  0
  5 20  1  0  0  0
 20 22  1  0  0  0
 22 23  2  0  0  0
 23 24  1  0  0  0
 24 25  2  0  0  0
 25 26  1  0  0  0
 26 27  2  0  0  0
 27 35  1  0  0  0
 35 36  1  0  0  0
 25 28  1  0  0  0
 28 29  1  0  0  0
 29 30  1  0  0  0
 30 31  1  0  0  0
 31 32  1  0  0  0
 31 33  1  0  0  0
 33 34  1  0  0  0
  5  6  2  0  0  0
  6  7  1  0  0  0
  7  8  2  0  0  0
  8  9  1  0  0  0
  9 10  1  0  0  0
  9 11  1  0  0  0
 11 12  2  0  0  0
 11  1  1  0  0  0
 17 13  1  0  0  0
  8  3  1  0  0  0
 27 22  1  0  0  0
 34 28  1  0  0  0
 20 21  1  0  0  0
M  END
> <minimizedAffinity>
-8.07615

> <CNNscore>
0.3789081573

> <CNNaffinity>
7.0319814682

> <CNN_VS>
2.6644752026

> <CNNaffinity_variance>
0.0606646538

$$$$
[H]c1nc(N([H])c2c([H])c([H])c(N3C([H])([H])C([H])([H])N(C([H])([H])[H])C([H])([H])C3([H])[H])c([H])c2OC([H])([H])[H])nc2c1N(C([H])([H])[H])C(=O)[C@@]([H])(C([H])([H])C([H])([H])[H])N2C1([H])C([H])([H])C([H])([H])C([H])([H])C1([H])[H]


 36 40  0  0  0  0  0  0  0  0999 V2000
    1.6753  -53.0586  -26.6323 C   0  0  0  0  0  0  0  0  0  0  0  0
    2.1205  -52.3894  -25.4366 N   0  0  0  0  0  0  0  0  0  0  0  0
    1.1610  -52.3743  -24.3425 C   0  0  0  0  0  0  0  0  0  0  0  0
    1.6502  -52.3903  -23.1097 N   0  0  0  0  0  0  0  0  0  0  0  0
    0.7478  -52.3790  -22.0585 C   0  0  0  0  0  0  0  0  0  0  0  0
   -0.5509  -52.3529  -22.3431 N   0  0  0  0  0  0  0  0  0  0  0  0
   -1.0877  -52.3366  -23.5748 C   0  0  0  0  0  0  0  0  0  0  0  0
   -0.1933  -52.3480  -24.6219 C   0  0  0  0  0  0  0  0  0  0  0  0
   -0.5925  -52.3425  -25.9814 N   0  0  0  0  0  0  0  0  0  0  0  0
   -2.0196  -52.2928  -26.3343 C   0  0  0  0  0  0  0  0  0  0  0  0
    0.3952  -52.3700  -27.0194 C   0  0  0  0  0  0  0  0  0  0  0  0
    0.2093  -51.8725  -28.1316 O   0  0  0  0  0  0  0  0  0  0  0  0
    3.4054  -51.7667  -25.2996 C   0  0  0  0  0  0  0  0  0  0  0  0
    4.3379  -52.3479  -24.3144 C   0  0  0  0  0  0  0  0  0  0  0  0
    5.3627  -51.1794  -24.2132 C   0  0  0  0  0  0  0  0  0  0  0  0
    4.3394  -50.1337  -23.7298 C   0  0  0  0  0  0  0  0  0  0  0  0
    3.2937  -50.3138  -24.8416 C   0  0  0  0  0  0  0  0  0  0  0  0
    2.1513  -54.2200  -28.7478 C   0  0  0  0  0  0  0  0  0  0  0  0
    2.6365  -53.1321  -27.7591 C   0  0  0  0  0  0  0  0  0  0  0  0
    1.3502  -52.4056  -20.7845 N   0  0  0  0  0  0  0  0  0  0  0  0
    2.3741  -52.7334  -20.7182 H   0  0  0  0  0  0  0  0  0  0  0  0
    0.7451  -52.0415  -19.5782 C   0  0  0  0  0  0  0  0  0  0  0  0
   -0.1839  -52.7632  -18.8804 C   0  0  0  0  0  0  0  0  0  0  0  0
   -0.7584  -52.3352  -17.6745 C   0  0  0  0  0  0  0  0  0  0  0  0
   -0.3723  -51.1170  -17.1511 C   0  0  0  0  0  0  0  0  0  0  0  0
    0.5674  -50.3471  -17.8219 C   0  0  0  0  0  0  0  0  0  0  0  0
    1.1047  -50.8086  -19.0039 C   0  0  0  0  0  0  0  0  0  0  0  0
   -0.9062  -50.6208  -15.9551 N   0  0  0  0  0  0  0  0  0  0  0  0
   -2.2630  -50.7765  -15.4950 C   0  0  0  0  0  0  0  0  0  0  0  0
   -2.2093  -51.6204  -14.2409 C   0  0  0  0  0  0  0  0  0  0  0  0
   -1.1946  -51.1584  -13.3161 N   0  0  0  0  0  0  0  0  0  0  0  0
   -0.1247  -52.1298  -13.1845 C   0  0  0  0  0  0  0  0  0  0  0  0
   -0.6797  -49.8470  -13.6678 C   0  0  0  0  0  0  0  0  0  0  0  0
   -0.0307  -49.8625  -15.0400 C   0  0  0  0  0  0  0  0  0  0  0  0
    2.0462  -50.0484  -19.6851 O   0  0  0  0  0  0  0  0  0  0  0  0
    2.2529  -48.7036  -19.3709 C   0  0  0  0  0  0  0  0  0  0  0  0
 18 19  1  0  0  0
 19  1  1  0  0  0
  1  2  1  0  0  0
  2 13  1  0  0  0
 13 14  1  0  0  0
 14 15  1  0  0  0
 15 16  1  0  0  0
 16 17  1  0  0  0
  2  3  1  0  0  0
  3  4  2  0  0  0
  4  5  1  0  0  0
  5 20  1  0  0  0
 20 22  1  0  0  0
 22 23  2  0  0  0
 23 24  1  0  0  0
 24 25  2  0  0  0
 25 26  1  0  0  0
 26 27  2  0  0  0
 27 35  1  0  0  0
 35 36  1  0  0  0
 25 28  1  0  0  0
 28 29  1  0  0  0
 29 30  1  0  0  0
 30 31  1  0  0  0
 31 32  1  0  0  0
 31 33  1  0  0  0
 33 34  1  0  0  0
  5  6  2  0  0  0
  6  7  1  0  0  0
  7  8  2  0  0  0
  8  9  1  0  0  0
  9 10  1  0  0  0
  9 11  1  0  0  0
 11 12  2  0  0  0
 11  1  1  0  0  0
 17 13  1  0  0  0
  8  3  1  0  0  0
 27 22  1  0  0  0
 34 28  1  0  0  0
 20 21  1  0  0  0
M  END
> <minimizedAffinity>
-6.85895

> <CNNscore>
0.3621620834

> <CNNaffinity>
7.3057122231

> <CNN_VS>
2.6458518505

> <CNNaffinity_variance>
0.2239322662

$$$$
[H]c1nc(N([H])c2c([H])c([H])c(N3C([H])([H])C([H])([H])N(C([H])([H])[H])C([H])([H])C3([H])[H])c([H])c2OC([H])([H])[H])nc2c1N(C([H])([H])[H])C(=O)[C@@]([H])(C([H])([H])C([H])([H])[H])N2C1([H])C([H])([H])C([H])([H])C([H])([H])C1([H])[H]


 36 40  0  0  0  0  0  0  0  0999 V2000
   -1.3600  -48.5779  -15.3845 C   0  0  0  0  0  0  0  0  0  0  0  0
   -0.4511  -49.6066  -15.8217 N   0  0  0  0  0  0  0  0  0  0  0  0
   -1.0827  -50.8190  -16.3208 C   0  0  0  0  0  0  0  0  0  0  0  0
   -0.4446  -51.4839  -17.2747 N   0  0  0  0  0  0  0  0  0  0  0  0
   -1.0361  -52.6385  -17.7611 C   0  0  0  0  0  0  0  0  0  0  0  0
   -2.2039  -53.0129  -17.2470 N   0  0  0  0  0  0  0  0  0  0  0  0
   -2.8830  -52.3697  -16.2823 C   0  0  0  0  0  0  0  0  0  0  0  0
   -2.2978  -51.2214  -15.7969 C   0  0  0  0  0  0  0  0  0  0  0  0
   -2.8852  -50.4206  -14.7863 N   0  0  0  0  0  0  0  0  0  0  0  0
   -4.1659  -50.8146  -14.1796 C   0  0  0  0  0  0  0  0  0  0  0  0
   -2.2247  -49.2296  -14.3402 C   0  0  0  0  0  0  0  0  0  0  0  0
   -2.3556  -48.7804  -13.2000 O   0  0  0  0  0  0  0  0  0  0  0  0
    0.9775  -49.4836  -15.7775 C   0  0  0  0  0  0  0  0  0  0  0  0
    1.6825  -49.3141  -17.0628 C   0  0  0  0  0  0  0  0  0  0  0  0
    3.1361  -49.6276  -16.5994 C   0  0  0  0  0  0  0  0  0  0  0  0
    2.8259  -51.0564  -16.1133 C   0  0  0  0  0  0  0  0  0  0  0  0
    1.6430  -50.7262  -15.1892 C   0  0  0  0  0  0  0  0  0  0  0  0
   -1.7852  -46.1698  -15.1176 C   0  0  0  0  0  0  0  0  0  0  0  0
   -0.7596  -47.3096  -14.9048 C   0  0  0  0  0  0  0  0  0  0  0  0
   -0.2972  -53.2781  -18.7767 N   0  0  0  0  0  0  0  0  0  0  0  0
   -0.3327  -54.3536  -18.8243 H   0  0  0  0  0  0  0  0  0  0  0  0
    0.4884  -52.6485  -19.7464 C   0  0  0  0  0  0  0  0  0  0  0  0
    1.7006  -52.0460  -19.5500 C   0  0  0  0  0  0  0  0  0  0  0  0
    2.4363  -51.4241  -20.5694 C   0  0  0  0  0  0  0  0  0  0  0  0
    1.9181  -51.4126  -21.8494 C   0  0  0  0  0  0  0  0  0  0  0  0
    0.6911  -52.0106  -22.1000 C   0  0  0  0  0  0  0  0  0  0  0  0
    0.0041  -52.6097  -21.0667 C   0  0  0  0  0  0  0  0  0  0  0  0
    2.5919  -50.8060  -22.9170 N   0  0  0  0  0  0  0  0  0  0  0  0
    3.9826  -50.4293  -22.9469 C   0  0  0  0  0  0  0  0  0  0  0  0
    4.6492  -51.2871  -23.9994 C   0  0  0  0  0  0  0  0  0  0  0  0
    3.8951  -51.3171  -25.2357 N   0  0  0  0  0  0  0  0  0  0  0  0
    3.3565  -52.6407  -25.4885 C   0  0  0  0  0  0  0  0  0  0  0  0
    2.8547  -50.3050  -25.2753 C   0  0  0  0  0  0  0  0  0  0  0  0
    1.8485  -50.5087  -24.1570 C   0  0  0  0  0  0  0  0  0  0  0  0
   -1.2246  -53.2121  -21.3036 O   0  0  0  0  0  0  0  0  0  0  0  0
   -1.3112  -54.4434  -21.9564 C   0  0  0  0  0  0  0  0  0  0  0  0
 18 19  1  0  0  0
 19  1  1  0  0  0
  1  2  1  0  0  0
  2 13  1  0  0  0
 13 14  1  0  0  0
 14 15  1  0  0  0
 15 16  1  0  0  0
 16 17  1  0  0  0
  2  3  1  0  0  0
  3  4  2  0  0  0
  4  5  1  0  0  0
  5 20  1  0  0  0
 20 22  1  0  0  0
 22 23  2  0  0  0
 23 24  1  0  0  0
 24 25  2  0  0  0
 25 26  1  0  0  0
 26 27  2  0  0  0
 27 35  1  0  0  0
 35 36  1  0  0  0
 25 28  1  0  0  0
 28 29  1  0  0  0
 29 30  1  0  0  0
 30 31  1  0  0  0
 31 32  1  0  0  0
 31 33  1  0  0  0
 33 34  1  0  0  0
  5  6  2  0  0  0
  6  7  1  0  0  0
  7  8  2  0  0  0
  8  9  1  0  0  0
  9 10  1  0  0  0
  9 11  1  0  0  0
 11 12  2  0  0  0
 11  1  1  0  0  0
 17 13  1  0  0  0
  8  3  1  0  0  0
 27 22  1  0  0  0
 34 28  1  0  0  0
 20 21  1  0  0  0
M  END
> <minimizedAffinity>
-7.00775

> <CNNscore>
0.3511614501

> <CNNaffinity>
6.7631254196

> <CNN_VS>
2.3749489784

> <CNNaffinity_variance>
0.0484924987

$$$$
[H]c1nc(N([H])c2c([H])c([H])c(N3C([H])([H])C([H])([H])N(C([H])([H])[H])C([H])([H])C3([H])[H])c([H])c2OC([H])([H])[H])nc2c1N(C([H])([H])[H])C(=O)[C@@]([H])(C([H])([H])C([H])([H])[H])N2C1([H])C([H])([H])C([H])([H])C([H])([H])C1([H])[H]


 36 40  0  0  0  0  0  0  0  0999 V2000
    2.3171  -52.5248  -25.1585 C   0  0  0  0  0  0  0  0  0  0  0  0
    2.4477  -51.9411  -23.8479 N   0  0  0  0  0  0  0  0  0  0  0  0
    1.3265  -52.1775  -22.9508 C   0  0  0  0  0  0  0  0  0  0  0  0
    1.5976  -52.2667  -21.6555 N   0  0  0  0  0  0  0  0  0  0  0  0
    0.5397  -52.4944  -20.7902 C   0  0  0  0  0  0  0  0  0  0  0  0
   -0.6811  -52.6102  -21.3044 N   0  0  0  0  0  0  0  0  0  0  0  0
   -0.9988  -52.5272  -22.6073 C   0  0  0  0  0  0  0  0  0  0  0  0
    0.0506  -52.3011  -23.4700 C   0  0  0  0  0  0  0  0  0  0  0  0
   -0.1100  -52.1960  -24.8739 N   0  0  0  0  0  0  0  0  0  0  0  0
   -1.4479  -52.2979  -25.4763 C   0  0  0  0  0  0  0  0  0  0  0  0
    1.0312  -51.9743  -25.7120 C   0  0  0  0  0  0  0  0  0  0  0  0
    0.9623  -51.3840  -26.7917 O   0  0  0  0  0  0  0  0  0  0  0  0
    3.5819  -51.1717  -23.4243 C   0  0  0  0  0  0  0  0  0  0  0  0
    4.5306  -51.8183  -22.4971 C   0  0  0  0  0  0  0  0  0  0  0  0
    5.3116  -50.5606  -22.0133 C   0  0  0  0  0  0  0  0  0  0  0  0
    4.0800  -49.8454  -21.4253 C   0  0  0  0  0  0  0  0  0  0  0  0
    3.1703  -49.9136  -22.6621 C   0  0  0  0  0  0  0  0  0  0  0  0
    3.1210  -53.0664  -27.4193 C   0  0  0  0  0  0  0  0  0  0  0  0
    3.4544  -52.3420  -26.0925 C   0  0  0  0  0  0  0  0  0  0  0  0
    0.9157  -52.5835  -19.4347 N   0  0  0  0  0  0  0  0  0  0  0  0
    1.7882  -53.1664  -19.1914 H   0  0  0  0  0  0  0  0  0  0  0  0
    0.2624  -51.9807  -18.3561 C   0  0  0  0  0  0  0  0  0  0  0  0
   -0.7839  -52.4978  -17.6429 C   0  0  0  0  0  0  0  0  0  0  0  0
   -1.4004  -51.8348  -16.5716 C   0  0  0  0  0  0  0  0  0  0  0  0
   -0.9337  -50.5875  -16.2061 C   0  0  0  0  0  0  0  0  0  0  0  0
    0.1260  -50.0195  -16.8991 C   0  0  0  0  0  0  0  0  0  0  0  0
    0.7005  -50.7085  -17.9451 C   0  0  0  0  0  0  0  0  0  0  0  0
   -1.5024  -49.8626  -15.1512 N   0  0  0  0  0  0  0  0  0  0  0  0
   -1.5149  -48.4285  -15.0085 C   0  0  0  0  0  0  0  0  0  0  0  0
   -2.9601  -47.9898  -15.0913 C   0  0  0  0  0  0  0  0  0  0  0  0
   -3.8229  -48.7946  -14.2510 N   0  0  0  0  0  0  0  0  0  0  0  0
   -4.7393  -49.5878  -15.0491 C   0  0  0  0  0  0  0  0  0  0  0  0
   -3.0759  -49.6229  -13.3215 C   0  0  0  0  0  0  0  0  0  0  0  0
   -2.1710  -50.5944  -14.0576 C   0  0  0  0  0  0  0  0  0  0  0  0
    1.7618  -50.1519  -18.6469 O   0  0  0  0  0  0  0  0  0  0  0  0
    2.7880  -49.4736  -17.9861 C   0  0  0  0  0  0  0  0  0  0  0  0
 18 19  1  0  0  0
 19  1  1  0  0  0
  1  2  1  0  0  0
  2 13  1  0  0  0
 13 14  1  0  0  0
 14 15  1  0  0  0
 15 16  1  0  0  0
 16 17  1  0  0  0
  2  3  1  0  0  0
  3  4  2  0  0  0
  4  5  1  0  0  0
  5 20  1  0  0  0
 20 22  1  0  0  0
 22 23  2  0  0  0
 23 24  1  0  0  0
 24 25  2  0  0  0
 25 26  1  0  0  0
 26 27  2  0  0  0
 27 35  1  0  0  0
 35 36  1  0  0  0
 25 28  1  0  0  0
 28 29  1  0  0  0
 29 30  1  0  0  0
 30 31  1  0  0  0
 31 32  1  0  0  0
 31 33  1  0  0  0
 33 34  1  0  0  0
  5  6  2  0  0  0
  6  7  1  0  0  0
  7  8  2  0  0  0
  8  9  1  0  0  0
  9 10  1  0  0  0
  9 11  1  0  0  0
 11 12  2  0  0  0
 11  1  1  0  0  0
 17 13  1  0  0  0
  8  3  1  0  0  0
 27 22  1  0  0  0
 34 28  1  0  0  0
 20 21  1  0  0  0
M  END
> <minimizedAffinity>
-7.25936

> <CNNscore>
0.2769305408

> <CNNaffinity>
7.1659421921

> <CNN_VS>
1.9844682217

> <CNNaffinity_variance>
0.3493253589

$$$$
[H]c1nc(N([H])c2c([H])c([H])c(N3C([H])([H])C([H])([H])N(C([H])([H])[H])C([H])([H])C3([H])[H])c([H])c2OC([H])([H])[H])nc2c1N(C([H])([H])[H])C(=O)[C@@]([H])(C([H])([H])C([H])([H])[H])N2C1([H])C([H])([H])C([H])([H])C([H])([H])C1([H])[H]


 36 40  0  0  0  0  0  0  0  0999 V2000
    2.1868  -52.1587  -25.3316 C   0  0  0  0  0  0  0  0  0  0  0  0
    2.3852  -51.5527  -24.0397 N   0  0  0  0  0  0  0  0  0  0  0  0
    1.4360  -51.9582  -23.0138 C   0  0  0  0  0  0  0  0  0  0  0  0
    1.8768  -51.9943  -21.7633 N   0  0  0  0  0  0  0  0  0  0  0  0
    0.9843  -52.3815  -20.7768 C   0  0  0  0  0  0  0  0  0  0  0  0
   -0.2570  -52.6933  -21.1372 N   0  0  0  0  0  0  0  0  0  0  0  0
   -0.7434  -52.6708  -22.3896 C   0  0  0  0  0  0  0  0  0  0  0  0
    0.1413  -52.2867  -23.3726 C   0  0  0  0  0  0  0  0  0  0  0  0
   -0.2072  -52.2180  -24.7443 N   0  0  0  0  0  0  0  0  0  0  0  0
   -1.5764  -52.5355  -25.1776 C   0  0  0  0  0  0  0  0  0  0  0  0
    0.7712  -51.8234  -25.7143 C   0  0  0  0  0  0  0  0  0  0  0  0
    0.4758  -51.2590  -26.7693 O   0  0  0  0  0  0  0  0  0  0  0  0
    3.4268  -50.6100  -23.7498 C   0  0  0  0  0  0  0  0  0  0  0  0
    4.3100  -50.9074  -22.6056 C   0  0  0  0  0  0  0  0  0  0  0  0
    4.9681  -49.5078  -22.4210 C   0  0  0  0  0  0  0  0  0  0  0  0
    3.6459  -48.7625  -22.1554 C   0  0  0  0  0  0  0  0  0  0  0  0
    2.8718  -49.2312  -23.3977 C   0  0  0  0  0  0  0  0  0  0  0  0
    3.0922  -52.8888  -27.4991 C   0  0  0  0  0  0  0  0  0  0  0  0
    3.1556  -51.8039  -26.3967 C   0  0  0  0  0  0  0  0  0  0  0  0
    1.5353  -52.4004  -19.4796 N   0  0  0  0  0  0  0  0  0  0  0  0
    1.6595  -53.3563  -18.9990 H   0  0  0  0  0  0  0  0  0  0  0  0
    1.9462  -51.2867  -18.7415 C   0  0  0  0  0  0  0  0  0  0  0  0
    3.1799  -50.6970  -18.7721 C   0  0  0  0  0  0  0  0  0  0  0  0
    3.5299  -49.5811  -17.9977 C   0  0  0  0  0  0  0  0  0  0  0  0
    2.5836  -49.0372  -17.1518 C   0  0  0  0  0  0  0  0  0  0  0  0
    1.3167  -49.5997  -17.0847 C   0  0  0  0  0  0  0  0  0  0  0  0
    1.0183  -50.6959  -17.8645 C   0  0  0  0  0  0  0  0  0  0  0  0
    2.8613  -47.9273  -16.3438 N   0  0  0  0  0  0  0  0  0  0  0  0
    1.9446  -47.2745  -15.4436 C   0  0  0  0  0  0  0  0  0  0  0  0
    2.4801  -47.4791  -14.0439 C   0  0  0  0  0  0  0  0  0  0  0  0
    3.8954  -47.1841  -13.9534 N   0  0  0  0  0  0  0  0  0  0  0  0
    4.6638  -48.3839  -13.6781 C   0  0  0  0  0  0  0  0  0  0  0  0
    4.3941  -46.4933  -15.1291 C   0  0  0  0  0  0  0  0  0  0  0  0
    4.2135  -47.3364  -16.3785 C   0  0  0  0  0  0  0  0  0  0  0  0
   -0.2456  -51.2684  -17.8074 O   0  0  0  0  0  0  0  0  0  0  0  0
   -0.6933  -51.9165  -16.6544 C   0  0  0  0  0  0  0  0  0  0  0  0
 18 19  1  0  0  0
 19  1  1  0  0  0
  1  2  1  0  0  0
  2 13  1  0  0  0
 13 14  1  0  0  0
 14 15  1  0  0  0
 15 16  1  0  0  0
 16 17  1  0  0  0
  2  3  1  0  0  0
  3  4  2  0  0  0
  4  5  1  0  0  0
  5 20  1  0  0  0
 20 22  1  0  0  0
 22 23  2  0  0  0
 23 24  1  0  0  0
 24 25  2  0  0  0
 25 26  1  0  0  0
 26 27  2  0  0  0
 27 35  1  0  0  0
 35 36  1  0  0  0
 25 28  1  0  0  0
 28 29  1  0  0  0
 29 30  1  0  0  0
 30 31  1  0  0  0
 31 32  1  0  0  0
 31 33  1  0  0  0
 33 34  1  0  0  0
  5  6  2  0  0  0
  6  7  1  0  0  0
  7  8  2  0  0  0
  8  9  1  0  0  0
  9 10  1  0  0  0
  9 11  1  0  0  0
 11 12  2  0  0  0
 11  1  1  0  0  0
 17 13  1  0  0  0
  8  3  1  0  0  0
 27 22  1  0  0  0
 34 28  1  0  0  0
 20 21  1  0  0  0
M  END
> <minimizedAffinity>
-6.05959

> <CNNscore>
0.1783969253

> <CNNaffinity>
6.7283644676

> <CNN_VS>
1.2003195286

> <CNNaffinity_variance>
0.2003565729

$$$$
[H]c1nc(N([H])c2c([H])c([H])c(N3C([H])([H])C([H])([H])N(C([H])([H])[H])C([H])([H])C3([H])[H])c([H])c2OC([H])([H])[H])nc2c1N(C([H])([H])[H])C(=O)[C@@]([H])(C([H])([H])C([H])([H])[H])N2C1([H])C([H])([H])C([H])([H])C([H])([H])C1([H])[H]


 36 40  0  0  0  0  0  0  0  0999 V2000
   -1.0978  -49.0951  -15.7228 C   0  0  0  0  0  0  0  0  0  0  0  0
   -0.0798  -49.8919  -16.3589 N   0  0  0  0  0  0  0  0  0  0  0  0
   -0.5596  -51.0976  -17.0176 C   0  0  0  0  0  0  0  0  0  0  0  0
    0.1027  -51.5029  -18.0930 N   0  0  0  0  0  0  0  0  0  0  0  0
   -0.3451  -52.6479  -18.7316 C   0  0  0  0  0  0  0  0  0  0  0  0
   -1.4078  -53.2727  -18.2333 N   0  0  0  0  0  0  0  0  0  0  0  0
   -2.1068  -52.8966  -17.1491 C   0  0  0  0  0  0  0  0  0  0  0  0
   -1.6644  -51.7586  -16.5121 C   0  0  0  0  0  0  0  0  0  0  0  0
   -2.2927  -51.2214  -15.3613 N   0  0  0  0  0  0  0  0  0  0  0  0
   -3.4578  -51.8969  -14.7698 C   0  0  0  0  0  0  0  0  0  0  0  0
   -1.7849  -50.0240  -14.7595 C   0  0  0  0  0  0  0  0  0  0  0  0
   -1.9025  -49.7789  -13.5574 O   0  0  0  0  0  0  0  0  0  0  0  0
    1.3150  -49.5568  -16.3585 C   0  0  0  0  0  0  0  0  0  0  0  0
    1.9468  -49.2870  -17.6644 C   0  0  0  0  0  0  0  0  0  0  0  0
    3.4445  -49.3787  -17.2468 C   0  0  0  0  0  0  0  0  0  0  0  0
    3.3663  -50.8367  -16.7545 C   0  0  0  0  0  0  0  0  0  0  0  0
    2.1765  -50.6846  -15.7937 C   0  0  0  0  0  0  0  0  0  0  0  0
   -1.8133  -46.8098  -15.1608 C   0  0  0  0  0  0  0  0  0  0  0  0
   -0.6583  -47.8367  -15.0730 C   0  0  0  0  0  0  0  0  0  0  0  0
    0.4089  -53.0034  -19.8682 N   0  0  0  0  0  0  0  0  0  0  0  0
    0.2650  -53.9882  -20.2803 H   0  0  0  0  0  0  0  0  0  0  0  0
    1.3384  -52.1941  -20.5277 C   0  0  0  0  0  0  0  0  0  0  0  0
    2.5949  -51.8729  -20.0931 C   0  0  0  0  0  0  0  0  0  0  0  0
    3.4779  -51.0466  -20.8035 C   0  0  0  0  0  0  0  0  0  0  0  0
    3.0672  -50.5206  -22.0125 C   0  0  0  0  0  0  0  0  0  0  0  0
    1.8007  -50.8168  -22.4967 C   0  0  0  0  0  0  0  0  0  0  0  0
    0.9675  -51.6337  -21.7637 C   0  0  0  0  0  0  0  0  0  0  0  0
    3.8908  -49.6831  -22.7753 N   0  0  0  0  0  0  0  0  0  0  0  0
    4.0062  -49.6752  -24.2118 C   0  0  0  0  0  0  0  0  0  0  0  0
    3.4830  -48.3386  -24.6889 C   0  0  0  0  0  0  0  0  0  0  0  0
    4.0307  -47.2354  -23.9265 N   0  0  0  0  0  0  0  0  0  0  0  0
    3.0013  -46.5786  -23.1425 C   0  0  0  0  0  0  0  0  0  0  0  0
    5.1530  -47.6374  -23.0975 C   0  0  0  0  0  0  0  0  0  0  0  0
    4.7381  -48.6904  -22.0858 C   0  0  0  0  0  0  0  0  0  0  0  0
   -0.3022  -51.9384  -22.2366 O   0  0  0  0  0  0  0  0  0  0  0  0
   -0.4782  -52.6949  -23.3971 C   0  0  0  0  0  0  0  0  0  0  0  0
 18 19  1  0  0  0
 19  1  1  0  0  0
  1  2  1  0  0  0
  2 13  1  0  0  0
 13 14  1  0  0  0
 14 15  1  0  0  0
 15 16  1  0  0  0
 16 17  1  0  0  0
  2  3  1  0  0  0
  3  4  2  0  0  0
  4  5  1  0  0  0
  5 20  1  0  0  0
 20 22  1  0  0  0
 22 23  2  0  0  0
 23 24  1  0  0  0
 24 25  2  0  0  0
 25 26  1  0  0  0
 26 27  2  0  0  0
 27 35  1  0  0  0
 35 36  1  0  0  0
 25 28  1  0  0  0
 28 29  1  0  0  0
 29 30  1  0  0  0
 30 31  1  0  0  0
 31 32  1  0  0  0
 31 33  1  0  0  0
 33 34  1  0  0  0
  5  6  2  0  0  0
  6  7  1  0  0  0
  7  8  2  0  0  0
  8  9  1  0  0  0
  9 10  1  0  0  0
  9 11  1  0  0  0
 11 12  2  0  0  0
 11  1  1  0  0  0
 17 13  1  0  0  0
  8  3  1  0  0  0
 27 22  1  0  0  0
 34 28  1  0  0  0
 20 21  1  0  0  0
M  END
> <minimizedAffinity>
-6.65064

> <CNNscore>
0.1609425992

> <CNNaffinity>
6.3713908195

> <CNN_VS>
1.0254281759

> <CNNaffinity_variance>
0.1390824914

$$$$
[H]c1nc(N([H])c2c([H])c([H])c(N3C([H])([H])C([H])([H])N(C([H])([H])[H])C([H])([H])C3([H])[H])c([H])c2OC([H])([H])[H])nc2c1N(C([H])([H])[H])C(=O)[C@@]([H])(C([H])([H])C([H])([H])[H])N2C1([H])C([H])([H])C([H])([H])C([H])([H])C1([H])[H]


 36 40  0  0  0  0  0  0  0  0999 V2000
    1.2609  -52.0166  -24.3851 C   0  0  0  0  0  0  0  0  0  0  0  0
    0.9343  -52.0927  -22.9840 N   0  0  0  0  0  0  0  0  0  0  0  0
    1.9445  -51.5576  -22.0833 C   0  0  0  0  0  0  0  0  0  0  0  0
    1.5172  -51.0098  -20.9534 N   0  0  0  0  0  0  0  0  0  0  0  0
    2.4681  -50.4938  -20.0879 C   0  0  0  0  0  0  0  0  0  0  0  0
    3.7485  -50.5763  -20.4369 N   0  0  0  0  0  0  0  0  0  0  0  0
    4.2233  -51.1212  -21.5697 C   0  0  0  0  0  0  0  0  0  0  0  0
    3.2805  -51.6348  -22.4323 C   0  0  0  0  0  0  0  0  0  0  0  0
    3.6112  -52.2355  -23.6722 N   0  0  0  0  0  0  0  0  0  0  0  0
    5.0180  -52.3630  -24.0820 C   0  0  0  0  0  0  0  0  0  0  0  0
    2.5746  -52.7357  -24.5262 C   0  0  0  0  0  0  0  0  0  0  0  0
    2.7473  -53.6732  -25.3073 O   0  0  0  0  0  0  0  0  0  0  0  0
   -0.2843  -52.6535  -22.4759 C   0  0  0  0  0  0  0  0  0  0  0  0
   -0.9113  -51.9786  -21.3231 C   0  0  0  0  0  0  0  0  0  0  0  0
   -1.9016  -53.0965  -20.8809 C   0  0  0  0  0  0  0  0  0  0  0  0
   -0.8128  -54.1531  -20.6118 C   0  0  0  0  0  0  0  0  0  0  0  0
   -0.0913  -54.0807  -21.9669 C   0  0  0  0  0  0  0  0  0  0  0  0
   -0.3415  -51.3051  -26.1104 C   0  0  0  0  0  0  0  0  0  0  0  0
    0.2425  -52.5147  -25.3409 C   0  0  0  0  0  0  0  0  0  0  0  0
    1.9293  -49.9241  -18.9166 N   0  0  0  0  0  0  0  0  0  0  0  0
    2.3304  -48.9812  -18.5847 H   0  0  0  0  0  0  0  0  0  0  0  0
    0.9088  -50.4658  -18.1299 C   0  0  0  0  0  0  0  0  0  0  0  0
    0.3001  -51.6783  -18.3038 C   0  0  0  0  0  0  0  0  0  0  0  0
   -0.7265  -52.1606  -17.4788 C   0  0  0  0  0  0  0  0  0  0  0  0
   -1.1566  -51.3759  -16.4271 C   0  0  0  0  0  0  0  0  0  0  0  0
   -0.5706  -50.1370  -16.2088 C   0  0  0  0  0  0  0  0  0  0  0  0
    0.4352  -49.7047  -17.0457 C   0  0  0  0  0  0  0  0  0  0  0  0
   -2.1806  -51.7876  -15.5647 N   0  0  0  0  0  0  0  0  0  0  0  0
   -2.1367  -51.7876  -14.1242 C   0  0  0  0  0  0  0  0  0  0  0  0
   -3.1686  -50.7877  -13.6516 C   0  0  0  0  0  0  0  0  0  0  0  0
   -4.4406  -50.9586  -14.3232 N   0  0  0  0  0  0  0  0  0  0  0  0
   -4.7398  -49.8223  -15.1748 C   0  0  0  0  0  0  0  0  0  0  0  0
   -4.5152  -52.2075  -15.0599 C   0  0  0  0  0  0  0  0  0  0  0  0
   -3.4507  -52.2715  -16.1403 C   0  0  0  0  0  0  0  0  0  0  0  0
    1.0304  -48.4673  -16.8384 O   0  0  0  0  0  0  0  0  0  0  0  0
    1.7764  -48.2086  -15.6867 C   0  0  0  0  0  0  0  0  0  0  0  0
 18 19  1  0  0  0
 19  1  1  0  0  0
  1  2  1  0  0  0
  2 13  1  0  0  0
 13 14  1  0  0  0
 14 15  1  0  0  0
 15 16  1  0  0  0
 16 17  1  0  0  0
  2  3  1  0  0  0
  3  4  2  0  0  0
  4  5  1  0  0  0
  5 20  1  0  0  0
 20 22  1  0  0  0
 22 23  2  0  0  0
 23 24  1  0  0  0
 24 25  2  0  0  0
 25 26  1  0  0  0
 26 27  2  0  0  0
 27 35  1  0  0  0
 35 36  1  0  0  0
 25 28  1  0  0  0
 28 29  1  0  0  0
 29 30  1  0  0  0
 30 31  1  0  0  0
 31 32  1  0  0  0
 31 33  1  0  0  0
 33 34  1  0  0  0
  5  6  2  0  0  0
  6  7  1  0  0  0
  7  8  2  0  0  0
  8  9  1  0  0  0
  9 10  1  0  0  0
  9 11  1  0  0  0
 11 12  2  0  0  0
 11  1  1  0  0  0
 17 13  1  0  0  0
  8  3  1  0  0  0
 27 22  1  0  0  0
 34 28  1  0  0  0
 20 21  1  0  0  0
M  END
> <minimizedAffinity>
-8.12164

> <CNNscore>
0.1383362114

> <CNNaffinity>
6.5718317032

> <CNN_VS>
0.9091222882

> <CNNaffinity_variance>
0.2454176247

$$$$
[H]O[C@]([H])(C([H])([H])N([H])C(=O)c1c(C([H])([H])[H])c(/C([H])=C2\C(=O)N([H])c3c([H])c([H])c(F)c([H])c32)n([H])c1C([H])([H])[H])C([H])([H])N1C([H])([H])C([H])([H])OC([H])([H])C1([H])[H]


 36 39  0  0  0  0  0  0  0  0999 V2000
   -0.4321  -54.0389  -23.9803 C   0  0  0  0  0  0  0  0  0  0  0  0
    0.0316  -52.9746  -23.0386 C   0  0  0  0  0  0  0  0  0  0  0  0
   -0.0774  -52.9570  -21.7143 N   0  0  0  0  0  0  0  0  0  0  0  0
    0.4433  -51.8449  -21.2197 C   0  0  0  0  0  0  0  0  0  0  0  0
    0.9269  -51.0813  -22.3064 C   0  0  0  0  0  0  0  0  0  0  0  0
    1.6098  -49.7658  -22.1682 C   0  0  0  0  0  0  0  0  0  0  0  0
    0.6728  -51.7779  -23.4268 C   0  0  0  0  0  0  0  0  0  0  0  0
   -0.5445  -53.7497  -21.1721 H   0  0  0  0  0  0  0  0  0  0  0  0
    0.5861  -51.3763  -19.8541 C   0  0  0  0  0  0  0  0  0  0  0  0
   -0.0573  -51.8496  -18.8090 C   0  0  0  0  0  0  0  0  0  0  0  0
   -1.0284  -52.9273  -18.7810 C   0  0  0  0  0  0  0  0  0  0  0  0
   -1.4227  -53.6302  -19.7657 O   0  0  0  0  0  0  0  0  0  0  0  0
   -1.4536  -53.0471  -17.4265 N   0  0  0  0  0  0  0  0  0  0  0  0
   -0.7851  -52.0836  -16.5938 C   0  0  0  0  0  0  0  0  0  0  0  0
   -0.8494  -51.8035  -15.2442 C   0  0  0  0  0  0  0  0  0  0  0  0
   -0.0840  -50.8072  -14.6978 C   0  0  0  0  0  0  0  0  0  0  0  0
    0.7627  -50.0733  -15.5056 C   0  0  0  0  0  0  0  0  0  0  0  0
    1.5227  -49.0815  -14.9533 F   0  0  0  0  0  0  0  0  0  0  0  0
    0.8155  -50.3655  -16.8510 C   0  0  0  0  0  0  0  0  0  0  0  0
    0.0536  -51.3626  -17.4161 C   0  0  0  0  0  0  0  0  0  0  0  0
   -2.1433  -53.7287  -17.0911 H   0  0  0  0  0  0  0  0  0  0  0  0
    1.0038  -51.4562  -24.8176 C   0  0  0  0  0  0  0  0  0  0  0  0
   -0.0021  -51.2883  -25.5947 O   0  0  0  0  0  0  0  0  0  0  0  0
    2.2766  -51.3161  -25.3541 N   0  0  0  0  0  0  0  0  0  0  0  0
    3.1011  -51.4447  -24.6646 H   0  0  0  0  0  0  0  0  0  0  0  0
    2.6744  -50.9969  -26.6918 C   0  0  0  0  0  0  0  0  0  0  0  0
    3.6419  -49.8762  -26.8071 C   0  0  0  0  0  0  0  0  0  0  0  0
    4.0558  -49.5990  -28.0896 O   0  0  0  0  0  0  0  0  0  0  0  0
    4.9980  -49.8151  -28.2785 H   0  0  0  0  0  0  0  0  0  0  0  0
    3.0005  -48.6429  -26.1692 C   0  0  0  0  0  0  0  0  0  0  0  0
    3.6330  -47.4348  -26.5548 N   0  0  0  0  0  0  0  0  0  0  0  0
    2.8225  -46.4741  -27.1678 C   0  0  0  0  0  0  0  0  0  0  0  0
    3.1984  -45.0459  -26.9929 C   0  0  0  0  0  0  0  0  0  0  0  0
    4.4833  -44.8249  -26.5702 O   0  0  0  0  0  0  0  0  0  0  0  0
    4.6252  -45.5449  -25.3609 C   0  0  0  0  0  0  0  0  0  0  0  0
    4.7280  -46.9947  -25.7804 C   0  0  0  0  0  0  0  0  0  0  0  0
  1  2  1  0  0  0
  2  3  1  0  0  0
  3  4  1  0  0  0
  4  9  1  0  0  0
  9 10  2  0  0  0
 10 11  1  0  0  0
 11 12  2  0  0  0
 11 13  1  0  0  0
 13 14  1  0  0  0
 14 15  2  0  0  0
 15 16  1  0  0  0
 16 17  2  0  0  0
 17 18  1  0  0  0
 17 19  1  0  0  0
 19 20  2  0  0  0
  4  5  2  0  0  0
  5  6  1  0  0  0
  5  7  1  0  0  0
  7 22  1  0  0  0
 22 23  2  0  0  0
 22 24  1  0  0  0
 24 26  1  0  0  0
 26 27  1  0  0  0
 27 28  1  0  0  0
 27 30  1  0  0  0
 30 31  1  0  0  0
 31 32  1  0  0  0
 32 33  1  0  0  0
 33 34  1  0  0  0
 34 35  1  0  0  0
 35 36  1  0  0  0
  7  2  2  0  0  0
 36 31  1  0  0  0
 20 10  1  0  0  0
 20 14  1  0  0  0
  3  8  1  0  0  0
 13 21  1  0  0  0
 24 25  1  0  0  0
 28 29  1  0  0  0
M  END
> <minimizedAffinity>
-7.52290

> <CNNscore>
0.4673231244

> <CNNaffinity>
6.3809571266

> <CNN_VS>
2.9819688797

> <CNNaffinity_variance>
0.3386643529

$$$$
[H]O[C@]([H])(C([H])([H])N([H])C(=O)c1c(C([H])([H])[H])c(/C([H])=C2\C(=O)N([H])c3c([H])c([H])c(F)c([H])c32)n([H])c1C([H])([H])[H])C([H])([H])N1C([H])([H])C([H])([H])OC([H])([H])C1([H])[H]


 36 39  0  0  0  0  0  0  0  0999 V2000
    0.6785  -53.5048  -19.3718 C   0  0  0  0  0  0  0  0  0  0  0  0
    0.6385  -52.8536  -20.7167 C   0  0  0  0  0  0  0  0  0  0  0  0
    0.0249  -53.2882  -21.8124 N   0  0  0  0  0  0  0  0  0  0  0  0
    0.2162  -52.4473  -22.8169 C   0  0  0  0  0  0  0  0  0  0  0  0
    1.0161  -51.3855  -22.3366 C   0  0  0  0  0  0  0  0  0  0  0  0
    1.4369  -50.2161  -23.1562 C   0  0  0  0  0  0  0  0  0  0  0  0
    1.2760  -51.6365  -21.0426 C   0  0  0  0  0  0  0  0  0  0  0  0
   -0.5216  -54.2055  -21.8317 H   0  0  0  0  0  0  0  0  0  0  0  0
   -0.2595  -52.4647  -24.1874 C   0  0  0  0  0  0  0  0  0  0  0  0
    0.4579  -52.7768  -25.2449 C   0  0  0  0  0  0  0  0  0  0  0  0
    1.8533  -53.1726  -25.2824 C   0  0  0  0  0  0  0  0  0  0  0  0
    2.6381  -53.3111  -24.2905 O   0  0  0  0  0  0  0  0  0  0  0  0
    2.1730  -53.3805  -26.6551 N   0  0  0  0  0  0  0  0  0  0  0  0
    1.0286  -53.1313  -27.4899 C   0  0  0  0  0  0  0  0  0  0  0  0
    0.8296  -53.1939  -28.8539 C   0  0  0  0  0  0  0  0  0  0  0  0
   -0.3923  -52.8984  -29.3984 C   0  0  0  0  0  0  0  0  0  0  0  0
   -1.4388  -52.5334  -28.5741 C   0  0  0  0  0  0  0  0  0  0  0  0
   -2.6542  -52.2403  -29.1245 F   0  0  0  0  0  0  0  0  0  0  0  0
   -1.2240  -52.4759  -27.2143 C   0  0  0  0  0  0  0  0  0  0  0  0
   -0.0032  -52.7694  -26.6510 C   0  0  0  0  0  0  0  0  0  0  0  0
    3.0951  -53.6688  -27.0008 H   0  0  0  0  0  0  0  0  0  0  0  0
    2.0257  -50.8349  -20.0716 C   0  0  0  0  0  0  0  0  0  0  0  0
    1.3672  -49.8796  -19.5260 O   0  0  0  0  0  0  0  0  0  0  0  0
    3.3498  -51.0160  -19.6958 N   0  0  0  0  0  0  0  0  0  0  0  0
    3.8683  -51.8442  -20.1615 H   0  0  0  0  0  0  0  0  0  0  0  0
    4.1410  -50.2830  -18.7543 C   0  0  0  0  0  0  0  0  0  0  0  0
    4.9883  -49.2158  -19.3445 C   0  0  0  0  0  0  0  0  0  0  0  0
    6.0016  -48.7651  -18.5301 O   0  0  0  0  0  0  0  0  0  0  0  0
    5.8897  -47.8447  -18.1976 H   0  0  0  0  0  0  0  0  0  0  0  0
    5.5525  -49.7480  -20.6627 C   0  0  0  0  0  0  0  0  0  0  0  0
    4.8056  -49.3235  -21.7897 N   0  0  0  0  0  0  0  0  0  0  0  0
    4.2478  -48.0429  -21.7225 C   0  0  0  0  0  0  0  0  0  0  0  0
    4.0573  -47.3090  -23.0018 C   0  0  0  0  0  0  0  0  0  0  0  0
    4.0980  -48.0815  -24.1332 O   0  0  0  0  0  0  0  0  0  0  0  0
    5.3450  -48.7487  -24.1049 C   0  0  0  0  0  0  0  0  0  0  0  0
    5.1877  -49.8243  -23.0529 C   0  0  0  0  0  0  0  0  0  0  0  0
  1  2  1  0  0  0
  2  3  1  0  0  0
  3  4  1  0  0  0
  4  9  1  0  0  0
  9 10  2  0  0  0
 10 11  1  0  0  0
 11 12  2  0  0  0
 11 13  1  0  0  0
 13 14  1  0  0  0
 14 15  2  0  0  0
 15 16  1  0  0  0
 16 17  2  0  0  0
 17 18  1  0  0  0
 17 19  1  0  0  0
 19 20  2  0  0  0
  4  5  2  0  0  0
  5  6  1  0  0  0
  5  7  1  0  0  0
  7 22  1  0  0  0
 22 23  2  0  0  0
 22 24  1  0  0  0
 24 26  1  0  0  0
 26 27  1  0  0  0
 27 28  1  0  0  0
 27 30  1  0  0  0
 30 31  1  0  0  0
 31 32  1  0  0  0
 32 33  1  0  0  0
 33 34  1  0  0  0
 34 35  1  0  0  0
 35 36  1  0  0  0
  7  2  2  0  0  0
 36 31  1  0  0  0
 20 10  1  0  0  0
 20 14  1  0  0  0
  3  8  1  0  0  0
 13 21  1  0  0  0
 24 25  1  0  0  0
 28 29  1  0  0  0
M  END
> <minimizedAffinity>
-7.64852

> <CNNscore>
0.4461323917

> <CNNaffinity>
6.5605506897

> <CNN_VS>
2.9268741608

> <CNNaffinity_variance>
0.3411681056

$$$$
[H]O[C@]([H])(C([H])([H])N([H])C(=O)c1c(C([H])([H])[H])c(/C([H])=C2\C(=O)N([H])c3c([H])c([H])c(F)c([H])c32)n([H])c1C([H])([H])[H])C([H])([H])N1C([H])([H])C([H])([H])OC([H])([H])C1([H])[H]


 36 39  0  0  0  0  0  0  0  0999 V2000
   -0.5960  -52.1744  -18.3633 C   0  0  0  0  0  0  0  0  0  0  0  0
    0.3175  -51.9878  -19.5316 C   0  0  0  0  0  0  0  0  0  0  0  0
    0.1101  -52.3535  -20.7922 N   0  0  0  0  0  0  0  0  0  0  0  0
    1.1475  -52.0278  -21.5475 C   0  0  0  0  0  0  0  0  0  0  0  0
    2.1023  -51.4034  -20.7128 C   0  0  0  0  0  0  0  0  0  0  0  0
    3.4067  -50.8659  -21.1878 C   0  0  0  0  0  0  0  0  0  0  0  0
    1.5903  -51.3792  -19.4709 C   0  0  0  0  0  0  0  0  0  0  0  0
   -0.7822  -52.8535  -21.0993 H   0  0  0  0  0  0  0  0  0  0  0  0
    1.3893  -52.1908  -22.9687 C   0  0  0  0  0  0  0  0  0  0  0  0
    0.6963  -52.9579  -23.7821 C   0  0  0  0  0  0  0  0  0  0  0  0
   -0.4452  -53.7914  -23.4546 C   0  0  0  0  0  0  0  0  0  0  0  0
   -1.0016  -53.9178  -22.3172 O   0  0  0  0  0  0  0  0  0  0  0  0
   -0.8255  -54.4414  -24.6641 N   0  0  0  0  0  0  0  0  0  0  0  0
    0.0345  -54.0484  -25.7478 C   0  0  0  0  0  0  0  0  0  0  0  0
    0.0770  -54.3896  -27.0841 C   0  0  0  0  0  0  0  0  0  0  0  0
    1.0253  -53.8531  -27.9148 C   0  0  0  0  0  0  0  0  0  0  0  0
    1.9505  -52.9599  -27.4107 C   0  0  0  0  0  0  0  0  0  0  0  0
    2.8929  -52.4293  -28.2452 F   0  0  0  0  0  0  0  0  0  0  0  0
    1.8945  -52.6294  -26.0743 C   0  0  0  0  0  0  0  0  0  0  0  0
    0.9489  -53.1589  -25.2262 C   0  0  0  0  0  0  0  0  0  0  0  0
   -1.6072  -55.1005  -24.7497 H   0  0  0  0  0  0  0  0  0  0  0  0
    2.1531  -50.8102  -18.2434 C   0  0  0  0  0  0  0  0  0  0  0  0
    1.6550  -49.6849  -17.8834 O   0  0  0  0  0  0  0  0  0  0  0  0
    3.1484  -51.3688  -17.4531 N   0  0  0  0  0  0  0  0  0  0  0  0
    3.5310  -52.3284  -17.7762 H   0  0  0  0  0  0  0  0  0  0  0  0
    3.7384  -50.8785  -16.2442 C   0  0  0  0  0  0  0  0  0  0  0  0
    3.6598  -51.8065  -15.0876 C   0  0  0  0  0  0  0  0  0  0  0  0
    4.6710  -52.7373  -15.0230 O   0  0  0  0  0  0  0  0  0  0  0  0
    4.3918  -53.6670  -15.1903 H   0  0  0  0  0  0  0  0  0  0  0  0
    3.6253  -50.9588  -13.8150 C   0  0  0  0  0  0  0  0  0  0  0  0
    2.3618  -50.9840  -13.1737 N   0  0  0  0  0  0  0  0  0  0  0  0
    1.5493  -49.8597  -13.3512 C   0  0  0  0  0  0  0  0  0  0  0  0
    0.0768  -50.0625  -13.3042 C   0  0  0  0  0  0  0  0  0  0  0  0
   -0.3357  -51.2383  -12.7336 O   0  0  0  0  0  0  0  0  0  0  0  0
    0.3015  -52.2699  -13.4621 C   0  0  0  0  0  0  0  0  0  0  0  0
    1.7420  -52.2403  -13.0009 C   0  0  0  0  0  0  0  0  0  0  0  0
  1  2  1  0  0  0
  2  3  1  0  0  0
  3  4  1  0  0  0
  4  9  1  0  0  0
  9 10  2  0  0  0
 10 11  1  0  0  0
 11 12  2  0  0  0
 11 13  1  0  0  0
 13 14  1  0  0  0
 14 15  2  0  0  0
 15 16  1  0  0  0
 16 17  2  0  0  0
 17 18  1  0  0  0
 17 19  1  0  0  0
 19 20  2  0  0  0
  4  5  2  0  0  0
  5  6  1  0  0  0
  5  7  1  0  0  0
  7 22  1  0  0  0
 22 23  2  0  0  0
 22 24  1  0  0  0
 24 26  1  0  0  0
 26 27  1  0  0  0
 27 28  1  0  0  0
 27 30  1  0  0  0
 30 31  1  0  0  0
 31 32  1  0  0  0
 32 33  1  0  0  0
 33 34  1  0  0  0
 34 35  1  0  0  0
 35 36  1  0  0  0
  7  2  2  0  0  0
 36 31  1  0  0  0
 20 10  1  0  0  0
 20 14  1  0  0  0
  3  8  1  0  0  0
 13 21  1  0  0  0
 24 25  1  0  0  0
 28 29  1  0  0  0
M  END
> <minimizedAffinity>
-7.76621

> <CNNscore>
0.3676722944

> <CNNaffinity>
6.2130956650

> <CNN_VS>
2.2843830585

> <CNNaffinity_variance>
0.3325075507

$$$$
[H]O[C@]([H])(C([H])([H])N([H])C(=O)c1c(C([H])([H])[H])c(/C([H])=C2\C(=O)N([H])c3c([H])c([H])c(F)c([H])c32)n([H])c1C([H])([H])[H])C([H])([H])N1C([H])([H])C([H])([H])OC([H])([H])C1([H])[H]


 36 39  0  0  0  0  0  0  0  0999 V2000
    0.2438  -53.4047  -19.2861 C   0  0  0  0  0  0  0  0  0  0  0  0
    0.3217  -52.7919  -20.6473 C   0  0  0  0  0  0  0  0  0  0  0  0
   -0.3002  -53.1867  -21.7533 N   0  0  0  0  0  0  0  0  0  0  0  0
    0.0175  -52.4015  -22.7708 C   0  0  0  0  0  0  0  0  0  0  0  0
    0.9153  -51.4221  -22.2885 C   0  0  0  0  0  0  0  0  0  0  0  0
    1.4917  -50.3310  -23.1211 C   0  0  0  0  0  0  0  0  0  0  0  0
    1.1024  -51.6633  -20.9801 C   0  0  0  0  0  0  0  0  0  0  0  0
   -0.9453  -54.0376  -21.7695 H   0  0  0  0  0  0  0  0  0  0  0  0
   -0.4115  -52.4051  -24.1568 C   0  0  0  0  0  0  0  0  0  0  0  0
    0.3263  -52.7562  -25.1876 C   0  0  0  0  0  0  0  0  0  0  0  0
    1.7024  -53.2159  -25.1755 C   0  0  0  0  0  0  0  0  0  0  0  0
    2.4458  -53.3845  -24.1567 O   0  0  0  0  0  0  0  0  0  0  0  0
    2.0587  -53.4463  -26.5356 N   0  0  0  0  0  0  0  0  0  0  0  0
    0.9561  -53.1498  -27.4102 C   0  0  0  0  0  0  0  0  0  0  0  0
    0.8010  -53.2112  -28.7799 C   0  0  0  0  0  0  0  0  0  0  0  0
   -0.3867  -52.8630  -29.3673 C   0  0  0  0  0  0  0  0  0  0  0  0
   -1.4427  -52.4455  -28.5809 C   0  0  0  0  0  0  0  0  0  0  0  0
   -2.6238  -52.1000  -29.1740 F   0  0  0  0  0  0  0  0  0  0  0  0
   -1.2719  -52.3899  -27.2149 C   0  0  0  0  0  0  0  0  0  0  0  0
   -0.0858  -52.7358  -26.6087 C   0  0  0  0  0  0  0  0  0  0  0  0
    2.9777  -53.7788  -26.8482 H   0  0  0  0  0  0  0  0  0  0  0  0
    1.9049  -50.9227  -20.0028 C   0  0  0  0  0  0  0  0  0  0  0  0
    2.9918  -50.4173  -20.4578 O   0  0  0  0  0  0  0  0  0  0  0  0
    1.5987  -50.7207  -18.6639 N   0  0  0  0  0  0  0  0  0  0  0  0
    0.6639  -51.1441  -18.3197 H   0  0  0  0  0  0  0  0  0  0  0  0
    2.3250  -50.0060  -17.6582 C   0  0  0  0  0  0  0  0  0  0  0  0
    1.4859  -49.3842  -16.6024 C   0  0  0  0  0  0  0  0  0  0  0  0
    0.5369  -48.5011  -17.0632 O   0  0  0  0  0  0  0  0  0  0  0  0
    0.7009  -47.5573  -16.8340 H   0  0  0  0  0  0  0  0  0  0  0  0
    0.8300  -50.5139  -15.8068 C   0  0  0  0  0  0  0  0  0  0  0  0
   -0.5849  -50.4872  -15.8817 N   0  0  0  0  0  0  0  0  0  0  0  0
   -1.1995  -51.5948  -16.4743 C   0  0  0  0  0  0  0  0  0  0  0  0
   -2.5702  -51.9460  -16.0167 C   0  0  0  0  0  0  0  0  0  0  0  0
   -3.2352  -50.9558  -15.3417 O   0  0  0  0  0  0  0  0  0  0  0  0
   -2.4053  -50.6013  -14.2524 C   0  0  0  0  0  0  0  0  0  0  0  0
   -1.2800  -49.7973  -14.8653 C   0  0  0  0  0  0  0  0  0  0  0  0
  1  2  1  0  0  0
  2  3  1  0  0  0
  3  4  1  0  0  0
  4  9  1  0  0  0
  9 10  2  0  0  0
 10 11  1  0  0  0
 11 12  2  0  0  0
 11 13  1  0  0  0
 13 14  1  0  0  0
 14 15  2  0  0  0
 15 16  1  0  0  0
 16 17  2  0  0  0
 17 18  1  0  0  0
 17 19  1  0  0  0
 19 20  2  0  0  0
  4  5  2  0  0  0
  5  6  1  0  0  0
  5  7  1  0  0  0
  7 22  1  0  0  0
 22 23  2  0  0  0
 22 24  1  0  0  0
 24 26  1  0  0  0
 26 27  1  0  0  0
 27 28  1  0  0  0
 27 30  1  0  0  0
 30 31  1  0  0  0
 31 32  1  0  0  0
 32 33  1  0  0  0
 33 34  1  0  0  0
 34 35  1  0  0  0
 35 36  1  0  0  0
  7  2  2  0  0  0
 36 31  1  0  0  0
 20 10  1  0  0  0
 20 14  1  0  0  0
  3  8  1  0  0  0
 13 21  1  0  0  0
 24 25  1  0  0  0
 28 29  1  0  0  0
M  END
> <minimizedAffinity>
-7.83272

> <CNNscore>
0.3657207489

> <CNNaffinity>
6.3632955551

> <CNN_VS>
2.3271892071

> <CNNaffinity_variance>
0.1378833503

$$$$
[H]O[C@]([H])(C([H])([H])N([H])C(=O)c1c(C([H])([H])[H])c(/C([H])=C2\C(=O)N([H])c3c([H])c([H])c(F)c([H])c32)n([H])c1C([H])([H])[H])C([H])([H])N1C([H])([H])C([H])([H])OC([H])([H])C1([H])[H]


 36 39  0  0  0  0  0  0  0  0999 V2000
    4.3078  -49.6182  -21.5171 C   0  0  0  0  0  0  0  0  0  0  0  0
    3.0973  -50.3211  -22.0414 C   0  0  0  0  0  0  0  0  0  0  0  0
    2.6604  -50.3617  -23.2958 N   0  0  0  0  0  0  0  0  0  0  0  0
    1.5502  -51.0781  -23.3785 C   0  0  0  0  0  0  0  0  0  0  0  0
    1.2420  -51.5372  -22.0776 C   0  0  0  0  0  0  0  0  0  0  0  0
    0.0754  -52.4013  -21.7483 C   0  0  0  0  0  0  0  0  0  0  0  0
    2.1956  -51.0703  -21.2543 C   0  0  0  0  0  0  0  0  0  0  0  0
    3.1641  -49.8550  -24.0896 H   0  0  0  0  0  0  0  0  0  0  0  0
    0.7179  -51.4317  -24.5131 C   0  0  0  0  0  0  0  0  0  0  0  0
    1.1345  -52.0047  -25.6214 C   0  0  0  0  0  0  0  0  0  0  0  0
    2.4871  -52.4114  -25.9532 C   0  0  0  0  0  0  0  0  0  0  0  0
    3.5214  -52.3062  -25.2195 O   0  0  0  0  0  0  0  0  0  0  0  0
    2.4291  -52.9580  -27.2676 N   0  0  0  0  0  0  0  0  0  0  0  0
    1.0863  -52.9132  -27.7809 C   0  0  0  0  0  0  0  0  0  0  0  0
    0.5241  -53.3118  -28.9764 C   0  0  0  0  0  0  0  0  0  0  0  0
   -0.8160  -53.1490  -29.2096 C   0  0  0  0  0  0  0  0  0  0  0  0
   -1.6157  -52.5796  -28.2379 C   0  0  0  0  0  0  0  0  0  0  0  0
   -2.9511  -52.4207  -28.4779 F   0  0  0  0  0  0  0  0  0  0  0  0
   -1.0392  -52.1872  -27.0496 C   0  0  0  0  0  0  0  0  0  0  0  0
    0.3050  -52.3433  -26.7991 C   0  0  0  0  0  0  0  0  0  0  0  0
    3.2363  -53.3326  -27.7783 H   0  0  0  0  0  0  0  0  0  0  0  0
    2.3701  -51.2864  -19.8155 C   0  0  0  0  0  0  0  0  0  0  0  0
    3.0574  -52.3209  -19.4969 O   0  0  0  0  0  0  0  0  0  0  0  0
    1.8745  -50.4889  -18.7929 N   0  0  0  0  0  0  0  0  0  0  0  0
    1.3166  -49.6134  -19.0992 H   0  0  0  0  0  0  0  0  0  0  0  0
    2.0109  -50.6316  -17.3749 C   0  0  0  0  0  0  0  0  0  0  0  0
    3.3444  -50.2652  -16.8338 C   0  0  0  0  0  0  0  0  0  0  0  0
    4.1890  -51.3277  -16.6085 O   0  0  0  0  0  0  0  0  0  0  0  0
    4.3746  -51.5176  -15.6599 H   0  0  0  0  0  0  0  0  0  0  0  0
    3.9798  -49.2677  -17.8035 C   0  0  0  0  0  0  0  0  0  0  0  0
    3.4773  -47.9522  -17.6442 N   0  0  0  0  0  0  0  0  0  0  0  0
    3.9732  -47.2217  -16.5597 C   0  0  0  0  0  0  0  0  0  0  0  0
    4.0305  -45.7421  -16.6972 C   0  0  0  0  0  0  0  0  0  0  0  0
    3.2636  -45.2162  -17.7040 O   0  0  0  0  0  0  0  0  0  0  0  0
    3.6852  -45.8588  -18.8915 C   0  0  0  0  0  0  0  0  0  0  0  0
    3.1001  -47.2514  -18.8099 C   0  0  0  0  0  0  0  0  0  0  0  0
  1  2  1  0  0  0
  2  3  1  0  0  0
  3  4  1  0  0  0
  4  9  1  0  0  0
  9 10  2  0  0  0
 10 11  1  0  0  0
 11 12  2  0  0  0
 11 13  1  0  0  0
 13 14  1  0  0  0
 14 15  2  0  0  0
 15 16  1  0  0  0
 16 17  2  0  0  0
 17 18  1  0  0  0
 17 19  1  0  0  0
 19 20  2  0  0  0
  4  5  2  0  0  0
  5  6  1  0  0  0
  5  7  1  0  0  0
  7 22  1  0  0  0
 22 23  2  0  0  0
 22 24  1  0  0  0
 24 26  1  0  0  0
 26 27  1  0  0  0
 27 28  1  0  0  0
 27 30  1  0  0  0
 30 31  1  0  0  0
 31 32  1  0  0  0
 32 33  1  0  0  0
 33 34  1  0  0  0
 34 35  1  0  0  0
 35 36  1  0  0  0
  7  2  2  0  0  0
 36 31  1  0  0  0
 20 10  1  0  0  0
 20 14  1  0  0  0
  3  8  1  0  0  0
 13 21  1  0  0  0
 24 25  1  0  0  0
 28 29  1  0  0  0
M  END
> <minimizedAffinity>
-7.97997

> <CNNscore>
0.2927914560

> <CNNaffinity>
6.0141749382

> <CNN_VS>
1.7608990669

> <CNNaffinity_variance>
0.1551695168

$$$$
[H]O[C@]([H])(C([H])([H])N([H])C(=O)c1c(C([H])([H])[H])c(/C([H])=C2\C(=O)N([H])c3c([H])c([H])c(F)c([H])c32)n([H])c1C([H])([H])[H])C([H])([H])N1C([H])([H])C([H])([H])OC([H])([H])C1([H])[H]


 36 39  0  0  0  0  0  0  0  0999 V2000
   -0.2109  -53.2278  -19.1894 C   0  0  0  0  0  0  0  0  0  0  0  0
   -0.0217  -52.6554  -20.5572 C   0  0  0  0  0  0  0  0  0  0  0  0
   -0.5637  -53.0744  -21.6959 N   0  0  0  0  0  0  0  0  0  0  0  0
   -0.1589  -52.3227  -22.7078 C   0  0  0  0  0  0  0  0  0  0  0  0
    0.7136  -51.3407  -22.1860 C   0  0  0  0  0  0  0  0  0  0  0  0
    1.3667  -50.2809  -23.0024 C   0  0  0  0  0  0  0  0  0  0  0  0
    0.7978  -51.5463  -20.8610 C   0  0  0  0  0  0  0  0  0  0  0  0
   -1.2178  -53.9176  -21.7374 H   0  0  0  0  0  0  0  0  0  0  0  0
   -0.4819  -52.3610  -24.1217 C   0  0  0  0  0  0  0  0  0  0  0  0
    0.3331  -52.7316  -25.0853 C   0  0  0  0  0  0  0  0  0  0  0  0
    1.7062  -53.1828  -24.9585 C   0  0  0  0  0  0  0  0  0  0  0  0
    2.3712  -53.3234  -23.8828 O   0  0  0  0  0  0  0  0  0  0  0  0
    2.1653  -53.4428  -26.2820 N   0  0  0  0  0  0  0  0  0  0  0  0
    1.1308  -53.1731  -27.2440 C   0  0  0  0  0  0  0  0  0  0  0  0
    1.0800  -53.2673  -28.6198 C   0  0  0  0  0  0  0  0  0  0  0  0
   -0.0614  -52.9398  -29.3032 C   0  0  0  0  0  0  0  0  0  0  0  0
   -1.1755  -52.5103  -28.6088 C   0  0  0  0  0  0  0  0  0  0  0  0
   -2.3099  -52.1856  -29.2973 F   0  0  0  0  0  0  0  0  0  0  0  0
   -1.1087  -52.4220  -27.2355 C   0  0  0  0  0  0  0  0  0  0  0  0
    0.0296  -52.7467  -26.5335 C   0  0  0  0  0  0  0  0  0  0  0  0
    3.1067  -53.7770  -26.5164 H   0  0  0  0  0  0  0  0  0  0  0  0
    1.5345  -50.7876  -19.8466 C   0  0  0  0  0  0  0  0  0  0  0  0
    1.0141  -49.6623  -19.5198 O   0  0  0  0  0  0  0  0  0  0  0  0
    2.7128  -51.1709  -19.2204 N   0  0  0  0  0  0  0  0  0  0  0  0
    3.1122  -52.1355  -19.5061 H   0  0  0  0  0  0  0  0  0  0  0  0
    3.4796  -50.4907  -18.2209 C   0  0  0  0  0  0  0  0  0  0  0  0
    3.2732  -50.9780  -16.8334 C   0  0  0  0  0  0  0  0  0  0  0  0
    4.4173  -51.3863  -16.1875 O   0  0  0  0  0  0  0  0  0  0  0  0
    4.4775  -52.3552  -16.0207 H   0  0  0  0  0  0  0  0  0  0  0  0
    2.5800  -49.8628  -16.0491 C   0  0  0  0  0  0  0  0  0  0  0  0
    1.4029  -50.3033  -15.3942 N   0  0  0  0  0  0  0  0  0  0  0  0
    0.3704  -50.7704  -16.2135 C   0  0  0  0  0  0  0  0  0  0  0  0
   -0.5404  -51.8018  -15.6496 C   0  0  0  0  0  0  0  0  0  0  0  0
   -0.5138  -51.9251  -14.2849 O   0  0  0  0  0  0  0  0  0  0  0  0
    0.8335  -52.1880  -13.9433 C   0  0  0  0  0  0  0  0  0  0  0  0
    1.5426  -50.8615  -14.1053 C   0  0  0  0  0  0  0  0  0  0  0  0
  1  2  1  0  0  0
  2  3  1  0  0  0
  3  4  1  0  0  0
  4  9  1  0  0  0
  9 10  2  0  0  0
 10 11  1  0  0  0
 11 12  2  0  0  0
 11 13  1  0  0  0
 13 14  1  0  0  0
 14 15  2  0  0  0
 15 16  1  0  0  0
 16 17  2  0  0  0
 17 18  1  0  0  0
 17 19  1  0  0  0
 19 20  2  0  0  0
  4  5  2  0  0  0
  5  6  1  0  0  0
  5  7  1  0  0  0
  7 22  1  0  0  0
 22 23  2  0  0  0
 22 24  1  0  0  0
 24 26  1  0  0  0
 26 27  1  0  0  0
 27 28  1  0  0  0
 27 30  1  0  0  0
 30 31  1  0  0  0
 31 32  1  0  0  0
 32 33  1  0  0  0
 33 34  1  0  0  0
 34 35  1  0  0  0
 35 36  1  0  0  0
  7  2  2  0  0  0
 36 31  1  0  0  0
 20 10  1  0  0  0
 20 14  1  0  0  0
  3  8  1  0  0  0
 13 21  1  0  0  0
 24 25  1  0  0  0
 28 29  1  0  0  0
M  END
> <minimizedAffinity>
-8.22959

> <CNNscore>
0.2918347418

> <CNNaffinity>
6.2275114059

> <CNN_VS>
1.8174041510

> <CNNaffinity_variance>
0.1056176201

$$$$
[H]O[C@]([H])(C([H])([H])N([H])C(=O)c1c(C([H])([H])[H])c(/C([H])=C2\C(=O)N([H])c3c([H])c([H])c(F)c([H])c32)n([H])c1C([H])([H])[H])C([H])([H])N1C([H])([H])C([H])([H])OC([H])([H])C1([H])[H]


 36 39  0  0  0  0  0  0  0  0999 V2000
    4.2080  -49.4487  -21.4261 C   0  0  0  0  0  0  0  0  0  0  0  0
    3.0532  -50.2226  -21.9758 C   0  0  0  0  0  0  0  0  0  0  0  0
    2.6049  -50.2352  -23.2267 N   0  0  0  0  0  0  0  0  0  0  0  0
    1.5570  -51.0368  -23.3369 C   0  0  0  0  0  0  0  0  0  0  0  0
    1.3051  -51.5861  -22.0591 C   0  0  0  0  0  0  0  0  0  0  0  0
    0.2187  -52.5605  -21.7651 C   0  0  0  0  0  0  0  0  0  0  0  0
    2.2273  -51.0840  -21.2209 C   0  0  0  0  0  0  0  0  0  0  0  0
    3.0543  -49.6482  -23.9974 H   0  0  0  0  0  0  0  0  0  0  0  0
    0.7422  -51.4001  -24.4810 C   0  0  0  0  0  0  0  0  0  0  0  0
    1.1764  -51.9781  -25.5799 C   0  0  0  0  0  0  0  0  0  0  0  0
    2.5351  -52.3816  -25.8901 C   0  0  0  0  0  0  0  0  0  0  0  0
    3.5585  -52.2683  -25.1425 O   0  0  0  0  0  0  0  0  0  0  0  0
    2.4977  -52.9362  -27.2020 N   0  0  0  0  0  0  0  0  0  0  0  0
    1.1622  -52.8994  -27.7345 C   0  0  0  0  0  0  0  0  0  0  0  0
    0.6184  -53.3070  -28.9354 C   0  0  0  0  0  0  0  0  0  0  0  0
   -0.7189  -53.1506  -29.1886 C   0  0  0  0  0  0  0  0  0  0  0  0
   -1.5343  -52.5785  -28.2316 C   0  0  0  0  0  0  0  0  0  0  0  0
   -2.8668  -52.4259  -28.4914 F   0  0  0  0  0  0  0  0  0  0  0  0
   -0.9761  -52.1770  -27.0376 C   0  0  0  0  0  0  0  0  0  0  0  0
    0.3649  -52.3266  -26.7672 C   0  0  0  0  0  0  0  0  0  0  0  0
    3.3134  -53.3108  -27.6990 H   0  0  0  0  0  0  0  0  0  0  0  0
    2.4380  -51.3582  -19.7969 C   0  0  0  0  0  0  0  0  0  0  0  0
    3.3718  -52.1964  -19.5335 O   0  0  0  0  0  0  0  0  0  0  0  0
    1.7380  -50.8022  -18.7348 N   0  0  0  0  0  0  0  0  0  0  0  0
    0.9710  -50.0837  -18.9937 H   0  0  0  0  0  0  0  0  0  0  0  0
    1.8927  -51.0142  -17.3274 C   0  0  0  0  0  0  0  0  0  0  0  0
    2.6429  -49.9507  -16.6123 C   0  0  0  0  0  0  0  0  0  0  0  0
    3.8970  -49.6901  -17.1146 O   0  0  0  0  0  0  0  0  0  0  0  0
    4.6431  -49.9592  -16.5305 H   0  0  0  0  0  0  0  0  0  0  0  0
    1.7825  -48.6863  -16.6281 C   0  0  0  0  0  0  0  0  0  0  0  0
    0.8897  -48.6171  -15.5296 N   0  0  0  0  0  0  0  0  0  0  0  0
    1.3504  -47.9465  -14.3922 C   0  0  0  0  0  0  0  0  0  0  0  0
    0.3378  -47.2792  -13.5314 C   0  0  0  0  0  0  0  0  0  0  0  0
   -0.9562  -47.6882  -13.7227 O   0  0  0  0  0  0  0  0  0  0  0  0
   -1.2318  -47.4807  -15.0946 C   0  0  0  0  0  0  0  0  0  0  0  0
   -0.4929  -48.5885  -15.8125 C   0  0  0  0  0  0  0  0  0  0  0  0
  1  2  1  0  0  0
  2  3  1  0  0  0
  3  4  1  0  0  0
  4  9  1  0  0  0
  9 10  2  0  0  0
 10 11  1  0  0  0
 11 12  2  0  0  0
 11 13  1  0  0  0
 13 14  1  0  0  0
 14 15  2  0  0  0
 15 16  1  0  0  0
 16 17  2  0  0  0
 17 18  1  0  0  0
 17 19  1  0  0  0
 19 20  2  0  0  0
  4  5  2  0  0  0
  5  6  1  0  0  0
  5  7  1  0  0  0
  7 22  1  0  0  0
 22 23  2  0  0  0
 22 24  1  0  0  0
 24 26  1  0  0  0
 26 27  1  0  0  0
 27 28  1  0  0  0
 27 30  1  0  0  0
 30 31  1  0  0  0
 31 32  1  0  0  0
 32 33  1  0  0  0
 33 34  1  0  0  0
 34 35  1  0  0  0
 35 36  1  0  0  0
  7  2  2  0  0  0
 36 31  1  0  0  0
 20 10  1  0  0  0
 20 14  1  0  0  0
  3  8  1  0  0  0
 13 21  1  0  0  0
 24 25  1  0  0  0
 28 29  1  0  0  0
M  END
> <minimizedAffinity>
-7.75874

> <CNNscore>
0.2122577280

> <CNNaffinity>
5.8245239258

> <CNN_VS>
1.2363002300

> <CNNaffinity_variance>
0.1107833982

$$$$
[H]O[C@]([H])(C([H])([H])N([H])C(=O)c1c(C([H])([H])[H])c(/C([H])=C2\C(=O)N([H])c3c([H])c([H])c(F)c([H])c32)n([H])c1C([H])([H])[H])C([H])([H])N1C([H])([H])C([H])([H])OC([H])([H])C1([H])[H]


 36 39  0  0  0  0  0  0  0  0999 V2000
   -0.3514  -54.6684  -21.4100 C   0  0  0  0  0  0  0  0  0  0  0  0
   -0.0178  -53.2843  -20.9544 C   0  0  0  0  0  0  0  0  0  0  0  0
   -0.0054  -52.8191  -19.7096 N   0  0  0  0  0  0  0  0  0  0  0  0
    0.3335  -51.5394  -19.6950 C   0  0  0  0  0  0  0  0  0  0  0  0
    0.5574  -51.1431  -21.0331 C   0  0  0  0  0  0  0  0  0  0  0  0
    0.9822  -49.7762  -21.4424 C   0  0  0  0  0  0  0  0  0  0  0  0
    0.3407  -52.2186  -21.8086 C   0  0  0  0  0  0  0  0  0  0  0  0
   -0.2579  -53.4312  -18.8717 H   0  0  0  0  0  0  0  0  0  0  0  0
    0.5082  -50.6050  -18.5990 C   0  0  0  0  0  0  0  0  0  0  0  0
    1.6342  -50.3741  -17.9594 C   0  0  0  0  0  0  0  0  0  0  0  0
    2.9299  -50.9804  -18.2015 C   0  0  0  0  0  0  0  0  0  0  0  0
    3.2207  -51.8370  -19.0963 O   0  0  0  0  0  0  0  0  0  0  0  0
    3.8186  -50.4225  -17.2377 N   0  0  0  0  0  0  0  0  0  0  0  0
    3.1319  -49.4824  -16.3932 C   0  0  0  0  0  0  0  0  0  0  0  0
    3.5418  -48.6957  -15.3363 C   0  0  0  0  0  0  0  0  0  0  0  0
    2.6583  -47.8688  -14.6938 C   0  0  0  0  0  0  0  0  0  0  0  0
    1.3413  -47.8207  -15.1073 C   0  0  0  0  0  0  0  0  0  0  0  0
    0.4663  -46.9938  -14.4617 F   0  0  0  0  0  0  0  0  0  0  0  0
    0.9479  -48.6122  -16.1642 C   0  0  0  0  0  0  0  0  0  0  0  0
    1.8221  -49.4482  -16.8205 C   0  0  0  0  0  0  0  0  0  0  0  0
    4.8136  -50.6597  -17.1575 H   0  0  0  0  0  0  0  0  0  0  0  0
    0.4732  -52.3604  -23.2611 C   0  0  0  0  0  0  0  0  0  0  0  0
   -0.6153  -52.2273  -23.9254 O   0  0  0  0  0  0  0  0  0  0  0  0
    1.6428  -52.6148  -23.9643 N   0  0  0  0  0  0  0  0  0  0  0  0
    2.5452  -52.7010  -23.3728 H   0  0  0  0  0  0  0  0  0  0  0  0
    1.8491  -52.7569  -25.3739 C   0  0  0  0  0  0  0  0  0  0  0  0
    3.2627  -52.6435  -25.8147 C   0  0  0  0  0  0  0  0  0  0  0  0
    3.5178  -53.1390  -27.0726 O   0  0  0  0  0  0  0  0  0  0  0  0
    4.0657  -53.9573  -27.0940 H   0  0  0  0  0  0  0  0  0  0  0  0
    3.6590  -51.1690  -25.7255 C   0  0  0  0  0  0  0  0  0  0  0  0
    4.4969  -50.8927  -24.6165 N   0  0  0  0  0  0  0  0  0  0  0  0
    4.0844  -49.8642  -23.7635 C   0  0  0  0  0  0  0  0  0  0  0  0
    4.4852  -49.9552  -22.3343 C   0  0  0  0  0  0  0  0  0  0  0  0
    5.5115  -50.8232  -22.0669 O   0  0  0  0  0  0  0  0  0  0  0  0
    5.0983  -52.0809  -22.5652 C   0  0  0  0  0  0  0  0  0  0  0  0
    5.2298  -51.9671  -24.0679 C   0  0  0  0  0  0  0  0  0  0  0  0
  1  2  1  0  0  0
  2  3  1  0  0  0
  3  4  1  0  0  0
  4  9  1  0  0  0
  9 10  2  0  0  0
 10 11  1  0  0  0
 11 12  2  0  0  0
 11 13  1  0  0  0
 13 14  1  0  0  0
 14 15  2  0  0  0
 15 16  1  0  0  0
 16 17  2  0  0  0
 17 18  1  0  0  0
 17 19  1  0  0  0
 19 20  2  0  0  0
  4  5  2  0  0  0
  5  6  1  0  0  0
  5  7  1  0  0  0
  7 22  1  0  0  0
 22 23  2  0  0  0
 22 24  1  0  0  0
 24 26  1  0  0  0
 26 27  1  0  0  0
 27 28  1  0  0  0
 27 30  1  0  0  0
 30 31  1  0  0  0
 31 32  1  0  0  0
 32 33  1  0  0  0
 33 34  1  0  0  0
 34 35  1  0  0  0
 35 36  1  0  0  0
  7  2  2  0  0  0
 36 31  1  0  0  0
 20 10  1  0  0  0
 20 14  1  0  0  0
  3  8  1  0  0  0
 13 21  1  0  0  0
 24 25  1  0  0  0
 28 29  1  0  0  0
M  END
> <minimizedAffinity>
-7.60431

> <CNNscore>
0.1703346968

> <CNNaffinity>
5.6418814659

> <CNN_VS>
0.9610081911

> <CNNaffinity_variance>
0.5159965754

$$$$
[H]O[C@]([H])(C([H])([H])N([H])C(=O)c1c(C([H])([H])[H])c(/C([H])=C2\C(=O)N([H])c3c([H])c([H])c(F)c([H])c32)n([H])c1C([H])([H])[H])C([H])([H])N1C([H])([H])C([H])([H])OC([H])([H])C1([H])[H]


 36 39  0  0  0  0  0  0  0  0999 V2000
    2.8652  -51.9389  -19.7639 C   0  0  0  0  0  0  0  0  0  0  0  0
    2.4914  -51.5284  -21.1518 C   0  0  0  0  0  0  0  0  0  0  0  0
    1.6190  -52.1137  -21.9655 N   0  0  0  0  0  0  0  0  0  0  0  0
    1.5560  -51.4698  -23.1205 C   0  0  0  0  0  0  0  0  0  0  0  0
    2.4575  -50.3833  -23.0517 C   0  0  0  0  0  0  0  0  0  0  0  0
    2.6653  -49.3961  -24.1464 C   0  0  0  0  0  0  0  0  0  0  0  0
    3.0336  -50.4200  -21.8385 C   0  0  0  0  0  0  0  0  0  0  0  0
    1.0797  -52.9914  -21.6838 H   0  0  0  0  0  0  0  0  0  0  0  0
    0.7502  -51.6992  -24.3049 C   0  0  0  0  0  0  0  0  0  0  0  0
    1.1587  -52.2853  -25.4094 C   0  0  0  0  0  0  0  0  0  0  0  0
    2.4744  -52.8300  -25.6878 C   0  0  0  0  0  0  0  0  0  0  0  0
    3.4745  -52.8592  -24.9016 O   0  0  0  0  0  0  0  0  0  0  0  0
    2.4254  -53.3320  -27.0202 N   0  0  0  0  0  0  0  0  0  0  0  0
    1.1239  -53.1256  -27.5966 C   0  0  0  0  0  0  0  0  0  0  0  0
    0.5845  -53.4279  -28.8302 C   0  0  0  0  0  0  0  0  0  0  0  0
   -0.7161  -53.1119  -29.1231 C   0  0  0  0  0  0  0  0  0  0  0  0
   -1.4982  -52.4835  -28.1737 C   0  0  0  0  0  0  0  0  0  0  0  0
   -2.7941  -52.1716  -28.4732 F   0  0  0  0  0  0  0  0  0  0  0  0
   -0.9448  -52.1887  -26.9469 C   0  0  0  0  0  0  0  0  0  0  0  0
    0.3595  -52.4989  -26.6363 C   0  0  0  0  0  0  0  0  0  0  0  0
    3.2123  -53.7799  -27.5027 H   0  0  0  0  0  0  0  0  0  0  0  0
    4.0087  -49.5023  -21.2432 C   0  0  0  0  0  0  0  0  0  0  0  0
    5.2372  -49.7734  -21.4904 O   0  0  0  0  0  0  0  0  0  0  0  0
    3.7279  -48.3912  -20.4596 N   0  0  0  0  0  0  0  0  0  0  0  0
    2.6799  -48.1813  -20.2886 H   0  0  0  0  0  0  0  0  0  0  0  0
    4.6214  -47.4501  -19.8549 C   0  0  0  0  0  0  0  0  0  0  0  0
    5.1693  -47.8634  -18.5379 C   0  0  0  0  0  0  0  0  0  0  0  0
    6.5427  -47.8600  -18.4561 O   0  0  0  0  0  0  0  0  0  0  0  0
    6.9571  -48.7506  -18.3832 H   0  0  0  0  0  0  0  0  0  0  0  0
    4.5637  -46.9450  -17.4753 C   0  0  0  0  0  0  0  0  0  0  0  0
    4.0111  -47.6597  -16.3835 N   0  0  0  0  0  0  0  0  0  0  0  0
    4.3629  -47.2161  -15.1049 C   0  0  0  0  0  0  0  0  0  0  0  0
    3.3828  -47.4353  -14.0082 C   0  0  0  0  0  0  0  0  0  0  0  0
    2.4081  -48.3628  -14.2691 O   0  0  0  0  0  0  0  0  0  0  0  0
    1.7656  -47.9308  -15.4530 C   0  0  0  0  0  0  0  0  0  0  0  0
    2.7414  -48.2492  -16.5643 C   0  0  0  0  0  0  0  0  0  0  0  0
  1  2  1  0  0  0
  2  3  1  0  0  0
  3  4  1  0  0  0
  4  9  1  0  0  0
  9 10  2  0  0  0
 10 11  1  0  0  0
 11 12  2  0  0  0
 11 13  1  0  0  0
 13 14  1  0  0  0
 14 15  2  0  0  0
 15 16  1  0  0  0
 16 17  2  0  0  0
 17 18  1  0  0  0
 17 19  1  0  0  0
 19 20  2  0  0  0
  4  5  2  0  0  0
  5  6  1  0  0  0
  5  7  1  0  0  0
  7 22  1  0  0  0
 22 23  2  0  0  0
 22 24  1  0  0  0
 24 26  1  0  0  0
 26 27  1  0  0  0
 27 28  1  0  0  0
 27 30  1  0  0  0
 30 31  1  0  0  0
 31 32  1  0  0  0
 32 33  1  0  0  0
 33 34  1  0  0  0
 34 35  1  0  0  0
 35 36  1  0  0  0
  7  2  2  0  0  0
 36 31  1  0  0  0
 20 10  1  0  0  0
 20 14  1  0  0  0
  3  8  1  0  0  0
 13 21  1  0  0  0
 24 25  1  0  0  0
 28 29  1  0  0  0
M  END
> <minimizedAffinity>
-7.10577

> <CNNscore>
0.1594499201

> <CNNaffinity>
5.6270508766

> <CNN_VS>
0.8972328305

> <CNNaffinity_variance>
0.2335010469

$$$$
[H]O[C@]1([H])C([H])([H])C([H])([H])C([H])([H])C([H])([H])[C@]1([H])N1C([H])([H])C([H])([H])C([H])(c2c([H])c([H])c([H])c(F)c2[H])C([H])([H])C1([H])[H]


 21 23  0  0  0  0  0  0  0  0999 V2000
    0.0543  -52.8799  -24.9449 N   0  0  0  0  0  0  0  0  0  0  0  0
    1.2715  -52.4169  -24.4038 C   0  0  0  0  0  0  0  0  0  0  0  0
    1.0609  -51.7568  -23.0575 C   0  0  0  0  0  0  0  0  0  0  0  0
   -0.2018  -52.2687  -22.3761 C   0  0  0  0  0  0  0  0  0  0  0  0
   -0.2901  -53.7420  -22.7265 C   0  0  0  0  0  0  0  0  0  0  0  0
   -0.7005  -53.8010  -24.1867 C   0  0  0  0  0  0  0  0  0  0  0  0
    1.6375  -51.8274  -27.5478 O   0  0  0  0  0  0  0  0  0  0  0  0
    1.2974  -53.0923  -27.0634 C   0  0  0  0  0  0  0  0  0  0  0  0
    1.0602  -53.9200  -28.3378 C   0  0  0  0  0  0  0  0  0  0  0  0
    0.1168  -53.0859  -29.1730 C   0  0  0  0  0  0  0  0  0  0  0  0
   -1.1454  -52.7142  -28.4793 C   0  0  0  0  0  0  0  0  0  0  0  0
   -0.9492  -52.1911  -27.0775 C   0  0  0  0  0  0  0  0  0  0  0  0
   -0.0112  -53.1117  -26.3342 C   0  0  0  0  0  0  0  0  0  0  0  0
    1.6484  -51.1279  -26.8858 H   0  0  0  0  0  0  0  0  0  0  0  0
   -0.1266  -52.0279  -20.9350 C   0  0  0  0  0  0  0  0  0  0  0  0
   -0.6408  -52.9722  -20.0724 C   0  0  0  0  0  0  0  0  0  0  0  0
   -0.6114  -52.8254  -18.7013 C   0  0  0  0  0  0  0  0  0  0  0  0
   -0.0498  -51.6995  -18.1878 C   0  0  0  0  0  0  0  0  0  0  0  0
    0.4791  -50.7254  -19.0273 C   0  0  0  0  0  0  0  0  0  0  0  0
    1.0385  -49.6046  -18.5208 F   0  0  0  0  0  0  0  0  0  0  0  0
    0.4359  -50.8983  -20.3879 C   0  0  0  0  0  0  0  0  0  0  0  0
  7  8  1  0  0  0
  8  9  1  0  0  0
  9 10  1  0  0  0
 10 11  1  0  0  0
 11 12  1  0  0  0
 12 13  1  0  0  0
 13  1  1  0  0  0
  1  2  1  0  0  0
  2  3  1  0  0  0
  3  4  1  0  0  0
  4  5  1  0  0  0
  5  6  1  0  0  0
  4 15  1  0  0  0
 15 16  2  0  0  0
 16 17  1  0  0  0
 17 18  2  0  0  0
 18 19  1  0  0  0
 19 20  1  0  0  0
 19 21  2  0  0  0
 13  8  1  0  0  0
  6  1  1  0  0  0
 21 15  1  0  0  0
  7 14  1  0  0  0
M  END
> <minimizedAffinity>
-8.12996

> <CNNscore>
0.5065305829

> <CNNaffinity>
5.7528443336

> <CNN_VS>
2.9139916897

> <CNNaffinity_variance>
0.1596634537

$$$$
[H]O[C@]1([H])C([H])([H])C([H])([H])C([H])([H])C([H])([H])[C@]1([H])N1C([H])([H])C([H])([H])C([H])(c2c([H])c([H])c([H])c(F)c2[H])C([H])([H])C1([H])[H]


 21 23  0  0  0  0  0  0  0  0999 V2000
   -0.0389  -52.8210  -24.7155 N   0  0  0  0  0  0  0  0  0  0  0  0
    1.1357  -52.2043  -24.2372 C   0  0  0  0  0  0  0  0  0  0  0  0
    0.9113  -51.5664  -22.8824 C   0  0  0  0  0  0  0  0  0  0  0  0
   -0.2408  -52.2285  -22.1375 C   0  0  0  0  0  0  0  0  0  0  0  0
   -0.1598  -53.7037  -22.4818 C   0  0  0  0  0  0  0  0  0  0  0  0
   -0.6322  -53.8245  -23.9192 C   0  0  0  0  0  0  0  0  0  0  0  0
    1.5048  -51.8420  -27.3703 O   0  0  0  0  0  0  0  0  0  0  0  0
    1.1460  -53.0917  -26.8605 C   0  0  0  0  0  0  0  0  0  0  0  0
    0.8573  -53.9298  -28.1174 C   0  0  0  0  0  0  0  0  0  0  0  0
   -0.0858  -53.0836  -28.9406 C   0  0  0  0  0  0  0  0  0  0  0  0
   -1.3211  -52.6717  -28.2215 C   0  0  0  0  0  0  0  0  0  0  0  0
   -1.0776  -52.1354  -26.8322 C   0  0  0  0  0  0  0  0  0  0  0  0
   -0.1443  -53.0692  -26.0995 C   0  0  0  0  0  0  0  0  0  0  0  0
    1.5491  -51.1344  -26.7183 H   0  0  0  0  0  0  0  0  0  0  0  0
   -0.1242  -51.9698  -20.7022 C   0  0  0  0  0  0  0  0  0  0  0  0
    0.5804  -50.8636  -20.2780 C   0  0  0  0  0  0  0  0  0  0  0  0
    0.7392  -50.5456  -18.9454 C   0  0  0  0  0  0  0  0  0  0  0  0
    0.1737  -51.3627  -18.0183 C   0  0  0  0  0  0  0  0  0  0  0  0
   -0.5442  -52.4874  -18.4092 C   0  0  0  0  0  0  0  0  0  0  0  0
   -1.1082  -53.3022  -17.4905 F   0  0  0  0  0  0  0  0  0  0  0  0
   -0.6859  -52.7792  -19.7425 C   0  0  0  0  0  0  0  0  0  0  0  0
  7  8  1  0  0  0
  8  9  1  0  0  0
  9 10  1  0  0  0
 10 11  1  0  0  0
 11 12  1  0  0  0
 12 13  1  0  0  0
 13  1  1  0  0  0
  1  2  1  0  0  0
  2  3  1  0  0  0
  3  4  1  0  0  0
  4  5  1  0  0  0
  5  6  1  0  0  0
  4 15  1  0  0  0
 15 16  2  0  0  0
 16 17  1  0  0  0
 17 18  2  0  0  0
 18 19  1  0  0  0
 19 20  1  0  0  0
 19 21  2  0  0  0
 13  8  1  0  0  0
  6  1  1  0  0  0
 21 15  1  0  0  0
  7 14  1  0  0  0
M  END
> <minimizedAffinity>
-8.14910

> <CNNscore>
0.5027132034

> <CNNaffinity>
5.7859621048

> <CNN_VS>
2.9086794853

> <CNNaffinity_variance>
0.0924781561

$$$$
[H]O[C@]1([H])C([H])([H])C([H])([H])C([H])([H])C([H])([H])[C@]1([H])N1C([H])([H])C([H])([H])C([H])(c2c([H])c([H])c([H])c(F)c2[H])C([H])([H])C1([H])[H]


 21 23  0  0  0  0  0  0  0  0999 V2000
    0.9942  -51.3343  -22.7393 N   0  0  0  0  0  0  0  0  0  0  0  0
    0.6410  -52.6841  -22.9443 C   0  0  0  0  0  0  0  0  0  0  0  0
   -0.1841  -52.8533  -24.2026 C   0  0  0  0  0  0  0  0  0  0  0  0
    0.0780  -51.7298  -25.1973 C   0  0  0  0  0  0  0  0  0  0  0  0
    1.5558  -51.4094  -25.0764 C   0  0  0  0  0  0  0  0  0  0  0  0
    1.7186  -50.6767  -23.7570 C   0  0  0  0  0  0  0  0  0  0  0  0
   -0.0759  -51.8854  -19.7492 O   0  0  0  0  0  0  0  0  0  0  0  0
    1.1778  -51.9556  -20.3605 C   0  0  0  0  0  0  0  0  0  0  0  0
    2.1524  -51.5455  -19.2436 C   0  0  0  0  0  0  0  0  0  0  0  0
    1.5872  -50.2591  -18.6877 C   0  0  0  0  0  0  0  0  0  0  0  0
    1.3869  -49.1915  -19.7040 C   0  0  0  0  0  0  0  0  0  0  0  0
    0.7057  -49.6601  -20.9664 C   0  0  0  0  0  0  0  0  0  0  0  0
    1.3653  -50.9332  -21.4394 C   0  0  0  0  0  0  0  0  0  0  0  0
   -0.8256  -51.9387  -20.3516 H   0  0  0  0  0  0  0  0  0  0  0  0
   -0.3063  -52.1529  -26.5441 C   0  0  0  0  0  0  0  0  0  0  0  0
    0.6818  -52.4388  -27.4617 C   0  0  0  0  0  0  0  0  0  0  0  0
    0.4082  -52.8438  -28.7514 C   0  0  0  0  0  0  0  0  0  0  0  0
   -0.8930  -52.9637  -29.1246 C   0  0  0  0  0  0  0  0  0  0  0  0
   -1.9163  -52.6838  -28.2259 C   0  0  0  0  0  0  0  0  0  0  0  0
   -3.2113  -52.8018  -28.5930 F   0  0  0  0  0  0  0  0  0  0  0  0
   -1.6144  -52.2826  -26.9489 C   0  0  0  0  0  0  0  0  0  0  0  0
  7  8  1  0  0  0
  8  9  1  0  0  0
  9 10  1  0  0  0
 10 11  1  0  0  0
 11 12  1  0  0  0
 12 13  1  0  0  0
 13  1  1  0  0  0
  1  2  1  0  0  0
  2  3  1  0  0  0
  3  4  1  0  0  0
  4  5  1  0  0  0
  5  6  1  0  0  0
  4 15  1  0  0  0
 15 16  2  0  0  0
 16 17  1  0  0  0
 17 18  2  0  0  0
 18 19  1  0  0  0
 19 20  1  0  0  0
 19 21  2  0  0  0
 13  8  1  0  0  0
  6  1  1  0  0  0
 21 15  1  0  0  0
  7 14  1  0  0  0
M  END
> <minimizedAffinity>
-8.02405

> <CNNscore>
0.4660235047

> <CNNaffinity>
5.3852906227

> <CNN_VS>
2.5096719265

> <CNNaffinity_variance>
0.1688775271

$$$$
[H]O[C@]1([H])C([H])([H])C([H])([H])C([H])([H])C([H])([H])[C@]1([H])N1C([H])([H])C([H])([H])C([H])(c2c([H])c([H])c([H])c(F)c2[H])C([H])([H])C1([H])[H]


 21 23  0  0  0  0  0  0  0  0999 V2000
    3.4994  -49.6101  -27.9154 N   0  0  0  0  0  0  0  0  0  0  0  0
    3.5730  -49.7894  -26.5185 C   0  0  0  0  0  0  0  0  0  0  0  0
    2.4392  -50.6565  -26.0133 C   0  0  0  0  0  0  0  0  0  0  0  0
    1.9046  -51.5705  -27.1085 C   0  0  0  0  0  0  0  0  0  0  0  0
    3.1136  -51.9837  -27.9262 C   0  0  0  0  0  0  0  0  0  0  0  0
    3.5110  -50.7609  -28.7329 C   0  0  0  0  0  0  0  0  0  0  0  0
    6.0479  -49.2119  -29.8483 O   0  0  0  0  0  0  0  0  0  0  0  0
    4.7377  -48.7285  -29.8565 C   0  0  0  0  0  0  0  0  0  0  0  0
    4.8714  -47.3208  -30.4615 C   0  0  0  0  0  0  0  0  0  0  0  0
    5.9786  -46.6620  -29.6720 C   0  0  0  0  0  0  0  0  0  0  0  0
    5.7513  -46.6427  -28.2021 C   0  0  0  0  0  0  0  0  0  0  0  0
    5.2982  -47.9632  -27.6294 C   0  0  0  0  0  0  0  0  0  0  0  0
    4.1805  -48.5134  -28.4826 C   0  0  0  0  0  0  0  0  0  0  0  0
    6.1810  -50.0173  -29.3372 H   0  0  0  0  0  0  0  0  0  0  0  0
    1.2017  -52.7075  -26.5137 C   0  0  0  0  0  0  0  0  0  0  0  0
    1.2346  -53.9249  -27.1594 C   0  0  0  0  0  0  0  0  0  0  0  0
    0.6002  -55.0472  -26.6693 C   0  0  0  0  0  0  0  0  0  0  0  0
   -0.0835  -54.9393  -25.4998 C   0  0  0  0  0  0  0  0  0  0  0  0
   -0.1384  -53.7273  -24.8207 C   0  0  0  0  0  0  0  0  0  0  0  0
   -0.8170  -53.6158  -23.6575 F   0  0  0  0  0  0  0  0  0  0  0  0
    0.5024  -52.6270  -25.3321 C   0  0  0  0  0  0  0  0  0  0  0  0
  7  8  1  0  0  0
  8  9  1  0  0  0
  9 10  1  0  0  0
 10 11  1  0  0  0
 11 12  1  0  0  0
 12 13  1  0  0  0
 13  1  1  0  0  0
  1  2  1  0  0  0
  2  3  1  0  0  0
  3  4  1  0  0  0
  4  5  1  0  0  0
  5  6  1  0  0  0
  4 15  1  0  0  0
 15 16  2  0  0  0
 16 17  1  0  0  0
 17 18  2  0  0  0
 18 19  1  0  0  0
 19 20  1  0  0  0
 19 21  2  0  0  0
 13  8  1  0  0  0
  6  1  1  0  0  0
 21 15  1  0  0  0
  7 14  1  0  0  0
M  END
> <minimizedAffinity>
-1.76979

> <CNNscore>
0.4343056083

> <CNNaffinity>
5.1088910103

> <CNN_VS>
2.2188200951

> <CNNaffinity_variance>
0.3862127364

$$$$
[H]O[C@]1([H])C([H])([H])C([H])([H])C([H])([H])C([H])([H])[C@]1([H])N1C([H])([H])C([H])([H])C([H])(c2c([H])c([H])c([H])c(F)c2[H])C([H])([H])C1([H])[H]


 21 23  0  0  0  0  0  0  0  0999 V2000
    0.1198  -51.9021  -22.0767 N   0  0  0  0  0  0  0  0  0  0  0  0
   -0.0299  -53.2422  -22.4894 C   0  0  0  0  0  0  0  0  0  0  0  0
   -0.5203  -53.3274  -23.9194 C   0  0  0  0  0  0  0  0  0  0  0  0
   -0.1585  -52.0761  -24.7092 C   0  0  0  0  0  0  0  0  0  0  0  0
    1.2087  -51.6530  -24.2062 C   0  0  0  0  0  0  0  0  0  0  0  0
    0.9840  -51.0714  -22.8223 C   0  0  0  0  0  0  0  0  0  0  0  0
    2.2652  -52.1735  -19.6864 O   0  0  0  0  0  0  0  0  0  0  0  0
    1.4399  -51.1415  -20.1382 C   0  0  0  0  0  0  0  0  0  0  0  0
    1.0704  -50.3803  -18.8539 C   0  0  0  0  0  0  0  0  0  0  0  0
    0.5929  -51.4455  -17.8945 C   0  0  0  0  0  0  0  0  0  0  0  0
   -0.5228  -52.2799  -18.4157 C   0  0  0  0  0  0  0  0  0  0  0  0
   -0.3154  -52.7788  -19.8247 C   0  0  0  0  0  0  0  0  0  0  0  0
    0.1367  -51.6294  -20.6933 C   0  0  0  0  0  0  0  0  0  0  0  0
    2.4499  -52.8604  -20.3359 H   0  0  0  0  0  0  0  0  0  0  0  0
   -0.1750  -52.3661  -26.1431 C   0  0  0  0  0  0  0  0  0  0  0  0
    1.0205  -52.5807  -26.7948 C   0  0  0  0  0  0  0  0  0  0  0  0
    1.0960  -52.8598  -28.1434 C   0  0  0  0  0  0  0  0  0  0  0  0
   -0.0620  -52.9241  -28.8517 C   0  0  0  0  0  0  0  0  0  0  0  0
   -1.2866  -52.7131  -28.2279 C   0  0  0  0  0  0  0  0  0  0  0  0
   -2.4403  -52.7763  -28.9285 F   0  0  0  0  0  0  0  0  0  0  0  0
   -1.3313  -52.4372  -26.8844 C   0  0  0  0  0  0  0  0  0  0  0  0
  7  8  1  0  0  0
  8  9  1  0  0  0
  9 10  1  0  0  0
 10 11  1  0  0  0
 11 12  1  0  0  0
 12 13  1  0  0  0
 13  1  1  0  0  0
  1  2  1  0  0  0
  2  3  1  0  0  0
  3  4  1  0  0  0
  4  5  1  0  0  0
  5  6  1  0  0  0
  4 15  1  0  0  0
 15 16  2  0  0  0
 16 17  1  0  0  0
 17 18  2  0  0  0
 18 19  1  0  0  0
 19 20  1  0  0  0
 19 21  2  0  0  0
 13  8  1  0  0  0
  6  1  1  0  0  0
 21 15  1  0  0  0
  7 14  1  0  0  0
M  END
> <minimizedAffinity>
-7.86345

> <CNNscore>
0.4140401483

> <CNNaffinity>
5.5662369728

> <CNN_VS>
2.3046455383

> <CNNaffinity_variance>
0.0932146832

$$$$
[H]O[C@]1([H])C([H])([H])C([H])([H])C([H])([H])C([H])([H])[C@]1([H])N1C([H])([H])C([H])([H])C([H])(c2c([H])c([H])c([H])c(F)c2[H])C([H])([H])C1([H])[H]


 21 23  0  0  0  0  0  0  0  0999 V2000
    3.9434  -50.0005  -25.7304 N   0  0  0  0  0  0  0  0  0  0  0  0
    4.2999  -51.3368  -25.4546 C   0  0  0  0  0  0  0  0  0  0  0  0
    3.5926  -51.8525  -24.2191 C   0  0  0  0  0  0  0  0  0  0  0  0
    2.2985  -51.0923  -23.9585 C   0  0  0  0  0  0  0  0  0  0  0  0
    1.7113  -50.7984  -25.3260 C   0  0  0  0  0  0  0  0  0  0  0  0
    2.5769  -49.7060  -25.9271 C   0  0  0  0  0  0  0  0  0  0  0  0
    3.6563  -47.3854  -27.5929 O   0  0  0  0  0  0  0  0  0  0  0  0
    4.5378  -47.7627  -26.5775 C   0  0  0  0  0  0  0  0  0  0  0  0
    5.8721  -47.1218  -26.9951 C   0  0  0  0  0  0  0  0  0  0  0  0
    6.0655  -47.5314  -28.4367 C   0  0  0  0  0  0  0  0  0  0  0  0
    6.0319  -49.0013  -28.6628 C   0  0  0  0  0  0  0  0  0  0  0  0
    4.8861  -49.7057  -27.9785 C   0  0  0  0  0  0  0  0  0  0  0  0
    4.8038  -49.2367  -26.5457 C   0  0  0  0  0  0  0  0  0  0  0  0
    2.8107  -47.8466  -27.5894 H   0  0  0  0  0  0  0  0  0  0  0  0
    1.4092  -51.8909  -23.1147 C   0  0  0  0  0  0  0  0  0  0  0  0
    1.8090  -53.1526  -22.7294 C   0  0  0  0  0  0  0  0  0  0  0  0
    1.0335  -53.9715  -21.9357 C   0  0  0  0  0  0  0  0  0  0  0  0
   -0.1743  -53.5070  -21.5204 C   0  0  0  0  0  0  0  0  0  0  0  0
   -0.6106  -52.2394  -21.8894 C   0  0  0  0  0  0  0  0  0  0  0  0
   -1.8106  -51.7738  -21.4785 F   0  0  0  0  0  0  0  0  0  0  0  0
    0.1824  -51.4463  -22.6800 C   0  0  0  0  0  0  0  0  0  0  0  0
  7  8  1  0  0  0
  8  9  1  0  0  0
  9 10  1  0  0  0
 10 11  1  0  0  0
 11 12  1  0  0  0
 12 13  1  0  0  0
 13  1  1  0  0  0
  1  2  1  0  0  0
  2  3  1  0  0  0
  3  4  1  0  0  0
  4  5  1  0  0  0
  5  6  1  0  0  0
  4 15  1  0  0  0
 15 16  2  0  0  0
 16 17  1  0  0  0
 17 18  2  0  0  0
 18 19  1  0  0  0
 19 20  1  0  0  0
 19 21  2  0  0  0
 13  8  1  0  0  0
  6  1  1  0  0  0
 21 15  1  0  0  0
  7 14  1  0  0  0
M  END
> <minimizedAffinity>
-0.21541

> <CNNscore>
0.3932469487

> <CNNaffinity>
4.8994288445

> <CNN_VS>
1.9266854525

> <CNNaffinity_variance>
0.7177990675

$$$$
[H]O[C@]1([H])C([H])([H])C([H])([H])C([H])([H])C([H])([H])[C@]1([H])N1C([H])([H])C([H])([H])C([H])(c2c([H])c([H])c([H])c(F)c2[H])C([H])([H])C1([H])[H]


 21 23  0  0  0  0  0  0  0  0999 V2000
    0.7966  -51.9471  -22.5731 N   0  0  0  0  0  0  0  0  0  0  0  0
    0.1216  -53.1518  -22.8590 C   0  0  0  0  0  0  0  0  0  0  0  0
   -0.6007  -53.0775  -24.1877 C   0  0  0  0  0  0  0  0  0  0  0  0
    0.0367  -52.0486  -25.1128 C   0  0  0  0  0  0  0  0  0  0  0  0
    1.5294  -52.1330  -24.8559 C   0  0  0  0  0  0  0  0  0  0  0  0
    1.7578  -51.4896  -23.5003 C   0  0  0  0  0  0  0  0  0  0  0  0
    0.9137  -49.3343  -20.6891 O   0  0  0  0  0  0  0  0  0  0  0  0
    0.3454  -50.6031  -20.5560 C   0  0  0  0  0  0  0  0  0  0  0  0
    0.4639  -50.9006  -19.0517 C   0  0  0  0  0  0  0  0  0  0  0  0
    1.9081  -50.6143  -18.7116 C   0  0  0  0  0  0  0  0  0  0  0  0
    2.8899  -51.3728  -19.5322 C   0  0  0  0  0  0  0  0  0  0  0  0
    2.5992  -51.3589  -21.0129 C   0  0  0  0  0  0  0  0  0  0  0  0
    1.1398  -51.6784  -21.2321 C   0  0  0  0  0  0  0  0  0  0  0  0
    1.0869  -49.0594  -21.5959 H   0  0  0  0  0  0  0  0  0  0  0  0
   -0.3207  -52.3344  -26.5024 C   0  0  0  0  0  0  0  0  0  0  0  0
    0.6854  -52.5207  -27.4260 C   0  0  0  0  0  0  0  0  0  0  0  0
    0.4376  -52.7938  -28.7550 C   0  0  0  0  0  0  0  0  0  0  0  0
   -0.8560  -52.8814  -29.1623 C   0  0  0  0  0  0  0  0  0  0  0  0
   -1.8969  -52.6993  -28.2588 C   0  0  0  0  0  0  0  0  0  0  0  0
   -3.1844  -52.7857  -28.6597 F   0  0  0  0  0  0  0  0  0  0  0  0
   -1.6205  -52.4287  -26.9422 C   0  0  0  0  0  0  0  0  0  0  0  0
  7  8  1  0  0  0
  8  9  1  0  0  0
  9 10  1  0  0  0
 10 11  1  0  0  0
 11 12  1  0  0  0
 12 13  1  0  0  0
 13  1  1  0  0  0
  1  2  1  0  0  0
  2  3  1  0  0  0
  3  4  1  0  0  0
  4  5  1  0  0  0
  5  6  1  0  0  0
  4 15  1  0  0  0
 15 16  2  0  0  0
 16 17  1  0  0  0
 17 18  2  0  0  0
 18 19  1  0  0  0
 19 20  1  0  0  0
 19 21  2  0  0  0
 13  8  1  0  0  0
  6  1  1  0  0  0
 21 15  1  0  0  0
  7 14  1  0  0  0
M  END
> <minimizedAffinity>
-7.75274

> <CNNscore>
0.3397138119

> <CNNaffinity>
5.4039754868

> <CNN_VS>
1.8358050585

> <CNNaffinity_variance>
0.1595062912

$$$$
[H]O[C@]1([H])C([H])([H])C([H])([H])C([H])([H])C([H])([H])[C@]1([H])N1C([H])([H])C([H])([H])C([H])(c2c([H])c([H])c([H])c(F)c2[H])C([H])([H])C1([H])[H]


 21 23  0  0  0  0  0  0  0  0999 V2000
    0.5097  -52.9458  -23.7869 N   0  0  0  0  0  0  0  0  0  0  0  0
   -0.6793  -53.4355  -23.2079 C   0  0  0  0  0  0  0  0  0  0  0  0
   -0.5731  -53.4973  -21.6987 C   0  0  0  0  0  0  0  0  0  0  0  0
    0.4588  -52.5088  -21.1708 C   0  0  0  0  0  0  0  0  0  0  0  0
    0.3458  -51.2830  -22.0574 C   0  0  0  0  0  0  0  0  0  0  0  0
    0.9649  -51.6705  -23.3880 C   0  0  0  0  0  0  0  0  0  0  0  0
   -0.5125  -51.7808  -26.6132 O   0  0  0  0  0  0  0  0  0  0  0  0
    0.7464  -52.0470  -26.0705 C   0  0  0  0  0  0  0  0  0  0  0  0
    1.5833  -52.4823  -27.2852 C   0  0  0  0  0  0  0  0  0  0  0  0
    0.7510  -53.5403  -27.9716 C   0  0  0  0  0  0  0  0  0  0  0  0
    0.3666  -54.6782  -27.0940 C   0  0  0  0  0  0  0  0  0  0  0  0
   -0.1670  -54.2649  -25.7444 C   0  0  0  0  0  0  0  0  0  0  0  0
    0.7526  -53.2268  -25.1472 C   0  0  0  0  0  0  0  0  0  0  0  0
   -1.2175  -51.6645  -25.9672 H   0  0  0  0  0  0  0  0  0  0  0  0
    0.1998  -52.2192  -19.7603 C   0  0  0  0  0  0  0  0  0  0  0  0
    0.9192  -51.2199  -19.1406 C   0  0  0  0  0  0  0  0  0  0  0  0
    0.7387  -50.8819  -17.8157 C   0  0  0  0  0  0  0  0  0  0  0  0
   -0.1896  -51.5680  -17.0985 C   0  0  0  0  0  0  0  0  0  0  0  0
   -0.9340  -52.5823  -17.6902 C   0  0  0  0  0  0  0  0  0  0  0  0
   -1.8581  -53.2668  -16.9807 F   0  0  0  0  0  0  0  0  0  0  0  0
   -0.7331  -52.8970  -19.0107 C   0  0  0  0  0  0  0  0  0  0  0  0
  7  8  1  0  0  0
  8  9  1  0  0  0
  9 10  1  0  0  0
 10 11  1  0  0  0
 11 12  1  0  0  0
 12 13  1  0  0  0
 13  1  1  0  0  0
  1  2  1  0  0  0
  2  3  1  0  0  0
  3  4  1  0  0  0
  4  5  1  0  0  0
  5  6  1  0  0  0
  4 15  1  0  0  0
 15 16  2  0  0  0
 16 17  1  0  0  0
 17 18  2  0  0  0
 18 19  1  0  0  0
 19 20  1  0  0  0
 19 21  2  0  0  0
 13  8  1  0  0  0
  6  1  1  0  0  0
 21 15  1  0  0  0
  7 14  1  0  0  0
M  END
> <minimizedAffinity>
-7.25544

> <CNNscore>
0.3383356631

> <CNNaffinity>
5.5110836029

> <CNN_VS>
1.8645961285

> <CNNaffinity_variance>
0.1051943898

$$$$
[H]O[C@]1([H])C([H])([H])C([H])([H])C([H])([H])C([H])([H])[C@]1([H])N1C([H])([H])C([H])([H])C([H])(c2c([H])c([H])c([H])c(F)c2[H])C([H])([H])C1([H])[H]


 21 23  0  0  0  0  0  0  0  0999 V2000
   -0.1303  -52.2898  -22.3169 N   0  0  0  0  0  0  0  0  0  0  0  0
   -0.2121  -53.6305  -22.7463 C   0  0  0  0  0  0  0  0  0  0  0  0
   -0.6206  -53.7196  -24.2016 C   0  0  0  0  0  0  0  0  0  0  0  0
   -0.2587  -52.4500  -24.9618 C   0  0  0  0  0  0  0  0  0  0  0  0
    1.0641  -51.9861  -24.3818 C   0  0  0  0  0  0  0  0  0  0  0  0
    0.7448  -51.4244  -23.0084 C   0  0  0  0  0  0  0  0  0  0  0  0
    1.9441  -52.3093  -19.8499 O   0  0  0  0  0  0  0  0  0  0  0  0
    1.0122  -51.3855  -20.3281 C   0  0  0  0  0  0  0  0  0  0  0  0
    0.5035  -50.6875  -19.0555 C   0  0  0  0  0  0  0  0  0  0  0  0
    0.1295  -51.8124  -18.1184 C   0  0  0  0  0  0  0  0  0  0  0  0
   -0.8525  -52.7760  -18.6836 C   0  0  0  0  0  0  0  0  0  0  0  0
   -0.5330  -53.2330  -20.0858 C   0  0  0  0  0  0  0  0  0  0  0  0
   -0.1981  -52.0288  -20.9329 C   0  0  0  0  0  0  0  0  0  0  0  0
    2.2373  -52.9620  -20.4947 H   0  0  0  0  0  0  0  0  0  0  0  0
   -0.1871  -52.7279  -26.3965 C   0  0  0  0  0  0  0  0  0  0  0  0
   -1.2272  -52.3265  -27.2072 C   0  0  0  0  0  0  0  0  0  0  0  0
   -1.2409  -52.5479  -28.5684 C   0  0  0  0  0  0  0  0  0  0  0  0
   -0.1802  -53.1894  -29.1255 C   0  0  0  0  0  0  0  0  0  0  0  0
    0.8868  -53.6088  -28.3389 C   0  0  0  0  0  0  0  0  0  0  0  0
    1.9433  -54.2469  -28.8889 F   0  0  0  0  0  0  0  0  0  0  0  0
    0.8733  -53.3749  -26.9869 C   0  0  0  0  0  0  0  0  0  0  0  0
  7  8  1  0  0  0
  8  9  1  0  0  0
  9 10  1  0  0  0
 10 11  1  0  0  0
 11 12  1  0  0  0
 12 13  1  0  0  0
 13  1  1  0  0  0
  1  2  1  0  0  0
  2  3  1  0  0  0
  3  4  1  0  0  0
  4  5  1  0  0  0
  5  6  1  0  0  0
  4 15  1  0  0  0
 15 16  2  0  0  0
 16 17  1  0  0  0
 17 18  2  0  0  0
 18 19  1  0  0  0
 19 20  1  0  0  0
 19 21  2  0  0  0
 13  8  1  0  0  0
  6  1  1  0  0  0
 21 15  1  0  0  0
  7 14  1  0  0  0
M  END
> <minimizedAffinity>
-8.02910

> <CNNscore>
0.3376994431

> <CNNaffinity>
5.5912094116

> <CNN_VS>
1.8881483078

> <CNNaffinity_variance>
0.1074899659

$$$$
[H]c1c([H])c(-c2c([H])c([H])c(OC([H])([H])C([H])(C([H])([H])[H])C([H])([H])[H])c(C#N)c2[H])c(C#N)c([H])c1C#N


 23 24  0  0  0  0  0  0  0  0999 V2000
    0.7425  -52.2696  -24.7357 C   0  0  0  0  0  0  0  0  0  0  0  0
    1.2036  -51.1416  -24.0972 C   0  0  0  0  0  0  0  0  0  0  0  0
    1.0797  -50.9660  -22.7269 C   0  0  0  0  0  0  0  0  0  0  0  0
    0.4761  -51.9537  -21.9996 C   0  0  0  0  0  0  0  0  0  0  0  0
    0.0070  -53.0873  -22.6124 C   0  0  0  0  0  0  0  0  0  0  0  0
    0.1278  -53.2630  -23.9590 C   0  0  0  0  0  0  0  0  0  0  0  0
    0.3608  -51.7630  -20.5398 C   0  0  0  0  0  0  0  0  0  0  0  0
    1.1277  -50.7690  -19.9604 C   0  0  0  0  0  0  0  0  0  0  0  0
    1.0443  -50.5848  -18.5912 C   0  0  0  0  0  0  0  0  0  0  0  0
    0.2183  -51.3656  -17.7962 C   0  0  0  0  0  0  0  0  0  0  0  0
   -0.5275  -52.3442  -18.4202 C   0  0  0  0  0  0  0  0  0  0  0  0
   -0.4737  -52.5625  -19.7928 C   0  0  0  0  0  0  0  0  0  0  0  0
   -1.2915  -53.5903  -20.3654 C   0  0  0  0  0  0  0  0  0  0  0  0
   -1.9314  -54.4261  -20.8129 N   0  0  0  0  0  0  0  0  0  0  0  0
    0.1523  -51.1492  -16.3643 C   0  0  0  0  0  0  0  0  0  0  0  0
    0.0915  -50.9625  -15.2214 N   0  0  0  0  0  0  0  0  0  0  0  0
   -0.3688  -54.4558  -24.5881 C   0  0  0  0  0  0  0  0  0  0  0  0
   -0.7773  -55.4216  -25.0924 N   0  0  0  0  0  0  0  0  0  0  0  0
    0.8269  -52.5082  -26.0793 O   0  0  0  0  0  0  0  0  0  0  0  0
   -0.0677  -52.1338  -27.0390 C   0  0  0  0  0  0  0  0  0  0  0  0
    0.9274  -53.9955  -28.2244 C   0  0  0  0  0  0  0  0  0  0  0  0
   -0.3748  -53.2421  -28.0152 C   0  0  0  0  0  0  0  0  0  0  0  0
   -0.7678  -52.5328  -29.3154 C   0  0  0  0  0  0  0  0  0  0  0  0
 21 22  1  0  0  0
 22 23  1  0  0  0
 22 20  1  0  0  0
 20 19  1  0  0  0
 19  1  1  0  0  0
  1  2  2  0  0  0
  2  3  1  0  0  0
  3  4  2  0  0  0
  4  5  1  0  0  0
  5  6  2  0  0  0
  6 17  1  0  0  0
 17 18  3  0  0  0
  4  7  1  0  0  0
  7  8  2  0  0  0
  8  9  1  0  0  0
  9 10  2  0  0  0
 10 11  1  0  0  0
 11 12  2  0  0  0
 12 13  1  0  0  0
 13 14  3  0  0  0
 10 15  1  0  0  0
 15 16  3  0  0  0
  6  1  1  0  0  0
 12  7  1  0  0  0
M  END
> <minimizedAffinity>
-7.20028

> <CNNscore>
0.8977504373

> <CNNaffinity>
6.3353114128

> <CNN_VS>
5.6875286102

> <CNNaffinity_variance>
0.0430053100

$$$$
[H]c1c([H])c(-c2c([H])c([H])c(OC([H])([H])C([H])(C([H])([H])[H])C([H])([H])[H])c(C#N)c2[H])c(C#N)c([H])c1C#N


 23 24  0  0  0  0  0  0  0  0999 V2000
   -0.0037  -51.9188  -19.4697 C   0  0  0  0  0  0  0  0  0  0  0  0
   -0.5463  -53.0106  -20.1073 C   0  0  0  0  0  0  0  0  0  0  0  0
   -0.5005  -53.1590  -21.4856 C   0  0  0  0  0  0  0  0  0  0  0  0
    0.1056  -52.1799  -22.2224 C   0  0  0  0  0  0  0  0  0  0  0  0
    0.6532  -51.0813  -21.6110 C   0  0  0  0  0  0  0  0  0  0  0  0
    0.6102  -50.9328  -20.2564 C   0  0  0  0  0  0  0  0  0  0  0  0
    0.1606  -52.3538  -23.6878 C   0  0  0  0  0  0  0  0  0  0  0  0
    0.7557  -51.3509  -24.4307 C   0  0  0  0  0  0  0  0  0  0  0  0
    0.8036  -51.4889  -25.8070 C   0  0  0  0  0  0  0  0  0  0  0  0
    0.2744  -52.5977  -26.4506 C   0  0  0  0  0  0  0  0  0  0  0  0
   -0.3088  -53.5717  -25.6667 C   0  0  0  0  0  0  0  0  0  0  0  0
   -0.3779  -53.4726  -24.2810 C   0  0  0  0  0  0  0  0  0  0  0  0
   -0.9876  -54.5353  -23.5380 C   0  0  0  0  0  0  0  0  0  0  0  0
   -1.4711  -55.3720  -22.9262 N   0  0  0  0  0  0  0  0  0  0  0  0
    0.3393  -52.7143  -27.8941 C   0  0  0  0  0  0  0  0  0  0  0  0
    0.3792  -52.7973  -29.0501 N   0  0  0  0  0  0  0  0  0  0  0  0
    1.1877  -49.7760  -19.6291 C   0  0  0  0  0  0  0  0  0  0  0  0
    1.6549  -48.8431  -19.1140 N   0  0  0  0  0  0  0  0  0  0  0  0
   -0.0151  -51.7050  -18.1194 O   0  0  0  0  0  0  0  0  0  0  0  0
   -0.8874  -52.2295  -17.2109 C   0  0  0  0  0  0  0  0  0  0  0  0
   -2.4180  -51.3171  -15.5721 C   0  0  0  0  0  0  0  0  0  0  0  0
   -0.9467  -51.4331  -15.9311 C   0  0  0  0  0  0  0  0  0  0  0  0
   -0.4003  -50.0486  -16.2956 C   0  0  0  0  0  0  0  0  0  0  0  0
 21 22  1  0  0  0
 22 23  1  0  0  0
 22 20  1  0  0  0
 20 19  1  0  0  0
 19  1  1  0  0  0
  1  2  2  0  0  0
  2  3  1  0  0  0
  3  4  2  0  0  0
  4  5  1  0  0  0
  5  6  2  0  0  0
  6 17  1  0  0  0
 17 18  3  0  0  0
  4  7  1  0  0  0
  7  8  2  0  0  0
  8  9  1  0  0  0
  9 10  2  0  0  0
 10 11  1  0  0  0
 11 12  2  0  0  0
 12 13  1  0  0  0
 13 14  3  0  0  0
 10 15  1  0  0  0
 15 16  3  0  0  0
  6  1  1  0  0  0
 12  7  1  0  0  0
M  END
> <minimizedAffinity>
-7.13008

> <CNNscore>
0.8403970599

> <CNNaffinity>
6.3956770897

> <CNN_VS>
5.3749084473

> <CNNaffinity_variance>
0.1884387732

$$$$
[H]c1c([H])c(-c2c([H])c([H])c(OC([H])([H])C([H])(C([H])([H])[H])C([H])([H])[H])c(C#N)c2[H])c(C#N)c([H])c1C#N


 23 24  0  0  0  0  0  0  0  0999 V2000
    0.8672  -51.9738  -25.5213 C   0  0  0  0  0  0  0  0  0  0  0  0
    1.8924  -51.9128  -24.6059 C   0  0  0  0  0  0  0  0  0  0  0  0
    1.6627  -51.9241  -23.2380 C   0  0  0  0  0  0  0  0  0  0  0  0
    0.3701  -51.9970  -22.7992 C   0  0  0  0  0  0  0  0  0  0  0  0
   -0.6697  -52.0577  -23.6912 C   0  0  0  0  0  0  0  0  0  0  0  0
   -0.4471  -52.0473  -25.0363 C   0  0  0  0  0  0  0  0  0  0  0  0
    0.1371  -52.0216  -21.3412 C   0  0  0  0  0  0  0  0  0  0  0  0
    0.6128  -50.9573  -20.5977 C   0  0  0  0  0  0  0  0  0  0  0  0
    0.4169  -50.9695  -19.2277 C   0  0  0  0  0  0  0  0  0  0  0  0
   -0.2383  -52.0131  -18.5908 C   0  0  0  0  0  0  0  0  0  0  0  0
   -0.6950  -53.0521  -19.3751 C   0  0  0  0  0  0  0  0  0  0  0  0
   -0.5194  -53.0792  -20.7547 C   0  0  0  0  0  0  0  0  0  0  0  0
   -1.0368  -54.1888  -21.4992 C   0  0  0  0  0  0  0  0  0  0  0  0
   -1.4690  -55.0634  -22.0961 N   0  0  0  0  0  0  0  0  0  0  0  0
   -0.4283  -51.9980  -17.1537 C   0  0  0  0  0  0  0  0  0  0  0  0
   -0.5950  -51.9807  -16.0063 N   0  0  0  0  0  0  0  0  0  0  0  0
   -1.5464  -52.1110  -25.9597 C   0  0  0  0  0  0  0  0  0  0  0  0
   -2.4370  -52.1706  -26.7063 N   0  0  0  0  0  0  0  0  0  0  0  0
    1.0184  -51.9633  -26.8800 O   0  0  0  0  0  0  0  0  0  0  0  0
    1.8209  -52.7776  -27.6246 C   0  0  0  0  0  0  0  0  0  0  0  0
   -0.0112  -52.8730  -29.2043 C   0  0  0  0  0  0  0  0  0  0  0  0
    1.0396  -53.7194  -28.5068 C   0  0  0  0  0  0  0  0  0  0  0  0
    0.3526  -54.6930  -27.5434 C   0  0  0  0  0  0  0  0  0  0  0  0
 21 22  1  0  0  0
 22 23  1  0  0  0
 22 20  1  0  0  0
 20 19  1  0  0  0
 19  1  1  0  0  0
  1  2  2  0  0  0
  2  3  1  0  0  0
  3  4  2  0  0  0
  4  5  1  0  0  0
  5  6  2  0  0  0
  6 17  1  0  0  0
 17 18  3  0  0  0
  4  7  1  0  0  0
  7  8  2  0  0  0
  8  9  1  0  0  0
  9 10  2  0  0  0
 10 11  1  0  0  0
 11 12  2  0  0  0
 12 13  1  0  0  0
 13 14  3  0  0  0
 10 15  1  0  0  0
 15 16  3  0  0  0
  6  1  1  0  0  0
 12  7  1  0  0  0
M  END
> <minimizedAffinity>
-7.31117

> <CNNscore>
0.8016115427

> <CNNaffinity>
6.4867544174

> <CNN_VS>
5.1998572350

> <CNNaffinity_variance>
0.1041903943

$$$$
[H]c1c([H])c(-c2c([H])c([H])c(OC([H])([H])C([H])(C([H])([H])[H])C([H])([H])[H])c(C#N)c2[H])c(C#N)c([H])c1C#N


 23 24  0  0  0  0  0  0  0  0999 V2000
    0.1878  -52.3027  -23.2170 C   0  0  0  0  0  0  0  0  0  0  0  0
    0.9166  -51.1407  -23.1105 C   0  0  0  0  0  0  0  0  0  0  0  0
    1.1549  -50.5278  -21.8892 C   0  0  0  0  0  0  0  0  0  0  0  0
    0.6416  -51.1076  -20.7627 C   0  0  0  0  0  0  0  0  0  0  0  0
   -0.0892  -52.2654  -20.8421 C   0  0  0  0  0  0  0  0  0  0  0  0
   -0.3248  -52.8704  -22.0410 C   0  0  0  0  0  0  0  0  0  0  0  0
    0.9120  -50.4544  -19.4662 C   0  0  0  0  0  0  0  0  0  0  0  0
    1.7108  -49.3258  -19.4710 C   0  0  0  0  0  0  0  0  0  0  0  0
    1.9876  -48.7081  -18.2638 C   0  0  0  0  0  0  0  0  0  0  0  0
    1.4876  -49.1899  -17.0630 C   0  0  0  0  0  0  0  0  0  0  0  0
    0.6954  -50.3184  -17.1095 C   0  0  0  0  0  0  0  0  0  0  0  0
    0.3925  -50.9695  -18.3007 C   0  0  0  0  0  0  0  0  0  0  0  0
   -0.4500  -52.1280  -18.2645 C   0  0  0  0  0  0  0  0  0  0  0  0
   -1.1400  -53.0395  -18.2315 N   0  0  0  0  0  0  0  0  0  0  0  0
    1.7952  -48.5214  -15.8140 C   0  0  0  0  0  0  0  0  0  0  0  0
    2.0550  -47.9820  -14.8210 N   0  0  0  0  0  0  0  0  0  0  0  0
   -1.0927  -54.0832  -22.1094 C   0  0  0  0  0  0  0  0  0  0  0  0
   -1.7209  -55.0612  -22.1618 N   0  0  0  0  0  0  0  0  0  0  0  0
   -0.0891  -52.9584  -24.3842 O   0  0  0  0  0  0  0  0  0  0  0  0
    0.5872  -52.8575  -25.5648 C   0  0  0  0  0  0  0  0  0  0  0  0
   -1.6122  -52.1056  -26.2419 C   0  0  0  0  0  0  0  0  0  0  0  0
   -0.1348  -52.0075  -26.5806 C   0  0  0  0  0  0  0  0  0  0  0  0
    0.1252  -52.6877  -27.9289 C   0  0  0  0  0  0  0  0  0  0  0  0
 21 22  1  0  0  0
 22 23  1  0  0  0
 22 20  1  0  0  0
 20 19  1  0  0  0
 19  1  1  0  0  0
  1  2  2  0  0  0
  2  3  1  0  0  0
  3  4  2  0  0  0
  4  5  1  0  0  0
  5  6  2  0  0  0
  6 17  1  0  0  0
 17 18  3  0  0  0
  4  7  1  0  0  0
  7  8  2  0  0  0
  8  9  1  0  0  0
  9 10  2  0  0  0
 10 11  1  0  0  0
 11 12  2  0  0  0
 12 13  1  0  0  0
 13 14  3  0  0  0
 10 15  1  0  0  0
 15 16  3  0  0  0
  6  1  1  0  0  0
 12  7  1  0  0  0
M  END
> <minimizedAffinity>
-6.35466

> <CNNscore>
0.7268030643

> <CNNaffinity>
6.0069303513

> <CNN_VS>
4.3658552170

> <CNNaffinity_variance>
0.2225381881

$$$$
[H]c1c([H])c(-c2c([H])c([H])c(OC([H])([H])C([H])(C([H])([H])[H])C([H])([H])[H])c(C#N)c2[H])c(C#N)c([H])c1C#N


 23 24  0  0  0  0  0  0  0  0999 V2000
   -0.5421  -53.4864  -24.8341 C   0  0  0  0  0  0  0  0  0  0  0  0
   -0.3597  -52.2274  -24.3103 C   0  0  0  0  0  0  0  0  0  0  0  0
   -0.3460  -51.9911  -22.9435 C   0  0  0  0  0  0  0  0  0  0  0  0
   -0.5222  -53.0532  -22.1011 C   0  0  0  0  0  0  0  0  0  0  0  0
   -0.7070  -54.3179  -22.5981 C   0  0  0  0  0  0  0  0  0  0  0  0
   -0.7205  -54.5534  -23.9410 C   0  0  0  0  0  0  0  0  0  0  0  0
   -0.4929  -52.7931  -20.6478 C   0  0  0  0  0  0  0  0  0  0  0  0
   -1.5403  -53.2802  -19.8879 C   0  0  0  0  0  0  0  0  0  0  0  0
   -1.5381  -53.0337  -18.5260 C   0  0  0  0  0  0  0  0  0  0  0  0
   -0.5206  -52.3175  -17.9131 C   0  0  0  0  0  0  0  0  0  0  0  0
    0.5027  -51.8524  -18.7130 C   0  0  0  0  0  0  0  0  0  0  0  0
    0.5392  -52.0778  -20.0850 C   0  0  0  0  0  0  0  0  0  0  0  0
    1.6455  -51.5729  -20.8428 C   0  0  0  0  0  0  0  0  0  0  0  0
    2.5421  -51.1746  -21.4307 N   0  0  0  0  0  0  0  0  0  0  0  0
   -0.5457  -52.0750  -16.4840 C   0  0  0  0  0  0  0  0  0  0  0  0
   -0.5565  -51.8937  -15.3387 N   0  0  0  0  0  0  0  0  0  0  0  0
   -0.9156  -55.8839  -24.4479 C   0  0  0  0  0  0  0  0  0  0  0  0
   -1.0660  -56.9611  -24.8614 N   0  0  0  0  0  0  0  0  0  0  0  0
   -0.5706  -53.7922  -26.1663 O   0  0  0  0  0  0  0  0  0  0  0  0
   -0.3220  -52.9487  -27.2094 C   0  0  0  0  0  0  0  0  0  0  0  0
   -0.4682  -52.6450  -29.6068 C   0  0  0  0  0  0  0  0  0  0  0  0
   -1.1952  -53.2281  -28.4074 C   0  0  0  0  0  0  0  0  0  0  0  0
   -2.4830  -52.4361  -28.1574 C   0  0  0  0  0  0  0  0  0  0  0  0
 21 22  1  0  0  0
 22 23  1  0  0  0
 22 20  1  0  0  0
 20 19  1  0  0  0
 19  1  1  0  0  0
  1  2  2  0  0  0
  2  3  1  0  0  0
  3  4  2  0  0  0
  4  5  1  0  0  0
  5  6  2  0  0  0
  6 17  1  0  0  0
 17 18  3  0  0  0
  4  7  1  0  0  0
  7  8  2  0  0  0
  8  9  1  0  0  0
  9 10  2  0  0  0
 10 11  1  0  0  0
 11 12  2  0  0  0
 12 13  1  0  0  0
 13 14  3  0  0  0
 10 15  1  0  0  0
 15 16  3  0  0  0
  6  1  1  0  0  0
 12  7  1  0  0  0
M  END
> <minimizedAffinity>
-6.39832

> <CNNscore>
0.7262488008

> <CNNaffinity>
6.2883663177

> <CNN_VS>
4.5669183731

> <CNNaffinity_variance>
0.1213849038

$$$$
[H]c1c([H])c(-c2c([H])c([H])c(OC([H])([H])C([H])(C([H])([H])[H])C([H])([H])[H])c(C#N)c2[H])c(C#N)c([H])c1C#N


 23 24  0  0  0  0  0  0  0  0999 V2000
    0.5486  -52.6485  -25.3870 C   0  0  0  0  0  0  0  0  0  0  0  0
   -0.6415  -52.3885  -24.7477 C   0  0  0  0  0  0  0  0  0  0  0  0
   -0.7029  -52.0879  -23.3950 C   0  0  0  0  0  0  0  0  0  0  0  0
    0.4652  -52.0538  -22.6857 C   0  0  0  0  0  0  0  0  0  0  0  0
    1.6646  -52.3103  -23.2993 C   0  0  0  0  0  0  0  0  0  0  0  0
    1.7282  -52.6056  -24.6288 C   0  0  0  0  0  0  0  0  0  0  0  0
    0.3904  -51.7200  -21.2492 C   0  0  0  0  0  0  0  0  0  0  0  0
    1.0115  -50.5589  -20.8274 C   0  0  0  0  0  0  0  0  0  0  0  0
    0.9648  -50.2367  -19.4822 C   0  0  0  0  0  0  0  0  0  0  0  0
    0.3167  -51.0428  -18.5581 C   0  0  0  0  0  0  0  0  0  0  0  0
   -0.2883  -52.1906  -19.0271 C   0  0  0  0  0  0  0  0  0  0  0  0
   -0.2653  -52.5513  -20.3703 C   0  0  0  0  0  0  0  0  0  0  0  0
   -0.9308  -53.7529  -20.7784 C   0  0  0  0  0  0  0  0  0  0  0  0
   -1.4761  -54.6998  -21.1163 N   0  0  0  0  0  0  0  0  0  0  0  0
    0.2849  -50.6793  -17.1552 C   0  0  0  0  0  0  0  0  0  0  0  0
    0.2475  -50.3785  -16.0359 N   0  0  0  0  0  0  0  0  0  0  0  0
    2.9919  -52.8727  -25.2587 C   0  0  0  0  0  0  0  0  0  0  0  0
    4.0132  -53.0840  -25.7748 N   0  0  0  0  0  0  0  0  0  0  0  0
    0.6840  -52.9546  -26.7126 O   0  0  0  0  0  0  0  0  0  0  0  0
   -0.2694  -53.4751  -27.5381 C   0  0  0  0  0  0  0  0  0  0  0  0
   -2.3931  -52.5567  -28.2505 C   0  0  0  0  0  0  0  0  0  0  0  0
   -0.8908  -52.4375  -28.4398 C   0  0  0  0  0  0  0  0  0  0  0  0
   -0.5203  -52.8700  -29.8624 C   0  0  0  0  0  0  0  0  0  0  0  0
 21 22  1  0  0  0
 22 23  1  0  0  0
 22 20  1  0  0  0
 20 19  1  0  0  0
 19  1  1  0  0  0
  1  2  2  0  0  0
  2  3  1  0  0  0
  3  4  2  0  0  0
  4  5  1  0  0  0
  5  6  2  0  0  0
  6 17  1  0  0  0
 17 18  3  0  0  0
  4  7  1  0  0  0
  7  8  2  0  0  0
  8  9  1  0  0  0
  9 10  2  0  0  0
 10 11  1  0  0  0
 11 12  2  0  0  0
 12 13  1  0  0  0
 13 14  3  0  0  0
 10 15  1  0  0  0
 15 16  3  0  0  0
  6  1  1  0  0  0
 12  7  1  0  0  0
M  END
> <minimizedAffinity>
-6.78424

> <CNNscore>
0.7193210125

> <CNNaffinity>
6.1810112000

> <CNN_VS>
4.4461312294

> <CNNaffinity_variance>
0.1676104963

$$$$
[H]c1c([H])c(-c2c([H])c([H])c(OC([H])([H])C([H])(C([H])([H])[H])C([H])([H])[H])c(C#N)c2[H])c(C#N)c([H])c1C#N


 23 24  0  0  0  0  0  0  0  0999 V2000
   -0.1042  -51.8461  -22.1339 C   0  0  0  0  0  0  0  0  0  0  0  0
    0.4419  -50.6743  -21.6634 C   0  0  0  0  0  0  0  0  0  0  0  0
    0.6430  -50.4443  -20.3104 C   0  0  0  0  0  0  0  0  0  0  0  0
    0.2806  -51.4222  -19.4266 C   0  0  0  0  0  0  0  0  0  0  0  0
   -0.2668  -52.5988  -19.8700 C   0  0  0  0  0  0  0  0  0  0  0  0
   -0.4652  -52.8280  -21.1993 C   0  0  0  0  0  0  0  0  0  0  0  0
    0.5108  -51.1728  -17.9894 C   0  0  0  0  0  0  0  0  0  0  0  0
   -0.5940  -51.1429  -17.1587 C   0  0  0  0  0  0  0  0  0  0  0  0
   -0.3998  -50.8959  -15.8108 C   0  0  0  0  0  0  0  0  0  0  0  0
    0.8636  -50.6803  -15.2804 C   0  0  0  0  0  0  0  0  0  0  0  0
    1.9347  -50.7202  -16.1489 C   0  0  0  0  0  0  0  0  0  0  0  0
    1.7838  -50.9653  -17.5098 C   0  0  0  0  0  0  0  0  0  0  0  0
    2.9495  -51.0047  -18.3421 C   0  0  0  0  0  0  0  0  0  0  0  0
    3.8713  -51.0535  -19.0173 N   0  0  0  0  0  0  0  0  0  0  0  0
    1.0357  -50.4237  -13.8641 C   0  0  0  0  0  0  0  0  0  0  0  0
    1.1889  -50.2160  -12.7335 N   0  0  0  0  0  0  0  0  0  0  0  0
   -1.0403  -54.0655  -21.6498 C   0  0  0  0  0  0  0  0  0  0  0  0
   -1.5098  -55.0635  -22.0206 N   0  0  0  0  0  0  0  0  0  0  0  0
   -0.3341  -52.1393  -23.4493 O   0  0  0  0  0  0  0  0  0  0  0  0
    0.5093  -51.9234  -24.4997 C   0  0  0  0  0  0  0  0  0  0  0  0
   -1.3408  -51.9959  -26.0595 C   0  0  0  0  0  0  0  0  0  0  0  0
    0.0337  -52.5757  -25.7741 C   0  0  0  0  0  0  0  0  0  0  0  0
   -0.1011  -54.0641  -25.4358 C   0  0  0  0  0  0  0  0  0  0  0  0
 21 22  1  0  0  0
 22 23  1  0  0  0
 22 20  1  0  0  0
 20 19  1  0  0  0
 19  1  1  0  0  0
  1  2  2  0  0  0
  2  3  1  0  0  0
  3  4  2  0  0  0
  4  5  1  0  0  0
  5  6  2  0  0  0
  6 17  1  0  0  0
 17 18  3  0  0  0
  4  7  1  0  0  0
  7  8  2  0  0  0
  8  9  1  0  0  0
  9 10  2  0  0  0
 10 11  1  0  0  0
 11 12  2  0  0  0
 12 13  1  0  0  0
 13 14  3  0  0  0
 10 15  1  0  0  0
 15 16  3  0  0  0
  6  1  1  0  0  0
 12  7  1  0  0  0
M  END
> <minimizedAffinity>
-6.09627

> <CNNscore>
0.7178660035

> <CNNaffinity>
5.7924051285

> <CNN_VS>
4.1581707001

> <CNNaffinity_variance>
0.0976914316

$$$$
[H]c1c([H])c(-c2c([H])c([H])c(OC([H])([H])C([H])(C([H])([H])[H])C([H])([H])[H])c(C#N)c2[H])c(C#N)c([H])c1C#N


 23 24  0  0  0  0  0  0  0  0999 V2000
    0.4324  -51.9704  -19.9005 C   0  0  0  0  0  0  0  0  0  0  0  0
   -0.7577  -52.1885  -20.5553 C   0  0  0  0  0  0  0  0  0  0  0  0
   -0.8292  -52.3150  -21.9348 C   0  0  0  0  0  0  0  0  0  0  0  0
    0.3286  -52.2160  -22.6548 C   0  0  0  0  0  0  0  0  0  0  0  0
    1.5276  -51.9978  -22.0260 C   0  0  0  0  0  0  0  0  0  0  0  0
    1.6011  -51.8736  -20.6703 C   0  0  0  0  0  0  0  0  0  0  0  0
    0.2435  -52.3651  -24.1215 C   0  0  0  0  0  0  0  0  0  0  0  0
    0.7401  -51.3363  -24.9005 C   0  0  0  0  0  0  0  0  0  0  0  0
    0.6560  -51.4512  -26.2772 C   0  0  0  0  0  0  0  0  0  0  0  0
    0.0914  -52.5621  -26.8862 C   0  0  0  0  0  0  0  0  0  0  0  0
   -0.3899  -53.5624  -26.0670 C   0  0  0  0  0  0  0  0  0  0  0  0
   -0.3250  -53.4871  -24.6796 C   0  0  0  0  0  0  0  0  0  0  0  0
   -0.8348  -54.5760  -23.9001 C   0  0  0  0  0  0  0  0  0  0  0  0
   -1.2600  -55.4453  -23.2905 N   0  0  0  0  0  0  0  0  0  0  0  0
    0.0171  -52.6540  -28.3310 C   0  0  0  0  0  0  0  0  0  0  0  0
   -0.0349  -52.7136  -29.4880 N   0  0  0  0  0  0  0  0  0  0  0  0
    2.8644  -51.6447  -20.0246 C   0  0  0  0  0  0  0  0  0  0  0  0
    3.8835  -51.4560  -19.4955 N   0  0  0  0  0  0  0  0  0  0  0  0
    0.5772  -51.8325  -18.5480 O   0  0  0  0  0  0  0  0  0  0  0  0
   -0.0252  -50.9075  -17.7464 C   0  0  0  0  0  0  0  0  0  0  0  0
   -1.6725  -52.4683  -16.9030 C   0  0  0  0  0  0  0  0  0  0  0  0
   -0.5773  -51.5062  -16.4765 C   0  0  0  0  0  0  0  0  0  0  0  0
   -1.1996  -50.3298  -15.7170 C   0  0  0  0  0  0  0  0  0  0  0  0
 21 22  1  0  0  0
 22 23  1  0  0  0
 22 20  1  0  0  0
 20 19  1  0  0  0
 19  1  1  0  0  0
  1  2  2  0  0  0
  2  3  1  0  0  0
  3  4  2  0  0  0
  4  5  1  0  0  0
  5  6  2  0  0  0
  6 17  1  0  0  0
 17 18  3  0  0  0
  4  7  1  0  0  0
  7  8  2  0  0  0
  8  9  1  0  0  0
  9 10  2  0  0  0
 10 11  1  0  0  0
 11 12  2  0  0  0
 12 13  1  0  0  0
 13 14  3  0  0  0
 10 15  1  0  0  0
 15 16  3  0  0  0
  6  1  1  0  0  0
 12  7  1  0  0  0
M  END
> <minimizedAffinity>
-6.85056

> <CNNscore>
0.7083100677

> <CNNaffinity>
6.2750926018

> <CNN_VS>
4.4447112083

> <CNNaffinity_variance>
0.2093349397

$$$$
[H]c1c([H])c(-c2c([H])c([H])c(OC([H])([H])C([H])(C([H])([H])[H])C([H])([H])[H])c(C#N)c2[H])c(C#N)c([H])c1C#N


 23 24  0  0  0  0  0  0  0  0999 V2000
   -0.4250  -52.9756  -25.1609 C   0  0  0  0  0  0  0  0  0  0  0  0
    0.0349  -51.7066  -24.8949 C   0  0  0  0  0  0  0  0  0  0  0  0
    0.6145  -51.3707  -23.6803 C   0  0  0  0  0  0  0  0  0  0  0  0
    0.7247  -52.3422  -22.7249 C   0  0  0  0  0  0  0  0  0  0  0  0
    0.2731  -53.6146  -22.9649 C   0  0  0  0  0  0  0  0  0  0  0  0
   -0.2966  -53.9479  -24.1578 C   0  0  0  0  0  0  0  0  0  0  0  0
    1.3551  -51.9777  -21.4401 C   0  0  0  0  0  0  0  0  0  0  0  0
    2.5879  -51.3533  -21.4850 C   0  0  0  0  0  0  0  0  0  0  0  0
    3.2013  -51.0173  -20.2908 C   0  0  0  0  0  0  0  0  0  0  0  0
    2.6142  -51.2894  -19.0639 C   0  0  0  0  0  0  0  0  0  0  0  0
    1.3838  -51.9134  -19.0706 C   0  0  0  0  0  0  0  0  0  0  0  0
    0.7328  -52.2679  -20.2476 C   0  0  0  0  0  0  0  0  0  0  0  0
   -0.5505  -52.9003  -20.1683 C   0  0  0  0  0  0  0  0  0  0  0  0
   -1.5833  -53.3889  -20.1177 N   0  0  0  0  0  0  0  0  0  0  0  0
    3.2813  -50.9256  -17.8294 C   0  0  0  0  0  0  0  0  0  0  0  0
    3.8179  -50.6499  -16.8390 N   0  0  0  0  0  0  0  0  0  0  0  0
   -0.7659  -55.2853  -24.3955 C   0  0  0  0  0  0  0  0  0  0  0  0
   -1.1515  -56.3672  -24.5821 N   0  0  0  0  0  0  0  0  0  0  0  0
   -1.0088  -53.3763  -26.3305 O   0  0  0  0  0  0  0  0  0  0  0  0
   -0.9746  -52.7288  -27.5308 C   0  0  0  0  0  0  0  0  0  0  0  0
    1.3408  -53.0389  -28.1664 C   0  0  0  0  0  0  0  0  0  0  0  0
   -0.0837  -53.4127  -28.5380 C   0  0  0  0  0  0  0  0  0  0  0  0
   -0.4422  -52.7776  -29.8858 C   0  0  0  0  0  0  0  0  0  0  0  0
 21 22  1  0  0  0
 22 23  1  0  0  0
 22 20  1  0  0  0
 20 19  1  0  0  0
 19  1  1  0  0  0
  1  2  2  0  0  0
  2  3  1  0  0  0
  3  4  2  0  0  0
  4  5  1  0  0  0
  5  6  2  0  0  0
  6 17  1  0  0  0
 17 18  3  0  0  0
  4  7  1  0  0  0
  7  8  2  0  0  0
  8  9  1  0  0  0
  9 10  2  0  0  0
 10 11  1  0  0  0
 11 12  2  0  0  0
 12 13  1  0  0  0
 13 14  3  0  0  0
 10 15  1  0  0  0
 15 16  3  0  0  0
  6  1  1  0  0  0
 12  7  1  0  0  0
M  END
> <minimizedAffinity>
-6.42339

> <CNNscore>
0.6839228868

> <CNNaffinity>
6.2186293602

> <CNN_VS>
4.2530627251

> <CNNaffinity_variance>
0.1133956164

$$$$
[H]c1c([H])c(N([H])c2nc(N([H])c3c([H])c([H])c(S(=O)(=O)C([H])([H])[H])c([H])c3[H])c3nc([H])n(C([H])([H])[H])c3n2)c([H])c(OC([H])([H])[H])c1OC([H])([H])[H]


 34 37  0  0  0  0  0  0  0  0999 V2000
    0.9189  -51.5714  -22.6590 C   0  0  0  0  0  0  0  0  0  0  0  0
    0.5592  -51.9211  -21.3877 N   0  0  0  0  0  0  0  0  0  0  0  0
   -0.1294  -53.0176  -21.0886 C   0  0  0  0  0  0  0  0  0  0  0  0
   -0.4700  -53.8130  -22.2065 C   0  0  0  0  0  0  0  0  0  0  0  0
   -1.1461  -54.9613  -22.2703 N   0  0  0  0  0  0  0  0  0  0  0  0
   -1.2151  -55.3345  -23.5577 C   0  0  0  0  0  0  0  0  0  0  0  0
   -0.5910  -54.4433  -24.3415 N   0  0  0  0  0  0  0  0  0  0  0  0
   -0.4246  -54.4527  -25.7858 C   0  0  0  0  0  0  0  0  0  0  0  0
   -0.1247  -53.4901  -23.4911 C   0  0  0  0  0  0  0  0  0  0  0  0
    0.5699  -52.3612  -23.6779 N   0  0  0  0  0  0  0  0  0  0  0  0
    1.6235  -50.3554  -22.7740 N   0  0  0  0  0  0  0  0  0  0  0  0
    1.7362  -49.8877  -23.7315 H   0  0  0  0  0  0  0  0  0  0  0  0
    3.1540  -48.3367  -19.4410 C   0  0  0  0  0  0  0  0  0  0  0  0
    1.9273  -48.0613  -19.9851 C   0  0  0  0  0  0  0  0  0  0  0  0
    1.4170  -48.7014  -21.0759 C   0  0  0  0  0  0  0  0  0  0  0  0
    2.1976  -49.7031  -21.6761 C   0  0  0  0  0  0  0  0  0  0  0  0
    3.4228  -50.0095  -21.1669 C   0  0  0  0  0  0  0  0  0  0  0  0
    3.8869  -49.3248  -20.0582 C   0  0  0  0  0  0  0  0  0  0  0  0
    3.1988  -48.0875  -17.0564 C   0  0  0  0  0  0  0  0  0  0  0  0
    3.6196  -47.6562  -18.3361 O   0  0  0  0  0  0  0  0  0  0  0  0
    5.1252  -49.6227  -19.5319 O   0  0  0  0  0  0  0  0  0  0  0  0
    6.3124  -49.1847  -20.1637 C   0  0  0  0  0  0  0  0  0  0  0  0
   -0.5526  -53.4266  -19.8076 N   0  0  0  0  0  0  0  0  0  0  0  0
   -0.8770  -54.4366  -19.6834 H   0  0  0  0  0  0  0  0  0  0  0  0
   -0.5664  -52.5816  -18.6845 C   0  0  0  0  0  0  0  0  0  0  0  0
   -1.3131  -52.7770  -17.5570 C   0  0  0  0  0  0  0  0  0  0  0  0
   -1.2463  -51.9010  -16.4700 C   0  0  0  0  0  0  0  0  0  0  0  0
   -0.4194  -50.8256  -16.5319 C   0  0  0  0  0  0  0  0  0  0  0  0
    0.3415  -50.6238  -17.6795 C   0  0  0  0  0  0  0  0  0  0  0  0
    0.2930  -51.4650  -18.7515 C   0  0  0  0  0  0  0  0  0  0  0  0
   -0.2954  -49.6903  -15.1927 S   0  0  0  0  0  0  0  0  0  0  0  0
   -1.5419  -50.1362  -14.0089 C   0  0  0  0  0  0  0  0  0  0  0  0
    1.0832  -49.7398  -14.6042 O   0  0  0  0  0  0  0  0  0  0  0  0
   -0.6290  -48.3344  -15.7355 O   0  0  0  0  0  0  0  0  0  0  0  0
 19 20  1  0  0  0
 20 13  1  0  0  0
 13 14  2  0  0  0
 14 15  1  0  0  0
 15 16  2  0  0  0
 16 11  1  0  0  0
 11  1  1  0  0  0
  1  2  2  0  0  0
  2  3  1  0  0  0
  3 23  1  0  0  0
 23 25  1  0  0  0
 25 26  2  0  0  0
 26 27  1  0  0  0
 27 28  2  0  0  0
 28 29  1  0  0  0
 29 30  2  0  0  0
 28 31  1  0  0  0
 31 32  1  0  0  0
 31 33  2  0  0  0
 31 34  2  0  0  0
  3  4  2  0  0  0
  4  5  1  0  0  0
  5  6  2  0  0  0
  6  7  1  0  0  0
  7  8  1  0  0  0
  7  9  1  0  0  0
  9 10  2  0  0  0
 16 17  1  0  0  0
 17 18  2  0  0  0
 18 21  1  0  0  0
 21 22  1  0  0  0
 18 13  1  0  0  0
 10  1  1  0  0  0
 30 25  1  0  0  0
  9  4  1  0  0  0
 11 12  1  0  0  0
 23 24  1  0  0  0
M  END
> <minimizedAffinity>
-6.97673

> <CNNscore>
0.7843888402

> <CNNaffinity>
7.0605378151

> <CNN_VS>
5.5382070541

> <CNNaffinity_variance>
0.1279441714

$$$$
[H]c1c([H])c(N([H])c2nc(N([H])c3c([H])c([H])c(S(=O)(=O)C([H])([H])[H])c([H])c3[H])c3nc([H])n(C([H])([H])[H])c3n2)c([H])c(OC([H])([H])[H])c1OC([H])([H])[H]


 34 37  0  0  0  0  0  0  0  0999 V2000
    0.4484  -50.8613  -20.8827 C   0  0  0  0  0  0  0  0  0  0  0  0
    0.1535  -51.4247  -19.6730 N   0  0  0  0  0  0  0  0  0  0  0  0
   -0.3771  -52.6347  -19.5298 C   0  0  0  0  0  0  0  0  0  0  0  0
   -0.6191  -53.3109  -20.7474 C   0  0  0  0  0  0  0  0  0  0  0  0
   -1.1343  -54.5211  -20.9708 N   0  0  0  0  0  0  0  0  0  0  0  0
   -1.1664  -54.7232  -22.2972 C   0  0  0  0  0  0  0  0  0  0  0  0
   -0.6773  -53.6581  -22.9489 N   0  0  0  0  0  0  0  0  0  0  0  0
   -0.5272  -53.4501  -24.3799 C   0  0  0  0  0  0  0  0  0  0  0  0
   -0.3350  -52.7740  -21.9740 C   0  0  0  0  0  0  0  0  0  0  0  0
    0.1983  -51.5465  -22.0015 N   0  0  0  0  0  0  0  0  0  0  0  0
    0.9806  -49.5567  -20.8271 N   0  0  0  0  0  0  0  0  0  0  0  0
    0.5411  -48.8238  -20.1807 H   0  0  0  0  0  0  0  0  0  0  0  0
    4.2270  -48.1573  -23.0698 C   0  0  0  0  0  0  0  0  0  0  0  0
    3.1299  -47.3894  -22.7808 C   0  0  0  0  0  0  0  0  0  0  0  0
    2.0594  -47.8314  -22.0605 C   0  0  0  0  0  0  0  0  0  0  0  0
    2.0851  -49.1536  -21.5874 C   0  0  0  0  0  0  0  0  0  0  0  0
    3.1569  -49.9514  -21.8509 C   0  0  0  0  0  0  0  0  0  0  0  0
    4.2132  -49.4464  -22.5876 C   0  0  0  0  0  0  0  0  0  0  0  0
    5.1957  -47.6991  -25.2149 C   0  0  0  0  0  0  0  0  0  0  0  0
    5.2814  -47.6573  -23.8037 O   0  0  0  0  0  0  0  0  0  0  0  0
    5.3043  -50.2417  -22.8635 O   0  0  0  0  0  0  0  0  0  0  0  0
    5.2020  -51.6523  -22.8522 C   0  0  0  0  0  0  0  0  0  0  0  0
   -0.7268  -53.2663  -18.3190 N   0  0  0  0  0  0  0  0  0  0  0  0
   -0.3605  -54.2539  -18.1424 H   0  0  0  0  0  0  0  0  0  0  0  0
   -1.5258  -52.6673  -17.3298 C   0  0  0  0  0  0  0  0  0  0  0  0
   -1.1185  -51.6846  -16.4723 C   0  0  0  0  0  0  0  0  0  0  0  0
   -1.9875  -51.1209  -15.5340 C   0  0  0  0  0  0  0  0  0  0  0  0
   -3.2714  -51.5589  -15.4688 C   0  0  0  0  0  0  0  0  0  0  0  0
   -3.6884  -52.5603  -16.3404 C   0  0  0  0  0  0  0  0  0  0  0  0
   -2.8587  -53.1244  -17.2638 C   0  0  0  0  0  0  0  0  0  0  0  0
   -4.4086  -50.8846  -14.3071 S   0  0  0  0  0  0  0  0  0  0  0  0
   -3.5285  -50.6570  -12.7816 C   0  0  0  0  0  0  0  0  0  0  0  0
   -4.9723  -49.5966  -14.8294 O   0  0  0  0  0  0  0  0  0  0  0  0
   -5.4716  -51.9167  -14.0850 O   0  0  0  0  0  0  0  0  0  0  0  0
 19 20  1  0  0  0
 20 13  1  0  0  0
 13 14  2  0  0  0
 14 15  1  0  0  0
 15 16  2  0  0  0
 16 11  1  0  0  0
 11  1  1  0  0  0
  1  2  2  0  0  0
  2  3  1  0  0  0
  3 23  1  0  0  0
 23 25  1  0  0  0
 25 26  2  0  0  0
 26 27  1  0  0  0
 27 28  2  0  0  0
 28 29  1  0  0  0
 29 30  2  0  0  0
 28 31  1  0  0  0
 31 32  1  0  0  0
 31 33  2  0  0  0
 31 34  2  0  0  0
  3  4  2  0  0  0
  4  5  1  0  0  0
  5  6  2  0  0  0
  6  7  1  0  0  0
  7  8  1  0  0  0
  7  9  1  0  0  0
  9 10  2  0  0  0
 16 17  1  0  0  0
 17 18  2  0  0  0
 18 21  1  0  0  0
 21 22  1  0  0  0
 18 13  1  0  0  0
 10  1  1  0  0  0
 30 25  1  0  0  0
  9  4  1  0  0  0
 11 12  1  0  0  0
 23 24  1  0  0  0
M  END
> <minimizedAffinity>
-7.51054

> <CNNscore>
0.7336881757

> <CNNaffinity>
6.9479780197

> <CNN_VS>
5.0976490974

> <CNNaffinity_variance>
0.0762788504

$$$$
[H]c1c([H])c(N([H])c2nc(N([H])c3c([H])c([H])c(S(=O)(=O)C([H])([H])[H])c([H])c3[H])c3nc([H])n(C([H])([H])[H])c3n2)c([H])c(OC([H])([H])[H])c1OC([H])([H])[H]


 34 37  0  0  0  0  0  0  0  0999 V2000
    0.6170  -51.1058  -21.0604 C   0  0  0  0  0  0  0  0  0  0  0  0
    0.2569  -51.6264  -19.8492 N   0  0  0  0  0  0  0  0  0  0  0  0
   -0.3840  -52.7811  -19.7011 C   0  0  0  0  0  0  0  0  0  0  0  0
   -0.6720  -53.4458  -20.9151 C   0  0  0  0  0  0  0  0  0  0  0  0
   -1.2930  -54.6062  -21.1333 N   0  0  0  0  0  0  0  0  0  0  0  0
   -1.3271  -54.8192  -22.4580 C   0  0  0  0  0  0  0  0  0  0  0  0
   -0.7346  -53.8106  -23.1136 N   0  0  0  0  0  0  0  0  0  0  0  0
   -0.5483  -53.6330  -24.5445 C   0  0  0  0  0  0  0  0  0  0  0  0
   -0.3248  -52.9507  -22.1431 C   0  0  0  0  0  0  0  0  0  0  0  0
    0.3191  -51.7775  -22.1756 N   0  0  0  0  0  0  0  0  0  0  0  0
    1.2658  -49.8548  -21.0107 N   0  0  0  0  0  0  0  0  0  0  0  0
    0.7731  -49.0106  -20.5715 H   0  0  0  0  0  0  0  0  0  0  0  0
    5.1858  -49.3987  -22.4079 C   0  0  0  0  0  0  0  0  0  0  0  0
    4.8647  -50.1555  -21.3120 C   0  0  0  0  0  0  0  0  0  0  0  0
    3.5953  -50.3074  -20.8369 C   0  0  0  0  0  0  0  0  0  0  0  0
    2.5561  -49.6475  -21.5132 C   0  0  0  0  0  0  0  0  0  0  0  0
    2.8308  -48.8855  -22.6079 C   0  0  0  0  0  0  0  0  0  0  0  0
    4.1390  -48.7692  -23.0422 C   0  0  0  0  0  0  0  0  0  0  0  0
    7.0646  -50.3697  -23.5381 C   0  0  0  0  0  0  0  0  0  0  0  0
    6.4885  -49.2806  -22.8434 O   0  0  0  0  0  0  0  0  0  0  0  0
    4.4331  -48.0009  -24.1478 O   0  0  0  0  0  0  0  0  0  0  0  0
    4.6488  -46.6078  -24.0332 C   0  0  0  0  0  0  0  0  0  0  0  0
   -0.8051  -53.3646  -18.4889 N   0  0  0  0  0  0  0  0  0  0  0  0
   -0.6449  -54.4117  -18.3520 H   0  0  0  0  0  0  0  0  0  0  0  0
   -1.4187  -52.6449  -17.4491 C   0  0  0  0  0  0  0  0  0  0  0  0
   -0.8391  -51.6310  -16.7399 C   0  0  0  0  0  0  0  0  0  0  0  0
   -1.5312  -50.9456  -15.7377 C   0  0  0  0  0  0  0  0  0  0  0  0
   -2.8137  -51.2936  -15.4574 C   0  0  0  0  0  0  0  0  0  0  0  0
   -3.4059  -52.3265  -16.1777 C   0  0  0  0  0  0  0  0  0  0  0  0
   -2.7505  -53.0087  -17.1596 C   0  0  0  0  0  0  0  0  0  0  0  0
   -3.7324  -50.4645  -14.2060 S   0  0  0  0  0  0  0  0  0  0  0  0
   -3.7157  -51.5038  -12.7662 C   0  0  0  0  0  0  0  0  0  0  0  0
   -3.1307  -49.1177  -13.9351 O   0  0  0  0  0  0  0  0  0  0  0  0
   -5.1452  -50.3634  -14.6942 O   0  0  0  0  0  0  0  0  0  0  0  0
 19 20  1  0  0  0
 20 13  1  0  0  0
 13 14  2  0  0  0
 14 15  1  0  0  0
 15 16  2  0  0  0
 16 11  1  0  0  0
 11  1  1  0  0  0
  1  2  2  0  0  0
  2  3  1  0  0  0
  3 23  1  0  0  0
 23 25  1  0  0  0
 25 26  2  0  0  0
 26 27  1  0  0  0
 27 28  2  0  0  0
 28 29  1  0  0  0
 29 30  2  0  0  0
 28 31  1  0  0  0
 31 32  1  0  0  0
 31 33  2  0  0  0
 31 34  2  0  0  0
  3  4  2  0  0  0
  4  5  1  0  0  0
  5  6  2  0  0  0
  6  7  1  0  0  0
  7  8  1  0  0  0
  7  9  1  0  0  0
  9 10  2  0  0  0
 16 17  1  0  0  0
 17 18  2  0  0  0
 18 21  1  0  0  0
 21 22  1  0  0  0
 18 13  1  0  0  0
 10  1  1  0  0  0
 30 25  1  0  0  0
  9  4  1  0  0  0
 11 12  1  0  0  0
 23 24  1  0  0  0
M  END
> <minimizedAffinity>
-7.19210

> <CNNscore>
0.6864994168

> <CNNaffinity>
6.9959058762

> <CNN_VS>
4.8026852608

> <CNNaffinity_variance>
0.1605412662

$$$$
[H]c1c([H])c(N([H])c2nc(N([H])c3c([H])c([H])c(S(=O)(=O)C([H])([H])[H])c([H])c3[H])c3nc([H])n(C([H])([H])[H])c3n2)c([H])c(OC([H])([H])[H])c1OC([H])([H])[H]


 34 37  0  0  0  0  0  0  0  0999 V2000
    0.5030  -50.9220  -20.2058 C   0  0  0  0  0  0  0  0  0  0  0  0
    0.0145  -51.5243  -19.0805 N   0  0  0  0  0  0  0  0  0  0  0  0
   -0.6527  -52.6736  -19.0865 C   0  0  0  0  0  0  0  0  0  0  0  0
   -0.8235  -53.2396  -20.3706 C   0  0  0  0  0  0  0  0  0  0  0  0
   -1.4336  -54.3676  -20.7384 N   0  0  0  0  0  0  0  0  0  0  0  0
   -1.3349  -54.4802  -22.0722 C   0  0  0  0  0  0  0  0  0  0  0  0
   -0.6659  -53.4376  -22.5856 N   0  0  0  0  0  0  0  0  0  0  0  0
   -0.3323  -53.1574  -23.9726 C   0  0  0  0  0  0  0  0  0  0  0  0
   -0.3465  -52.6613  -21.5158 C   0  0  0  0  0  0  0  0  0  0  0  0
    0.3120  -51.5023  -21.3935 N   0  0  0  0  0  0  0  0  0  0  0  0
    1.1590  -49.6916  -19.9954 N   0  0  0  0  0  0  0  0  0  0  0  0
    1.1874  -48.9572  -20.7752 H   0  0  0  0  0  0  0  0  0  0  0  0
    3.2154  -48.6663  -16.4959 C   0  0  0  0  0  0  0  0  0  0  0  0
    3.8454  -48.9497  -17.6790 C   0  0  0  0  0  0  0  0  0  0  0  0
    3.1927  -49.2949  -18.8256 C   0  0  0  0  0  0  0  0  0  0  0  0
    1.7903  -49.3635  -18.7895 C   0  0  0  0  0  0  0  0  0  0  0  0
    1.1237  -49.0887  -17.6342 C   0  0  0  0  0  0  0  0  0  0  0  0
    1.8413  -48.7444  -16.5028 C   0  0  0  0  0  0  0  0  0  0  0  0
    4.3267  -46.9750  -15.2095 C   0  0  0  0  0  0  0  0  0  0  0  0
    3.9275  -48.3229  -15.3665 O   0  0  0  0  0  0  0  0  0  0  0  0
    1.1812  -48.4645  -15.3259 O   0  0  0  0  0  0  0  0  0  0  0  0
   -0.1856  -48.1006  -15.3234 C   0  0  0  0  0  0  0  0  0  0  0  0
   -1.2027  -53.3374  -17.9711 N   0  0  0  0  0  0  0  0  0  0  0  0
   -0.9890  -54.3766  -17.8482 H   0  0  0  0  0  0  0  0  0  0  0  0
   -2.0115  -52.7072  -17.0097 C   0  0  0  0  0  0  0  0  0  0  0  0
   -3.3525  -52.9128  -16.8471 C   0  0  0  0  0  0  0  0  0  0  0  0
   -4.0793  -52.2651  -15.8443 C   0  0  0  0  0  0  0  0  0  0  0  0
   -3.4401  -51.4073  -15.0076 C   0  0  0  0  0  0  0  0  0  0  0  0
   -2.0745  -51.1955  -15.1718 C   0  0  0  0  0  0  0  0  0  0  0  0
   -1.3453  -51.8164  -16.1423 C   0  0  0  0  0  0  0  0  0  0  0  0
   -4.3056  -50.5648  -13.7275 S   0  0  0  0  0  0  0  0  0  0  0  0
   -5.1086  -51.7996  -12.7355 C   0  0  0  0  0  0  0  0  0  0  0  0
   -3.3509  -49.7316  -12.9252 O   0  0  0  0  0  0  0  0  0  0  0  0
   -5.3631  -49.7337  -14.3872 O   0  0  0  0  0  0  0  0  0  0  0  0
 19 20  1  0  0  0
 20 13  1  0  0  0
 13 14  2  0  0  0
 14 15  1  0  0  0
 15 16  2  0  0  0
 16 11  1  0  0  0
 11  1  1  0  0  0
  1  2  2  0  0  0
  2  3  1  0  0  0
  3 23  1  0  0  0
 23 25  1  0  0  0
 25 26  2  0  0  0
 26 27  1  0  0  0
 27 28  2  0  0  0
 28 29  1  0  0  0
 29 30  2  0  0  0
 28 31  1  0  0  0
 31 32  1  0  0  0
 31 33  2  0  0  0
 31 34  2  0  0  0
  3  4  2  0  0  0
  4  5  1  0  0  0
  5  6  2  0  0  0
  6  7  1  0  0  0
  7  8  1  0  0  0
  7  9  1  0  0  0
  9 10  2  0  0  0
 16 17  1  0  0  0
 17 18  2  0  0  0
 18 21  1  0  0  0
 21 22  1  0  0  0
 18 13  1  0  0  0
 10  1  1  0  0  0
 30 25  1  0  0  0
  9  4  1  0  0  0
 11 12  1  0  0  0
 23 24  1  0  0  0
M  END
> <minimizedAffinity>
-6.84149

> <CNNscore>
0.6014126539

> <CNNaffinity>
6.6997833252

> <CNN_VS>
4.0293345451

> <CNNaffinity_variance>
0.0910415053

$$$$
[H]c1c([H])c(N([H])c2nc(N([H])c3c([H])c([H])c(S(=O)(=O)C([H])([H])[H])c([H])c3[H])c3nc([H])n(C([H])([H])[H])c3n2)c([H])c(OC([H])([H])[H])c1OC([H])([H])[H]


 34 37  0  0  0  0  0  0  0  0999 V2000
   -0.4195  -52.4792  -21.7474 C   0  0  0  0  0  0  0  0  0  0  0  0
   -0.6088  -53.0240  -20.5084 N   0  0  0  0  0  0  0  0  0  0  0  0
   -0.2363  -52.4357  -19.3765 C   0  0  0  0  0  0  0  0  0  0  0  0
    0.3837  -51.1774  -19.5523 C   0  0  0  0  0  0  0  0  0  0  0  0
    0.8725  -50.3265  -18.6485 N   0  0  0  0  0  0  0  0  0  0  0  0
    1.3632  -49.2609  -19.3006 C   0  0  0  0  0  0  0  0  0  0  0  0
    1.2022  -49.4023  -20.6243 N   0  0  0  0  0  0  0  0  0  0  0  0
    1.5844  -48.4961  -21.6949 C   0  0  0  0  0  0  0  0  0  0  0  0
    0.5875  -50.6054  -20.7789 C   0  0  0  0  0  0  0  0  0  0  0  0
    0.1722  -51.2866  -21.8539 N   0  0  0  0  0  0  0  0  0  0  0  0
   -0.8589  -53.2710  -22.8284 N   0  0  0  0  0  0  0  0  0  0  0  0
   -1.6895  -53.9364  -22.7047 H   0  0  0  0  0  0  0  0  0  0  0  0
    1.1154  -53.2198  -26.5197 C   0  0  0  0  0  0  0  0  0  0  0  0
    1.7739  -53.2264  -25.3183 C   0  0  0  0  0  0  0  0  0  0  0  0
    1.1476  -53.2331  -24.1068 C   0  0  0  0  0  0  0  0  0  0  0  0
   -0.2569  -53.2332  -24.0919 C   0  0  0  0  0  0  0  0  0  0  0  0
   -0.9512  -53.2278  -25.2634 C   0  0  0  0  0  0  0  0  0  0  0  0
   -0.2597  -53.2207  -26.4614 C   0  0  0  0  0  0  0  0  0  0  0  0
    3.0541  -52.5577  -27.7660 C   0  0  0  0  0  0  0  0  0  0  0  0
    1.8015  -53.2127  -27.7155 O   0  0  0  0  0  0  0  0  0  0  0  0
   -0.9481  -53.2141  -27.6553 O   0  0  0  0  0  0  0  0  0  0  0  0
   -2.1542  -52.4895  -27.7993 C   0  0  0  0  0  0  0  0  0  0  0  0
   -0.3789  -52.9481  -18.0710 N   0  0  0  0  0  0  0  0  0  0  0  0
    0.2575  -53.7527  -17.7738 H   0  0  0  0  0  0  0  0  0  0  0  0
   -1.3075  -52.4561  -17.1376 C   0  0  0  0  0  0  0  0  0  0  0  0
   -1.0579  -51.4833  -16.2112 C   0  0  0  0  0  0  0  0  0  0  0  0
   -2.0488  -51.0296  -15.3362 C   0  0  0  0  0  0  0  0  0  0  0  0
   -3.2939  -51.5675  -15.4045 C   0  0  0  0  0  0  0  0  0  0  0  0
   -3.5505  -52.5591  -16.3466 C   0  0  0  0  0  0  0  0  0  0  0  0
   -2.5999  -53.0168  -17.2103 C   0  0  0  0  0  0  0  0  0  0  0  0
   -4.5797  -51.0340  -14.3276 S   0  0  0  0  0  0  0  0  0  0  0  0
   -3.8427  -50.7258  -12.7416 C   0  0  0  0  0  0  0  0  0  0  0  0
   -5.2431  -49.8109  -14.8873 O   0  0  0  0  0  0  0  0  0  0  0  0
   -5.5352  -52.1791  -14.1853 O   0  0  0  0  0  0  0  0  0  0  0  0
 19 20  1  0  0  0
 20 13  1  0  0  0
 13 14  2  0  0  0
 14 15  1  0  0  0
 15 16  2  0  0  0
 16 11  1  0  0  0
 11  1  1  0  0  0
  1  2  2  0  0  0
  2  3  1  0  0  0
  3 23  1  0  0  0
 23 25  1  0  0  0
 25 26  2  0  0  0
 26 27  1  0  0  0
 27 28  2  0  0  0
 28 29  1  0  0  0
 29 30  2  0  0  0
 28 31  1  0  0  0
 31 32  1  0  0  0
 31 33  2  0  0  0
 31 34  2  0  0  0
  3  4  2  0  0  0
  4  5  1  0  0  0
  5  6  2  0  0  0
  6  7  1  0  0  0
  7  8  1  0  0  0
  7  9  1  0  0  0
  9 10  2  0  0  0
 16 17  1  0  0  0
 17 18  2  0  0  0
 18 21  1  0  0  0
 21 22  1  0  0  0
 18 13  1  0  0  0
 10  1  1  0  0  0
 30 25  1  0  0  0
  9  4  1  0  0  0
 11 12  1  0  0  0
 23 24  1  0  0  0
M  END
> <minimizedAffinity>
-7.85164

> <CNNscore>
0.5941732526

> <CNNaffinity>
7.0786523819

> <CNN_VS>
4.2059459686

> <CNNaffinity_variance>
0.1973637044

$$$$
[H]c1c([H])c(N([H])c2nc(N([H])c3c([H])c([H])c(S(=O)(=O)C([H])([H])[H])c([H])c3[H])c3nc([H])n(C([H])([H])[H])c3n2)c([H])c(OC([H])([H])[H])c1OC([H])([H])[H]


 34 37  0  0  0  0  0  0  0  0999 V2000
   -0.4976  -53.0227  -19.5624 C   0  0  0  0  0  0  0  0  0  0  0  0
   -0.0363  -51.7578  -19.7968 N   0  0  0  0  0  0  0  0  0  0  0  0
    0.1684  -51.2578  -21.0109 C   0  0  0  0  0  0  0  0  0  0  0  0
   -0.1328  -52.1502  -22.0652 C   0  0  0  0  0  0  0  0  0  0  0  0
   -0.0455  -51.9812  -23.3856 N   0  0  0  0  0  0  0  0  0  0  0  0
   -0.4437  -53.1170  -23.9795 C   0  0  0  0  0  0  0  0  0  0  0  0
   -0.7921  -54.0317  -23.0629 N   0  0  0  0  0  0  0  0  0  0  0  0
   -1.2777  -55.3876  -23.2613 C   0  0  0  0  0  0  0  0  0  0  0  0
   -0.5960  -53.4223  -21.8632 C   0  0  0  0  0  0  0  0  0  0  0  0
   -0.7659  -53.8231  -20.5973 N   0  0  0  0  0  0  0  0  0  0  0  0
   -0.6225  -53.3774  -18.2033 N   0  0  0  0  0  0  0  0  0  0  0  0
   -0.1286  -54.2511  -17.8281 H   0  0  0  0  0  0  0  0  0  0  0  0
   -2.7307  -50.9894  -15.4868 C   0  0  0  0  0  0  0  0  0  0  0  0
   -1.4227  -50.7625  -15.8253 C   0  0  0  0  0  0  0  0  0  0  0  0
   -0.7175  -51.5353  -16.7002 C   0  0  0  0  0  0  0  0  0  0  0  0
   -1.3733  -52.6291  -17.2887 C   0  0  0  0  0  0  0  0  0  0  0  0
   -2.6739  -52.8903  -16.9810 C   0  0  0  0  0  0  0  0  0  0  0  0
   -3.3368  -52.0704  -16.0856 C   0  0  0  0  0  0  0  0  0  0  0  0
   -3.4375  -48.7855  -14.8597 C   0  0  0  0  0  0  0  0  0  0  0  0
   -3.3943  -50.1743  -14.5948 O   0  0  0  0  0  0  0  0  0  0  0  0
   -4.6528  -52.3224  -15.7633 O   0  0  0  0  0  0  0  0  0  0  0  0
   -5.0876  -53.6276  -15.4348 C   0  0  0  0  0  0  0  0  0  0  0  0
    0.6622  -49.9753  -21.3246 N   0  0  0  0  0  0  0  0  0  0  0  0
   -0.0379  -49.1731  -21.4090 H   0  0  0  0  0  0  0  0  0  0  0  0
    2.0241  -49.6924  -21.5272 C   0  0  0  0  0  0  0  0  0  0  0  0
    2.9952  -49.7515  -20.5680 C   0  0  0  0  0  0  0  0  0  0  0  0
    4.3350  -49.4819  -20.8605 C   0  0  0  0  0  0  0  0  0  0  0  0
    4.6854  -49.1514  -22.1303 C   0  0  0  0  0  0  0  0  0  0  0  0
    3.6979  -49.0895  -23.1089 C   0  0  0  0  0  0  0  0  0  0  0  0
    2.3852  -49.3488  -22.8469 C   0  0  0  0  0  0  0  0  0  0  0  0
    6.3573  -48.8022  -22.5550 S   0  0  0  0  0  0  0  0  0  0  0  0
    7.0659  -50.3061  -23.1791 C   0  0  0  0  0  0  0  0  0  0  0  0
    6.4094  -47.6941  -23.5644 O   0  0  0  0  0  0  0  0  0  0  0  0
    7.0659  -48.4424  -21.2850 O   0  0  0  0  0  0  0  0  0  0  0  0
 19 20  1  0  0  0
 20 13  1  0  0  0
 13 14  2  0  0  0
 14 15  1  0  0  0
 15 16  2  0  0  0
 16 11  1  0  0  0
 11  1  1  0  0  0
  1  2  2  0  0  0
  2  3  1  0  0  0
  3 23  1  0  0  0
 23 25  1  0  0  0
 25 26  2  0  0  0
 26 27  1  0  0  0
 27 28  2  0  0  0
 28 29  1  0  0  0
 29 30  2  0  0  0
 28 31  1  0  0  0
 31 32  1  0  0  0
 31 33  2  0  0  0
 31 34  2  0  0  0
  3  4  2  0  0  0
  4  5  1  0  0  0
  5  6  2  0  0  0
  6  7  1  0  0  0
  7  8  1  0  0  0
  7  9  1  0  0  0
  9 10  2  0  0  0
 16 17  1  0  0  0
 17 18  2  0  0  0
 18 21  1  0  0  0
 21 22  1  0  0  0
 18 13  1  0  0  0
 10  1  1  0  0  0
 30 25  1  0  0  0
  9  4  1  0  0  0
 11 12  1  0  0  0
 23 24  1  0  0  0
M  END
> <minimizedAffinity>
-6.87202

> <CNNscore>
0.5528044701

> <CNNaffinity>
6.9731225967

> <CNN_VS>
3.8547732830

> <CNNaffinity_variance>
0.0932033882

$$$$
[H]c1c([H])c(N([H])c2nc(N([H])c3c([H])c([H])c(S(=O)(=O)C([H])([H])[H])c([H])c3[H])c3nc([H])n(C([H])([H])[H])c3n2)c([H])c(OC([H])([H])[H])c1OC([H])([H])[H]


 34 37  0  0  0  0  0  0  0  0999 V2000
    0.4922  -50.7630  -20.9045 C   0  0  0  0  0  0  0  0  0  0  0  0
    0.2371  -51.3096  -19.6782 N   0  0  0  0  0  0  0  0  0  0  0  0
   -0.2723  -52.5241  -19.5007 C   0  0  0  0  0  0  0  0  0  0  0  0
   -0.5365  -53.2244  -20.7000 C   0  0  0  0  0  0  0  0  0  0  0  0
   -1.0401  -54.4452  -20.8893 N   0  0  0  0  0  0  0  0  0  0  0  0
   -1.1040  -54.6705  -22.2108 C   0  0  0  0  0  0  0  0  0  0  0  0
   -0.6473  -53.6101  -22.8930 N   0  0  0  0  0  0  0  0  0  0  0  0
   -0.5376  -53.4247  -24.3307 C   0  0  0  0  0  0  0  0  0  0  0  0
   -0.2922  -52.7048  -21.9425 C   0  0  0  0  0  0  0  0  0  0  0  0
    0.2227  -51.4707  -22.0047 N   0  0  0  0  0  0  0  0  0  0  0  0
    1.0072  -49.4505  -20.8850 N   0  0  0  0  0  0  0  0  0  0  0  0
    0.3837  -48.6328  -20.5836 H   0  0  0  0  0  0  0  0  0  0  0  0
    4.8778  -48.4376  -22.1175 C   0  0  0  0  0  0  0  0  0  0  0  0
    3.7861  -48.3648  -22.9421 C   0  0  0  0  0  0  0  0  0  0  0  0
    2.5203  -48.6999  -22.5610 C   0  0  0  0  0  0  0  0  0  0  0  0
    2.3260  -49.1462  -21.2434 C   0  0  0  0  0  0  0  0  0  0  0  0
    3.3836  -49.2327  -20.3899 C   0  0  0  0  0  0  0  0  0  0  0  0
    4.6447  -48.8790  -20.8349 C   0  0  0  0  0  0  0  0  0  0  0  0
    6.3467  -46.7567  -22.9934 C   0  0  0  0  0  0  0  0  0  0  0  0
    6.1359  -48.0858  -22.5577 O   0  0  0  0  0  0  0  0  0  0  0  0
    5.7251  -48.9622  -19.9834 O   0  0  0  0  0  0  0  0  0  0  0  0
    5.9292  -48.0013  -18.9658 C   0  0  0  0  0  0  0  0  0  0  0  0
   -0.5813  -53.1395  -18.2707 N   0  0  0  0  0  0  0  0  0  0  0  0
   -0.1328  -54.0843  -18.0539 H   0  0  0  0  0  0  0  0  0  0  0  0
   -1.4419  -52.5772  -17.3121 C   0  0  0  0  0  0  0  0  0  0  0  0
   -1.1183  -51.5605  -16.4585 C   0  0  0  0  0  0  0  0  0  0  0  0
   -2.0453  -51.0383  -15.5523 C   0  0  0  0  0  0  0  0  0  0  0  0
   -3.3018  -51.5523  -15.5151 C   0  0  0  0  0  0  0  0  0  0  0  0
   -3.6335  -52.5885  -16.3828 C   0  0  0  0  0  0  0  0  0  0  0  0
   -2.7462  -53.1132  -17.2752 C   0  0  0  0  0  0  0  0  0  0  0  0
   -4.5092  -50.9330  -14.3943 S   0  0  0  0  0  0  0  0  0  0  0  0
   -3.6717  -50.5589  -12.8737 C   0  0  0  0  0  0  0  0  0  0  0  0
   -5.1805  -49.7260  -14.9790 O   0  0  0  0  0  0  0  0  0  0  0  0
   -5.4772  -52.0465  -14.1340 O   0  0  0  0  0  0  0  0  0  0  0  0
 19 20  1  0  0  0
 20 13  1  0  0  0
 13 14  2  0  0  0
 14 15  1  0  0  0
 15 16  2  0  0  0
 16 11  1  0  0  0
 11  1  1  0  0  0
  1  2  2  0  0  0
  2  3  1  0  0  0
  3 23  1  0  0  0
 23 25  1  0  0  0
 25 26  2  0  0  0
 26 27  1  0  0  0
 27 28  2  0  0  0
 28 29  1  0  0  0
 29 30  2  0  0  0
 28 31  1  0  0  0
 31 32  1  0  0  0
 31 33  2  0  0  0
 31 34  2  0  0  0
  3  4  2  0  0  0
  4  5  1  0  0  0
  5  6  2  0  0  0
  6  7  1  0  0  0
  7  8  1  0  0  0
  7  9  1  0  0  0
  9 10  2  0  0  0
 16 17  1  0  0  0
 17 18  2  0  0  0
 18 21  1  0  0  0
 21 22  1  0  0  0
 18 13  1  0  0  0
 10  1  1  0  0  0
 30 25  1  0  0  0
  9  4  1  0  0  0
 11 12  1  0  0  0
 23 24  1  0  0  0
M  END
> <minimizedAffinity>
-7.16583

> <CNNscore>
0.5397747159

> <CNNaffinity>
6.7481870651

> <CNN_VS>
3.6425006390

> <CNNaffinity_variance>
0.0850561634

$$$$
[H]c1c([H])c(N([H])c2nc(N([H])c3c([H])c([H])c(S(=O)(=O)C([H])([H])[H])c([H])c3[H])c3nc([H])n(C([H])([H])[H])c3n2)c([H])c(OC([H])([H])[H])c1OC([H])([H])[H]


 34 37  0  0  0  0  0  0  0  0999 V2000
   -0.3072  -52.2387  -21.6802 C   0  0  0  0  0  0  0  0  0  0  0  0
   -0.4790  -52.7728  -20.4340 N   0  0  0  0  0  0  0  0  0  0  0  0
   -0.0759  -52.1823  -19.3137 C   0  0  0  0  0  0  0  0  0  0  0  0
    0.5575  -50.9338  -19.5104 C   0  0  0  0  0  0  0  0  0  0  0  0
    1.0759  -50.0838  -18.6224 N   0  0  0  0  0  0  0  0  0  0  0  0
    1.5680  -49.0294  -19.2913 C   0  0  0  0  0  0  0  0  0  0  0  0
    1.3785  -49.1772  -20.6105 N   0  0  0  0  0  0  0  0  0  0  0  0
    1.7515  -48.2832  -21.6947 C   0  0  0  0  0  0  0  0  0  0  0  0
    0.7445  -50.3727  -20.7447 C   0  0  0  0  0  0  0  0  0  0  0  0
    0.2985  -51.0550  -21.8065 N   0  0  0  0  0  0  0  0  0  0  0  0
   -0.7789  -53.0313  -22.7467 N   0  0  0  0  0  0  0  0  0  0  0  0
   -1.5179  -53.7867  -22.5694 H   0  0  0  0  0  0  0  0  0  0  0  0
    0.4291  -52.4388  -26.7111 C   0  0  0  0  0  0  0  0  0  0  0  0
   -0.7888  -52.0349  -26.2310 C   0  0  0  0  0  0  0  0  0  0  0  0
   -1.2029  -52.2282  -24.9461 C   0  0  0  0  0  0  0  0  0  0  0  0
   -0.3267  -52.8807  -24.0632 C   0  0  0  0  0  0  0  0  0  0  0  0
    0.8943  -53.2980  -24.4987 C   0  0  0  0  0  0  0  0  0  0  0  0
    1.2580  -53.0737  -25.8143 C   0  0  0  0  0  0  0  0  0  0  0  0
    0.1873  -53.0017  -29.0294 C   0  0  0  0  0  0  0  0  0  0  0  0
    0.7948  -52.2169  -28.0217 O   0  0  0  0  0  0  0  0  0  0  0  0
    2.4898  -53.4910  -26.2702 O   0  0  0  0  0  0  0  0  0  0  0  0
    3.6206  -52.6446  -26.1986 C   0  0  0  0  0  0  0  0  0  0  0  0
   -0.1992  -52.6842  -18.0022 N   0  0  0  0  0  0  0  0  0  0  0  0
    0.4981  -53.4260  -17.6796 H   0  0  0  0  0  0  0  0  0  0  0  0
   -1.1846  -52.2592  -17.0944 C   0  0  0  0  0  0  0  0  0  0  0  0
   -1.0343  -51.2600  -16.1747 C   0  0  0  0  0  0  0  0  0  0  0  0
   -2.0774  -50.8788  -15.3261 C   0  0  0  0  0  0  0  0  0  0  0  0
   -3.2734  -51.5161  -15.4140 C   0  0  0  0  0  0  0  0  0  0  0  0
   -3.4287  -52.5348  -16.3493 C   0  0  0  0  0  0  0  0  0  0  0  0
   -2.4258  -52.9231  -17.1875 C   0  0  0  0  0  0  0  0  0  0  0  0
   -4.6212  -51.0772  -14.3708 S   0  0  0  0  0  0  0  0  0  0  0  0
   -3.9686  -50.8575  -12.7338 C   0  0  0  0  0  0  0  0  0  0  0  0
   -5.2835  -49.8335  -14.8844 O   0  0  0  0  0  0  0  0  0  0  0  0
   -5.5570  -52.2469  -14.3486 O   0  0  0  0  0  0  0  0  0  0  0  0
 19 20  1  0  0  0
 20 13  1  0  0  0
 13 14  2  0  0  0
 14 15  1  0  0  0
 15 16  2  0  0  0
 16 11  1  0  0  0
 11  1  1  0  0  0
  1  2  2  0  0  0
  2  3  1  0  0  0
  3 23  1  0  0  0
 23 25  1  0  0  0
 25 26  2  0  0  0
 26 27  1  0  0  0
 27 28  2  0  0  0
 28 29  1  0  0  0
 29 30  2  0  0  0
 28 31  1  0  0  0
 31 32  1  0  0  0
 31 33  2  0  0  0
 31 34  2  0  0  0
  3  4  2  0  0  0
  4  5  1  0  0  0
  5  6  2  0  0  0
  6  7  1  0  0  0
  7  8  1  0  0  0
  7  9  1  0  0  0
  9 10  2  0  0  0
 16 17  1  0  0  0
 17 18  2  0  0  0
 18 21  1  0  0  0
 21 22  1  0  0  0
 18 13  1  0  0  0
 10  1  1  0  0  0
 30 25  1  0  0  0
  9  4  1  0  0  0
 11 12  1  0  0  0
 23 24  1  0  0  0
M  END
> <minimizedAffinity>
-7.89035

> <CNNscore>
0.4630545378

> <CNNaffinity>
6.8311448097

> <CNN_VS>
3.1631925106

> <CNNaffinity_variance>
0.1874957830

$$$$
[H]c1c([H])c(N([H])c2nc(N([H])c3c([H])c([H])c(S(=O)(=O)C([H])([H])[H])c([H])c3[H])c3nc([H])n(C([H])([H])[H])c3n2)c([H])c(OC([H])([H])[H])c1OC([H])([H])[H]


 34 37  0  0  0  0  0  0  0  0999 V2000
   -0.0871  -52.2279  -22.0972 C   0  0  0  0  0  0  0  0  0  0  0  0
   -0.5163  -52.7463  -20.9078 N   0  0  0  0  0  0  0  0  0  0  0  0
    0.1961  -52.7142  -19.7864 C   0  0  0  0  0  0  0  0  0  0  0  0
    1.4581  -52.0907  -19.9174 C   0  0  0  0  0  0  0  0  0  0  0  0
    2.4147  -51.8875  -19.0099 N   0  0  0  0  0  0  0  0  0  0  0  0
    3.4326  -51.2521  -19.6109 C   0  0  0  0  0  0  0  0  0  0  0  0
    3.1554  -51.0351  -20.9048 N   0  0  0  0  0  0  0  0  0  0  0  0
    3.9692  -50.3843  -21.9187 C   0  0  0  0  0  0  0  0  0  0  0  0
    1.9163  -51.5623  -21.0940 C   0  0  0  0  0  0  0  0  0  0  0  0
    1.1151  -51.6497  -22.1628 N   0  0  0  0  0  0  0  0  0  0  0  0
   -0.9765  -52.3850  -23.1801 N   0  0  0  0  0  0  0  0  0  0  0  0
   -2.0349  -52.3704  -23.0130 H   0  0  0  0  0  0  0  0  0  0  0  0
    0.3815  -52.7139  -27.1265 C   0  0  0  0  0  0  0  0  0  0  0  0
    0.1528  -51.5115  -26.5110 C   0  0  0  0  0  0  0  0  0  0  0  0
   -0.2987  -51.3854  -25.2303 C   0  0  0  0  0  0  0  0  0  0  0  0
   -0.5434  -52.5601  -24.5000 C   0  0  0  0  0  0  0  0  0  0  0  0
   -0.3283  -53.7765  -25.0731 C   0  0  0  0  0  0  0  0  0  0  0  0
    0.1300  -53.8404  -26.3767 C   0  0  0  0  0  0  0  0  0  0  0  0
   -0.1146  -52.8270  -29.4698 C   0  0  0  0  0  0  0  0  0  0  0  0
    0.8383  -52.7812  -28.4255 O   0  0  0  0  0  0  0  0  0  0  0  0
    0.3514  -55.0639  -26.9709 O   0  0  0  0  0  0  0  0  0  0  0  0
   -0.0495  -56.2653  -26.3413 C   0  0  0  0  0  0  0  0  0  0  0  0
   -0.1732  -53.2476  -18.5349 N   0  0  0  0  0  0  0  0  0  0  0  0
    0.1534  -54.2351  -18.2925 H   0  0  0  0  0  0  0  0  0  0  0  0
   -0.9423  -52.5508  -17.5869 C   0  0  0  0  0  0  0  0  0  0  0  0
   -0.5343  -51.4444  -16.8967 C   0  0  0  0  0  0  0  0  0  0  0  0
   -1.3745  -50.7923  -15.9900 C   0  0  0  0  0  0  0  0  0  0  0  0
   -2.6301  -51.2678  -15.7857 C   0  0  0  0  0  0  0  0  0  0  0  0
   -3.0476  -52.3951  -16.4867 C   0  0  0  0  0  0  0  0  0  0  0  0
   -2.2458  -53.0470  -17.3762 C   0  0  0  0  0  0  0  0  0  0  0  0
   -3.7303  -50.4862  -14.6560 S   0  0  0  0  0  0  0  0  0  0  0  0
   -3.1048  -50.7857  -13.0212 C   0  0  0  0  0  0  0  0  0  0  0  0
   -3.8252  -49.0213  -14.9628 O   0  0  0  0  0  0  0  0  0  0  0  0
   -5.0537  -51.1767  -14.7848 O   0  0  0  0  0  0  0  0  0  0  0  0
 19 20  1  0  0  0
 20 13  1  0  0  0
 13 14  2  0  0  0
 14 15  1  0  0  0
 15 16  2  0  0  0
 16 11  1  0  0  0
 11  1  1  0  0  0
  1  2  2  0  0  0
  2  3  1  0  0  0
  3 23  1  0  0  0
 23 25  1  0  0  0
 25 26  2  0  0  0
 26 27  1  0  0  0
 27 28  2  0  0  0
 28 29  1  0  0  0
 29 30  2  0  0  0
 28 31  1  0  0  0
 31 32  1  0  0  0
 31 33  2  0  0  0
 31 34  2  0  0  0
  3  4  2  0  0  0
  4  5  1  0  0  0
  5  6  2  0  0  0
  6  7  1  0  0  0
  7  8  1  0  0  0
  7  9  1  0  0  0
  9 10  2  0  0  0
 16 17  1  0  0  0
 17 18  2  0  0  0
 18 21  1  0  0  0
 21 22  1  0  0  0
 18 13  1  0  0  0
 10  1  1  0  0  0
 30 25  1  0  0  0
  9  4  1  0  0  0
 11 12  1  0  0  0
 23 24  1  0  0  0
M  END
> <minimizedAffinity>
-7.66122

> <CNNscore>
0.4115973413

> <CNNaffinity>
6.8561568260

> <CNN_VS>
2.8219759464

> <CNNaffinity_variance>
0.0790217966

$$$$
[H]c1c(N([H])C(=O)[C@@]2([H])N(C(=O)c3c([H])c([H])c(F)c(F)c3[H])C([H])([H])c3c([H])c([H])c([H])c([H])c3C2([H])[H])noc1C(C([H])([H])[H])(C([H])([H])[H])C([H])([H])[H]


 33 36  0  0  0  0  0  0  0  0999 V2000
    1.2487  -51.0012  -17.9019 C   0  0  0  0  0  0  0  0  0  0  0  0
    0.7795  -51.9546  -16.7863 C   0  0  0  0  0  0  0  0  0  0  0  0
    1.1098  -51.4116  -15.4879 C   0  0  0  0  0  0  0  0  0  0  0  0
    1.7414  -52.1006  -14.5080 C   0  0  0  0  0  0  0  0  0  0  0  0
    1.9935  -51.5317  -13.2493 C   0  0  0  0  0  0  0  0  0  0  0  0
    1.5653  -50.2396  -13.0661 C   0  0  0  0  0  0  0  0  0  0  0  0
    0.9120  -49.5148  -14.0691 C   0  0  0  0  0  0  0  0  0  0  0  0
    0.6881  -50.0970  -15.2681 C   0  0  0  0  0  0  0  0  0  0  0  0
    0.0447  -49.4295  -16.4723 C   0  0  0  0  0  0  0  0  0  0  0  0
    1.1006  -49.6497  -17.5563 N   0  0  0  0  0  0  0  0  0  0  0  0
    1.7289  -48.4742  -17.9267 C   0  0  0  0  0  0  0  0  0  0  0  0
    1.2636  -47.3662  -17.3561 O   0  0  0  0  0  0  0  0  0  0  0  0
    2.8174  -48.2134  -18.8203 C   0  0  0  0  0  0  0  0  0  0  0  0
    3.7749  -49.2526  -18.9758 C   0  0  0  0  0  0  0  0  0  0  0  0
    4.8453  -49.0642  -19.8145 C   0  0  0  0  0  0  0  0  0  0  0  0
    5.0294  -47.9063  -20.5120 C   0  0  0  0  0  0  0  0  0  0  0  0
    6.0856  -47.7494  -21.3108 F   0  0  0  0  0  0  0  0  0  0  0  0
    4.1111  -46.8716  -20.3840 C   0  0  0  0  0  0  0  0  0  0  0  0
    4.2658  -45.7341  -21.0587 F   0  0  0  0  0  0  0  0  0  0  0  0
    3.0278  -47.0505  -19.5396 C   0  0  0  0  0  0  0  0  0  0  0  0
    0.8423  -50.9298  -20.4407 N   0  0  0  0  0  0  0  0  0  0  0  0
    0.6149  -51.4455  -19.1706 C   0  0  0  0  0  0  0  0  0  0  0  0
   -0.2303  -52.4119  -19.0675 O   0  0  0  0  0  0  0  0  0  0  0  0
    1.5116  -50.1442  -20.5813 H   0  0  0  0  0  0  0  0  0  0  0  0
   -0.3358  -52.3161  -23.5690 C   0  0  0  0  0  0  0  0  0  0  0  0
    0.6223  -51.6517  -22.8584 C   0  0  0  0  0  0  0  0  0  0  0  0
    0.1792  -51.5265  -21.5751 C   0  0  0  0  0  0  0  0  0  0  0  0
   -1.0518  -52.1234  -21.5335 N   0  0  0  0  0  0  0  0  0  0  0  0
   -1.3036  -52.5639  -22.7096 O   0  0  0  0  0  0  0  0  0  0  0  0
   -0.2114  -54.1849  -25.1899 C   0  0  0  0  0  0  0  0  0  0  0  0
   -0.3080  -52.6907  -25.0109 C   0  0  0  0  0  0  0  0  0  0  0  0
   -1.5940  -52.1425  -25.6288 C   0  0  0  0  0  0  0  0  0  0  0  0
    0.8988  -52.0307  -25.6377 C   0  0  0  0  0  0  0  0  0  0  0  0
 30 31  1  0  0  0
 31 32  1  0  0  0
 31 33  1  0  0  0
 31 25  1  0  0  0
 25 26  2  0  0  0
 26 27  1  0  0  0
 27 21  1  0  0  0
 21 22  1  0  0  0
 22 23  2  0  0  0
 22  1  1  0  0  0
  1  2  1  0  0  0
  2  3  1  0  0  0
  3  4  2  0  0  0
  4  5  1  0  0  0
  5  6  2  0  0  0
  6  7  1  0  0  0
  7  8  2  0  0  0
  8  9  1  0  0  0
  9 10  1  0  0  0
 10 11  1  0  0  0
 11 12  2  0  0  0
 11 13  1  0  0  0
 13 14  2  0  0  0
 14 15  1  0  0  0
 15 16  2  0  0  0
 16 17  1  0  0  0
 16 18  1  0  0  0
 18 19  1  0  0  0
 18 20  2  0  0  0
 27 28  2  0  0  0
 28 29  1  0  0  0
 29 25  1  0  0  0
 10  1  1  0  0  0
 20 13  1  0  0  0
  8  3  1  0  0  0
 21 24  1  0  0  0
M  END
> <minimizedAffinity>
-3.79404

> <CNNscore>
0.3995914757

> <CNNaffinity>
6.6541914940

> <CNN_VS>
2.6589581966

> <CNNaffinity_variance>
2.3642475605

$$$$
[H]c1c(N([H])C(=O)[C@@]2([H])N(C(=O)c3c([H])c([H])c(F)c(F)c3[H])C([H])([H])c3c([H])c([H])c([H])c([H])c3C2([H])[H])noc1C(C([H])([H])[H])(C([H])([H])[H])C([H])([H])[H]


 33 36  0  0  0  0  0  0  0  0999 V2000
   -0.1486  -49.6184  -15.6436 C   0  0  0  0  0  0  0  0  0  0  0  0
   -1.4982  -48.8757  -15.6626 C   0  0  0  0  0  0  0  0  0  0  0  0
   -1.5438  -47.8871  -14.6088 C   0  0  0  0  0  0  0  0  0  0  0  0
   -2.5614  -47.7565  -13.7250 C   0  0  0  0  0  0  0  0  0  0  0  0
   -2.5693  -46.7449  -12.7513 C   0  0  0  0  0  0  0  0  0  0  0  0
   -1.4896  -45.8959  -12.7438 C   0  0  0  0  0  0  0  0  0  0  0  0
   -0.4305  -46.0186  -13.6500 C   0  0  0  0  0  0  0  0  0  0  0  0
   -0.4590  -47.0061  -14.5724 C   0  0  0  0  0  0  0  0  0  0  0  0
    0.6335  -47.3058  -15.5854 C   0  0  0  0  0  0  0  0  0  0  0  0
    0.9253  -48.7809  -15.3072 N   0  0  0  0  0  0  0  0  0  0  0  0
    2.1667  -48.9724  -14.7275 C   0  0  0  0  0  0  0  0  0  0  0  0
    2.9148  -47.8810  -14.5910 O   0  0  0  0  0  0  0  0  0  0  0  0
    2.8149  -50.1462  -14.2239 C   0  0  0  0  0  0  0  0  0  0  0  0
    4.1618  -49.9941  -13.7957 C   0  0  0  0  0  0  0  0  0  0  0  0
    4.8415  -51.0821  -13.3068 C   0  0  0  0  0  0  0  0  0  0  0  0
    4.2699  -52.3174  -13.2152 C   0  0  0  0  0  0  0  0  0  0  0  0
    4.9601  -53.3575  -12.7459 F   0  0  0  0  0  0  0  0  0  0  0  0
    2.9545  -52.4998  -13.6236 C   0  0  0  0  0  0  0  0  0  0  0  0
    2.3727  -53.6945  -13.5386 F   0  0  0  0  0  0  0  0  0  0  0  0
    2.2596  -51.4090  -14.1194 C   0  0  0  0  0  0  0  0  0  0  0  0
    0.5909  -49.9650  -18.0827 N   0  0  0  0  0  0  0  0  0  0  0  0
   -0.0358  -50.3809  -16.9144 C   0  0  0  0  0  0  0  0  0  0  0  0
   -0.5789  -51.5488  -16.9183 O   0  0  0  0  0  0  0  0  0  0  0  0
    1.0418  -49.0277  -18.1370 H   0  0  0  0  0  0  0  0  0  0  0  0
    0.9974  -51.7846  -21.1842 C   0  0  0  0  0  0  0  0  0  0  0  0
    1.0881  -50.6194  -20.4784 C   0  0  0  0  0  0  0  0  0  0  0  0
    0.6565  -50.8652  -19.2087 C   0  0  0  0  0  0  0  0  0  0  0  0
    0.3087  -52.1885  -19.1703 N   0  0  0  0  0  0  0  0  0  0  0  0
    0.5244  -52.6748  -20.3356 O   0  0  0  0  0  0  0  0  0  0  0  0
    0.6688  -53.2445  -23.1580 C   0  0  0  0  0  0  0  0  0  0  0  0
    1.3547  -52.0177  -22.6119 C   0  0  0  0  0  0  0  0  0  0  0  0
    0.9344  -50.7631  -23.3771 C   0  0  0  0  0  0  0  0  0  0  0  0
    2.8528  -52.2033  -22.6900 C   0  0  0  0  0  0  0  0  0  0  0  0
 30 31  1  0  0  0
 31 32  1  0  0  0
 31 33  1  0  0  0
 31 25  1  0  0  0
 25 26  2  0  0  0
 26 27  1  0  0  0
 27 21  1  0  0  0
 21 22  1  0  0  0
 22 23  2  0  0  0
 22  1  1  0  0  0
  1  2  1  0  0  0
  2  3  1  0  0  0
  3  4  2  0  0  0
  4  5  1  0  0  0
  5  6  2  0  0  0
  6  7  1  0  0  0
  7  8  2  0  0  0
  8  9  1  0  0  0
  9 10  1  0  0  0
 10 11  1  0  0  0
 11 12  2  0  0  0
 11 13  1  0  0  0
 13 14  2  0  0  0
 14 15  1  0  0  0
 15 16  2  0  0  0
 16 17  1  0  0  0
 16 18  1  0  0  0
 18 19  1  0  0  0
 18 20  2  0  0  0
 27 28  2  0  0  0
 28 29  1  0  0  0
 29 25  1  0  0  0
 10  1  1  0  0  0
 20 13  1  0  0  0
  8  3  1  0  0  0
 21 24  1  0  0  0
M  END
> <minimizedAffinity>
-3.77391

> <CNNscore>
0.3955235183

> <CNNaffinity>
6.1103715897

> <CNN_VS>
2.4167957306

> <CNNaffinity_variance>
1.8288196325

$$$$
[H]c1c(N([H])C(=O)[C@@]2([H])N(C(=O)c3c([H])c([H])c(F)c(F)c3[H])C([H])([H])c3c([H])c([H])c([H])c([H])c3C2([H])[H])noc1C(C([H])([H])[H])(C([H])([H])[H])C([H])([H])[H]


 33 36  0  0  0  0  0  0  0  0999 V2000
    4.2342  -48.0819  -23.9678 C   0  0  0  0  0  0  0  0  0  0  0  0
    5.0625  -46.8099  -24.2314 C   0  0  0  0  0  0  0  0  0  0  0  0
    5.0200  -46.4630  -25.6341 C   0  0  0  0  0  0  0  0  0  0  0  0
    6.1104  -46.1865  -26.3879 C   0  0  0  0  0  0  0  0  0  0  0  0
    6.0006  -45.8098  -27.7360 C   0  0  0  0  0  0  0  0  0  0  0  0
    4.7283  -45.7373  -28.2484 C   0  0  0  0  0  0  0  0  0  0  0  0
    3.5921  -46.0205  -27.4823 C   0  0  0  0  0  0  0  0  0  0  0  0
    3.7390  -46.3805  -26.1878 C   0  0  0  0  0  0  0  0  0  0  0  0
    2.6150  -46.7718  -25.2427 C   0  0  0  0  0  0  0  0  0  0  0  0
    3.0760  -48.1464  -24.7567 N   0  0  0  0  0  0  0  0  0  0  0  0
    2.2857  -49.1709  -25.2463 C   0  0  0  0  0  0  0  0  0  0  0  0
    1.2341  -48.7942  -25.9686 O   0  0  0  0  0  0  0  0  0  0  0  0
    2.3886  -50.5949  -25.1317 C   0  0  0  0  0  0  0  0  0  0  0  0
    1.2145  -51.3423  -25.4210 C   0  0  0  0  0  0  0  0  0  0  0  0
    1.2453  -52.7114  -25.3253 C   0  0  0  0  0  0  0  0  0  0  0  0
    2.3699  -53.3911  -24.9588 C   0  0  0  0  0  0  0  0  0  0  0  0
    2.3650  -54.7213  -24.8642 F   0  0  0  0  0  0  0  0  0  0  0  0
    3.5348  -52.6909  -24.6709 C   0  0  0  0  0  0  0  0  0  0  0  0
    4.6468  -53.3320  -24.3166 F   0  0  0  0  0  0  0  0  0  0  0  0
    3.5149  -51.3090  -24.7633 C   0  0  0  0  0  0  0  0  0  0  0  0
    4.1516  -49.3695  -21.7427 N   0  0  0  0  0  0  0  0  0  0  0  0
    4.0557  -48.2069  -22.4976 C   0  0  0  0  0  0  0  0  0  0  0  0
    3.7861  -47.1150  -21.8701 O   0  0  0  0  0  0  0  0  0  0  0  0
    4.3623  -50.2816  -22.1992 H   0  0  0  0  0  0  0  0  0  0  0  0
    3.2509  -49.3609  -18.2377 C   0  0  0  0  0  0  0  0  0  0  0  0
    2.8965  -49.5130  -19.5474 C   0  0  0  0  0  0  0  0  0  0  0  0
    4.0063  -49.2952  -20.3088 C   0  0  0  0  0  0  0  0  0  0  0  0
    5.0218  -49.0118  -19.4358 N   0  0  0  0  0  0  0  0  0  0  0  0
    4.5344  -49.0627  -18.2523 O   0  0  0  0  0  0  0  0  0  0  0  0
    0.9220  -49.5089  -17.4076 C   0  0  0  0  0  0  0  0  0  0  0  0
    2.3830  -49.5002  -17.0346 C   0  0  0  0  0  0  0  0  0  0  0  0
    2.7872  -50.8079  -16.3544 C   0  0  0  0  0  0  0  0  0  0  0  0
    2.6618  -48.3264  -16.1239 C   0  0  0  0  0  0  0  0  0  0  0  0
 30 31  1  0  0  0
 31 32  1  0  0  0
 31 33  1  0  0  0
 31 25  1  0  0  0
 25 26  2  0  0  0
 26 27  1  0  0  0
 27 21  1  0  0  0
 21 22  1  0  0  0
 22 23  2  0  0  0
 22  1  1  0  0  0
  1  2  1  0  0  0
  2  3  1  0  0  0
  3  4  2  0  0  0
  4  5  1  0  0  0
  5  6  2  0  0  0
  6  7  1  0  0  0
  7  8  2  0  0  0
  8  9  1  0  0  0
  9 10  1  0  0  0
 10 11  1  0  0  0
 11 12  2  0  0  0
 11 13  1  0  0  0
 13 14  2  0  0  0
 14 15  1  0  0  0
 15 16  2  0  0  0
 16 17  1  0  0  0
 16 18  1  0  0  0
 18 19  1  0  0  0
 18 20  2  0  0  0
 27 28  2  0  0  0
 28 29  1  0  0  0
 29 25  1  0  0  0
 10  1  1  0  0  0
 20 13  1  0  0  0
  8  3  1  0  0  0
 21 24  1  0  0  0
M  END
> <minimizedAffinity>
-1.15038

> <CNNscore>
0.3901299536

> <CNNaffinity>
6.3179388046

> <CNN_VS>
2.4648172855

> <CNNaffinity_variance>
2.5603880882

$$$$
[H]c1c(N([H])C(=O)[C@@]2([H])N(C(=O)c3c([H])c([H])c(F)c(F)c3[H])C([H])([H])c3c([H])c([H])c([H])c([H])c3C2([H])[H])noc1C(C([H])([H])[H])(C([H])([H])[H])C([H])([H])[H]


 33 36  0  0  0  0  0  0  0  0999 V2000
    2.5350  -50.6364  -19.1954 C   0  0  0  0  0  0  0  0  0  0  0  0
    2.3989  -51.4496  -17.8940 C   0  0  0  0  0  0  0  0  0  0  0  0
    2.7973  -50.6506  -16.7570 C   0  0  0  0  0  0  0  0  0  0  0  0
    3.6682  -51.0570  -15.8030 C   0  0  0  0  0  0  0  0  0  0  0  0
    3.9802  -50.2518  -14.6959 C   0  0  0  0  0  0  0  0  0  0  0  0
    3.3550  -49.0304  -14.6332 C   0  0  0  0  0  0  0  0  0  0  0  0
    2.4535  -48.5964  -15.6115 C   0  0  0  0  0  0  0  0  0  0  0  0
    2.1793  -49.4002  -16.6629 C   0  0  0  0  0  0  0  0  0  0  0  0
    1.2707  -49.0543  -17.8309 C   0  0  0  0  0  0  0  0  0  0  0  0
    2.1938  -49.2861  -19.0278 N   0  0  0  0  0  0  0  0  0  0  0  0
    2.5448  -48.1062  -19.6590 C   0  0  0  0  0  0  0  0  0  0  0  0
    1.9686  -47.0046  -19.1858 O   0  0  0  0  0  0  0  0  0  0  0  0
    3.4389  -47.8328  -20.7442 C   0  0  0  0  0  0  0  0  0  0  0  0
    4.3545  -46.7613  -20.5587 C   0  0  0  0  0  0  0  0  0  0  0  0
    5.2354  -46.4448  -21.5629 C   0  0  0  0  0  0  0  0  0  0  0  0
    5.2670  -47.1244  -22.7454 C   0  0  0  0  0  0  0  0  0  0  0  0
    6.1275  -46.7857  -23.7062 F   0  0  0  0  0  0  0  0  0  0  0  0
    4.3868  -48.1780  -22.9581 C   0  0  0  0  0  0  0  0  0  0  0  0
    4.4022  -48.8603  -24.1014 F   0  0  0  0  0  0  0  0  0  0  0  0
    3.4929  -48.5054  -21.9519 C   0  0  0  0  0  0  0  0  0  0  0  0
    0.8387  -50.8898  -21.1123 N   0  0  0  0  0  0  0  0  0  0  0  0
    1.8272  -51.3819  -20.2688 C   0  0  0  0  0  0  0  0  0  0  0  0
    2.1780  -52.6115  -20.4234 O   0  0  0  0  0  0  0  0  0  0  0  0
    0.5128  -49.9042  -21.0278 H   0  0  0  0  0  0  0  0  0  0  0  0
   -0.0667  -52.8544  -24.0134 C   0  0  0  0  0  0  0  0  0  0  0  0
    0.7378  -51.9228  -23.4226 C   0  0  0  0  0  0  0  0  0  0  0  0
    0.3004  -51.7434  -22.1439 C   0  0  0  0  0  0  0  0  0  0  0  0
   -0.7724  -52.5784  -21.9839 N   0  0  0  0  0  0  0  0  0  0  0  0
   -0.9435  -53.1982  -23.0917 O   0  0  0  0  0  0  0  0  0  0  0  0
   -0.2904  -54.8581  -25.4522 C   0  0  0  0  0  0  0  0  0  0  0  0
    0.0163  -53.3825  -25.4042 C   0  0  0  0  0  0  0  0  0  0  0  0
   -0.9867  -52.5826  -26.2351 C   0  0  0  0  0  0  0  0  0  0  0  0
    1.4221  -53.1452  -25.9066 C   0  0  0  0  0  0  0  0  0  0  0  0
 30 31  1  0  0  0
 31 32  1  0  0  0
 31 33  1  0  0  0
 31 25  1  0  0  0
 25 26  2  0  0  0
 26 27  1  0  0  0
 27 21  1  0  0  0
 21 22  1  0  0  0
 22 23  2  0  0  0
 22  1  1  0  0  0
  1  2  1  0  0  0
  2  3  1  0  0  0
  3  4  2  0  0  0
  4  5  1  0  0  0
  5  6  2  0  0  0
  6  7  1  0  0  0
  7  8  2  0  0  0
  8  9  1  0  0  0
  9 10  1  0  0  0
 10 11  1  0  0  0
 11 12  2  0  0  0
 11 13  1  0  0  0
 13 14  2  0  0  0
 14 15  1  0  0  0
 15 16  2  0  0  0
 16 17  1  0  0  0
 16 18  1  0  0  0
 18 19  1  0  0  0
 18 20  2  0  0  0
 27 28  2  0  0  0
 28 29  1  0  0  0
 29 25  1  0  0  0
 10  1  1  0  0  0
 20 13  1  0  0  0
  8  3  1  0  0  0
 21 24  1  0  0  0
M  END
> <minimizedAffinity>
-4.95935

> <CNNscore>
0.3653748631

> <CNNaffinity>
6.5634741783

> <CNN_VS>
2.3981285095

> <CNNaffinity_variance>
1.4282262325

$$$$
[H]c1c(N([H])C(=O)[C@@]2([H])N(C(=O)c3c([H])c([H])c(F)c(F)c3[H])C([H])([H])c3c([H])c([H])c([H])c([H])c3C2([H])[H])noc1C(C([H])([H])[H])(C([H])([H])[H])C([H])([H])[H]


 33 36  0  0  0  0  0  0  0  0999 V2000
    0.5237  -49.8491  -18.3605 C   0  0  0  0  0  0  0  0  0  0  0  0
    0.4313  -48.6557  -17.3906 C   0  0  0  0  0  0  0  0  0  0  0  0
   -0.3870  -48.9970  -16.2488 C   0  0  0  0  0  0  0  0  0  0  0  0
   -1.4061  -48.2369  -15.7825 C   0  0  0  0  0  0  0  0  0  0  0  0
   -2.1355  -48.5998  -14.6389 C   0  0  0  0  0  0  0  0  0  0  0  0
   -1.7597  -49.7667  -14.0195 C   0  0  0  0  0  0  0  0  0  0  0  0
   -0.7094  -50.5629  -14.4898 C   0  0  0  0  0  0  0  0  0  0  0  0
   -0.0314  -50.1801  -15.5945 C   0  0  0  0  0  0  0  0  0  0  0  0
    1.0917  -50.9580  -16.2602 C   0  0  0  0  0  0  0  0  0  0  0  0
    0.5805  -51.0832  -17.6960 N   0  0  0  0  0  0  0  0  0  0  0  0
    0.2265  -52.3812  -18.0181 C   0  0  0  0  0  0  0  0  0  0  0  0
    0.4636  -53.2941  -17.0800 O   0  0  0  0  0  0  0  0  0  0  0  0
   -0.3703  -52.9452  -19.1917 C   0  0  0  0  0  0  0  0  0  0  0  0
    0.4924  -53.6725  -20.0564 C   0  0  0  0  0  0  0  0  0  0  0  0
   -0.0165  -54.2344  -21.2009 C   0  0  0  0  0  0  0  0  0  0  0  0
   -1.3314  -54.1209  -21.5460 C   0  0  0  0  0  0  0  0  0  0  0  0
   -1.7934  -54.6690  -22.6705 F   0  0  0  0  0  0  0  0  0  0  0  0
   -2.2017  -53.4182  -20.7219 C   0  0  0  0  0  0  0  0  0  0  0  0
   -3.4905  -53.2984  -21.0341 F   0  0  0  0  0  0  0  0  0  0  0  0
   -1.6988  -52.8462  -19.5650 C   0  0  0  0  0  0  0  0  0  0  0  0
    2.3034  -50.4775  -20.1080 N   0  0  0  0  0  0  0  0  0  0  0  0
    1.6093  -49.5568  -19.3326 C   0  0  0  0  0  0  0  0  0  0  0  0
    1.9287  -48.3157  -19.4609 O   0  0  0  0  0  0  0  0  0  0  0  0
    2.0899  -51.4947  -20.0405 H   0  0  0  0  0  0  0  0  0  0  0  0
    4.5682  -49.6939  -22.8196 C   0  0  0  0  0  0  0  0  0  0  0  0
    3.5830  -50.4794  -22.2938 C   0  0  0  0  0  0  0  0  0  0  0  0
    3.2919  -50.0071  -21.0484 C   0  0  0  0  0  0  0  0  0  0  0  0
    4.1157  -48.9337  -20.8421 N   0  0  0  0  0  0  0  0  0  0  0  0
    4.8328  -48.7938  -21.8942 O   0  0  0  0  0  0  0  0  0  0  0  0
    6.0616  -48.6052  -24.4687 C   0  0  0  0  0  0  0  0  0  0  0  0
    5.2167  -49.8143  -24.1557 C   0  0  0  0  0  0  0  0  0  0  0  0
    6.0646  -51.0854  -24.1159 C   0  0  0  0  0  0  0  0  0  0  0  0
    4.1232  -49.9445  -25.1912 C   0  0  0  0  0  0  0  0  0  0  0  0
 30 31  1  0  0  0
 31 32  1  0  0  0
 31 33  1  0  0  0
 31 25  1  0  0  0
 25 26  2  0  0  0
 26 27  1  0  0  0
 27 21  1  0  0  0
 21 22  1  0  0  0
 22 23  2  0  0  0
 22  1  1  0  0  0
  1  2  1  0  0  0
  2  3  1  0  0  0
  3  4  2  0  0  0
  4  5  1  0  0  0
  5  6  2  0  0  0
  6  7  1  0  0  0
  7  8  2  0  0  0
  8  9  1  0  0  0
  9 10  1  0  0  0
 10 11  1  0  0  0
 11 12  2  0  0  0
 11 13  1  0  0  0
 13 14  2  0  0  0
 14 15  1  0  0  0
 15 16  2  0  0  0
 16 17  1  0  0  0
 16 18  1  0  0  0
 18 19  1  0  0  0
 18 20  2  0  0  0
 27 28  2  0  0  0
 28 29  1  0  0  0
 29 25  1  0  0  0
 10  1  1  0  0  0
 20 13  1  0  0  0
  8  3  1  0  0  0
 21 24  1  0  0  0
M  END
> <minimizedAffinity>
-2.32994

> <CNNscore>
0.3631834388

> <CNNaffinity>
6.3190345764

> <CNN_VS>
2.2949686050

> <CNNaffinity_variance>
1.4126183987

$$$$
[H]c1c(N([H])C(=O)[C@@]2([H])N(C(=O)c3c([H])c([H])c(F)c(F)c3[H])C([H])([H])c3c([H])c([H])c([H])c([H])c3C2([H])[H])noc1C(C([H])([H])[H])(C([H])([H])[H])C([H])([H])[H]


 33 36  0  0  0  0  0  0  0  0999 V2000
    3.0573  -50.5645  -23.3187 C   0  0  0  0  0  0  0  0  0  0  0  0
    3.0198  -51.2462  -21.9376 C   0  0  0  0  0  0  0  0  0  0  0  0
    3.5724  -50.3707  -20.9287 C   0  0  0  0  0  0  0  0  0  0  0  0
    4.5182  -50.7372  -20.0315 C   0  0  0  0  0  0  0  0  0  0  0  0
    4.9822  -49.8532  -19.0443 C   0  0  0  0  0  0  0  0  0  0  0  0
    4.4256  -48.5976  -19.0380 C   0  0  0  0  0  0  0  0  0  0  0  0
    3.4482  -48.2041  -19.9589 C   0  0  0  0  0  0  0  0  0  0  0  0
    3.0276  -49.0837  -20.8949 C   0  0  0  0  0  0  0  0  0  0  0  0
    2.0192  -48.7947  -21.9945 C   0  0  0  0  0  0  0  0  0  0  0  0
    2.7999  -49.1872  -23.2494 N   0  0  0  0  0  0  0  0  0  0  0  0
    3.1385  -48.0919  -24.0237 C   0  0  0  0  0  0  0  0  0  0  0  0
    2.6678  -46.9206  -23.6042 O   0  0  0  0  0  0  0  0  0  0  0  0
    3.9259  -47.9703  -25.2139 C   0  0  0  0  0  0  0  0  0  0  0  0
    3.9330  -49.0910  -26.0885 C   0  0  0  0  0  0  0  0  0  0  0  0
    4.6718  -49.0403  -27.2444 C   0  0  0  0  0  0  0  0  0  0  0  0
    5.4085  -47.9456  -27.5909 C   0  0  0  0  0  0  0  0  0  0  0  0
    6.1248  -47.9311  -28.7157 F   0  0  0  0  0  0  0  0  0  0  0  0
    5.4219  -46.8329  -26.7591 C   0  0  0  0  0  0  0  0  0  0  0  0
    6.1283  -45.7503  -27.0784 F   0  0  0  0  0  0  0  0  0  0  0  0
    4.6807  -46.8734  -25.5897 C   0  0  0  0  0  0  0  0  0  0  0  0
    0.8178  -51.4057  -24.2638 N   0  0  0  0  0  0  0  0  0  0  0  0
    2.2065  -51.3634  -24.2389 C   0  0  0  0  0  0  0  0  0  0  0  0
    2.8355  -52.0862  -25.0995 O   0  0  0  0  0  0  0  0  0  0  0  0
    0.2587  -50.8452  -23.5869 H   0  0  0  0  0  0  0  0  0  0  0  0
   -0.8774  -52.9014  -27.0895 C   0  0  0  0  0  0  0  0  0  0  0  0
   -0.3902  -51.7946  -26.4556 C   0  0  0  0  0  0  0  0  0  0  0  0
    0.1526  -52.1963  -25.2712 C   0  0  0  0  0  0  0  0  0  0  0  0
   -0.0189  -53.5529  -25.2103 N   0  0  0  0  0  0  0  0  0  0  0  0
   -0.6181  -53.9115  -26.2841 O   0  0  0  0  0  0  0  0  0  0  0  0
   -1.0615  -51.8946  -29.3451 C   0  0  0  0  0  0  0  0  0  0  0  0
   -1.5593  -52.9700  -28.4126 C   0  0  0  0  0  0  0  0  0  0  0  0
   -1.2789  -54.3629  -28.9760 C   0  0  0  0  0  0  0  0  0  0  0  0
   -3.0415  -52.7862  -28.1798 C   0  0  0  0  0  0  0  0  0  0  0  0
 30 31  1  0  0  0
 31 32  1  0  0  0
 31 33  1  0  0  0
 31 25  1  0  0  0
 25 26  2  0  0  0
 26 27  1  0  0  0
 27 21  1  0  0  0
 21 22  1  0  0  0
 22 23  2  0  0  0
 22  1  1  0  0  0
  1  2  1  0  0  0
  2  3  1  0  0  0
  3  4  2  0  0  0
  4  5  1  0  0  0
  5  6  2  0  0  0
  6  7  1  0  0  0
  7  8  2  0  0  0
  8  9  1  0  0  0
  9 10  1  0  0  0
 10 11  1  0  0  0
 11 12  2  0  0  0
 11 13  1  0  0  0
 13 14  2  0  0  0
 14 15  1  0  0  0
 15 16  2  0  0  0
 16 17  1  0  0  0
 16 18  1  0  0  0
 18 19  1  0  0  0
 18 20  2  0  0  0
 27 28  2  0  0  0
 28 29  1  0  0  0
 29 25  1  0  0  0
 10  1  1  0  0  0
 20 13  1  0  0  0
  8  3  1  0  0  0
 21 24  1  0  0  0
M  END
> <minimizedAffinity>
-3.87712

> <CNNscore>
0.2826263011

> <CNNaffinity>
6.1421484947

> <CNN_VS>
1.7359327078

> <CNNaffinity_variance>
0.9800772667

$$$$
[H]c1c(N([H])C(=O)[C@@]2([H])N(C(=O)c3c([H])c([H])c(F)c(F)c3[H])C([H])([H])c3c([H])c([H])c([H])c([H])c3C2([H])[H])noc1C(C([H])([H])[H])(C([H])([H])[H])C([H])([H])[H]


 33 36  0  0  0  0  0  0  0  0999 V2000
    3.2917  -49.1038  -22.5518 C   0  0  0  0  0  0  0  0  0  0  0  0
    3.5877  -49.2483  -21.0468 C   0  0  0  0  0  0  0  0  0  0  0  0
    4.3351  -48.1070  -20.5687 C   0  0  0  0  0  0  0  0  0  0  0  0
    5.4696  -48.1879  -19.8338 C   0  0  0  0  0  0  0  0  0  0  0  0
    6.1257  -47.0411  -19.3587 C   0  0  0  0  0  0  0  0  0  0  0  0
    5.5551  -45.8337  -19.6798 C   0  0  0  0  0  0  0  0  0  0  0  0
    4.3837  -45.7340  -20.4388 C   0  0  0  0  0  0  0  0  0  0  0  0
    3.7816  -46.8612  -20.8786 C   0  0  0  0  0  0  0  0  0  0  0  0
    2.5416  -46.9206  -21.7553 C   0  0  0  0  0  0  0  0  0  0  0  0
    3.0237  -47.7785  -22.9257 N   0  0  0  0  0  0  0  0  0  0  0  0
    3.1496  -47.0512  -24.0957 C   0  0  0  0  0  0  0  0  0  0  0  0
    2.7592  -45.7812  -24.0309 O   0  0  0  0  0  0  0  0  0  0  0  0
    3.6407  -47.4068  -25.3934 C   0  0  0  0  0  0  0  0  0  0  0  0
    4.8570  -48.1416  -25.4332 C   0  0  0  0  0  0  0  0  0  0  0  0
    5.3839  -48.5094  -26.6463 C   0  0  0  0  0  0  0  0  0  0  0  0
    4.7806  -48.1938  -27.8285 C   0  0  0  0  0  0  0  0  0  0  0  0
    5.3233  -48.5560  -28.9916 F   0  0  0  0  0  0  0  0  0  0  0  0
    3.5899  -47.4779  -27.8247 C   0  0  0  0  0  0  0  0  0  0  0  0
    2.9791  -47.1629  -28.9652 F   0  0  0  0  0  0  0  0  0  0  0  0
    3.0498  -47.1008  -26.6063 C   0  0  0  0  0  0  0  0  0  0  0  0
    2.3534  -51.0575  -23.9369 N   0  0  0  0  0  0  0  0  0  0  0  0
    2.2725  -50.1242  -22.9107 C   0  0  0  0  0  0  0  0  0  0  0  0
    1.2085  -50.1344  -22.1849 O   0  0  0  0  0  0  0  0  0  0  0  0
    3.1888  -51.0906  -24.5580 H   0  0  0  0  0  0  0  0  0  0  0  0
   -0.2003  -53.6189  -23.8188 C   0  0  0  0  0  0  0  0  0  0  0  0
    0.8525  -52.9736  -23.2362 C   0  0  0  0  0  0  0  0  0  0  0  0
    1.2892  -52.0177  -24.1048 C   0  0  0  0  0  0  0  0  0  0  0  0
    0.4840  -52.1042  -25.2083 N   0  0  0  0  0  0  0  0  0  0  0  0
   -0.3599  -53.0435  -24.9936 O   0  0  0  0  0  0  0  0  0  0  0  0
   -2.4569  -54.3459  -23.1016 C   0  0  0  0  0  0  0  0  0  0  0  0
   -1.0092  -54.7376  -23.2582 C   0  0  0  0  0  0  0  0  0  0  0  0
   -0.8563  -55.9128  -24.2235 C   0  0  0  0  0  0  0  0  0  0  0  0
   -0.4354  -55.0912  -21.9051 C   0  0  0  0  0  0  0  0  0  0  0  0
 30 31  1  0  0  0
 31 32  1  0  0  0
 31 33  1  0  0  0
 31 25  1  0  0  0
 25 26  2  0  0  0
 26 27  1  0  0  0
 27 21  1  0  0  0
 21 22  1  0  0  0
 22 23  2  0  0  0
 22  1  1  0  0  0
  1  2  1  0  0  0
  2  3  1  0  0  0
  3  4  2  0  0  0
  4  5  1  0  0  0
  5  6  2  0  0  0
  6  7  1  0  0  0
  7  8  2  0  0  0
  8  9  1  0  0  0
  9 10  1  0  0  0
 10 11  1  0  0  0
 11 12  2  0  0  0
 11 13  1  0  0  0
 13 14  2  0  0  0
 14 15  1  0  0  0
 15 16  2  0  0  0
 16 17  1  0  0  0
 16 18  1  0  0  0
 18 19  1  0  0  0
 18 20  2  0  0  0
 27 28  2  0  0  0
 28 29  1  0  0  0
 29 25  1  0  0  0
 10  1  1  0  0  0
 20 13  1  0  0  0
  8  3  1  0  0  0
 21 24  1  0  0  0
M  END
> <minimizedAffinity>
-4.65873

> <CNNscore>
0.2738093138

> <CNNaffinity>
6.1746773720

> <CNN_VS>
1.6906841993

> <CNNaffinity_variance>
0.7523984909

$$$$
[H]c1c(N([H])C(=O)[C@@]2([H])N(C(=O)c3c([H])c([H])c(F)c(F)c3[H])C([H])([H])c3c([H])c([H])c([H])c([H])c3C2([H])[H])noc1C(C([H])([H])[H])(C([H])([H])[H])C([H])([H])[H]


 33 36  0  0  0  0  0  0  0  0999 V2000
    1.5182  -51.2515  -18.0546 C   0  0  0  0  0  0  0  0  0  0  0  0
    1.1574  -51.6736  -16.6175 C   0  0  0  0  0  0  0  0  0  0  0  0
    1.6105  -50.6787  -15.6717 C   0  0  0  0  0  0  0  0  0  0  0  0
    2.3326  -50.9525  -14.5594 C   0  0  0  0  0  0  0  0  0  0  0  0
    2.7039  -49.9463  -13.6532 C   0  0  0  0  0  0  0  0  0  0  0  0
    2.2957  -48.6703  -13.9561 C   0  0  0  0  0  0  0  0  0  0  0  0
    1.5498  -48.3718  -15.1018 C   0  0  0  0  0  0  0  0  0  0  0  0
    1.2122  -49.3680  -15.9505 C   0  0  0  0  0  0  0  0  0  0  0  0
    0.4569  -49.2012  -17.2587 C   0  0  0  0  0  0  0  0  0  0  0  0
    1.4042  -49.8680  -18.2569 N   0  0  0  0  0  0  0  0  0  0  0  0
    1.9946  -48.9560  -19.1133 C   0  0  0  0  0  0  0  0  0  0  0  0
    1.5864  -47.6964  -18.9860 O   0  0  0  0  0  0  0  0  0  0  0  0
    2.9929  -49.1073  -20.1292 C   0  0  0  0  0  0  0  0  0  0  0  0
    3.8973  -50.1931  -19.9748 C   0  0  0  0  0  0  0  0  0  0  0  0
    4.8810  -50.3907  -20.9118 C   0  0  0  0  0  0  0  0  0  0  0  0
    5.0274  -49.5771  -21.9971 C   0  0  0  0  0  0  0  0  0  0  0  0
    6.0002  -49.7887  -22.8844 F   0  0  0  0  0  0  0  0  0  0  0  0
    4.1590  -48.5079  -22.1786 C   0  0  0  0  0  0  0  0  0  0  0  0
    4.2779  -47.7033  -23.2328 F   0  0  0  0  0  0  0  0  0  0  0  0
    3.1633  -48.2987  -21.2387 C   0  0  0  0  0  0  0  0  0  0  0  0
    0.7074  -52.0256  -20.3697 N   0  0  0  0  0  0  0  0  0  0  0  0
    0.7659  -52.1327  -18.9855 C   0  0  0  0  0  0  0  0  0  0  0  0
    0.1049  -53.0931  -18.4383 O   0  0  0  0  0  0  0  0  0  0  0  0
    1.2184  -51.2645  -20.8641 H   0  0  0  0  0  0  0  0  0  0  0  0
   -0.8274  -54.3209  -22.7089 C   0  0  0  0  0  0  0  0  0  0  0  0
    0.0227  -53.2820  -22.4596 C   0  0  0  0  0  0  0  0  0  0  0  0
   -0.0289  -53.0110  -21.1244 C   0  0  0  0  0  0  0  0  0  0  0  0
   -0.9191  -53.9003  -20.5857 N   0  0  0  0  0  0  0  0  0  0  0  0
   -1.3520  -54.6349  -21.5416 O   0  0  0  0  0  0  0  0  0  0  0  0
   -2.5934  -55.0302  -24.2942 C   0  0  0  0  0  0  0  0  0  0  0  0
   -1.1122  -54.9739  -24.0176 C   0  0  0  0  0  0  0  0  0  0  0  0
   -0.3823  -54.1548  -25.0817 C   0  0  0  0  0  0  0  0  0  0  0  0
   -0.5576  -56.3791  -23.9643 C   0  0  0  0  0  0  0  0  0  0  0  0
 30 31  1  0  0  0
 31 32  1  0  0  0
 31 33  1  0  0  0
 31 25  1  0  0  0
 25 26  2  0  0  0
 26 27  1  0  0  0
 27 21  1  0  0  0
 21 22  1  0  0  0
 22 23  2  0  0  0
 22  1  1  0  0  0
  1  2  1  0  0  0
  2  3  1  0  0  0
  3  4  2  0  0  0
  4  5  1  0  0  0
  5  6  2  0  0  0
  6  7  1  0  0  0
  7  8  2  0  0  0
  8  9  1  0  0  0
  9 10  1  0  0  0
 10 11  1  0  0  0
 11 12  2  0  0  0
 11 13  1  0  0  0
 13 14  2  0  0  0
 14 15  1  0  0  0
 15 16  2  0  0  0
 16 17  1  0  0  0
 16 18  1  0  0  0
 18 19  1  0  0  0
 18 20  2  0  0  0
 27 28  2  0  0  0
 28 29  1  0  0  0
 29 25  1  0  0  0
 10  1  1  0  0  0
 20 13  1  0  0  0
  8  3  1  0  0  0
 21 24  1  0  0  0
M  END
> <minimizedAffinity>
-2.05145

> <CNNscore>
0.2466811240

> <CNNaffinity>
6.1248636246

> <CNN_VS>
1.5108882189

> <CNNaffinity_variance>
0.5657622218

$$$$
[H]c1c(N([H])C(=O)[C@@]2([H])N(C(=O)c3c([H])c([H])c(F)c(F)c3[H])C([H])([H])c3c([H])c([H])c([H])c([H])c3C2([H])[H])noc1C(C([H])([H])[H])(C([H])([H])[H])C([H])([H])[H]


 33 36  0  0  0  0  0  0  0  0999 V2000
    2.3562  -49.6369  -22.2918 C   0  0  0  0  0  0  0  0  0  0  0  0
    3.0218  -48.3090  -22.7008 C   0  0  0  0  0  0  0  0  0  0  0  0
    3.6852  -47.7078  -21.5658 C   0  0  0  0  0  0  0  0  0  0  0  0
    3.5308  -46.4180  -21.1835 C   0  0  0  0  0  0  0  0  0  0  0  0
    4.2397  -45.8791  -20.0979 C   0  0  0  0  0  0  0  0  0  0  0  0
    5.0974  -46.7304  -19.4452 C   0  0  0  0  0  0  0  0  0  0  0  0
    5.2671  -48.0656  -19.8280 C   0  0  0  0  0  0  0  0  0  0  0  0
    4.5661  -48.5478  -20.8782 C   0  0  0  0  0  0  0  0  0  0  0  0
    4.5959  -49.9814  -21.3818 C   0  0  0  0  0  0  0  0  0  0  0  0
    3.1135  -50.3558  -21.3550 N   0  0  0  0  0  0  0  0  0  0  0  0
    2.8219  -51.2838  -20.3714 C   0  0  0  0  0  0  0  0  0  0  0  0
    3.8646  -51.7477  -19.6879 O   0  0  0  0  0  0  0  0  0  0  0  0
    1.5824  -51.8487  -19.9284 C   0  0  0  0  0  0  0  0  0  0  0  0
    1.0098  -51.2842  -18.7562 C   0  0  0  0  0  0  0  0  0  0  0  0
   -0.1755  -51.7836  -18.2763 C   0  0  0  0  0  0  0  0  0  0  0  0
   -0.8328  -52.8121  -18.8857 C   0  0  0  0  0  0  0  0  0  0  0  0
   -1.9774  -53.2825  -18.3888 F   0  0  0  0  0  0  0  0  0  0  0  0
   -0.3011  -53.3850  -20.0343 C   0  0  0  0  0  0  0  0  0  0  0  0
   -0.9268  -54.3859  -20.6505 F   0  0  0  0  0  0  0  0  0  0  0  0
    0.8950  -52.8896  -20.5267 C   0  0  0  0  0  0  0  0  0  0  0  0
    2.4689  -50.1240  -24.8149 N   0  0  0  0  0  0  0  0  0  0  0  0
    1.9715  -50.3507  -23.5374 C   0  0  0  0  0  0  0  0  0  0  0  0
    1.0846  -51.2749  -23.4037 O   0  0  0  0  0  0  0  0  0  0  0  0
    3.1839  -49.3851  -24.9815 H   0  0  0  0  0  0  0  0  0  0  0  0
    0.8436  -52.2135  -27.2824 C   0  0  0  0  0  0  0  0  0  0  0  0
    0.8107  -51.5550  -26.0868 C   0  0  0  0  0  0  0  0  0  0  0  0
    2.0226  -50.9572  -25.9054 C   0  0  0  0  0  0  0  0  0  0  0  0
    2.7738  -51.2693  -27.0062 N   0  0  0  0  0  0  0  0  0  0  0  0
    2.0478  -51.9960  -27.7715 O   0  0  0  0  0  0  0  0  0  0  0  0
   -0.2753  -52.8122  -29.4095 C   0  0  0  0  0  0  0  0  0  0  0  0
   -0.2434  -53.0123  -27.9152 C   0  0  0  0  0  0  0  0  0  0  0  0
    0.0259  -54.4741  -27.5593 C   0  0  0  0  0  0  0  0  0  0  0  0
   -1.5571  -52.5601  -27.3198 C   0  0  0  0  0  0  0  0  0  0  0  0
 30 31  1  0  0  0
 31 32  1  0  0  0
 31 33  1  0  0  0
 31 25  1  0  0  0
 25 26  2  0  0  0
 26 27  1  0  0  0
 27 21  1  0  0  0
 21 22  1  0  0  0
 22 23  2  0  0  0
 22  1  1  0  0  0
  1  2  1  0  0  0
  2  3  1  0  0  0
  3  4  2  0  0  0
  4  5  1  0  0  0
  5  6  2  0  0  0
  6  7  1  0  0  0
  7  8  2  0  0  0
  8  9  1  0  0  0
  9 10  1  0  0  0
 10 11  1  0  0  0
 11 12  2  0  0  0
 11 13  1  0  0  0
 13 14  2  0  0  0
 14 15  1  0  0  0
 15 16  2  0  0  0
 16 17  1  0  0  0
 16 18  1  0  0  0
 18 19  1  0  0  0
 18 20  2  0  0  0
 27 28  2  0  0  0
 28 29  1  0  0  0
 29 25  1  0  0  0
 10  1  1  0  0  0
 20 13  1  0  0  0
  8  3  1  0  0  0
 21 24  1  0  0  0
M  END
> <minimizedAffinity>
-8.73417

> <CNNscore>
0.1981367767

> <CNNaffinity>
6.4901418686

> <CNN_VS>
1.2859357595

> <CNNaffinity_variance>
0.1758614928

$$$$
[H]OB(O[H])[C@@]([H])(N([H])C(=O)[C@@]([H])(N([H])C(=O)c1nc([H])c([H])nc1[H])C([H])([H])c1c([H])c([H])c([H])c([H])c1[H])C([H])([H])C([H])(C([H])([H])[H])C([H])([H])[H]


 32 33  0  0  0  0  0  0  0  0999 V2000
    0.7023  -53.0292  -22.5884 C   0  0  0  0  0  0  0  0  0  0  0  0
    2.7847  -52.7750  -24.0906 N   0  0  0  0  0  0  0  0  0  0  0  0
    1.7284  -52.2586  -23.3039 C   0  0  0  0  0  0  0  0  0  0  0  0
    1.6779  -50.9846  -23.2096 O   0  0  0  0  0  0  0  0  0  0  0  0
    2.8884  -53.7983  -24.1974 H   0  0  0  0  0  0  0  0  0  0  0  0
    3.7464  -51.8826  -24.7450 C   0  0  0  0  0  0  0  0  0  0  0  0
    3.4138  -51.9491  -26.2870 B   0  0  0  0  0  0  0  0  0  0  0  0
    3.5033  -50.6706  -27.0280 O   0  0  0  0  0  0  0  0  0  0  0  0
    3.5564  -53.2114  -27.0185 O   0  0  0  0  0  0  0  0  0  0  0  0
    3.7214  -50.8566  -27.9719 H   0  0  0  0  0  0  0  0  0  0  0  0
    2.9842  -53.9271  -26.6645 H   0  0  0  0  0  0  0  0  0  0  0  0
    5.1408  -52.3315  -24.4611 C   0  0  0  0  0  0  0  0  0  0  0  0
    5.4687  -51.1115  -22.2597 C   0  0  0  0  0  0  0  0  0  0  0  0
    5.9473  -51.3855  -23.6578 C   0  0  0  0  0  0  0  0  0  0  0  0
    6.0531  -50.0177  -24.3636 C   0  0  0  0  0  0  0  0  0  0  0  0
    0.3243  -52.2803  -21.3704 N   0  0  0  0  0  0  0  0  0  0  0  0
    0.2893  -52.9549  -20.1343 C   0  0  0  0  0  0  0  0  0  0  0  0
    0.5779  -54.1978  -20.0497 O   0  0  0  0  0  0  0  0  0  0  0  0
    0.0908  -51.2800  -21.4308 H   0  0  0  0  0  0  0  0  0  0  0  0
   -0.0732  -52.2821  -18.8996 C   0  0  0  0  0  0  0  0  0  0  0  0
    0.4348  -51.0411  -18.5966 C   0  0  0  0  0  0  0  0  0  0  0  0
    0.1233  -50.3801  -17.4582 N   0  0  0  0  0  0  0  0  0  0  0  0
   -0.7207  -50.9460  -16.5688 C   0  0  0  0  0  0  0  0  0  0  0  0
   -1.2410  -52.1888  -16.8531 C   0  0  0  0  0  0  0  0  0  0  0  0
   -0.9139  -52.8263  -17.9956 N   0  0  0  0  0  0  0  0  0  0  0  0
   -0.5874  -53.1982  -23.3317 C   0  0  0  0  0  0  0  0  0  0  0  0
   -0.5295  -53.2796  -24.7839 C   0  0  0  0  0  0  0  0  0  0  0  0
   -0.9275  -52.2218  -25.5727 C   0  0  0  0  0  0  0  0  0  0  0  0
   -0.8496  -52.2382  -26.9444 C   0  0  0  0  0  0  0  0  0  0  0  0
   -0.3578  -53.3442  -27.5844 C   0  0  0  0  0  0  0  0  0  0  0  0
    0.0499  -54.4215  -26.8301 C   0  0  0  0  0  0  0  0  0  0  0  0
   -0.0359  -54.3894  -25.4333 C   0  0  0  0  0  0  0  0  0  0  0  0
 13 14  1  0  0  0
 14 15  1  0  0  0
 14 12  1  0  0  0
 12  6  1  0  0  0
  6  2  1  0  0  0
  2  3  1  0  0  0
  3  4  2  0  0  0
  3  1  1  0  0  0
  1 26  1  0  0  0
 26 27  1  0  0  0
 27 28  2  0  0  0
 28 29  1  0  0  0
 29 30  2  0  0  0
 30 31  1  0  0  0
 31 32  2  0  0  0
  1 16  1  0  0  0
 16 17  1  0  0  0
 17 18  2  0  0  0
 17 20  1  0  0  0
 20 21  2  0  0  0
 21 22  1  0  0  0
 22 23  2  0  0  0
 23 24  1  0  0  0
 24 25  2  0  0  0
  6  7  1  0  0  0
  7  8  1  0  0  0
  7  9  1  0  0  0
 32 27  1  0  0  0
 25 20  1  0  0  0
  2  5  1  0  0  0
 16 19  1  0  0  0
  8 10  1  0  0  0
  9 11  1  0  0  0
M  END
> <minimizedAffinity>
-7.48565

> <CNNscore>
0.4261060953

> <CNNaffinity>
6.3480405807

> <CNN_VS>
2.7049388885

> <CNNaffinity_variance>
0.0239071976

$$$$
[H]OB(O[H])[C@@]([H])(N([H])C(=O)[C@@]([H])(N([H])C(=O)c1nc([H])c([H])nc1[H])C([H])([H])c1c([H])c([H])c([H])c([H])c1[H])C([H])([H])C([H])(C([H])([H])[H])C([H])([H])[H]


 32 33  0  0  0  0  0  0  0  0999 V2000
    1.4704  -52.4203  -24.9241 C   0  0  0  0  0  0  0  0  0  0  0  0
    3.4908  -50.9424  -24.2985 N   0  0  0  0  0  0  0  0  0  0  0  0
    2.8543  -51.9473  -25.0643 C   0  0  0  0  0  0  0  0  0  0  0  0
    3.5698  -52.4878  -25.9756 O   0  0  0  0  0  0  0  0  0  0  0  0
    2.9630  -50.4576  -23.5531 H   0  0  0  0  0  0  0  0  0  0  0  0
    4.8839  -50.5646  -24.5553 C   0  0  0  0  0  0  0  0  0  0  0  0
    5.7633  -51.5587  -23.7002 B   0  0  0  0  0  0  0  0  0  0  0  0
    5.7219  -51.3671  -22.2328 O   0  0  0  0  0  0  0  0  0  0  0  0
    6.1282  -52.8718  -24.2401 O   0  0  0  0  0  0  0  0  0  0  0  0
    5.9014  -52.2288  -21.7874 H   0  0  0  0  0  0  0  0  0  0  0  0
    6.6503  -52.8140  -25.0702 H   0  0  0  0  0  0  0  0  0  0  0  0
    5.1134  -49.1444  -24.1596 C   0  0  0  0  0  0  0  0  0  0  0  0
    3.6093  -47.2164  -24.8402 C   0  0  0  0  0  0  0  0  0  0  0  0
    3.8823  -48.3624  -23.9069 C   0  0  0  0  0  0  0  0  0  0  0  0
    3.8872  -47.7772  -22.4795 C   0  0  0  0  0  0  0  0  0  0  0  0
    1.0965  -52.3455  -23.4952 N   0  0  0  0  0  0  0  0  0  0  0  0
    0.1212  -53.2301  -22.9947 C   0  0  0  0  0  0  0  0  0  0  0  0
   -0.4426  -54.0919  -23.7526 O   0  0  0  0  0  0  0  0  0  0  0  0
    1.5460  -51.6546  -22.8792 H   0  0  0  0  0  0  0  0  0  0  0  0
   -0.2937  -53.2118  -21.6032 C   0  0  0  0  0  0  0  0  0  0  0  0
   -1.4242  -53.8791  -21.1949 C   0  0  0  0  0  0  0  0  0  0  0  0
   -1.8457  -53.8876  -19.9096 N   0  0  0  0  0  0  0  0  0  0  0  0
   -1.1401  -53.2184  -18.9725 C   0  0  0  0  0  0  0  0  0  0  0  0
   -0.0043  -52.5434  -19.3604 C   0  0  0  0  0  0  0  0  0  0  0  0
    0.3939  -52.5511  -20.6488 N   0  0  0  0  0  0  0  0  0  0  0  0
    0.4454  -51.5757  -25.6174 C   0  0  0  0  0  0  0  0  0  0  0  0
   -0.1446  -52.0924  -26.8436 C   0  0  0  0  0  0  0  0  0  0  0  0
   -1.5120  -52.1620  -27.0014 C   0  0  0  0  0  0  0  0  0  0  0  0
   -2.1123  -52.6015  -28.1565 C   0  0  0  0  0  0  0  0  0  0  0  0
   -1.3405  -52.9951  -29.2167 C   0  0  0  0  0  0  0  0  0  0  0  0
    0.0301  -52.9399  -29.0970 C   0  0  0  0  0  0  0  0  0  0  0  0
    0.6265  -52.4898  -27.9133 C   0  0  0  0  0  0  0  0  0  0  0  0
 13 14  1  0  0  0
 14 15  1  0  0  0
 14 12  1  0  0  0
 12  6  1  0  0  0
  6  2  1  0  0  0
  2  3  1  0  0  0
  3  4  2  0  0  0
  3  1  1  0  0  0
  1 26  1  0  0  0
 26 27  1  0  0  0
 27 28  2  0  0  0
 28 29  1  0  0  0
 29 30  2  0  0  0
 30 31  1  0  0  0
 31 32  2  0  0  0
  1 16  1  0  0  0
 16 17  1  0  0  0
 17 18  2  0  0  0
 17 20  1  0  0  0
 20 21  2  0  0  0
 21 22  1  0  0  0
 22 23  2  0  0  0
 23 24  1  0  0  0
 24 25  2  0  0  0
  6  7  1  0  0  0
  7  8  1  0  0  0
  7  9  1  0  0  0
 32 27  1  0  0  0
 25 20  1  0  0  0
  2  5  1  0  0  0
 16 19  1  0  0  0
  8 10  1  0  0  0
  9 11  1  0  0  0
M  END
> <minimizedAffinity>
-7.08683

> <CNNscore>
0.4026451111

> <CNNaffinity>
6.1907858849

> <CNN_VS>
2.4926896095

> <CNNaffinity_variance>
0.3808515072

$$$$
[H]OB(O[H])[C@@]([H])(N([H])C(=O)[C@@]([H])(N([H])C(=O)c1nc([H])c([H])nc1[H])C([H])([H])c1c([H])c([H])c([H])c([H])c1[H])C([H])([H])C([H])(C([H])([H])[H])C([H])([H])[H]


 32 33  0  0  0  0  0  0  0  0999 V2000
    1.4307  -52.5652  -24.3933 C   0  0  0  0  0  0  0  0  0  0  0  0
    2.9730  -50.5385  -23.9797 N   0  0  0  0  0  0  0  0  0  0  0  0
    2.6977  -51.9257  -24.0134 C   0  0  0  0  0  0  0  0  0  0  0  0
    3.6657  -52.6921  -23.6813 O   0  0  0  0  0  0  0  0  0  0  0  0
    2.2357  -49.8651  -24.2484 H   0  0  0  0  0  0  0  0  0  0  0  0
    4.2937  -50.0390  -23.5853 C   0  0  0  0  0  0  0  0  0  0  0  0
    5.2345  -50.2830  -24.8296 B   0  0  0  0  0  0  0  0  0  0  0  0
    6.1283  -51.4604  -24.7491 O   0  0  0  0  0  0  0  0  0  0  0  0
    4.8696  -49.7506  -26.1458 O   0  0  0  0  0  0  0  0  0  0  0  0
    6.3221  -51.7843  -25.6605 H   0  0  0  0  0  0  0  0  0  0  0  0
    4.7849  -48.7720  -26.1541 H   0  0  0  0  0  0  0  0  0  0  0  0
    4.7787  -50.7656  -22.3756 C   0  0  0  0  0  0  0  0  0  0  0  0
    5.2549  -49.4709  -20.2450 C   0  0  0  0  0  0  0  0  0  0  0  0
    4.2745  -50.2364  -21.0885 C   0  0  0  0  0  0  0  0  0  0  0  0
    3.7267  -51.3754  -20.2039 C   0  0  0  0  0  0  0  0  0  0  0  0
    0.7603  -53.0357  -23.1619 N   0  0  0  0  0  0  0  0  0  0  0  0
    0.4839  -52.1109  -22.1360 C   0  0  0  0  0  0  0  0  0  0  0  0
    0.8018  -50.8778  -22.2524 O   0  0  0  0  0  0  0  0  0  0  0  0
    0.5015  -54.0265  -23.0611 H   0  0  0  0  0  0  0  0  0  0  0  0
   -0.1713  -52.5036  -20.9010 C   0  0  0  0  0  0  0  0  0  0  0  0
   -1.1911  -53.4255  -20.9052 C   0  0  0  0  0  0  0  0  0  0  0  0
   -1.8277  -53.8187  -19.7782 N   0  0  0  0  0  0  0  0  0  0  0  0
   -1.4608  -53.2954  -18.5885 C   0  0  0  0  0  0  0  0  0  0  0  0
   -0.4412  -52.3702  -18.5622 C   0  0  0  0  0  0  0  0  0  0  0  0
    0.1769  -51.9955  -19.7006 N   0  0  0  0  0  0  0  0  0  0  0  0
    0.4311  -51.6483  -25.0293 C   0  0  0  0  0  0  0  0  0  0  0  0
   -0.1180  -52.0324  -26.3215 C   0  0  0  0  0  0  0  0  0  0  0  0
    0.7059  -52.3806  -27.3701 C   0  0  0  0  0  0  0  0  0  0  0  0
    0.2313  -52.7909  -28.5925 C   0  0  0  0  0  0  0  0  0  0  0  0
   -1.1188  -52.8666  -28.8073 C   0  0  0  0  0  0  0  0  0  0  0  0
   -1.9742  -52.5266  -27.7833 C   0  0  0  0  0  0  0  0  0  0  0  0
   -1.4750  -52.1103  -26.5436 C   0  0  0  0  0  0  0  0  0  0  0  0
 13 14  1  0  0  0
 14 15  1  0  0  0
 14 12  1  0  0  0
 12  6  1  0  0  0
  6  2  1  0  0  0
  2  3  1  0  0  0
  3  4  2  0  0  0
  3  1  1  0  0  0
  1 26  1  0  0  0
 26 27  1  0  0  0
 27 28  2  0  0  0
 28 29  1  0  0  0
 29 30  2  0  0  0
 30 31  1  0  0  0
 31 32  2  0  0  0
  1 16  1  0  0  0
 16 17  1  0  0  0
 17 18  2  0  0  0
 17 20  1  0  0  0
 20 21  2  0  0  0
 21 22  1  0  0  0
 22 23  2  0  0  0
 23 24  1  0  0  0
 24 25  2  0  0  0
  6  7  1  0  0  0
  7  8  1  0  0  0
  7  9  1  0  0  0
 32 27  1  0  0  0
 25 20  1  0  0  0
  2  5  1  0  0  0
 16 19  1  0  0  0
  8 10  1  0  0  0
  9 11  1  0  0  0
M  END
> <minimizedAffinity>
-6.74814

> <CNNscore>
0.3941005766

> <CNNaffinity>
6.2387170792

> <CNN_VS>
2.4586820602

> <CNNaffinity_variance>
0.1590044498

$$$$
[H]OB(O[H])[C@@]([H])(N([H])C(=O)[C@@]([H])(N([H])C(=O)c1nc([H])c([H])nc1[H])C([H])([H])c1c([H])c([H])c([H])c([H])c1[H])C([H])([H])C([H])(C([H])([H])[H])C([H])([H])[H]


 32 33  0  0  0  0  0  0  0  0999 V2000
    1.2991  -51.9114  -24.8507 C   0  0  0  0  0  0  0  0  0  0  0  0
    2.8389  -49.8651  -24.5360 N   0  0  0  0  0  0  0  0  0  0  0  0
    2.5261  -51.1351  -25.0750 C   0  0  0  0  0  0  0  0  0  0  0  0
    3.4122  -51.6463  -25.8418 O   0  0  0  0  0  0  0  0  0  0  0  0
    2.1589  -49.3918  -23.9172 H   0  0  0  0  0  0  0  0  0  0  0  0
    4.1063  -49.2001  -24.8536 C   0  0  0  0  0  0  0  0  0  0  0  0
    4.9183  -49.1540  -23.5004 B   0  0  0  0  0  0  0  0  0  0  0  0
    4.7579  -50.3219  -22.6047 O   0  0  0  0  0  0  0  0  0  0  0  0
    6.1264  -48.3307  -23.3928 O   0  0  0  0  0  0  0  0  0  0  0  0
    5.5729  -50.4273  -22.0591 H   0  0  0  0  0  0  0  0  0  0  0  0
    5.9558  -47.3762  -23.5505 H   0  0  0  0  0  0  0  0  0  0  0  0
    3.8493  -47.8316  -25.3900 C   0  0  0  0  0  0  0  0  0  0  0  0
    4.0251  -48.4179  -27.8534 C   0  0  0  0  0  0  0  0  0  0  0  0
    3.2348  -47.7966  -26.7362 C   0  0  0  0  0  0  0  0  0  0  0  0
    2.9325  -46.3455  -27.1638 C   0  0  0  0  0  0  0  0  0  0  0  0
    0.9789  -51.8673  -23.4075 N   0  0  0  0  0  0  0  0  0  0  0  0
    0.2280  -52.9152  -22.8397 C   0  0  0  0  0  0  0  0  0  0  0  0
   -0.1786  -53.8984  -23.5489 O   0  0  0  0  0  0  0  0  0  0  0  0
    1.3027  -51.0793  -22.8305 H   0  0  0  0  0  0  0  0  0  0  0  0
   -0.1223  -52.9360  -21.4306 C   0  0  0  0  0  0  0  0  0  0  0  0
    0.6576  -52.2917  -20.4997 C   0  0  0  0  0  0  0  0  0  0  0  0
    0.3674  -52.2864  -19.1785 N   0  0  0  0  0  0  0  0  0  0  0  0
   -0.7306  -52.9356  -18.7349 C   0  0  0  0  0  0  0  0  0  0  0  0
   -1.5256  -53.5874  -19.6510 C   0  0  0  0  0  0  0  0  0  0  0  0
   -1.2134  -53.5770  -20.9628 N   0  0  0  0  0  0  0  0  0  0  0  0
    0.0762  -51.3581  -25.5161 C   0  0  0  0  0  0  0  0  0  0  0  0
   -0.3292  -51.9412  -26.7867 C   0  0  0  0  0  0  0  0  0  0  0  0
    0.6053  -52.4018  -27.6890 C   0  0  0  0  0  0  0  0  0  0  0  0
    0.2676  -52.9982  -28.8799 C   0  0  0  0  0  0  0  0  0  0  0  0
   -1.0514  -53.1552  -29.2118 C   0  0  0  0  0  0  0  0  0  0  0  0
   -2.0145  -52.7074  -28.3356 C   0  0  0  0  0  0  0  0  0  0  0  0
   -1.6542  -52.1017  -27.1262 C   0  0  0  0  0  0  0  0  0  0  0  0
 13 14  1  0  0  0
 14 15  1  0  0  0
 14 12  1  0  0  0
 12  6  1  0  0  0
  6  2  1  0  0  0
  2  3  1  0  0  0
  3  4  2  0  0  0
  3  1  1  0  0  0
  1 26  1  0  0  0
 26 27  1  0  0  0
 27 28  2  0  0  0
 28 29  1  0  0  0
 29 30  2  0  0  0
 30 31  1  0  0  0
 31 32  2  0  0  0
  1 16  1  0  0  0
 16 17  1  0  0  0
 17 18  2  0  0  0
 17 20  1  0  0  0
 20 21  2  0  0  0
 21 22  1  0  0  0
 22 23  2  0  0  0
 23 24  1  0  0  0
 24 25  2  0  0  0
  6  7  1  0  0  0
  7  8  1  0  0  0
  7  9  1  0  0  0
 32 27  1  0  0  0
 25 20  1  0  0  0
  2  5  1  0  0  0
 16 19  1  0  0  0
  8 10  1  0  0  0
  9 11  1  0  0  0
M  END
> <minimizedAffinity>
-6.37162

> <CNNscore>
0.3179072142

> <CNNaffinity>
6.0102128983

> <CNN_VS>
1.9106900692

> <CNNaffinity_variance>
0.2560262680

$$$$
[H]OB(O[H])[C@@]([H])(N([H])C(=O)[C@@]([H])(N([H])C(=O)c1nc([H])c([H])nc1[H])C([H])([H])c1c([H])c([H])c([H])c([H])c1[H])C([H])([H])C([H])(C([H])([H])[H])C([H])([H])[H]


 32 33  0  0  0  0  0  0  0  0999 V2000
    1.2626  -51.8417  -22.9505 C   0  0  0  0  0  0  0  0  0  0  0  0
    1.7419  -52.5254  -25.3919 N   0  0  0  0  0  0  0  0  0  0  0  0
    1.2480  -52.7702  -24.0891 C   0  0  0  0  0  0  0  0  0  0  0  0
    0.7311  -53.9240  -23.8990 O   0  0  0  0  0  0  0  0  0  0  0  0
    2.1617  -51.6069  -25.6143 H   0  0  0  0  0  0  0  0  0  0  0  0
    1.6536  -53.5480  -26.4387 C   0  0  0  0  0  0  0  0  0  0  0  0
    2.5921  -53.0497  -27.6064 B   0  0  0  0  0  0  0  0  0  0  0  0
    2.5760  -53.8598  -28.8454 O   0  0  0  0  0  0  0  0  0  0  0  0
    2.9982  -51.6429  -27.6769 O   0  0  0  0  0  0  0  0  0  0  0  0
    2.8007  -53.2833  -29.6136 H   0  0  0  0  0  0  0  0  0  0  0  0
    3.4987  -51.3476  -26.8848 H   0  0  0  0  0  0  0  0  0  0  0  0
    0.2403  -53.6993  -26.8927 C   0  0  0  0  0  0  0  0  0  0  0  0
   -1.6087  -52.0208  -26.4385 C   0  0  0  0  0  0  0  0  0  0  0  0
   -0.4294  -52.4353  -27.2730 C   0  0  0  0  0  0  0  0  0  0  0  0
   -0.9215  -52.4930  -28.7340 C   0  0  0  0  0  0  0  0  0  0  0  0
    1.5205  -50.4795  -23.4654 N   0  0  0  0  0  0  0  0  0  0  0  0
    2.6755  -49.7938  -23.0413 C   0  0  0  0  0  0  0  0  0  0  0  0
    3.4998  -50.3280  -22.2227 O   0  0  0  0  0  0  0  0  0  0  0  0
    0.8616  -50.0432  -24.1244 H   0  0  0  0  0  0  0  0  0  0  0  0
    2.9904  -48.4546  -23.5062 C   0  0  0  0  0  0  0  0  0  0  0  0
    3.4721  -48.2434  -24.7764 C   0  0  0  0  0  0  0  0  0  0  0  0
    3.7778  -47.0132  -25.2487 N   0  0  0  0  0  0  0  0  0  0  0  0
    3.6099  -45.9339  -24.4546 C   0  0  0  0  0  0  0  0  0  0  0  0
    3.1285  -46.1235  -23.1785 C   0  0  0  0  0  0  0  0  0  0  0  0
    2.8314  -47.3609  -22.7324 N   0  0  0  0  0  0  0  0  0  0  0  0
   -0.0417  -51.7197  -22.2236 C   0  0  0  0  0  0  0  0  0  0  0  0
   -0.0107  -51.7101  -20.7684 C   0  0  0  0  0  0  0  0  0  0  0  0
    0.4563  -50.6153  -20.0735 C   0  0  0  0  0  0  0  0  0  0  0  0
    0.4635  -50.5452  -18.7013 C   0  0  0  0  0  0  0  0  0  0  0  0
   -0.0092  -51.5977  -17.9641 C   0  0  0  0  0  0  0  0  0  0  0  0
   -0.4841  -52.7097  -18.6228 C   0  0  0  0  0  0  0  0  0  0  0  0
   -0.4847  -52.7657  -20.0215 C   0  0  0  0  0  0  0  0  0  0  0  0
 13 14  1  0  0  0
 14 15  1  0  0  0
 14 12  1  0  0  0
 12  6  1  0  0  0
  6  2  1  0  0  0
  2  3  1  0  0  0
  3  4  2  0  0  0
  3  1  1  0  0  0
  1 26  1  0  0  0
 26 27  1  0  0  0
 27 28  2  0  0  0
 28 29  1  0  0  0
 29 30  2  0  0  0
 30 31  1  0  0  0
 31 32  2  0  0  0
  1 16  1  0  0  0
 16 17  1  0  0  0
 17 18  2  0  0  0
 17 20  1  0  0  0
 20 21  2  0  0  0
 21 22  1  0  0  0
 22 23  2  0  0  0
 23 24  1  0  0  0
 24 25  2  0  0  0
  6  7  1  0  0  0
  7  8  1  0  0  0
  7  9  1  0  0  0
 32 27  1  0  0  0
 25 20  1  0  0  0
  2  5  1  0  0  0
 16 19  1  0  0  0
  8 10  1  0  0  0
  9 11  1  0  0  0
M  END
> <minimizedAffinity>
-6.83300

> <CNNscore>
0.3177492321

> <CNNaffinity>
6.3492331505

> <CNN_VS>
2.0174639225

> <CNNaffinity_variance>
0.0494833216

$$$$
[H]OB(O[H])[C@@]([H])(N([H])C(=O)[C@@]([H])(N([H])C(=O)c1nc([H])c([H])nc1[H])C([H])([H])c1c([H])c([H])c([H])c([H])c1[H])C([H])([H])C([H])(C([H])([H])[H])C([H])([H])[H]


 32 33  0  0  0  0  0  0  0  0999 V2000
    2.7438  -52.8066  -24.4379 C   0  0  0  0  0  0  0  0  0  0  0  0
    2.3543  -52.2949  -21.9391 N   0  0  0  0  0  0  0  0  0  0  0  0
    2.1446  -52.0662  -23.3193 C   0  0  0  0  0  0  0  0  0  0  0  0
    1.3410  -51.1148  -23.6086 O   0  0  0  0  0  0  0  0  0  0  0  0
    2.9842  -53.0578  -21.6382 H   0  0  0  0  0  0  0  0  0  0  0  0
    1.6797  -51.4778  -20.9260 C   0  0  0  0  0  0  0  0  0  0  0  0
    2.8273  -50.7162  -20.1543 B   0  0  0  0  0  0  0  0  0  0  0  0
    3.5972  -51.5177  -19.1762 O   0  0  0  0  0  0  0  0  0  0  0  0
    3.4395  -49.5186  -20.7375 O   0  0  0  0  0  0  0  0  0  0  0  0
    4.5047  -51.1407  -19.0897 H   0  0  0  0  0  0  0  0  0  0  0  0
    2.7943  -48.7941  -20.8921 H   0  0  0  0  0  0  0  0  0  0  0  0
    0.8818  -52.3462  -20.0119 C   0  0  0  0  0  0  0  0  0  0  0  0
   -1.1166  -52.0966  -21.5567 C   0  0  0  0  0  0  0  0  0  0  0  0
   -0.3144  -52.9635  -20.6273 C   0  0  0  0  0  0  0  0  0  0  0  0
   -1.2897  -53.4692  -19.5442 C   0  0  0  0  0  0  0  0  0  0  0  0
    1.9826  -52.4895  -25.6656 N   0  0  0  0  0  0  0  0  0  0  0  0
    0.9726  -53.3734  -26.0932 C   0  0  0  0  0  0  0  0  0  0  0  0
    0.7053  -54.4396  -25.4399 O   0  0  0  0  0  0  0  0  0  0  0  0
    2.1921  -51.6334  -26.1965 H   0  0  0  0  0  0  0  0  0  0  0  0
    0.1868  -53.1246  -27.2887 C   0  0  0  0  0  0  0  0  0  0  0  0
    0.7866  -53.0402  -28.5228 C   0  0  0  0  0  0  0  0  0  0  0  0
    0.0920  -52.8098  -29.6606 N   0  0  0  0  0  0  0  0  0  0  0  0
   -1.2481  -52.6532  -29.6031 C   0  0  0  0  0  0  0  0  0  0  0  0
   -1.8687  -52.7341  -28.3765 C   0  0  0  0  0  0  0  0  0  0  0  0
   -1.1525  -52.9648  -27.2574 N   0  0  0  0  0  0  0  0  0  0  0  0
    4.1521  -52.4152  -24.7667 C   0  0  0  0  0  0  0  0  0  0  0  0
    4.6482  -51.1533  -24.2373 C   0  0  0  0  0  0  0  0  0  0  0  0
    5.5686  -51.1241  -23.2118 C   0  0  0  0  0  0  0  0  0  0  0  0
    6.0964  -49.9587  -22.7107 C   0  0  0  0  0  0  0  0  0  0  0  0
    5.7078  -48.7553  -23.2355 C   0  0  0  0  0  0  0  0  0  0  0  0
    4.7896  -48.7437  -24.2615 C   0  0  0  0  0  0  0  0  0  0  0  0
    4.2610  -49.9398  -24.7610 C   0  0  0  0  0  0  0  0  0  0  0  0
 13 14  1  0  0  0
 14 15  1  0  0  0
 14 12  1  0  0  0
 12  6  1  0  0  0
  6  2  1  0  0  0
  2  3  1  0  0  0
  3  4  2  0  0  0
  3  1  1  0  0  0
  1 26  1  0  0  0
 26 27  1  0  0  0
 27 28  2  0  0  0
 28 29  1  0  0  0
 29 30  2  0  0  0
 30 31  1  0  0  0
 31 32  2  0  0  0
  1 16  1  0  0  0
 16 17  1  0  0  0
 17 18  2  0  0  0
 17 20  1  0  0  0
 20 21  2  0  0  0
 21 22  1  0  0  0
 22 23  2  0  0  0
 23 24  1  0  0  0
 24 25  2  0  0  0
  6  7  1  0  0  0
  7  8  1  0  0  0
  7  9  1  0  0  0
 32 27  1  0  0  0
 25 20  1  0  0  0
  2  5  1  0  0  0
 16 19  1  0  0  0
  8 10  1  0  0  0
  9 11  1  0  0  0
M  END
> <minimizedAffinity>
-6.05751

> <CNNscore>
0.2511036396

> <CNNaffinity>
6.1366105080

> <CNN_VS>
1.5409252644

> <CNNaffinity_variance>
0.1692377776

$$$$
[H]OB(O[H])[C@@]([H])(N([H])C(=O)[C@@]([H])(N([H])C(=O)c1nc([H])c([H])nc1[H])C([H])([H])c1c([H])c([H])c([H])c([H])c1[H])C([H])([H])C([H])(C([H])([H])[H])C([H])([H])[H]


 32 33  0  0  0  0  0  0  0  0999 V2000
    2.6333  -52.0670  -24.4117 C   0  0  0  0  0  0  0  0  0  0  0  0
    2.8134  -51.8688  -21.8454 N   0  0  0  0  0  0  0  0  0  0  0  0
    2.1910  -51.6065  -23.0884 C   0  0  0  0  0  0  0  0  0  0  0  0
    1.1284  -50.8974  -23.0386 O   0  0  0  0  0  0  0  0  0  0  0  0
    3.6705  -52.4465  -21.8156 H   0  0  0  0  0  0  0  0  0  0  0  0
    2.2535  -51.3480  -20.5945 C   0  0  0  0  0  0  0  0  0  0  0  0
    3.4856  -50.8245  -19.7574 B   0  0  0  0  0  0  0  0  0  0  0  0
    4.1145  -49.5732  -20.2375 O   0  0  0  0  0  0  0  0  0  0  0  0
    3.6375  -51.2074  -18.3506 O   0  0  0  0  0  0  0  0  0  0  0  0
    4.5301  -49.1052  -19.4752 H   0  0  0  0  0  0  0  0  0  0  0  0
    3.7134  -52.1785  -18.2230 H   0  0  0  0  0  0  0  0  0  0  0  0
    1.5140  -52.4250  -19.8738 C   0  0  0  0  0  0  0  0  0  0  0  0
   -0.6212  -52.6187  -18.5151 C   0  0  0  0  0  0  0  0  0  0  0  0
    0.0479  -52.2337  -19.8047 C   0  0  0  0  0  0  0  0  0  0  0  0
   -0.6621  -53.0245  -20.9230 C   0  0  0  0  0  0  0  0  0  0  0  0
    1.5329  -51.8414  -25.3736 N   0  0  0  0  0  0  0  0  0  0  0  0
    0.9680  -52.9462  -26.0403 C   0  0  0  0  0  0  0  0  0  0  0  0
    1.3897  -54.1345  -25.8276 O   0  0  0  0  0  0  0  0  0  0  0  0
    1.1884  -50.8879  -25.5499 H   0  0  0  0  0  0  0  0  0  0  0  0
   -0.1142  -52.7976  -26.9970 C   0  0  0  0  0  0  0  0  0  0  0  0
   -1.4130  -52.6403  -26.5748 C   0  0  0  0  0  0  0  0  0  0  0  0
   -2.4499  -52.4988  -27.4321 N   0  0  0  0  0  0  0  0  0  0  0  0
   -2.2205  -52.5098  -28.7628 C   0  0  0  0  0  0  0  0  0  0  0  0
   -0.9265  -52.6662  -29.2069 C   0  0  0  0  0  0  0  0  0  0  0  0
    0.0892  -52.8053  -28.3308 N   0  0  0  0  0  0  0  0  0  0  0  0
    3.7876  -51.3052  -24.9876 C   0  0  0  0  0  0  0  0  0  0  0  0
    3.6809  -49.8549  -25.0518 C   0  0  0  0  0  0  0  0  0  0  0  0
    3.2241  -49.2244  -26.1890 C   0  0  0  0  0  0  0  0  0  0  0  0
    3.0662  -47.8625  -26.2793 C   0  0  0  0  0  0  0  0  0  0  0  0
    3.3694  -47.0700  -25.2048 C   0  0  0  0  0  0  0  0  0  0  0  0
    3.8289  -47.6636  -24.0505 C   0  0  0  0  0  0  0  0  0  0  0  0
    3.9845  -49.0526  -23.9743 C   0  0  0  0  0  0  0  0  0  0  0  0
 13 14  1  0  0  0
 14 15  1  0  0  0
 14 12  1  0  0  0
 12  6  1  0  0  0
  6  2  1  0  0  0
  2  3  1  0  0  0
  3  4  2  0  0  0
  3  1  1  0  0  0
  1 26  1  0  0  0
 26 27  1  0  0  0
 27 28  2  0  0  0
 28 29  1  0  0  0
 29 30  2  0  0  0
 30 31  1  0  0  0
 31 32  2  0  0  0
  1 16  1  0  0  0
 16 17  1  0  0  0
 17 18  2  0  0  0
 17 20  1  0  0  0
 20 21  2  0  0  0
 21 22  1  0  0  0
 22 23  2  0  0  0
 23 24  1  0  0  0
 24 25  2  0  0  0
  6  7  1  0  0  0
  7  8  1  0  0  0
  7  9  1  0  0  0
 32 27  1  0  0  0
 25 20  1  0  0  0
  2  5  1  0  0  0
 16 19  1  0  0  0
  8 10  1  0  0  0
  9 11  1  0  0  0
M  END
> <minimizedAffinity>
-6.42257

> <CNNscore>
0.2505774498

> <CNNaffinity>
5.9419865608

> <CNN_VS>
1.4889278412

> <CNNaffinity_variance>
0.1139012203

$$$$
[H]OB(O[H])[C@@]([H])(N([H])C(=O)[C@@]([H])(N([H])C(=O)c1nc([H])c([H])nc1[H])C([H])([H])c1c([H])c([H])c([H])c([H])c1[H])C([H])([H])C([H])(C([H])([H])[H])C([H])([H])[H]


 32 33  0  0  0  0  0  0  0  0999 V2000
    2.5311  -51.0362  -23.5843 C   0  0  0  0  0  0  0  0  0  0  0  0
    1.5417  -52.1410  -25.6958 N   0  0  0  0  0  0  0  0  0  0  0  0
    2.3660  -52.1346  -24.5461 C   0  0  0  0  0  0  0  0  0  0  0  0
    3.0266  -53.2078  -24.3306 O   0  0  0  0  0  0  0  0  0  0  0  0
    0.9722  -51.3076  -25.9200 H   0  0  0  0  0  0  0  0  0  0  0  0
    1.4687  -53.3176  -26.5674 C   0  0  0  0  0  0  0  0  0  0  0  0
    2.3051  -52.9508  -27.8552 B   0  0  0  0  0  0  0  0  0  0  0  0
    3.1747  -51.7574  -27.7489 O   0  0  0  0  0  0  0  0  0  0  0  0
    2.6254  -53.9833  -28.8454 O   0  0  0  0  0  0  0  0  0  0  0  0
    3.9395  -51.8568  -28.3638 H   0  0  0  0  0  0  0  0  0  0  0  0
    1.8270  -54.3956  -29.2422 H   0  0  0  0  0  0  0  0  0  0  0  0
    0.0469  -53.6235  -26.9011 C   0  0  0  0  0  0  0  0  0  0  0  0
   -1.9353  -52.1111  -26.4260 C   0  0  0  0  0  0  0  0  0  0  0  0
   -0.7635  -52.4520  -27.3031 C   0  0  0  0  0  0  0  0  0  0  0  0
   -1.3193  -52.6331  -28.7308 C   0  0  0  0  0  0  0  0  0  0  0  0
    2.7415  -49.7835  -24.3417 N   0  0  0  0  0  0  0  0  0  0  0  0
    4.0329  -49.4760  -24.8127 C   0  0  0  0  0  0  0  0  0  0  0  0
    5.0205  -50.2590  -24.5967 O   0  0  0  0  0  0  0  0  0  0  0  0
    1.9515  -49.1485  -24.5193 H   0  0  0  0  0  0  0  0  0  0  0  0
    4.3110  -48.2639  -25.5623 C   0  0  0  0  0  0  0  0  0  0  0  0
    3.5595  -47.9265  -26.6629 C   0  0  0  0  0  0  0  0  0  0  0  0
    3.7849  -46.8075  -27.3888 N   0  0  0  0  0  0  0  0  0  0  0  0
    4.7858  -45.9733  -27.0338 C   0  0  0  0  0  0  0  0  0  0  0  0
    5.5508  -46.2927  -25.9342 C   0  0  0  0  0  0  0  0  0  0  0  0
    5.3047  -47.4148  -25.2279 N   0  0  0  0  0  0  0  0  0  0  0  0
    1.3268  -50.7570  -22.7381 C   0  0  0  0  0  0  0  0  0  0  0  0
    0.6997  -51.8797  -22.0562 C   0  0  0  0  0  0  0  0  0  0  0  0
   -0.3229  -52.5903  -22.6468 C   0  0  0  0  0  0  0  0  0  0  0  0
   -0.9140  -53.6827  -22.0593 C   0  0  0  0  0  0  0  0  0  0  0  0
   -0.4874  -54.1074  -20.8295 C   0  0  0  0  0  0  0  0  0  0  0  0
    0.5324  -53.4227  -20.2074 C   0  0  0  0  0  0  0  0  0  0  0  0
    1.1244  -52.3114  -20.8192 C   0  0  0  0  0  0  0  0  0  0  0  0
 13 14  1  0  0  0
 14 15  1  0  0  0
 14 12  1  0  0  0
 12  6  1  0  0  0
  6  2  1  0  0  0
  2  3  1  0  0  0
  3  4  2  0  0  0
  3  1  1  0  0  0
  1 26  1  0  0  0
 26 27  1  0  0  0
 27 28  2  0  0  0
 28 29  1  0  0  0
 29 30  2  0  0  0
 30 31  1  0  0  0
 31 32  2  0  0  0
  1 16  1  0  0  0
 16 17  1  0  0  0
 17 18  2  0  0  0
 17 20  1  0  0  0
 20 21  2  0  0  0
 21 22  1  0  0  0
 22 23  2  0  0  0
 23 24  1  0  0  0
 24 25  2  0  0  0
  6  7  1  0  0  0
  7  8  1  0  0  0
  7  9  1  0  0  0
 32 27  1  0  0  0
 25 20  1  0  0  0
  2  5  1  0  0  0
 16 19  1  0  0  0
  8 10  1  0  0  0
  9 11  1  0  0  0
M  END
> <minimizedAffinity>
-7.25191

> <CNNscore>
0.2314448804

> <CNNaffinity>
6.1254243851

> <CNN_VS>
1.4176981449

> <CNNaffinity_variance>
0.0359985381

$$$$
[H]OB(O[H])[C@@]([H])(N([H])C(=O)[C@@]([H])(N([H])C(=O)c1nc([H])c([H])nc1[H])C([H])([H])c1c([H])c([H])c([H])c([H])c1[H])C([H])([H])C([H])(C([H])([H])[H])C([H])([H])[H]


 32 33  0  0  0  0  0  0  0  0999 V2000
    0.8149  -52.6080  -22.6770 C   0  0  0  0  0  0  0  0  0  0  0  0
    2.0027  -50.4014  -23.2916 N   0  0  0  0  0  0  0  0  0  0  0  0
    1.9317  -51.8116  -23.2034 C   0  0  0  0  0  0  0  0  0  0  0  0
    2.9526  -52.4471  -23.6374 O   0  0  0  0  0  0  0  0  0  0  0  0
    1.2045  -49.8290  -22.9683 H   0  0  0  0  0  0  0  0  0  0  0  0
    3.1844  -49.7372  -23.8500 C   0  0  0  0  0  0  0  0  0  0  0  0
    3.5609  -48.5970  -22.8249 B   0  0  0  0  0  0  0  0  0  0  0  0
    2.8903  -47.2926  -23.0265 O   0  0  0  0  0  0  0  0  0  0  0  0
    4.0717  -48.9405  -21.4945 O   0  0  0  0  0  0  0  0  0  0  0  0
    2.8223  -46.8249  -22.1607 H   0  0  0  0  0  0  0  0  0  0  0  0
    4.9060  -49.4583  -21.5254 H   0  0  0  0  0  0  0  0  0  0  0  0
    2.8741  -49.1846  -25.2009 C   0  0  0  0  0  0  0  0  0  0  0  0
    3.9153  -48.9481  -27.5036 C   0  0  0  0  0  0  0  0  0  0  0  0
    3.6120  -49.8185  -26.3165 C   0  0  0  0  0  0  0  0  0  0  0  0
    2.8465  -51.0456  -26.8536 C   0  0  0  0  0  0  0  0  0  0  0  0
    0.4204  -52.0459  -21.3672 N   0  0  0  0  0  0  0  0  0  0  0  0
    0.1415  -52.9230  -20.3009 C   0  0  0  0  0  0  0  0  0  0  0  0
    0.2238  -54.1907  -20.4472 O   0  0  0  0  0  0  0  0  0  0  0  0
    0.3521  -51.0269  -21.2419 H   0  0  0  0  0  0  0  0  0  0  0  0
   -0.2513  -52.4402  -18.9889 C   0  0  0  0  0  0  0  0  0  0  0  0
   -1.2114  -53.0948  -18.2542 C   0  0  0  0  0  0  0  0  0  0  0  0
   -1.6063  -52.6788  -17.0291 N   0  0  0  0  0  0  0  0  0  0  0  0
   -1.0459  -51.5761  -16.4871 C   0  0  0  0  0  0  0  0  0  0  0  0
   -0.0821  -50.9055  -17.2066 C   0  0  0  0  0  0  0  0  0  0  0  0
    0.2934  -51.3417  -18.4262 N   0  0  0  0  0  0  0  0  0  0  0  0
   -0.4384  -52.5488  -23.4955 C   0  0  0  0  0  0  0  0  0  0  0  0
   -0.3383  -52.8533  -24.9154 C   0  0  0  0  0  0  0  0  0  0  0  0
    0.1197  -54.0783  -25.3502 C   0  0  0  0  0  0  0  0  0  0  0  0
    0.1900  -54.4245  -26.6780 C   0  0  0  0  0  0  0  0  0  0  0  0
   -0.2068  -53.5303  -27.6358 C   0  0  0  0  0  0  0  0  0  0  0  0
   -0.6704  -52.2956  -27.2403 C   0  0  0  0  0  0  0  0  0  0  0  0
   -0.7358  -51.9579  -25.8834 C   0  0  0  0  0  0  0  0  0  0  0  0
 13 14  1  0  0  0
 14 15  1  0  0  0
 14 12  1  0  0  0
 12  6  1  0  0  0
  6  2  1  0  0  0
  2  3  1  0  0  0
  3  4  2  0  0  0
  3  1  1  0  0  0
  1 26  1  0  0  0
 26 27  1  0  0  0
 27 28  2  0  0  0
 28 29  1  0  0  0
 29 30  2  0  0  0
 30 31  1  0  0  0
 31 32  2  0  0  0
  1 16  1  0  0  0
 16 17  1  0  0  0
 17 18  2  0  0  0
 17 20  1  0  0  0
 20 21  2  0  0  0
 21 22  1  0  0  0
 22 23  2  0  0  0
 23 24  1  0  0  0
 24 25  2  0  0  0
  6  7  1  0  0  0
  7  8  1  0  0  0
  7  9  1  0  0  0
 32 27  1  0  0  0
 25 20  1  0  0  0
  2  5  1  0  0  0
 16 19  1  0  0  0
  8 10  1  0  0  0
  9 11  1  0  0  0
M  END
> <minimizedAffinity>
-6.53164

> <CNNscore>
0.2297452390

> <CNNaffinity>
5.6890540123

> <CNN_VS>
1.3070330620

> <CNNaffinity_variance>
0.3261896968

$$$$
[H]c1nc(-c2c([H])c([H])c([H])c([H])c2F)c([H])c([H])c1C#Cc1nc(C([H])([H])[H])sc1[H]


 21 23  0  0  0  0  0  0  0  0999 V2000
   -0.1397  -52.3527  -21.7109 C   0  0  0  0  0  0  0  0  0  0  0  0
   -0.4959  -53.3656  -20.8831 C   0  0  0  0  0  0  0  0  0  0  0  0
   -0.5032  -53.1232  -19.5028 C   0  0  0  0  0  0  0  0  0  0  0  0
   -0.1713  -51.9243  -18.9551 C   0  0  0  0  0  0  0  0  0  0  0  0
    0.1779  -50.9469  -19.8468 N   0  0  0  0  0  0  0  0  0  0  0  0
    0.1980  -51.1357  -21.1663 C   0  0  0  0  0  0  0  0  0  0  0  0
   -0.1474  -51.5963  -17.5385 C   0  0  0  0  0  0  0  0  0  0  0  0
    0.9170  -50.8051  -17.0677 C   0  0  0  0  0  0  0  0  0  0  0  0
    1.0526  -50.4223  -15.7609 C   0  0  0  0  0  0  0  0  0  0  0  0
    0.1178  -50.8144  -14.8357 C   0  0  0  0  0  0  0  0  0  0  0  0
   -0.9368  -51.5875  -15.2546 C   0  0  0  0  0  0  0  0  0  0  0  0
   -1.0600  -51.9713  -16.6014 C   0  0  0  0  0  0  0  0  0  0  0  0
   -2.1310  -52.7291  -16.9404 F   0  0  0  0  0  0  0  0  0  0  0  0
   -0.1309  -52.7639  -24.3200 C   0  0  0  0  0  0  0  0  0  0  0  0
   -0.1271  -52.5849  -23.1293 C   0  0  0  0  0  0  0  0  0  0  0  0
   -2.3598  -52.6260  -28.7586 C   0  0  0  0  0  0  0  0  0  0  0  0
   -1.2491  -52.8822  -27.7704 C   0  0  0  0  0  0  0  0  0  0  0  0
   -1.2333  -52.6883  -26.4669 N   0  0  0  0  0  0  0  0  0  0  0  0
   -0.1607  -52.9764  -25.7783 C   0  0  0  0  0  0  0  0  0  0  0  0
    0.9113  -53.4772  -26.4789 C   0  0  0  0  0  0  0  0  0  0  0  0
    0.3088  -53.5007  -28.0743 S   0  0  0  0  0  0  0  0  0  0  0  0
 16 17  1  0  0  0
 17 18  2  0  0  0
 18 19  1  0  0  0
 19 20  2  0  0  0
 20 21  1  0  0  0
 19 14  1  0  0  0
 14 15  3  0  0  0
 15  1  1  0  0  0
  1  2  2  0  0  0
  2  3  1  0  0  0
  3  4  2  0  0  0
  4  5  1  0  0  0
  5  6  2  0  0  0
  4  7  1  0  0  0
  7  8  2  0  0  0
  8  9  1  0  0  0
  9 10  2  0  0  0
 10 11  1  0  0  0
 11 12  2  0  0  0
 12 13  1  0  0  0
 21 17  1  0  0  0
  6  1  1  0  0  0
 12  7  1  0  0  0
M  END
> <minimizedAffinity>
-7.09060

> <CNNscore>
0.4456112683

> <CNNaffinity>
5.7314534187

> <CNN_VS>
2.5540001392

> <CNNaffinity_variance>
0.1925518215

$$$$
[H]c1nc(-c2c([H])c([H])c([H])c([H])c2F)c([H])c([H])c1C#Cc1nc(C([H])([H])[H])sc1[H]


 21 23  0  0  0  0  0  0  0  0999 V2000
    0.3069  -51.8371  -22.2873 C   0  0  0  0  0  0  0  0  0  0  0  0
    1.1091  -51.1309  -23.1215 C   0  0  0  0  0  0  0  0  0  0  0  0
    0.9695  -51.3291  -24.5019 C   0  0  0  0  0  0  0  0  0  0  0  0
    0.0708  -52.1931  -25.0435 C   0  0  0  0  0  0  0  0  0  0  0  0
   -0.7063  -52.8729  -24.1454 N   0  0  0  0  0  0  0  0  0  0  0  0
   -0.6057  -52.7141  -22.8257 C   0  0  0  0  0  0  0  0  0  0  0  0
   -0.1297  -52.4595  -26.4590 C   0  0  0  0  0  0  0  0  0  0  0  0
    0.9836  -52.8803  -27.2100 C   0  0  0  0  0  0  0  0  0  0  0  0
    0.9275  -53.1684  -28.5466 C   0  0  0  0  0  0  0  0  0  0  0  0
   -0.2630  -53.0505  -29.2194 C   0  0  0  0  0  0  0  0  0  0  0  0
   -1.3736  -52.6425  -28.5227 C   0  0  0  0  0  0  0  0  0  0  0  0
   -1.2972  -52.3509  -27.1495 C   0  0  0  0  0  0  0  0  0  0  0  0
   -2.4365  -51.9602  -26.5287 F   0  0  0  0  0  0  0  0  0  0  0  0
    0.5288  -51.4734  -19.6805 C   0  0  0  0  0  0  0  0  0  0  0  0
    0.4374  -51.6454  -20.8688 C   0  0  0  0  0  0  0  0  0  0  0  0
   -1.3135  -51.4881  -15.0660 C   0  0  0  0  0  0  0  0  0  0  0  0
   -0.2856  -51.2758  -16.1497 C   0  0  0  0  0  0  0  0  0  0  0  0
   -0.3868  -51.4888  -17.4463 N   0  0  0  0  0  0  0  0  0  0  0  0
    0.6297  -51.2393  -18.2288 C   0  0  0  0  0  0  0  0  0  0  0  0
    1.7702  -50.7573  -17.6308 C   0  0  0  0  0  0  0  0  0  0  0  0
    1.3078  -50.6949  -15.9903 S   0  0  0  0  0  0  0  0  0  0  0  0
 16 17  1  0  0  0
 17 18  2  0  0  0
 18 19  1  0  0  0
 19 20  2  0  0  0
 20 21  1  0  0  0
 19 14  1  0  0  0
 14 15  3  0  0  0
 15  1  1  0  0  0
  1  2  2  0  0  0
  2  3  1  0  0  0
  3  4  2  0  0  0
  4  5  1  0  0  0
  5  6  2  0  0  0
  4  7  1  0  0  0
  7  8  2  0  0  0
  8  9  1  0  0  0
  9 10  2  0  0  0
 10 11  1  0  0  0
 11 12  2  0  0  0
 12 13  1  0  0  0
 21 17  1  0  0  0
  6  1  1  0  0  0
 12  7  1  0  0  0
M  END
> <minimizedAffinity>
-7.46760

> <CNNscore>
0.3941951692

> <CNNaffinity>
5.7520637512

> <CNN_VS>
2.2674357891

> <CNNaffinity_variance>
0.2133001089

$$$$
[H]c1nc(-c2c([H])c([H])c([H])c([H])c2F)c([H])c([H])c1C#Cc1nc(C([H])([H])[H])sc1[H]


 21 23  0  0  0  0  0  0  0  0999 V2000
    0.3214  -52.6310  -22.4402 C   0  0  0  0  0  0  0  0  0  0  0  0
   -0.2967  -53.6130  -21.7390 C   0  0  0  0  0  0  0  0  0  0  0  0
   -0.5428  -53.4007  -20.3757 C   0  0  0  0  0  0  0  0  0  0  0  0
   -0.1925  -52.2606  -19.7240 C   0  0  0  0  0  0  0  0  0  0  0  0
    0.4272  -51.3116  -20.4907 N   0  0  0  0  0  0  0  0  0  0  0  0
    0.6799  -51.4734  -21.7896 C   0  0  0  0  0  0  0  0  0  0  0  0
   -0.4057  -51.9678  -18.3155 C   0  0  0  0  0  0  0  0  0  0  0  0
    0.3157  -50.8984  -17.7528 C   0  0  0  0  0  0  0  0  0  0  0  0
    0.2021  -50.5172  -16.4434 C   0  0  0  0  0  0  0  0  0  0  0  0
   -0.6521  -51.1935  -15.6087 C   0  0  0  0  0  0  0  0  0  0  0  0
   -1.3747  -52.2437  -16.1191 C   0  0  0  0  0  0  0  0  0  0  0  0
   -1.2453  -52.6212  -17.4671 C   0  0  0  0  0  0  0  0  0  0  0  0
   -1.9957  -53.6633  -17.8997 F   0  0  0  0  0  0  0  0  0  0  0  0
    0.7777  -53.0031  -25.0151 C   0  0  0  0  0  0  0  0  0  0  0  0
    0.5811  -52.8328  -23.8394 C   0  0  0  0  0  0  0  0  0  0  0  0
   -0.6263  -52.8175  -29.7776 C   0  0  0  0  0  0  0  0  0  0  0  0
    0.2818  -53.1078  -28.6084 C   0  0  0  0  0  0  0  0  0  0  0  0
    0.0750  -52.9036  -27.3230 N   0  0  0  0  0  0  0  0  0  0  0  0
    0.9972  -53.2268  -26.4553 C   0  0  0  0  0  0  0  0  0  0  0  0
    2.1554  -53.7744  -26.9548 C   0  0  0  0  0  0  0  0  0  0  0  0
    1.8433  -53.7883  -28.6315 S   0  0  0  0  0  0  0  0  0  0  0  0
 16 17  1  0  0  0
 17 18  2  0  0  0
 18 19  1  0  0  0
 19 20  2  0  0  0
 20 21  1  0  0  0
 19 14  1  0  0  0
 14 15  3  0  0  0
 15  1  1  0  0  0
  1  2  2  0  0  0
  2  3  1  0  0  0
  3  4  2  0  0  0
  4  5  1  0  0  0
  5  6  2  0  0  0
  4  7  1  0  0  0
  7  8  2  0  0  0
  8  9  1  0  0  0
  9 10  2  0  0  0
 10 11  1  0  0  0
 11 12  2  0  0  0
 12 13  1  0  0  0
 21 17  1  0  0  0
  6  1  1  0  0  0
 12  7  1  0  0  0
M  END
> <minimizedAffinity>
-6.29893

> <CNNscore>
0.3818222582

> <CNNaffinity>
5.7920141220

> <CNN_VS>
2.2115199566

> <CNNaffinity_variance>
0.0842935890

$$$$
[H]c1nc(-c2c([H])c([H])c([H])c([H])c2F)c([H])c([H])c1C#Cc1nc(C([H])([H])[H])sc1[H]


 21 23  0  0  0  0  0  0  0  0999 V2000
    1.7657  -50.7464  -23.4821 C   0  0  0  0  0  0  0  0  0  0  0  0
    0.7437  -51.6196  -23.3056 C   0  0  0  0  0  0  0  0  0  0  0  0
    0.0792  -52.1016  -24.4415 C   0  0  0  0  0  0  0  0  0  0  0  0
    0.4089  -51.7368  -25.7086 C   0  0  0  0  0  0  0  0  0  0  0  0
    1.4486  -50.8534  -25.8145 N   0  0  0  0  0  0  0  0  0  0  0  0
    2.1070  -50.3709  -24.7605 C   0  0  0  0  0  0  0  0  0  0  0  0
   -0.2337  -52.1849  -26.9338 C   0  0  0  0  0  0  0  0  0  0  0  0
    0.5913  -52.6662  -27.9674 C   0  0  0  0  0  0  0  0  0  0  0  0
    0.1122  -53.1219  -29.1655 C   0  0  0  0  0  0  0  0  0  0  0  0
   -1.2396  -53.1226  -29.4028 C   0  0  0  0  0  0  0  0  0  0  0  0
   -2.0793  -52.6608  -28.4194 C   0  0  0  0  0  0  0  0  0  0  0  0
   -1.5692  -52.1964  -27.1944 C   0  0  0  0  0  0  0  0  0  0  0  0
   -2.4601  -51.7622  -26.2702 F   0  0  0  0  0  0  0  0  0  0  0  0
    3.0560  -49.8265  -21.3688 C   0  0  0  0  0  0  0  0  0  0  0  0
    2.4578  -50.2426  -22.3275 C   0  0  0  0  0  0  0  0  0  0  0  0
    3.5070  -48.7855  -16.5314 C   0  0  0  0  0  0  0  0  0  0  0  0
    3.9331  -48.8874  -17.9750 C   0  0  0  0  0  0  0  0  0  0  0  0
    3.2533  -49.3281  -19.0145 N   0  0  0  0  0  0  0  0  0  0  0  0
    3.8060  -49.3361  -20.1986 C   0  0  0  0  0  0  0  0  0  0  0  0
    5.0972  -48.8709  -20.2845 C   0  0  0  0  0  0  0  0  0  0  0  0
    5.4296  -48.4546  -18.6643 S   0  0  0  0  0  0  0  0  0  0  0  0
 16 17  1  0  0  0
 17 18  2  0  0  0
 18 19  1  0  0  0
 19 20  2  0  0  0
 20 21  1  0  0  0
 19 14  1  0  0  0
 14 15  3  0  0  0
 15  1  1  0  0  0
  1  2  2  0  0  0
  2  3  1  0  0  0
  3  4  2  0  0  0
  4  5  1  0  0  0
  5  6  2  0  0  0
  4  7  1  0  0  0
  7  8  2  0  0  0
  8  9  1  0  0  0
  9 10  2  0  0  0
 10 11  1  0  0  0
 11 12  2  0  0  0
 12 13  1  0  0  0
 21 17  1  0  0  0
  6  1  1  0  0  0
 12  7  1  0  0  0
M  END
> <minimizedAffinity>
-6.26951

> <CNNscore>
0.3297112286

> <CNNaffinity>
5.5906567574

> <CNN_VS>
1.8433022499

> <CNNaffinity_variance>
0.4487630725

$$$$
[H]c1nc(-c2c([H])c([H])c([H])c([H])c2F)c([H])c([H])c1C#Cc1nc(C([H])([H])[H])sc1[H]


 21 23  0  0  0  0  0  0  0  0999 V2000
    0.3467  -51.9568  -22.2988 C   0  0  0  0  0  0  0  0  0  0  0  0
   -0.3957  -53.0243  -22.6826 C   0  0  0  0  0  0  0  0  0  0  0  0
   -0.5777  -53.2473  -24.0542 C   0  0  0  0  0  0  0  0  0  0  0  0
   -0.0470  -52.4470  -25.0160 C   0  0  0  0  0  0  0  0  0  0  0  0
    0.6905  -51.3886  -24.5595 N   0  0  0  0  0  0  0  0  0  0  0  0
    0.8879  -51.1407  -23.2647 C   0  0  0  0  0  0  0  0  0  0  0  0
   -0.1951  -52.6063  -26.4540 C   0  0  0  0  0  0  0  0  0  0  0  0
    0.9377  -53.0033  -27.1886 C   0  0  0  0  0  0  0  0  0  0  0  0
    0.9301  -53.1939  -28.5437 C   0  0  0  0  0  0  0  0  0  0  0  0
   -0.2280  -52.9954  -29.2530 C   0  0  0  0  0  0  0  0  0  0  0  0
   -1.3562  -52.6074  -28.5732 C   0  0  0  0  0  0  0  0  0  0  0  0
   -1.3298  -52.4165  -27.1807 C   0  0  0  0  0  0  0  0  0  0  0  0
   -2.4839  -52.0396  -26.5789 F   0  0  0  0  0  0  0  0  0  0  0  0
    0.6891  -51.4999  -19.7198 C   0  0  0  0  0  0  0  0  0  0  0  0
    0.5430  -51.7140  -20.8958 C   0  0  0  0  0  0  0  0  0  0  0  0
    3.4232  -50.3538  -15.7324 C   0  0  0  0  0  0  0  0  0  0  0  0
    2.1743  -50.6892  -16.5095 C   0  0  0  0  0  0  0  0  0  0  0  0
    2.0369  -50.9424  -17.7955 N   0  0  0  0  0  0  0  0  0  0  0  0
    0.8556  -51.2150  -18.2833 C   0  0  0  0  0  0  0  0  0  0  0  0
   -0.1961  -51.2199  -17.3975 C   0  0  0  0  0  0  0  0  0  0  0  0
    0.5795  -50.8340  -15.9284 S   0  0  0  0  0  0  0  0  0  0  0  0
 16 17  1  0  0  0
 17 18  2  0  0  0
 18 19  1  0  0  0
 19 20  2  0  0  0
 20 21  1  0  0  0
 19 14  1  0  0  0
 14 15  3  0  0  0
 15  1  1  0  0  0
  1  2  2  0  0  0
  2  3  1  0  0  0
  3  4  2  0  0  0
  4  5  1  0  0  0
  5  6  2  0  0  0
  4  7  1  0  0  0
  7  8  2  0  0  0
  8  9  1  0  0  0
  9 10  2  0  0  0
 10 11  1  0  0  0
 11 12  2  0  0  0
 12 13  1  0  0  0
 21 17  1  0  0  0
  6  1  1  0  0  0
 12  7  1  0  0  0
M  END
> <minimizedAffinity>
-7.41354

> <CNNscore>
0.3240753114

> <CNNaffinity>
5.7453737259

> <CNN_VS>
1.8619338274

> <CNNaffinity_variance>
0.1685710847

$$$$
[H]c1nc(-c2c([H])c([H])c([H])c([H])c2F)c([H])c([H])c1C#Cc1nc(C([H])([H])[H])sc1[H]


 21 23  0  0  0  0  0  0  0  0999 V2000
    0.3100  -51.9470  -22.3012 C   0  0  0  0  0  0  0  0  0  0  0  0
   -0.4425  -53.0056  -22.6898 C   0  0  0  0  0  0  0  0  0  0  0  0
   -0.6021  -53.2380  -24.0626 C   0  0  0  0  0  0  0  0  0  0  0  0
   -0.0403  -52.4551  -25.0211 C   0  0  0  0  0  0  0  0  0  0  0  0
    0.7058  -51.4049  -24.5599 N   0  0  0  0  0  0  0  0  0  0  0  0
    0.8828  -51.1486  -23.2637 C   0  0  0  0  0  0  0  0  0  0  0  0
   -0.1637  -52.6249  -26.4602 C   0  0  0  0  0  0  0  0  0  0  0  0
    0.9758  -53.0483  -27.1694 C   0  0  0  0  0  0  0  0  0  0  0  0
    0.9906  -53.2510  -28.5227 C   0  0  0  0  0  0  0  0  0  0  0  0
   -0.1502  -53.0389  -29.2558 C   0  0  0  0  0  0  0  0  0  0  0  0
   -1.2841  -52.6252  -28.6012 C   0  0  0  0  0  0  0  0  0  0  0  0
   -1.2808  -52.4221  -27.2101 C   0  0  0  0  0  0  0  0  0  0  0  0
   -2.4395  -52.0197  -26.6340 F   0  0  0  0  0  0  0  0  0  0  0  0
    0.6083  -51.4801  -19.7186 C   0  0  0  0  0  0  0  0  0  0  0  0
    0.4837  -51.6948  -20.8969 C   0  0  0  0  0  0  0  0  0  0  0  0
   -1.2011  -51.1133  -15.1056 C   0  0  0  0  0  0  0  0  0  0  0  0
   -0.1620  -51.0556  -16.1979 C   0  0  0  0  0  0  0  0  0  0  0  0
   -0.2920  -51.3081  -17.4848 N   0  0  0  0  0  0  0  0  0  0  0  0
    0.7411  -51.2003  -18.2775 C   0  0  0  0  0  0  0  0  0  0  0  0
    1.9297  -50.8194  -17.7005 C   0  0  0  0  0  0  0  0  0  0  0  0
    1.4852  -50.6424  -16.0635 S   0  0  0  0  0  0  0  0  0  0  0  0
 16 17  1  0  0  0
 17 18  2  0  0  0
 18 19  1  0  0  0
 19 20  2  0  0  0
 20 21  1  0  0  0
 19 14  1  0  0  0
 14 15  3  0  0  0
 15  1  1  0  0  0
  1  2  2  0  0  0
  2  3  1  0  0  0
  3  4  2  0  0  0
  4  5  1  0  0  0
  5  6  2  0  0  0
  4  7  1  0  0  0
  7  8  2  0  0  0
  8  9  1  0  0  0
  9 10  2  0  0  0
 10 11  1  0  0  0
 11 12  2  0  0  0
 12 13  1  0  0  0
 21 17  1  0  0  0
  6  1  1  0  0  0
 12  7  1  0  0  0
M  END
> <minimizedAffinity>
-7.41236

> <CNNscore>
0.3153051436

> <CNNaffinity>
5.6727862358

> <CNN_VS>
1.7886587381

> <CNNaffinity_variance>
0.1711530387

$$$$
[H]c1nc(-c2c([H])c([H])c([H])c([H])c2F)c([H])c([H])c1C#Cc1nc(C([H])([H])[H])sc1[H]


 21 23  0  0  0  0  0  0  0  0999 V2000
    0.0977  -51.8483  -21.5416 C   0  0  0  0  0  0  0  0  0  0  0  0
    0.4482  -50.6183  -21.0917 C   0  0  0  0  0  0  0  0  0  0  0  0
    0.5287  -50.4164  -19.7072 C   0  0  0  0  0  0  0  0  0  0  0  0
    0.2729  -51.3917  -18.7958 C   0  0  0  0  0  0  0  0  0  0  0  0
   -0.0751  -52.6078  -19.3178 N   0  0  0  0  0  0  0  0  0  0  0  0
   -0.1633  -52.8420  -20.6272 C   0  0  0  0  0  0  0  0  0  0  0  0
    0.3274  -51.2604  -17.3484 C   0  0  0  0  0  0  0  0  0  0  0  0
    1.5102  -50.7501  -16.7817 C   0  0  0  0  0  0  0  0  0  0  0  0
    1.6870  -50.5720  -15.4363 C   0  0  0  0  0  0  0  0  0  0  0  0
    0.6762  -50.8988  -14.5673 C   0  0  0  0  0  0  0  0  0  0  0  0
   -0.4947  -51.4001  -15.0804 C   0  0  0  0  0  0  0  0  0  0  0  0
   -0.6586  -51.5762  -16.4655 C   0  0  0  0  0  0  0  0  0  0  0  0
   -1.8444  -52.0698  -16.8973 F   0  0  0  0  0  0  0  0  0  0  0  0
   -0.0812  -52.2686  -24.1432 C   0  0  0  0  0  0  0  0  0  0  0  0
    0.0107  -52.0721  -22.9588 C   0  0  0  0  0  0  0  0  0  0  0  0
    1.6731  -53.8530  -28.5136 C   0  0  0  0  0  0  0  0  0  0  0  0
    0.6682  -53.2745  -27.5485 C   0  0  0  0  0  0  0  0  0  0  0  0
    0.7917  -53.0438  -26.2568 N   0  0  0  0  0  0  0  0  0  0  0  0
   -0.2071  -52.5311  -25.5881 C   0  0  0  0  0  0  0  0  0  0  0  0
   -1.3537  -52.2582  -26.2963 C   0  0  0  0  0  0  0  0  0  0  0  0
   -0.9219  -52.7545  -27.8698 S   0  0  0  0  0  0  0  0  0  0  0  0
 16 17  1  0  0  0
 17 18  2  0  0  0
 18 19  1  0  0  0
 19 20  2  0  0  0
 20 21  1  0  0  0
 19 14  1  0  0  0
 14 15  3  0  0  0
 15  1  1  0  0  0
  1  2  2  0  0  0
  2  3  1  0  0  0
  3  4  2  0  0  0
  4  5  1  0  0  0
  5  6  2  0  0  0
  4  7  1  0  0  0
  7  8  2  0  0  0
  8  9  1  0  0  0
  9 10  2  0  0  0
 10 11  1  0  0  0
 11 12  2  0  0  0
 12 13  1  0  0  0
 21 17  1  0  0  0
  6  1  1  0  0  0
 12  7  1  0  0  0
M  END
> <minimizedAffinity>
-6.54186

> <CNNscore>
0.3055291474

> <CNNaffinity>
5.6921734810

> <CNN_VS>
1.7391248941

> <CNNaffinity_variance>
0.2210399359

$$$$
[H]c1nc(-c2c([H])c([H])c([H])c([H])c2F)c([H])c([H])c1C#Cc1nc(C([H])([H])[H])sc1[H]


 21 23  0  0  0  0  0  0  0  0999 V2000
   -0.0612  -52.0936  -21.4484 C   0  0  0  0  0  0  0  0  0  0  0  0
    0.3874  -50.8691  -21.0776 C   0  0  0  0  0  0  0  0  0  0  0  0
    0.4719  -50.5797  -19.7090 C   0  0  0  0  0  0  0  0  0  0  0  0
    0.1266  -51.4654  -18.7375 C   0  0  0  0  0  0  0  0  0  0  0  0
   -0.3177  -52.6813  -19.1810 N   0  0  0  0  0  0  0  0  0  0  0  0
   -0.4132  -52.9968  -20.4727 C   0  0  0  0  0  0  0  0  0  0  0  0
    0.1787  -51.2398  -17.3017 C   0  0  0  0  0  0  0  0  0  0  0  0
   -1.0022  -51.4442  -16.5638 C   0  0  0  0  0  0  0  0  0  0  0  0
   -1.0849  -51.2722  -15.2087 C   0  0  0  0  0  0  0  0  0  0  0  0
    0.0249  -50.8802  -14.5028 C   0  0  0  0  0  0  0  0  0  0  0  0
    1.1975  -50.6702  -15.1858 C   0  0  0  0  0  0  0  0  0  0  0  0
    1.2639  -50.8518  -16.5783 C   0  0  0  0  0  0  0  0  0  0  0  0
    2.4571  -50.6318  -17.1816 F   0  0  0  0  0  0  0  0  0  0  0  0
   -0.2103  -52.6714  -24.0215 C   0  0  0  0  0  0  0  0  0  0  0  0
   -0.1537  -52.4063  -22.8482 C   0  0  0  0  0  0  0  0  0  0  0  0
   -2.3586  -52.5612  -28.5004 C   0  0  0  0  0  0  0  0  0  0  0  0
   -1.3026  -52.8922  -27.4750 C   0  0  0  0  0  0  0  0  0  0  0  0
   -1.2723  -52.6060  -26.1889 N   0  0  0  0  0  0  0  0  0  0  0  0
   -0.2557  -52.9856  -25.4608 C   0  0  0  0  0  0  0  0  0  0  0  0
    0.7438  -53.6783  -26.1026 C   0  0  0  0  0  0  0  0  0  0  0  0
    0.1584  -53.7379  -27.7034 S   0  0  0  0  0  0  0  0  0  0  0  0
 16 17  1  0  0  0
 17 18  2  0  0  0
 18 19  1  0  0  0
 19 20  2  0  0  0
 20 21  1  0  0  0
 19 14  1  0  0  0
 14 15  3  0  0  0
 15  1  1  0  0  0
  1  2  2  0  0  0
  2  3  1  0  0  0
  3  4  2  0  0  0
  4  5  1  0  0  0
  5  6  2  0  0  0
  4  7  1  0  0  0
  7  8  2  0  0  0
  8  9  1  0  0  0
  9 10  2  0  0  0
 10 11  1  0  0  0
 11 12  2  0  0  0
 12 13  1  0  0  0
 21 17  1  0  0  0
  6  1  1  0  0  0
 12  7  1  0  0  0
M  END
> <minimizedAffinity>
-6.98519

> <CNNscore>
0.2799064219

> <CNNaffinity>
5.5849924088

> <CNN_VS>
1.5632752180

> <CNNaffinity_variance>
0.2010294199

$$$$
[H]c1nc(-c2c([H])c([H])c([H])c([H])c2F)c([H])c([H])c1C#Cc1nc(C([H])([H])[H])sc1[H]


 21 23  0  0  0  0  0  0  0  0999 V2000
    2.0565  -50.4282  -20.5701 C   0  0  0  0  0  0  0  0  0  0  0  0
    2.0221  -51.2365  -21.6581 C   0  0  0  0  0  0  0  0  0  0  0  0
    2.8672  -50.9359  -22.7349 C   0  0  0  0  0  0  0  0  0  0  0  0
    3.7176  -49.8757  -22.7413 C   0  0  0  0  0  0  0  0  0  0  0  0
    3.7015  -49.1020  -21.6128 N   0  0  0  0  0  0  0  0  0  0  0  0
    2.9137  -49.3526  -20.5670 C   0  0  0  0  0  0  0  0  0  0  0  0
    4.6176  -49.4939  -23.8180 C   0  0  0  0  0  0  0  0  0  0  0  0
    5.9354  -49.9860  -23.7751 C   0  0  0  0  0  0  0  0  0  0  0  0
    6.8771  -49.7065  -24.7279 C   0  0  0  0  0  0  0  0  0  0  0  0
    6.5505  -48.9068  -25.7944 C   0  0  0  0  0  0  0  0  0  0  0  0
    5.2744  -48.4062  -25.8735 C   0  0  0  0  0  0  0  0  0  0  0  0
    4.3198  -48.7041  -24.8853 C   0  0  0  0  0  0  0  0  0  0  0  0
    3.0797  -48.1788  -25.0350 F   0  0  0  0  0  0  0  0  0  0  0  0
    0.4613  -50.9781  -18.5379 C   0  0  0  0  0  0  0  0  0  0  0  0
    1.1961  -50.7226  -19.4571 C   0  0  0  0  0  0  0  0  0  0  0  0
   -1.9141  -49.8451  -14.3234 C   0  0  0  0  0  0  0  0  0  0  0  0
   -1.5073  -50.6936  -15.5026 C   0  0  0  0  0  0  0  0  0  0  0  0
   -0.6827  -50.4065  -16.4899 N   0  0  0  0  0  0  0  0  0  0  0  0
   -0.4587  -51.2875  -17.4286 C   0  0  0  0  0  0  0  0  0  0  0  0
   -1.1165  -52.4902  -17.3216 C   0  0  0  0  0  0  0  0  0  0  0  0
   -2.0097  -52.2759  -15.8846 S   0  0  0  0  0  0  0  0  0  0  0  0
 16 17  1  0  0  0
 17 18  2  0  0  0
 18 19  1  0  0  0
 19 20  2  0  0  0
 20 21  1  0  0  0
 19 14  1  0  0  0
 14 15  3  0  0  0
 15  1  1  0  0  0
  1  2  2  0  0  0
  2  3  1  0  0  0
  3  4  2  0  0  0
  4  5  1  0  0  0
  5  6  2  0  0  0
  4  7  1  0  0  0
  7  8  2  0  0  0
  8  9  1  0  0  0
  9 10  2  0  0  0
 10 11  1  0  0  0
 11 12  2  0  0  0
 12 13  1  0  0  0
 21 17  1  0  0  0
  6  1  1  0  0  0
 12  7  1  0  0  0
M  END
> <minimizedAffinity>
-3.99985

> <CNNscore>
0.2767075002

> <CNNaffinity>
5.1131238937

> <CNN_VS>
1.4148397446

> <CNNaffinity_variance>
0.7347130179

$$$$
[H]c1c([H])c([H])c(C([H])([H])[C@@]([H])(C(=O)N([H])[H])N([H])C(=O)[C@@]([H])(N([H])C(=O)[C@@]([H])(N([H])C(=O)C([H])([H])N([H])C(=O)[C@@]2([H])N(C(=O)[C@@]([H])(N([H])[H])C([H])([H])c3c([H])n([H])c4c([H])c([H])c([H])c([H])c34)C([H])([H])C([H])([H])C2([H])[H])C([H])([H])c2c([H])n([H])c3c([H])c([H])c([H])c([H])c23)C([H])([H])C([H])(C([H])([H])[H])C([H])([H])[H])c([H])c1[H]


 69 74  0  0  0  0  0  0  0  0999 V2000
    2.8660  -51.3324  -25.2719 C   0  0  0  0  0  0  0  0  0  0  0  0
    4.3191  -51.4470  -25.3173 N   0  0  0  0  0  0  0  0  0  0  0  0
    5.0366  -51.8948  -24.2107 C   0  0  0  0  0  0  0  0  0  0  0  0
    4.3553  -52.1961  -23.1649 O   0  0  0  0  0  0  0  0  0  0  0  0
    4.8347  -51.1895  -26.1969 H   0  0  0  0  0  0  0  0  0  0  0  0
    6.4877  -52.0454  -24.1582 C   0  0  0  0  0  0  0  0  0  0  0  0
    7.1582  -51.1207  -23.3355 N   0  0  0  0  0  0  0  0  0  0  0  0
    7.6135  -49.8884  -23.9441 C   0  0  0  0  0  0  0  0  0  0  0  0
    7.3811  -49.7068  -25.1436 O   0  0  0  0  0  0  0  0  0  0  0  0
    7.3489  -51.2498  -22.3435 H   0  0  0  0  0  0  0  0  0  0  0  0
    8.3512  -48.8747  -23.1025 C   0  0  0  0  0  0  0  0  0  0  0  0
    8.4437  -49.4147  -21.7087 C   0  0  0  0  0  0  0  0  0  0  0  0
    7.7022  -48.4206  -20.8649 C   0  0  0  0  0  0  0  0  0  0  0  0
    6.8966  -47.5941  -21.8155 C   0  0  0  0  0  0  0  0  0  0  0  0
    7.7130  -47.6190  -23.0471 N   0  0  0  0  0  0  0  0  0  0  0  0
    7.7240  -46.5417  -23.9362 C   0  0  0  0  0  0  0  0  0  0  0  0
    7.0562  -45.5014  -23.5218 O   0  0  0  0  0  0  0  0  0  0  0  0
    8.3348  -46.3617  -25.2356 C   0  0  0  0  0  0  0  0  0  0  0  0
    9.6683  -46.9791  -25.3020 N   0  0  0  0  0  0  0  0  0  0  0  0
    9.5496  -47.9099  -25.8081 H   0  0  0  0  0  0  0  0  0  0  0  0
   10.2837  -46.4117  -25.9343 H   0  0  0  0  0  0  0  0  0  0  0  0
    7.5638  -46.8078  -26.4348 C   0  0  0  0  0  0  0  0  0  0  0  0
    6.4607  -45.9771  -26.9196 C   0  0  0  0  0  0  0  0  0  0  0  0
    6.5556  -44.6833  -27.4625 C   0  0  0  0  0  0  0  0  0  0  0  0
    5.3274  -44.2280  -27.7760 N   0  0  0  0  0  0  0  0  0  0  0  0
    4.4230  -45.1690  -27.4620 C   0  0  0  0  0  0  0  0  0  0  0  0
    3.0355  -45.2182  -27.5980 C   0  0  0  0  0  0  0  0  0  0  0  0
    2.3217  -46.3253  -27.2193 C   0  0  0  0  0  0  0  0  0  0  0  0
    2.9723  -47.4133  -26.6945 C   0  0  0  0  0  0  0  0  0  0  0  0
    4.3321  -47.3563  -26.5632 C   0  0  0  0  0  0  0  0  0  0  0  0
    5.0911  -46.2652  -26.9296 C   0  0  0  0  0  0  0  0  0  0  0  0
    5.1627  -43.2887  -28.1928 H   0  0  0  0  0  0  0  0  0  0  0  0
    3.3137  -49.4105  -23.6749 N   0  0  0  0  0  0  0  0  0  0  0  0
    2.4506  -50.3637  -24.2276 C   0  0  0  0  0  0  0  0  0  0  0  0
    1.2587  -50.4303  -23.8474 O   0  0  0  0  0  0  0  0  0  0  0  0
    4.3115  -49.4280  -24.0562 H   0  0  0  0  0  0  0  0  0  0  0  0
    2.9805  -48.4559  -22.6744 C   0  0  0  0  0  0  0  0  0  0  0  0
    2.3231  -49.1086  -21.5430 C   0  0  0  0  0  0  0  0  0  0  0  0
    1.3682  -48.4542  -20.9846 O   0  0  0  0  0  0  0  0  0  0  0  0
    2.6506  -50.3791  -21.0264 N   0  0  0  0  0  0  0  0  0  0  0  0
    3.4173  -50.9704  -21.3976 H   0  0  0  0  0  0  0  0  0  0  0  0
    1.8874  -50.9126  -19.9038 C   0  0  0  0  0  0  0  0  0  0  0  0
    2.6521  -50.5174  -18.6529 C   0  0  0  0  0  0  0  0  0  0  0  0
    2.3446  -49.3236  -17.9739 N   0  0  0  0  0  0  0  0  0  0  0  0
    3.5722  -51.2453  -18.2008 O   0  0  0  0  0  0  0  0  0  0  0  0
    1.3662  -49.1023  -17.7266 H   0  0  0  0  0  0  0  0  0  0  0  0
    3.0950  -48.6635  -17.7207 H   0  0  0  0  0  0  0  0  0  0  0  0
    1.8216  -52.4170  -19.9174 C   0  0  0  0  0  0  0  0  0  0  0  0
    0.6368  -52.9703  -20.5926 C   0  0  0  0  0  0  0  0  0  0  0  0
    0.6464  -53.2239  -21.9351 C   0  0  0  0  0  0  0  0  0  0  0  0
   -0.4772  -53.7401  -22.5475 C   0  0  0  0  0  0  0  0  0  0  0  0
   -1.6037  -53.9950  -21.7993 C   0  0  0  0  0  0  0  0  0  0  0  0
   -1.6435  -53.7489  -20.4428 C   0  0  0  0  0  0  0  0  0  0  0  0
   -0.4936  -53.2288  -19.8483 C   0  0  0  0  0  0  0  0  0  0  0  0
    2.4710  -47.1256  -23.0688 C   0  0  0  0  0  0  0  0  0  0  0  0
    3.8864  -45.4086  -21.7959 C   0  0  0  0  0  0  0  0  0  0  0  0
    3.4018  -45.9811  -23.0810 C   0  0  0  0  0  0  0  0  0  0  0  0
    2.8935  -44.8190  -23.9342 C   0  0  0  0  0  0  0  0  0  0  0  0
    2.1577  -52.6133  -25.3182 C   0  0  0  0  0  0  0  0  0  0  0  0
    1.4795  -52.7511  -26.6461 C   0  0  0  0  0  0  0  0  0  0  0  0
    2.1035  -53.0840  -27.8510 C   0  0  0  0  0  0  0  0  0  0  0  0
    1.1546  -53.1151  -28.8047 N   0  0  0  0  0  0  0  0  0  0  0  0
   -0.0604  -52.8235  -28.3120 C   0  0  0  0  0  0  0  0  0  0  0  0
   -1.2885  -52.7420  -28.9162 C   0  0  0  0  0  0  0  0  0  0  0  0
   -2.3630  -52.4132  -28.1090 C   0  0  0  0  0  0  0  0  0  0  0  0
   -2.1872  -52.1831  -26.7684 C   0  0  0  0  0  0  0  0  0  0  0  0
   -0.9525  -52.2677  -26.1717 C   0  0  0  0  0  0  0  0  0  0  0  0
    0.1419  -52.5939  -26.9481 C   0  0  0  0  0  0  0  0  0  0  0  0
    1.3071  -53.3411  -29.8323 H   0  0  0  0  0  0  0  0  0  0  0  0
 56 57  1  0  0  0
 57 58  1  0  0  0
 57 55  1  0  0  0
 55 37  1  0  0  0
 37 33  1  0  0  0
 33 34  1  0  0  0
 34 35  2  0  0  0
 34  1  1  0  0  0
  1 59  1  0  0  0
 59 60  1  0  0  0
 60 61  2  0  0  0
 61 62  1  0  0  0
 62 63  1  0  0  0
 63 64  2  0  0  0
 64 65  1  0  0  0
 65 66  2  0  0  0
 66 67  1  0  0  0
 67 68  2  0  0  0
  1  2  1  0  0  0
  2  3  1  0  0  0
  3  4  2  0  0  0
  3  6  1  0  0  0
  6  7  1  0  0  0
  7  8  1  0  0  0
  8  9  2  0  0  0
  8 11  1  0  0  0
 11 12  1  0  0  0
 12 13  1  0  0  0
 13 14  1  0  0  0
 14 15  1  0  0  0
 15 16  1  0  0  0
 16 17  2  0  0  0
 16 18  1  0  0  0
 18 19  1  0  0  0
 18 22  1  0  0  0
 22 23  1  0  0  0
 23 24  2  0  0  0
 24 25  1  0  0  0
 25 26  1  0  0  0
 26 27  2  0  0  0
 27 28  1  0  0  0
 28 29  2  0  0  0
 29 30  1  0  0  0
 30 31  2  0  0  0
 37 38  1  0  0  0
 38 39  2  0  0  0
 38 40  1  0  0  0
 40 42  1  0  0  0
 42 48  1  0  0  0
 48 49  1  0  0  0
 49 50  2  0  0  0
 50 51  1  0  0  0
 51 52  2  0  0  0
 52 53  1  0  0  0
 53 54  2  0  0  0
 42 43  1  0  0  0
 43 44  1  0  0  0
 43 45  2  0  0  0
 68 60  1  0  0  0
 15 11  1  0  0  0
 31 23  1  0  0  0
 54 49  1  0  0  0
 68 63  1  0  0  0
 31 26  1  0  0  0
 33 36  1  0  0  0
 62 69  1  0  0  0
  2  5  1  0  0  0
  7 10  1  0  0  0
 19 20  1  0  0  0
 19 21  1  0  0  0
 25 32  1  0  0  0
 40 41  1  0  0  0
 44 46  1  0  0  0
 44 47  1  0  0  0
M  END
> <minimizedAffinity>
-8.48318

> <CNNscore>
0.3226541281

> <CNNaffinity>
7.9753084183

> <CNN_VS>
2.5732662678

> <CNNaffinity_variance>
0.9970567822

$$$$
[H]c1c([H])c([H])c(C([H])([H])[C@@]([H])(C(=O)N([H])[H])N([H])C(=O)[C@@]([H])(N([H])C(=O)[C@@]([H])(N([H])C(=O)C([H])([H])N([H])C(=O)[C@@]2([H])N(C(=O)[C@@]([H])(N([H])[H])C([H])([H])c3c([H])n([H])c4c([H])c([H])c([H])c([H])c34)C([H])([H])C([H])([H])C2([H])[H])C([H])([H])c2c([H])n([H])c3c([H])c([H])c([H])c([H])c23)C([H])([H])C([H])(C([H])([H])[H])C([H])([H])[H])c([H])c1[H]


 69 74  0  0  0  0  0  0  0  0999 V2000
    3.2033  -51.0843  -24.5111 C   0  0  0  0  0  0  0  0  0  0  0  0
    4.3566  -50.5418  -25.2198 N   0  0  0  0  0  0  0  0  0  0  0  0
    4.2957  -49.2944  -25.8364 C   0  0  0  0  0  0  0  0  0  0  0  0
    3.1831  -48.6599  -25.7461 O   0  0  0  0  0  0  0  0  0  0  0  0
    5.2479  -51.0977  -25.2665 H   0  0  0  0  0  0  0  0  0  0  0  0
    5.3932  -48.6661  -26.5657 C   0  0  0  0  0  0  0  0  0  0  0  0
    5.1851  -48.5131  -27.9495 N   0  0  0  0  0  0  0  0  0  0  0  0
    6.2350  -47.8800  -28.7197 C   0  0  0  0  0  0  0  0  0  0  0  0
    7.2584  -47.5198  -28.1295 O   0  0  0  0  0  0  0  0  0  0  0  0
    4.3525  -48.8133  -28.4534 H   0  0  0  0  0  0  0  0  0  0  0  0
    6.0474  -47.6812  -30.2048 C   0  0  0  0  0  0  0  0  0  0  0  0
    5.6888  -49.0060  -30.8041 C   0  0  0  0  0  0  0  0  0  0  0  0
    6.7968  -49.2991  -31.7717 C   0  0  0  0  0  0  0  0  0  0  0  0
    7.9122  -48.3698  -31.4134 C   0  0  0  0  0  0  0  0  0  0  0  0
    7.2004  -47.2000  -30.8575 N   0  0  0  0  0  0  0  0  0  0  0  0
    7.7124  -45.9068  -30.9859 C   0  0  0  0  0  0  0  0  0  0  0  0
    8.7843  -45.8283  -31.7240 O   0  0  0  0  0  0  0  0  0  0  0  0
    7.2797  -44.6339  -30.4508 C   0  0  0  0  0  0  0  0  0  0  0  0
    8.3975  -43.6858  -30.3263 N   0  0  0  0  0  0  0  0  0  0  0  0
    8.3348  -43.0275  -31.1626 H   0  0  0  0  0  0  0  0  0  0  0  0
    8.2398  -43.0689  -29.4927 H   0  0  0  0  0  0  0  0  0  0  0  0
    6.1593  -43.9315  -31.1457 C   0  0  0  0  0  0  0  0  0  0  0  0
    5.4596  -44.6141  -32.2349 C   0  0  0  0  0  0  0  0  0  0  0  0
    5.8555  -44.6754  -33.5829 C   0  0  0  0  0  0  0  0  0  0  0  0
    4.9489  -45.3728  -34.2942 N   0  0  0  0  0  0  0  0  0  0  0  0
    3.9683  -45.7755  -33.4705 C   0  0  0  0  0  0  0  0  0  0  0  0
    2.8168  -46.5334  -33.6841 C   0  0  0  0  0  0  0  0  0  0  0  0
    1.9654  -46.8405  -32.6548 C   0  0  0  0  0  0  0  0  0  0  0  0
    2.2393  -46.3999  -31.3846 C   0  0  0  0  0  0  0  0  0  0  0  0
    3.3692  -45.6564  -31.1842 C   0  0  0  0  0  0  0  0  0  0  0  0
    4.2536  -45.3227  -32.1879 C   0  0  0  0  0  0  0  0  0  0  0  0
    5.0427  -45.5424  -35.3167 H   0  0  0  0  0  0  0  0  0  0  0  0
    3.3213  -49.2910  -22.7181 N   0  0  0  0  0  0  0  0  0  0  0  0
    3.1984  -50.6326  -23.0978 C   0  0  0  0  0  0  0  0  0  0  0  0
    3.0734  -51.5250  -22.2273 O   0  0  0  0  0  0  0  0  0  0  0  0
    3.4260  -48.5997  -23.5258 H   0  0  0  0  0  0  0  0  0  0  0  0
    3.3239  -48.7922  -21.3861 C   0  0  0  0  0  0  0  0  0  0  0  0
    2.0753  -49.1374  -20.7078 C   0  0  0  0  0  0  0  0  0  0  0  0
    1.0121  -48.5627  -21.1450 O   0  0  0  0  0  0  0  0  0  0  0  0
    1.9502  -50.0373  -19.6293 N   0  0  0  0  0  0  0  0  0  0  0  0
    2.7527  -50.5316  -19.1970 H   0  0  0  0  0  0  0  0  0  0  0  0
    0.6300  -50.3012  -19.0682 C   0  0  0  0  0  0  0  0  0  0  0  0
    0.6445  -49.7102  -17.6695 C   0  0  0  0  0  0  0  0  0  0  0  0
    1.5102  -48.6473  -17.3512 N   0  0  0  0  0  0  0  0  0  0  0  0
   -0.1130  -50.1573  -16.7710 O   0  0  0  0  0  0  0  0  0  0  0  0
    1.5524  -47.8109  -17.9562 H   0  0  0  0  0  0  0  0  0  0  0  0
    2.1073  -48.6988  -16.5124 H   0  0  0  0  0  0  0  0  0  0  0  0
    0.3545  -51.7738  -18.9164 C   0  0  0  0  0  0  0  0  0  0  0  0
    0.0172  -52.4645  -20.1713 C   0  0  0  0  0  0  0  0  0  0  0  0
   -0.3394  -51.7616  -21.2874 C   0  0  0  0  0  0  0  0  0  0  0  0
   -0.6545  -52.4307  -22.4523 C   0  0  0  0  0  0  0  0  0  0  0  0
   -0.6086  -53.8057  -22.4813 C   0  0  0  0  0  0  0  0  0  0  0  0
   -0.2527  -54.5422  -21.3708 C   0  0  0  0  0  0  0  0  0  0  0  0
    0.0627  -53.8413  -20.2066 C   0  0  0  0  0  0  0  0  0  0  0  0
    3.8938  -47.4583  -21.1022 C   0  0  0  0  0  0  0  0  0  0  0  0
    2.7382  -46.2473  -23.0440 C   0  0  0  0  0  0  0  0  0  0  0  0
    3.9344  -46.4559  -22.1840 C   0  0  0  0  0  0  0  0  0  0  0  0
    5.1355  -46.6404  -23.1115 C   0  0  0  0  0  0  0  0  0  0  0  0
    2.9546  -52.5056  -24.7615 C   0  0  0  0  0  0  0  0  0  0  0  0
    2.3921  -52.6698  -26.1396 C   0  0  0  0  0  0  0  0  0  0  0  0
    3.1263  -52.9622  -27.2917 C   0  0  0  0  0  0  0  0  0  0  0  0
    2.2591  -53.0363  -28.3180 N   0  0  0  0  0  0  0  0  0  0  0  0
    0.9952  -52.8111  -27.9229 C   0  0  0  0  0  0  0  0  0  0  0  0
   -0.1836  -52.7894  -28.6228 C   0  0  0  0  0  0  0  0  0  0  0  0
   -1.3345  -52.5218  -27.9030 C   0  0  0  0  0  0  0  0  0  0  0  0
   -1.2779  -52.2917  -26.5521 C   0  0  0  0  0  0  0  0  0  0  0  0
   -0.0918  -52.3160  -25.8592 C   0  0  0  0  0  0  0  0  0  0  0  0
    1.0763  -52.5802  -26.5467 C   0  0  0  0  0  0  0  0  0  0  0  0
    2.5042  -53.2474  -29.3307 H   0  0  0  0  0  0  0  0  0  0  0  0
 56 57  1  0  0  0
 57 58  1  0  0  0
 57 55  1  0  0  0
 55 37  1  0  0  0
 37 33  1  0  0  0
 33 34  1  0  0  0
 34 35  2  0  0  0
 34  1  1  0  0  0
  1 59  1  0  0  0
 59 60  1  0  0  0
 60 61  2  0  0  0
 61 62  1  0  0  0
 62 63  1  0  0  0
 63 64  2  0  0  0
 64 65  1  0  0  0
 65 66  2  0  0  0
 66 67  1  0  0  0
 67 68  2  0  0  0
  1  2  1  0  0  0
  2  3  1  0  0  0
  3  4  2  0  0  0
  3  6  1  0  0  0
  6  7  1  0  0  0
  7  8  1  0  0  0
  8  9  2  0  0  0
  8 11  1  0  0  0
 11 12  1  0  0  0
 12 13  1  0  0  0
 13 14  1  0  0  0
 14 15  1  0  0  0
 15 16  1  0  0  0
 16 17  2  0  0  0
 16 18  1  0  0  0
 18 19  1  0  0  0
 18 22  1  0  0  0
 22 23  1  0  0  0
 23 24  2  0  0  0
 24 25  1  0  0  0
 25 26  1  0  0  0
 26 27  2  0  0  0
 27 28  1  0  0  0
 28 29  2  0  0  0
 29 30  1  0  0  0
 30 31  2  0  0  0
 37 38  1  0  0  0
 38 39  2  0  0  0
 38 40  1  0  0  0
 40 42  1  0  0  0
 42 48  1  0  0  0
 48 49  1  0  0  0
 49 50  2  0  0  0
 50 51  1  0  0  0
 51 52  2  0  0  0
 52 53  1  0  0  0
 53 54  2  0  0  0
 42 43  1  0  0  0
 43 44  1  0  0  0
 43 45  2  0  0  0
 68 60  1  0  0  0
 15 11  1  0  0  0
 31 23  1  0  0  0
 54 49  1  0  0  0
 68 63  1  0  0  0
 31 26  1  0  0  0
 33 36  1  0  0  0
 62 69  1  0  0  0
  2  5  1  0  0  0
  7 10  1  0  0  0
 19 20  1  0  0  0
 19 21  1  0  0  0
 25 32  1  0  0  0
 40 41  1  0  0  0
 44 46  1  0  0  0
 44 47  1  0  0  0
M  END
> <minimizedAffinity>
-9.10203

> <CNNscore>
0.3010680676

> <CNNaffinity>
7.5175962448

> <CNN_VS>
2.2633082867

> <CNNaffinity_variance>
1.0490564108

$$$$
[H]c1c([H])c([H])c(C([H])([H])[C@@]([H])(C(=O)N([H])[H])N([H])C(=O)[C@@]([H])(N([H])C(=O)[C@@]([H])(N([H])C(=O)C([H])([H])N([H])C(=O)[C@@]2([H])N(C(=O)[C@@]([H])(N([H])[H])C([H])([H])c3c([H])n([H])c4c([H])c([H])c([H])c([H])c34)C([H])([H])C([H])([H])C2([H])[H])C([H])([H])c2c([H])n([H])c3c([H])c([H])c([H])c([H])c23)C([H])([H])C([H])(C([H])([H])[H])C([H])([H])[H])c([H])c1[H]


 69 74  0  0  0  0  0  0  0  0999 V2000
    3.7219  -51.1486  -25.0411 C   0  0  0  0  0  0  0  0  0  0  0  0
    4.2518  -50.7184  -23.7524 N   0  0  0  0  0  0  0  0  0  0  0  0
    5.6250  -50.6291  -23.5371 C   0  0  0  0  0  0  0  0  0  0  0  0
    6.3851  -50.9424  -24.5234 O   0  0  0  0  0  0  0  0  0  0  0  0
    3.5901  -50.4708  -22.9736 H   0  0  0  0  0  0  0  0  0  0  0  0
    6.2512  -50.2082  -22.2874 C   0  0  0  0  0  0  0  0  0  0  0  0
    5.6375  -49.1156  -21.6463 N   0  0  0  0  0  0  0  0  0  0  0  0
    4.6782  -49.4037  -20.6008 C   0  0  0  0  0  0  0  0  0  0  0  0
    4.4577  -50.5857  -20.3179 O   0  0  0  0  0  0  0  0  0  0  0  0
    5.8151  -48.1357  -21.8598 H   0  0  0  0  0  0  0  0  0  0  0  0
    3.9840  -48.2624  -19.8970 C   0  0  0  0  0  0  0  0  0  0  0  0
    5.0317  -47.4381  -19.2143 C   0  0  0  0  0  0  0  0  0  0  0  0
    4.6901  -47.5193  -17.7560 C   0  0  0  0  0  0  0  0  0  0  0  0
    3.7424  -48.6678  -17.6189 C   0  0  0  0  0  0  0  0  0  0  0  0
    3.0530  -48.6837  -18.9260 N   0  0  0  0  0  0  0  0  0  0  0  0
    1.7276  -49.1078  -19.0457 C   0  0  0  0  0  0  0  0  0  0  0  0
    1.1452  -49.3656  -17.9080 O   0  0  0  0  0  0  0  0  0  0  0  0
    0.8762  -49.3193  -20.1966 C   0  0  0  0  0  0  0  0  0  0  0  0
    0.8931  -48.1644  -21.1075 N   0  0  0  0  0  0  0  0  0  0  0  0
    1.5491  -48.4168  -21.9092 H   0  0  0  0  0  0  0  0  0  0  0  0
   -0.0484  -48.0632  -21.5591 H   0  0  0  0  0  0  0  0  0  0  0  0
    1.1029  -50.5495  -21.0132 C   0  0  0  0  0  0  0  0  0  0  0  0
    0.3308  -51.7554  -20.7104 C   0  0  0  0  0  0  0  0  0  0  0  0
   -0.0941  -52.1874  -19.4414 C   0  0  0  0  0  0  0  0  0  0  0  0
   -0.7609  -53.3522  -19.5547 N   0  0  0  0  0  0  0  0  0  0  0  0
   -0.7940  -53.7087  -20.8485 C   0  0  0  0  0  0  0  0  0  0  0  0
   -1.3664  -54.7975  -21.5065 C   0  0  0  0  0  0  0  0  0  0  0  0
   -1.2852  -54.9294  -22.8684 C   0  0  0  0  0  0  0  0  0  0  0  0
   -0.6310  -53.9791  -23.6108 C   0  0  0  0  0  0  0  0  0  0  0  0
   -0.0715  -52.9159  -22.9580 C   0  0  0  0  0  0  0  0  0  0  0  0
   -0.1273  -52.7417  -21.5915 C   0  0  0  0  0  0  0  0  0  0  0  0
   -1.1652  -53.8533  -18.7371 H   0  0  0  0  0  0  0  0  0  0  0  0
    4.4536  -49.5688  -26.8887 N   0  0  0  0  0  0  0  0  0  0  0  0
    3.5153  -49.9836  -25.9365 C   0  0  0  0  0  0  0  0  0  0  0  0
    2.4333  -49.3654  -25.8070 O   0  0  0  0  0  0  0  0  0  0  0  0
    5.3477  -50.1522  -26.9274 H   0  0  0  0  0  0  0  0  0  0  0  0
    4.3183  -48.4648  -27.7753 C   0  0  0  0  0  0  0  0  0  0  0  0
    5.1953  -48.6284  -28.9339 C   0  0  0  0  0  0  0  0  0  0  0  0
    4.7416  -49.3531  -29.8935 O   0  0  0  0  0  0  0  0  0  0  0  0
    6.4785  -48.0616  -29.0769 N   0  0  0  0  0  0  0  0  0  0  0  0
    6.9350  -47.4809  -28.3490 H   0  0  0  0  0  0  0  0  0  0  0  0
    7.2297  -48.2942  -30.3054 C   0  0  0  0  0  0  0  0  0  0  0  0
    8.6906  -48.3585  -29.8963 C   0  0  0  0  0  0  0  0  0  0  0  0
    9.2652  -49.5757  -29.4852 N   0  0  0  0  0  0  0  0  0  0  0  0
    9.4132  -47.3298  -29.9159 O   0  0  0  0  0  0  0  0  0  0  0  0
    9.1477  -50.4271  -30.0586 H   0  0  0  0  0  0  0  0  0  0  0  0
    9.8058  -49.6235  -28.6087 H   0  0  0  0  0  0  0  0  0  0  0  0
    7.1002  -47.1551  -31.2819 C   0  0  0  0  0  0  0  0  0  0  0  0
    6.0849  -47.3595  -32.3274 C   0  0  0  0  0  0  0  0  0  0  0  0
    4.9410  -46.6126  -32.3529 C   0  0  0  0  0  0  0  0  0  0  0  0
    4.0014  -46.8237  -33.3411 C   0  0  0  0  0  0  0  0  0  0  0  0
    4.2232  -47.7895  -34.2960 C   0  0  0  0  0  0  0  0  0  0  0  0
    5.3676  -48.5591  -34.2958 C   0  0  0  0  0  0  0  0  0  0  0  0
    6.3021  -48.3242  -33.2869 C   0  0  0  0  0  0  0  0  0  0  0  0
    4.1760  -47.0981  -27.2305 C   0  0  0  0  0  0  0  0  0  0  0  0
    3.1982  -45.2635  -28.7306 C   0  0  0  0  0  0  0  0  0  0  0  0
    3.0259  -46.2778  -27.6557 C   0  0  0  0  0  0  0  0  0  0  0  0
    2.3324  -45.5849  -26.4828 C   0  0  0  0  0  0  0  0  0  0  0  0
    2.6350  -52.1260  -24.9511 C   0  0  0  0  0  0  0  0  0  0  0  0
    2.2424  -52.5516  -26.3321 C   0  0  0  0  0  0  0  0  0  0  0  0
    3.1018  -53.0789  -27.2992 C   0  0  0  0  0  0  0  0  0  0  0  0
    2.3670  -53.3414  -28.3956 N   0  0  0  0  0  0  0  0  0  0  0  0
    1.0741  -53.0218  -28.2204 C   0  0  0  0  0  0  0  0  0  0  0  0
   -0.0062  -53.1205  -29.0588 C   0  0  0  0  0  0  0  0  0  0  0  0
   -1.2257  -52.6966  -28.5614 C   0  0  0  0  0  0  0  0  0  0  0  0
   -1.3285  -52.2036  -27.2857 C   0  0  0  0  0  0  0  0  0  0  0  0
   -0.2401  -52.1090  -26.4526 C   0  0  0  0  0  0  0  0  0  0  0  0
    0.9926  -52.5233  -26.9170 C   0  0  0  0  0  0  0  0  0  0  0  0
    2.7274  -53.7535  -29.3069 H   0  0  0  0  0  0  0  0  0  0  0  0
 56 57  1  0  0  0
 57 58  1  0  0  0
 57 55  1  0  0  0
 55 37  1  0  0  0
 37 33  1  0  0  0
 33 34  1  0  0  0
 34 35  2  0  0  0
 34  1  1  0  0  0
  1 59  1  0  0  0
 59 60  1  0  0  0
 60 61  2  0  0  0
 61 62  1  0  0  0
 62 63  1  0  0  0
 63 64  2  0  0  0
 64 65  1  0  0  0
 65 66  2  0  0  0
 66 67  1  0  0  0
 67 68  2  0  0  0
  1  2  1  0  0  0
  2  3  1  0  0  0
  3  4  2  0  0  0
  3  6  1  0  0  0
  6  7  1  0  0  0
  7  8  1  0  0  0
  8  9  2  0  0  0
  8 11  1  0  0  0
 11 12  1  0  0  0
 12 13  1  0  0  0
 13 14  1  0  0  0
 14 15  1  0  0  0
 15 16  1  0  0  0
 16 17  2  0  0  0
 16 18  1  0  0  0
 18 19  1  0  0  0
 18 22  1  0  0  0
 22 23  1  0  0  0
 23 24  2  0  0  0
 24 25  1  0  0  0
 25 26  1  0  0  0
 26 27  2  0  0  0
 27 28  1  0  0  0
 28 29  2  0  0  0
 29 30  1  0  0  0
 30 31  2  0  0  0
 37 38  1  0  0  0
 38 39  2  0  0  0
 38 40  1  0  0  0
 40 42  1  0  0  0
 42 48  1  0  0  0
 48 49  1  0  0  0
 49 50  2  0  0  0
 50 51  1  0  0  0
 51 52  2  0  0  0
 52 53  1  0  0  0
 53 54  2  0  0  0
 42 43  1  0  0  0
 43 44  1  0  0  0
 43 45  2  0  0  0
 68 60  1  0  0  0
 15 11  1  0  0  0
 31 23  1  0  0  0
 54 49  1  0  0  0
 68 63  1  0  0  0
 31 26  1  0  0  0
 33 36  1  0  0  0
 62 69  1  0  0  0
  2  5  1  0  0  0
  7 10  1  0  0  0
 19 20  1  0  0  0
 19 21  1  0  0  0
 25 32  1  0  0  0
 40 41  1  0  0  0
 44 46  1  0  0  0
 44 47  1  0  0  0
M  END
> <minimizedAffinity>
-9.55577

> <CNNscore>
0.1917115450

> <CNNaffinity>
7.5788168907

> <CNN_VS>
1.4529466629

> <CNNaffinity_variance>
1.2137407064

$$$$
[H]c1c([H])c([H])c(C([H])([H])[C@@]([H])(C(=O)N([H])[H])N([H])C(=O)[C@@]([H])(N([H])C(=O)[C@@]([H])(N([H])C(=O)C([H])([H])N([H])C(=O)[C@@]2([H])N(C(=O)[C@@]([H])(N([H])[H])C([H])([H])c3c([H])n([H])c4c([H])c([H])c([H])c([H])c34)C([H])([H])C([H])([H])C2([H])[H])C([H])([H])c2c([H])n([H])c3c([H])c([H])c([H])c([H])c23)C([H])([H])C([H])(C([H])([H])[H])C([H])([H])[H])c([H])c1[H]


 69 74  0  0  0  0  0  0  0  0999 V2000
    2.6034  -51.0311  -24.6663 C   0  0  0  0  0  0  0  0  0  0  0  0
    3.6653  -50.1000  -25.0298 N   0  0  0  0  0  0  0  0  0  0  0  0
    4.9835  -50.3322  -24.6445 C   0  0  0  0  0  0  0  0  0  0  0  0
    5.2060  -51.3966  -23.9618 O   0  0  0  0  0  0  0  0  0  0  0  0
    3.4354  -49.2412  -25.5912 H   0  0  0  0  0  0  0  0  0  0  0  0
    6.1137  -49.4638  -24.9600 C   0  0  0  0  0  0  0  0  0  0  0  0
    5.9330  -48.1041  -24.6436 N   0  0  0  0  0  0  0  0  0  0  0  0
    6.1363  -47.1364  -25.7013 C   0  0  0  0  0  0  0  0  0  0  0  0
    6.4438  -47.5513  -26.8233 O   0  0  0  0  0  0  0  0  0  0  0  0
    5.6699  -47.7458  -23.7273 H   0  0  0  0  0  0  0  0  0  0  0  0
    5.9685  -45.6659  -25.4025 C   0  0  0  0  0  0  0  0  0  0  0  0
    5.7389  -45.5194  -23.9298 C   0  0  0  0  0  0  0  0  0  0  0  0
    4.3768  -44.9017  -23.8161 C   0  0  0  0  0  0  0  0  0  0  0  0
    3.7304  -45.0823  -25.1523 C   0  0  0  0  0  0  0  0  0  0  0  0
    4.8818  -45.0753  -26.0788 N   0  0  0  0  0  0  0  0  0  0  0  0
    4.7661  -44.5846  -27.3814 C   0  0  0  0  0  0  0  0  0  0  0  0
    3.6100  -44.0433  -27.6467 O   0  0  0  0  0  0  0  0  0  0  0  0
    5.6874  -44.5660  -28.4971 C   0  0  0  0  0  0  0  0  0  0  0  0
    7.0874  -44.6284  -28.0499 N   0  0  0  0  0  0  0  0  0  0  0  0
    7.4050  -45.6379  -28.1788 H   0  0  0  0  0  0  0  0  0  0  0  0
    7.6885  -44.0766  -28.7092 H   0  0  0  0  0  0  0  0  0  0  0  0
    5.5033  -45.5903  -29.5688 C   0  0  0  0  0  0  0  0  0  0  0  0
    5.2184  -45.1467  -30.9340 C   0  0  0  0  0  0  0  0  0  0  0  0
    5.8180  -44.0710  -31.6130 C   0  0  0  0  0  0  0  0  0  0  0  0
    5.2842  -43.9530  -32.8440 N   0  0  0  0  0  0  0  0  0  0  0  0
    4.3548  -44.9078  -33.0069 C   0  0  0  0  0  0  0  0  0  0  0  0
    3.5317  -45.2410  -34.0828 C   0  0  0  0  0  0  0  0  0  0  0  0
    2.6633  -46.2992  -34.0140 C   0  0  0  0  0  0  0  0  0  0  0  0
    2.5923  -47.0537  -32.8703 C   0  0  0  0  0  0  0  0  0  0  0  0
    3.4013  -46.7195  -31.8199 C   0  0  0  0  0  0  0  0  0  0  0  0
    4.2888  -45.6647  -31.8432 C   0  0  0  0  0  0  0  0  0  0  0  0
    5.5817  -43.2203  -33.5205 H   0  0  0  0  0  0  0  0  0  0  0  0
    3.0391  -50.4799  -22.2269 N   0  0  0  0  0  0  0  0  0  0  0  0
    2.1612  -50.7999  -23.2690 C   0  0  0  0  0  0  0  0  0  0  0  0
    0.9322  -50.9024  -23.0486 O   0  0  0  0  0  0  0  0  0  0  0  0
    4.0685  -50.4163  -22.5055 H   0  0  0  0  0  0  0  0  0  0  0  0
    2.6820  -50.2464  -20.8700 C   0  0  0  0  0  0  0  0  0  0  0  0
    2.0489  -51.4329  -20.2959 C   0  0  0  0  0  0  0  0  0  0  0  0
    2.8392  -52.3126  -19.7925 O   0  0  0  0  0  0  0  0  0  0  0  0
    0.6616  -51.6818  -20.2528 N   0  0  0  0  0  0  0  0  0  0  0  0
   -0.0501  -51.0412  -20.6508 H   0  0  0  0  0  0  0  0  0  0  0  0
    0.1740  -52.9041  -19.6237 C   0  0  0  0  0  0  0  0  0  0  0  0
   -0.4820  -53.7109  -20.7303 C   0  0  0  0  0  0  0  0  0  0  0  0
    0.0723  -53.7334  -22.0237 N   0  0  0  0  0  0  0  0  0  0  0  0
   -1.5296  -54.3717  -20.5144 O   0  0  0  0  0  0  0  0  0  0  0  0
    1.0772  -53.9331  -22.1563 H   0  0  0  0  0  0  0  0  0  0  0  0
   -0.5225  -53.5498  -22.8456 H   0  0  0  0  0  0  0  0  0  0  0  0
   -0.8893  -52.6342  -18.5921 C   0  0  0  0  0  0  0  0  0  0  0  0
   -0.4464  -51.8020  -17.4620 C   0  0  0  0  0  0  0  0  0  0  0  0
    0.1772  -50.6045  -17.6720 C   0  0  0  0  0  0  0  0  0  0  0  0
    0.5866  -49.8424  -16.5970 C   0  0  0  0  0  0  0  0  0  0  0  0
    0.3645  -50.2962  -15.3170 C   0  0  0  0  0  0  0  0  0  0  0  0
   -0.2619  -51.5006  -15.0738 C   0  0  0  0  0  0  0  0  0  0  0  0
   -0.6672  -52.2507  -16.1780 C   0  0  0  0  0  0  0  0  0  0  0  0
    2.1317  -48.9340  -20.4705 C   0  0  0  0  0  0  0  0  0  0  0  0
    3.2130  -46.8321  -19.4778 C   0  0  0  0  0  0  0  0  0  0  0  0
    2.7304  -48.2308  -19.3200 C   0  0  0  0  0  0  0  0  0  0  0  0
    3.8564  -49.0297  -18.6638 C   0  0  0  0  0  0  0  0  0  0  0  0
    2.8508  -52.4167  -25.0707 C   0  0  0  0  0  0  0  0  0  0  0  0
    2.2601  -52.6446  -26.4277 C   0  0  0  0  0  0  0  0  0  0  0  0
    2.9735  -52.9664  -27.5851 C   0  0  0  0  0  0  0  0  0  0  0  0
    2.0845  -53.0969  -28.5869 N   0  0  0  0  0  0  0  0  0  0  0  0
    0.8257  -52.8816  -28.1707 C   0  0  0  0  0  0  0  0  0  0  0  0
   -0.3691  -52.9099  -28.8426 C   0  0  0  0  0  0  0  0  0  0  0  0
   -1.5083  -52.6376  -28.1062 C   0  0  0  0  0  0  0  0  0  0  0  0
   -1.4253  -52.3547  -26.7668 C   0  0  0  0  0  0  0  0  0  0  0  0
   -0.2233  -52.3292  -26.1019 C   0  0  0  0  0  0  0  0  0  0  0  0
    0.9338  -52.5965  -26.8065 C   0  0  0  0  0  0  0  0  0  0  0  0
    2.3105  -53.3418  -29.5965 H   0  0  0  0  0  0  0  0  0  0  0  0
 56 57  1  0  0  0
 57 58  1  0  0  0
 57 55  1  0  0  0
 55 37  1  0  0  0
 37 33  1  0  0  0
 33 34  1  0  0  0
 34 35  2  0  0  0
 34  1  1  0  0  0
  1 59  1  0  0  0
 59 60  1  0  0  0
 60 61  2  0  0  0
 61 62  1  0  0  0
 62 63  1  0  0  0
 63 64  2  0  0  0
 64 65  1  0  0  0
 65 66  2  0  0  0
 66 67  1  0  0  0
 67 68  2  0  0  0
  1  2  1  0  0  0
  2  3  1  0  0  0
  3  4  2  0  0  0
  3  6  1  0  0  0
  6  7  1  0  0  0
  7  8  1  0  0  0
  8  9  2  0  0  0
  8 11  1  0  0  0
 11 12  1  0  0  0
 12 13  1  0  0  0
 13 14  1  0  0  0
 14 15  1  0  0  0
 15 16  1  0  0  0
 16 17  2  0  0  0
 16 18  1  0  0  0
 18 19  1  0  0  0
 18 22  1  0  0  0
 22 23  1  0  0  0
 23 24  2  0  0  0
 24 25  1  0  0  0
 25 26  1  0  0  0
 26 27  2  0  0  0
 27 28  1  0  0  0
 28 29  2  0  0  0
 29 30  1  0  0  0
 30 31  2  0  0  0
 37 38  1  0  0  0
 38 39  2  0  0  0
 38 40  1  0  0  0
 40 42  1  0  0  0
 42 48  1  0  0  0
 48 49  1  0  0  0
 49 50  2  0  0  0
 50 51  1  0  0  0
 51 52  2  0  0  0
 52 53  1  0  0  0
 53 54  2  0  0  0
 42 43  1  0  0  0
 43 44  1  0  0  0
 43 45  2  0  0  0
 68 60  1  0  0  0
 15 11  1  0  0  0
 31 23  1  0  0  0
 54 49  1  0  0  0
 68 63  1  0  0  0
 31 26  1  0  0  0
 33 36  1  0  0  0
 62 69  1  0  0  0
  2  5  1  0  0  0
  7 10  1  0  0  0
 19 20  1  0  0  0
 19 21  1  0  0  0
 25 32  1  0  0  0
 40 41  1  0  0  0
 44 46  1  0  0  0
 44 47  1  0  0  0
M  END
> <minimizedAffinity>
-8.68476

> <CNNscore>
0.1819812506

> <CNNaffinity>
7.4578924179

> <CNN_VS>
1.3571965694

> <CNNaffinity_variance>
0.9810981750

$$$$
[H]c1c([H])c([H])c(C([H])([H])[C@@]([H])(C(=O)N([H])[H])N([H])C(=O)[C@@]([H])(N([H])C(=O)[C@@]([H])(N([H])C(=O)C([H])([H])N([H])C(=O)[C@@]2([H])N(C(=O)[C@@]([H])(N([H])[H])C([H])([H])c3c([H])n([H])c4c([H])c([H])c([H])c([H])c34)C([H])([H])C([H])([H])C2([H])[H])C([H])([H])c2c([H])n([H])c3c([H])c([H])c([H])c([H])c23)C([H])([H])C([H])(C([H])([H])[H])C([H])([H])[H])c([H])c1[H]


 69 74  0  0  0  0  0  0  0  0999 V2000
    4.3183  -49.8463  -24.9633 C   0  0  0  0  0  0  0  0  0  0  0  0
    5.7041  -50.2126  -24.6946 N   0  0  0  0  0  0  0  0  0  0  0  0
    6.2756  -49.9828  -23.4454 C   0  0  0  0  0  0  0  0  0  0  0  0
    5.5238  -49.4384  -22.5583 O   0  0  0  0  0  0  0  0  0  0  0  0
    6.2816  -50.6574  -25.4524 H   0  0  0  0  0  0  0  0  0  0  0  0
    7.6492  -50.3148  -23.0789 C   0  0  0  0  0  0  0  0  0  0  0  0
    8.1218  -49.7023  -21.9029 N   0  0  0  0  0  0  0  0  0  0  0  0
    8.9078  -48.4947  -22.0447 C   0  0  0  0  0  0  0  0  0  0  0  0
    9.1121  -48.0592  -23.1824 O   0  0  0  0  0  0  0  0  0  0  0  0
    7.9542  -50.0419  -20.9575 H   0  0  0  0  0  0  0  0  0  0  0  0
    9.4484  -47.8132  -20.8105 C   0  0  0  0  0  0  0  0  0  0  0  0
   10.6215  -48.6068  -20.3237 C   0  0  0  0  0  0  0  0  0  0  0  0
   10.2285  -49.0644  -18.9504 C   0  0  0  0  0  0  0  0  0  0  0  0
    8.7486  -48.8707  -18.8600 C   0  0  0  0  0  0  0  0  0  0  0  0
    8.5110  -47.7240  -19.7615 N   0  0  0  0  0  0  0  0  0  0  0  0
    7.4776  -46.8141  -19.5264 C   0  0  0  0  0  0  0  0  0  0  0  0
    6.8425  -47.0065  -18.4041 O   0  0  0  0  0  0  0  0  0  0  0  0
    6.9742  -45.6968  -20.2960 C   0  0  0  0  0  0  0  0  0  0  0  0
    7.9371  -44.5856  -20.3388 N   0  0  0  0  0  0  0  0  0  0  0  0
    8.4274  -44.6419  -21.2839 H   0  0  0  0  0  0  0  0  0  0  0  0
    7.4171  -43.6749  -20.3654 H   0  0  0  0  0  0  0  0  0  0  0  0
    6.5202  -45.9630  -21.6941 C   0  0  0  0  0  0  0  0  0  0  0  0
    5.0911  -46.1393  -21.9556 C   0  0  0  0  0  0  0  0  0  0  0  0
    4.1763  -46.8718  -21.1782 C   0  0  0  0  0  0  0  0  0  0  0  0
    2.9552  -46.8255  -21.7448 N   0  0  0  0  0  0  0  0  0  0  0  0
    3.0253  -46.0915  -22.8666 C   0  0  0  0  0  0  0  0  0  0  0  0
    2.0621  -45.7171  -23.8036 C   0  0  0  0  0  0  0  0  0  0  0  0
    2.3812  -44.9237  -24.8748 C   0  0  0  0  0  0  0  0  0  0  0  0
    3.6696  -44.4823  -25.0403 C   0  0  0  0  0  0  0  0  0  0  0  0
    4.6079  -44.8550  -24.1183 C   0  0  0  0  0  0  0  0  0  0  0  0
    4.3338  -45.6512  -23.0266 C   0  0  0  0  0  0  0  0  0  0  0  0
    2.1247  -47.3010  -21.3360 H   0  0  0  0  0  0  0  0  0  0  0  0
    2.3853  -50.2492  -23.3677 N   0  0  0  0  0  0  0  0  0  0  0  0
    3.3898  -50.7298  -24.2159 C   0  0  0  0  0  0  0  0  0  0  0  0
    3.5404  -51.9628  -24.3787 O   0  0  0  0  0  0  0  0  0  0  0  0
    2.3317  -49.1853  -23.2869 H   0  0  0  0  0  0  0  0  0  0  0  0
    1.4649  -51.0389  -22.6246 C   0  0  0  0  0  0  0  0  0  0  0  0
    0.6249  -51.8283  -23.5244 C   0  0  0  0  0  0  0  0  0  0  0  0
    0.1797  -51.2216  -24.5663 O   0  0  0  0  0  0  0  0  0  0  0  0
    0.2718  -53.1810  -23.3399 N   0  0  0  0  0  0  0  0  0  0  0  0
    0.5660  -53.7455  -22.5213 H   0  0  0  0  0  0  0  0  0  0  0  0
   -0.5574  -53.8458  -24.3389 C   0  0  0  0  0  0  0  0  0  0  0  0
   -1.1256  -55.0782  -23.6575 C   0  0  0  0  0  0  0  0  0  0  0  0
   -1.2555  -56.2892  -24.3624 N   0  0  0  0  0  0  0  0  0  0  0  0
   -1.4906  -55.0413  -22.4549 O   0  0  0  0  0  0  0  0  0  0  0  0
   -0.4575  -56.6683  -24.8981 H   0  0  0  0  0  0  0  0  0  0  0  0
   -2.1487  -56.8038  -24.3481 H   0  0  0  0  0  0  0  0  0  0  0  0
    0.2429  -54.3303  -25.5190 C   0  0  0  0  0  0  0  0  0  0  0  0
   -0.1260  -53.7115  -26.8023 C   0  0  0  0  0  0  0  0  0  0  0  0
    0.6865  -53.8207  -27.8954 C   0  0  0  0  0  0  0  0  0  0  0  0
    0.3217  -53.2298  -29.0877 C   0  0  0  0  0  0  0  0  0  0  0  0
   -0.8612  -52.5309  -29.1671 C   0  0  0  0  0  0  0  0  0  0  0  0
   -1.7014  -52.4032  -28.0808 C   0  0  0  0  0  0  0  0  0  0  0  0
   -1.3098  -53.0116  -26.8881 C   0  0  0  0  0  0  0  0  0  0  0  0
    0.8138  -50.4737  -21.4241 C   0  0  0  0  0  0  0  0  0  0  0  0
    1.3957  -50.0423  -18.9649 C   0  0  0  0  0  0  0  0  0  0  0  0
    1.1981  -50.9886  -20.0960 C   0  0  0  0  0  0  0  0  0  0  0  0
    2.4272  -51.8960  -20.1504 C   0  0  0  0  0  0  0  0  0  0  0  0
    4.0212  -49.6038  -26.3766 C   0  0  0  0  0  0  0  0  0  0  0  0
    4.7347  -48.3649  -26.8224 C   0  0  0  0  0  0  0  0  0  0  0  0
    6.0990  -48.1076  -26.6663 C   0  0  0  0  0  0  0  0  0  0  0  0
    6.3483  -46.8990  -27.2030 N   0  0  0  0  0  0  0  0  0  0  0  0
    5.2373  -46.3353  -27.7053 C   0  0  0  0  0  0  0  0  0  0  0  0
    5.0342  -45.1328  -28.3319 C   0  0  0  0  0  0  0  0  0  0  0  0
    3.7422  -44.8480  -28.7368 C   0  0  0  0  0  0  0  0  0  0  0  0
    2.7253  -45.7405  -28.5124 C   0  0  0  0  0  0  0  0  0  0  0  0
    2.9387  -46.9434  -27.8840 C   0  0  0  0  0  0  0  0  0  0  0  0
    4.2165  -47.2599  -27.4669 C   0  0  0  0  0  0  0  0  0  0  0  0
    7.2945  -46.4163  -27.2463 H   0  0  0  0  0  0  0  0  0  0  0  0
 56 57  1  0  0  0
 57 58  1  0  0  0
 57 55  1  0  0  0
 55 37  1  0  0  0
 37 33  1  0  0  0
 33 34  1  0  0  0
 34 35  2  0  0  0
 34  1  1  0  0  0
  1 59  1  0  0  0
 59 60  1  0  0  0
 60 61  2  0  0  0
 61 62  1  0  0  0
 62 63  1  0  0  0
 63 64  2  0  0  0
 64 65  1  0  0  0
 65 66  2  0  0  0
 66 67  1  0  0  0
 67 68  2  0  0  0
  1  2  1  0  0  0
  2  3  1  0  0  0
  3  4  2  0  0  0
  3  6  1  0  0  0
  6  7  1  0  0  0
  7  8  1  0  0  0
  8  9  2  0  0  0
  8 11  1  0  0  0
 11 12  1  0  0  0
 12 13  1  0  0  0
 13 14  1  0  0  0
 14 15  1  0  0  0
 15 16  1  0  0  0
 16 17  2  0  0  0
 16 18  1  0  0  0
 18 19  1  0  0  0
 18 22  1  0  0  0
 22 23  1  0  0  0
 23 24  2  0  0  0
 24 25  1  0  0  0
 25 26  1  0  0  0
 26 27  2  0  0  0
 27 28  1  0  0  0
 28 29  2  0  0  0
 29 30  1  0  0  0
 30 31  2  0  0  0
 37 38  1  0  0  0
 38 39  2  0  0  0
 38 40  1  0  0  0
 40 42  1  0  0  0
 42 48  1  0  0  0
 48 49  1  0  0  0
 49 50  2  0  0  0
 50 51  1  0  0  0
 51 52  2  0  0  0
 52 53  1  0  0  0
 53 54  2  0  0  0
 42 43  1  0  0  0
 43 44  1  0  0  0
 43 45  2  0  0  0
 68 60  1  0  0  0
 15 11  1  0  0  0
 31 23  1  0  0  0
 54 49  1  0  0  0
 68 63  1  0  0  0
 31 26  1  0  0  0
 33 36  1  0  0  0
 62 69  1  0  0  0
  2  5  1  0  0  0
  7 10  1  0  0  0
 19 20  1  0  0  0
 19 21  1  0  0  0
 25 32  1  0  0  0
 40 41  1  0  0  0
 44 46  1  0  0  0
 44 47  1  0  0  0
M  END
> <minimizedAffinity>
-8.05427

> <CNNscore>
0.1778484583

> <CNNaffinity>
7.7715654373

> <CNN_VS>
1.3821609020

> <CNNaffinity_variance>
0.7820695043

$$$$
[H]c1c([H])c([H])c(C([H])([H])[C@@]([H])(C(=O)N([H])[H])N([H])C(=O)[C@@]([H])(N([H])C(=O)[C@@]([H])(N([H])C(=O)C([H])([H])N([H])C(=O)[C@@]2([H])N(C(=O)[C@@]([H])(N([H])[H])C([H])([H])c3c([H])n([H])c4c([H])c([H])c([H])c([H])c34)C([H])([H])C([H])([H])C2([H])[H])C([H])([H])c2c([H])n([H])c3c([H])c([H])c([H])c([H])c23)C([H])([H])C([H])(C([H])([H])[H])C([H])([H])[H])c([H])c1[H]


 69 74  0  0  0  0  0  0  0  0999 V2000
    3.5897  -51.0537  -24.6039 C   0  0  0  0  0  0  0  0  0  0  0  0
    4.6504  -50.3544  -25.3198 N   0  0  0  0  0  0  0  0  0  0  0  0
    4.3802  -49.1986  -26.0486 C   0  0  0  0  0  0  0  0  0  0  0  0
    3.1627  -48.7910  -26.0535 O   0  0  0  0  0  0  0  0  0  0  0  0
    5.6337  -50.7253  -25.2861 H   0  0  0  0  0  0  0  0  0  0  0  0
    5.3707  -48.4282  -26.7947 C   0  0  0  0  0  0  0  0  0  0  0  0
    5.0474  -48.1790  -28.1419 N   0  0  0  0  0  0  0  0  0  0  0  0
    6.1421  -48.0140  -29.0750 C   0  0  0  0  0  0  0  0  0  0  0  0
    7.2965  -48.1121  -28.6467 O   0  0  0  0  0  0  0  0  0  0  0  0
    4.1020  -48.1054  -28.5135 H   0  0  0  0  0  0  0  0  0  0  0  0
    5.8415  -47.7295  -30.5271 C   0  0  0  0  0  0  0  0  0  0  0  0
    5.7389  -49.0421  -31.2409 C   0  0  0  0  0  0  0  0  0  0  0  0
    6.8330  -49.0048  -32.2664 C   0  0  0  0  0  0  0  0  0  0  0  0
    7.7451  -47.8939  -31.8544 C   0  0  0  0  0  0  0  0  0  0  0  0
    6.8329  -46.9571  -31.1655 N   0  0  0  0  0  0  0  0  0  0  0  0
    7.0546  -45.5782  -31.1835 C   0  0  0  0  0  0  0  0  0  0  0  0
    8.0471  -45.2074  -31.9435 O   0  0  0  0  0  0  0  0  0  0  0  0
    6.3921  -44.4796  -30.5140 C   0  0  0  0  0  0  0  0  0  0  0  0
    7.1740  -43.2366  -30.6005 N   0  0  0  0  0  0  0  0  0  0  0  0
    6.7328  -42.6509  -31.3744 H   0  0  0  0  0  0  0  0  0  0  0  0
    7.0291  -42.6726  -29.7279 H   0  0  0  0  0  0  0  0  0  0  0  0
    4.9877  -44.1656  -30.9148 C   0  0  0  0  0  0  0  0  0  0  0  0
    3.8862  -44.8611  -30.2479 C   0  0  0  0  0  0  0  0  0  0  0  0
    2.8586  -45.5975  -30.8641 C   0  0  0  0  0  0  0  0  0  0  0  0
    2.0137  -46.0733  -29.9292 N   0  0  0  0  0  0  0  0  0  0  0  0
    2.4409  -45.6809  -28.7187 C   0  0  0  0  0  0  0  0  0  0  0  0
    1.9538  -45.9126  -27.4321 C   0  0  0  0  0  0  0  0  0  0  0  0
    2.5951  -45.4152  -26.3276 C   0  0  0  0  0  0  0  0  0  0  0  0
    3.7396  -44.6732  -26.4763 C   0  0  0  0  0  0  0  0  0  0  0  0
    4.2094  -44.4495  -27.7407 C   0  0  0  0  0  0  0  0  0  0  0  0
    3.5984  -44.9287  -28.8799 C   0  0  0  0  0  0  0  0  0  0  0  0
    1.1782  -46.6480  -30.1634 H   0  0  0  0  0  0  0  0  0  0  0  0
    4.4286  -51.4111  -22.2346 N   0  0  0  0  0  0  0  0  0  0  0  0
    3.6306  -50.7251  -23.1575 C   0  0  0  0  0  0  0  0  0  0  0  0
    2.9028  -49.7779  -22.7798 O   0  0  0  0  0  0  0  0  0  0  0  0
    5.0140  -52.2052  -22.6445 H   0  0  0  0  0  0  0  0  0  0  0  0
    4.5145  -51.1476  -20.8395 C   0  0  0  0  0  0  0  0  0  0  0  0
    3.3006  -51.5957  -20.1584 C   0  0  0  0  0  0  0  0  0  0  0  0
    3.3575  -51.6583  -18.8760 O   0  0  0  0  0  0  0  0  0  0  0  0
    2.0929  -51.9581  -20.7897 N   0  0  0  0  0  0  0  0  0  0  0  0
    1.9593  -51.9587  -21.8180 H   0  0  0  0  0  0  0  0  0  0  0  0
    0.9538  -52.3640  -19.9740 C   0  0  0  0  0  0  0  0  0  0  0  0
    0.0704  -53.2049  -20.8786 C   0  0  0  0  0  0  0  0  0  0  0  0
   -0.7622  -52.5935  -21.8343 N   0  0  0  0  0  0  0  0  0  0  0  0
    0.0645  -54.4592  -20.7918 O   0  0  0  0  0  0  0  0  0  0  0  0
   -0.3799  -51.8829  -22.4797 H   0  0  0  0  0  0  0  0  0  0  0  0
   -1.7585  -52.8515  -21.8944 H   0  0  0  0  0  0  0  0  0  0  0  0
    0.1242  -51.1913  -19.5223 C   0  0  0  0  0  0  0  0  0  0  0  0
    0.0018  -51.0563  -18.0619 C   0  0  0  0  0  0  0  0  0  0  0  0
   -0.6327  -52.0107  -17.3179 C   0  0  0  0  0  0  0  0  0  0  0  0
   -0.7382  -51.8616  -15.9502 C   0  0  0  0  0  0  0  0  0  0  0  0
   -0.2032  -50.7482  -15.3436 C   0  0  0  0  0  0  0  0  0  0  0  0
    0.4422  -49.7682  -16.0682 C   0  0  0  0  0  0  0  0  0  0  0  0
    0.5366  -49.9442  -17.4489 C   0  0  0  0  0  0  0  0  0  0  0  0
    5.1212  -49.8856  -20.3662 C   0  0  0  0  0  0  0  0  0  0  0  0
    7.6249  -49.3350  -20.3867 C   0  0  0  0  0  0  0  0  0  0  0  0
    6.3037  -49.3553  -21.0710 C   0  0  0  0  0  0  0  0  0  0  0  0
    6.0678  -47.9590  -21.6468 C   0  0  0  0  0  0  0  0  0  0  0  0
    3.4453  -52.4651  -24.9668 C   0  0  0  0  0  0  0  0  0  0  0  0
    2.5788  -52.5726  -26.1834 C   0  0  0  0  0  0  0  0  0  0  0  0
    3.0233  -52.8339  -27.4819 C   0  0  0  0  0  0  0  0  0  0  0  0
    1.9427  -52.8596  -28.2835 N   0  0  0  0  0  0  0  0  0  0  0  0
    0.8080  -52.6312  -27.6021 C   0  0  0  0  0  0  0  0  0  0  0  0
   -0.4989  -52.5684  -28.0117 C   0  0  0  0  0  0  0  0  0  0  0  0
   -1.4484  -52.3107  -27.0389 C   0  0  0  0  0  0  0  0  0  0  0  0
   -1.0791  -52.1294  -25.7305 C   0  0  0  0  0  0  0  0  0  0  0  0
    0.2333  -52.1947  -25.3294 C   0  0  0  0  0  0  0  0  0  0  0  0
    1.2070  -52.4504  -26.2747 C   0  0  0  0  0  0  0  0  0  0  0  0
    1.9449  -53.0381  -29.3316 H   0  0  0  0  0  0  0  0  0  0  0  0
 56 57  1  0  0  0
 57 58  1  0  0  0
 57 55  1  0  0  0
 55 37  1  0  0  0
 37 33  1  0  0  0
 33 34  1  0  0  0
 34 35  2  0  0  0
 34  1  1  0  0  0
  1 59  1  0  0  0
 59 60  1  0  0  0
 60 61  2  0  0  0
 61 62  1  0  0  0
 62 63  1  0  0  0
 63 64  2  0  0  0
 64 65  1  0  0  0
 65 66  2  0  0  0
 66 67  1  0  0  0
 67 68  2  0  0  0
  1  2  1  0  0  0
  2  3  1  0  0  0
  3  4  2  0  0  0
  3  6  1  0  0  0
  6  7  1  0  0  0
  7  8  1  0  0  0
  8  9  2  0  0  0
  8 11  1  0  0  0
 11 12  1  0  0  0
 12 13  1  0  0  0
 13 14  1  0  0  0
 14 15  1  0  0  0
 15 16  1  0  0  0
 16 17  2  0  0  0
 16 18  1  0  0  0
 18 19  1  0  0  0
 18 22  1  0  0  0
 22 23  1  0  0  0
 23 24  2  0  0  0
 24 25  1  0  0  0
 25 26  1  0  0  0
 26 27  2  0  0  0
 27 28  1  0  0  0
 28 29  2  0  0  0
 29 30  1  0  0  0
 30 31  2  0  0  0
 37 38  1  0  0  0
 38 39  2  0  0  0
 38 40  1  0  0  0
 40 42  1  0  0  0
 42 48  1  0  0  0
 48 49  1  0  0  0
 49 50  2  0  0  0
 50 51  1  0  0  0
 51 52  2  0  0  0
 52 53  1  0  0  0
 53 54  2  0  0  0
 42 43  1  0  0  0
 43 44  1  0  0  0
 43 45  2  0  0  0
 68 60  1  0  0  0
 15 11  1  0  0  0
 31 23  1  0  0  0
 54 49  1  0  0  0
 68 63  1  0  0  0
 31 26  1  0  0  0
 33 36  1  0  0  0
 62 69  1  0  0  0
  2  5  1  0  0  0
  7 10  1  0  0  0
 19 20  1  0  0  0
 19 21  1  0  0  0
 25 32  1  0  0  0
 40 41  1  0  0  0
 44 46  1  0  0  0
 44 47  1  0  0  0
M  END
> <minimizedAffinity>
-8.68182

> <CNNscore>
0.1588563323

> <CNNaffinity>
7.2422051430

> <CNN_VS>
1.1504701376

> <CNNaffinity_variance>
1.0062630177

$$$$
[H]c1c([H])c([H])c(C([H])([H])[C@@]([H])(C(=O)N([H])[H])N([H])C(=O)[C@@]([H])(N([H])C(=O)[C@@]([H])(N([H])C(=O)C([H])([H])N([H])C(=O)[C@@]2([H])N(C(=O)[C@@]([H])(N([H])[H])C([H])([H])c3c([H])n([H])c4c([H])c([H])c([H])c([H])c34)C([H])([H])C([H])([H])C2([H])[H])C([H])([H])c2c([H])n([H])c3c([H])c([H])c([H])c([H])c23)C([H])([H])C([H])(C([H])([H])[H])C([H])([H])[H])c([H])c1[H]


 69 74  0  0  0  0  0  0  0  0999 V2000
    3.3893  -50.4139  -25.5800 C   0  0  0  0  0  0  0  0  0  0  0  0
    4.2406  -49.8029  -26.5943 N   0  0  0  0  0  0  0  0  0  0  0  0
    3.8555  -48.6304  -27.2401 C   0  0  0  0  0  0  0  0  0  0  0  0
    2.7257  -48.1267  -26.8959 O   0  0  0  0  0  0  0  0  0  0  0  0
    5.1587  -50.2513  -26.8428 H   0  0  0  0  0  0  0  0  0  0  0  0
    4.6363  -47.9430  -28.2642 C   0  0  0  0  0  0  0  0  0  0  0  0
    3.9445  -46.9474  -28.9796 N   0  0  0  0  0  0  0  0  0  0  0  0
    3.8358  -47.1057  -30.4147 C   0  0  0  0  0  0  0  0  0  0  0  0
    4.3416  -48.1061  -30.9335 O   0  0  0  0  0  0  0  0  0  0  0  0
    3.5130  -46.1224  -28.5669 H   0  0  0  0  0  0  0  0  0  0  0  0
    3.1158  -46.0536  -31.2237 C   0  0  0  0  0  0  0  0  0  0  0  0
    2.0670  -46.7413  -32.0424 C   0  0  0  0  0  0  0  0  0  0  0  0
    2.4497  -46.4609  -33.4654 C   0  0  0  0  0  0  0  0  0  0  0  0
    3.8676  -45.9879  -33.4244 C   0  0  0  0  0  0  0  0  0  0  0  0
    3.9609  -45.3414  -32.0987 N   0  0  0  0  0  0  0  0  0  0  0  0
    4.8098  -44.2548  -31.8760 C   0  0  0  0  0  0  0  0  0  0  0  0
    5.4008  -43.8106  -32.9500 O   0  0  0  0  0  0  0  0  0  0  0  0
    5.1618  -43.5281  -30.6751 C   0  0  0  0  0  0  0  0  0  0  0  0
    4.2817  -43.8762  -29.5490 N   0  0  0  0  0  0  0  0  0  0  0  0
    4.8209  -44.5667  -28.9414 H   0  0  0  0  0  0  0  0  0  0  0  0
    4.1493  -43.0342  -28.9373 H   0  0  0  0  0  0  0  0  0  0  0  0
    6.5741  -43.6171  -30.1966 C   0  0  0  0  0  0  0  0  0  0  0  0
    7.0598  -44.8841  -29.6482 C   0  0  0  0  0  0  0  0  0  0  0  0
    7.2755  -45.1878  -28.2921 C   0  0  0  0  0  0  0  0  0  0  0  0
    7.7470  -46.4440  -28.1745 N   0  0  0  0  0  0  0  0  0  0  0  0
    7.8525  -46.9839  -29.3990 C   0  0  0  0  0  0  0  0  0  0  0  0
    8.2612  -48.2442  -29.8359 C   0  0  0  0  0  0  0  0  0  0  0  0
    8.2565  -48.5726  -31.1666 C   0  0  0  0  0  0  0  0  0  0  0  0
    7.8440  -47.6532  -32.0976 C   0  0  0  0  0  0  0  0  0  0  0  0
    7.4464  -46.4199  -31.6612 C   0  0  0  0  0  0  0  0  0  0  0  0
    7.4348  -46.0448  -30.3345 C   0  0  0  0  0  0  0  0  0  0  0  0
    7.9768  -46.8773  -27.2566 H   0  0  0  0  0  0  0  0  0  0  0  0
    2.9076  -48.6360  -23.8332 N   0  0  0  0  0  0  0  0  0  0  0  0
    3.6056  -49.7716  -24.2601 C   0  0  0  0  0  0  0  0  0  0  0  0
    4.4625  -50.3016  -23.5155 O   0  0  0  0  0  0  0  0  0  0  0  0
    2.1989  -48.2503  -24.5334 H   0  0  0  0  0  0  0  0  0  0  0  0
    3.0660  -47.9730  -22.5848 C   0  0  0  0  0  0  0  0  0  0  0  0
    2.2916  -48.6486  -21.5446 C   0  0  0  0  0  0  0  0  0  0  0  0
    1.1377  -48.1490  -21.2788 O   0  0  0  0  0  0  0  0  0  0  0  0
    2.7064  -49.7869  -20.8230 N   0  0  0  0  0  0  0  0  0  0  0  0
    3.6268  -50.2464  -20.9535 H   0  0  0  0  0  0  0  0  0  0  0  0
    1.8121  -50.3671  -19.8275 C   0  0  0  0  0  0  0  0  0  0  0  0
    2.2972  -49.8571  -18.4819 C   0  0  0  0  0  0  0  0  0  0  0  0
    3.5307  -50.2856  -17.9572 N   0  0  0  0  0  0  0  0  0  0  0  0
    1.6090  -49.0457  -17.8120 O   0  0  0  0  0  0  0  0  0  0  0  0
    4.3840  -50.2519  -18.5388 H   0  0  0  0  0  0  0  0  0  0  0  0
    3.5884  -50.6361  -16.9894 H   0  0  0  0  0  0  0  0  0  0  0  0
    1.9011  -51.8697  -19.7820 C   0  0  0  0  0  0  0  0  0  0  0  0
    0.7890  -52.5677  -20.4465 C   0  0  0  0  0  0  0  0  0  0  0  0
   -0.2591  -53.0671  -19.7261 C   0  0  0  0  0  0  0  0  0  0  0  0
   -1.2895  -53.7207  -20.3703 C   0  0  0  0  0  0  0  0  0  0  0  0
   -1.2532  -53.8667  -21.7382 C   0  0  0  0  0  0  0  0  0  0  0  0
   -0.2086  -53.3738  -22.4918 C   0  0  0  0  0  0  0  0  0  0  0  0
    0.8193  -52.7158  -21.8161 C   0  0  0  0  0  0  0  0  0  0  0  0
    3.1066  -46.4963  -22.5371 C   0  0  0  0  0  0  0  0  0  0  0  0
    4.3643  -44.7245  -23.8977 C   0  0  0  0  0  0  0  0  0  0  0  0
    3.2886  -45.7475  -23.7951 C   0  0  0  0  0  0  0  0  0  0  0  0
    1.9945  -45.0981  -24.2853 C   0  0  0  0  0  0  0  0  0  0  0  0
    3.3619  -51.8776  -25.6169 C   0  0  0  0  0  0  0  0  0  0  0  0
    2.4211  -52.3237  -26.6932 C   0  0  0  0  0  0  0  0  0  0  0  0
    2.7883  -52.9088  -27.9076 C   0  0  0  0  0  0  0  0  0  0  0  0
    1.6584  -53.1713  -28.5899 N   0  0  0  0  0  0  0  0  0  0  0  0
    0.5632  -52.7976  -27.9079 C   0  0  0  0  0  0  0  0  0  0  0  0
   -0.7697  -52.8764  -28.2190 C   0  0  0  0  0  0  0  0  0  0  0  0
   -1.6620  -52.3930  -27.2785 C   0  0  0  0  0  0  0  0  0  0  0  0
   -1.2138  -51.8632  -26.0955 C   0  0  0  0  0  0  0  0  0  0  0  0
    0.1242  -51.7889  -25.7924 C   0  0  0  0  0  0  0  0  0  0  0  0
    1.0423  -52.2625  -26.7087 C   0  0  0  0  0  0  0  0  0  0  0  0
    1.5979  -53.6207  -29.5515 H   0  0  0  0  0  0  0  0  0  0  0  0
 56 57  1  0  0  0
 57 58  1  0  0  0
 57 55  1  0  0  0
 55 37  1  0  0  0
 37 33  1  0  0  0
 33 34  1  0  0  0
 34 35  2  0  0  0
 34  1  1  0  0  0
  1 59  1  0  0  0
 59 60  1  0  0  0
 60 61  2  0  0  0
 61 62  1  0  0  0
 62 63  1  0  0  0
 63 64  2  0  0  0
 64 65  1  0  0  0
 65 66  2  0  0  0
 66 67  1  0  0  0
 67 68  2  0  0  0
  1  2  1  0  0  0
  2  3  1  0  0  0
  3  4  2  0  0  0
  3  6  1  0  0  0
  6  7  1  0  0  0
  7  8  1  0  0  0
  8  9  2  0  0  0
  8 11  1  0  0  0
 11 12  1  0  0  0
 12 13  1  0  0  0
 13 14  1  0  0  0
 14 15  1  0  0  0
 15 16  1  0  0  0
 16 17  2  0  0  0
 16 18  1  0  0  0
 18 19  1  0  0  0
 18 22  1  0  0  0
 22 23  1  0  0  0
 23 24  2  0  0  0
 24 25  1  0  0  0
 25 26  1  0  0  0
 26 27  2  0  0  0
 27 28  1  0  0  0
 28 29  2  0  0  0
 29 30  1  0  0  0
 30 31  2  0  0  0
 37 38  1  0  0  0
 38 39  2  0  0  0
 38 40  1  0  0  0
 40 42  1  0  0  0
 42 48  1  0  0  0
 48 49  1  0  0  0
 49 50  2  0  0  0
 50 51  1  0  0  0
 51 52  2  0  0  0
 52 53  1  0  0  0
 53 54  2  0  0  0
 42 43  1  0  0  0
 43 44  1  0  0  0
 43 45  2  0  0  0
 68 60  1  0  0  0
 15 11  1  0  0  0
 31 23  1  0  0  0
 54 49  1  0  0  0
 68 63  1  0  0  0
 31 26  1  0  0  0
 33 36  1  0  0  0
 62 69  1  0  0  0
  2  5  1  0  0  0
  7 10  1  0  0  0
 19 20  1  0  0  0
 19 21  1  0  0  0
 25 32  1  0  0  0
 40 41  1  0  0  0
 44 46  1  0  0  0
 44 47  1  0  0  0
M  END
> <minimizedAffinity>
-8.77304

> <CNNscore>
0.1454207003

> <CNNaffinity>
7.1016907692

> <CNN_VS>
1.0327328444

> <CNNaffinity_variance>
1.6170371771

$$$$
[H]c1c([H])c([H])c(C([H])([H])[C@@]([H])(C(=O)N([H])[H])N([H])C(=O)[C@@]([H])(N([H])C(=O)[C@@]([H])(N([H])C(=O)C([H])([H])N([H])C(=O)[C@@]2([H])N(C(=O)[C@@]([H])(N([H])[H])C([H])([H])c3c([H])n([H])c4c([H])c([H])c([H])c([H])c34)C([H])([H])C([H])([H])C2([H])[H])C([H])([H])c2c([H])n([H])c3c([H])c([H])c([H])c([H])c23)C([H])([H])C([H])(C([H])([H])[H])C([H])([H])[H])c([H])c1[H]


 69 74  0  0  0  0  0  0  0  0999 V2000
    1.4815  -50.4686  -20.2920 C   0  0  0  0  0  0  0  0  0  0  0  0
    1.6161  -49.8912  -18.9597 N   0  0  0  0  0  0  0  0  0  0  0  0
    2.3851  -50.5184  -17.9823 C   0  0  0  0  0  0  0  0  0  0  0  0
    2.9596  -51.6168  -18.3170 O   0  0  0  0  0  0  0  0  0  0  0  0
    1.1275  -48.9885  -18.7315 H   0  0  0  0  0  0  0  0  0  0  0  0
    2.5825  -50.0202  -16.6244 C   0  0  0  0  0  0  0  0  0  0  0  0
    2.0500  -48.7422  -16.3701 N   0  0  0  0  0  0  0  0  0  0  0  0
    2.8950  -47.7879  -15.6833 C   0  0  0  0  0  0  0  0  0  0  0  0
    4.0371  -48.1374  -15.3683 O   0  0  0  0  0  0  0  0  0  0  0  0
    1.1152  -48.4344  -16.6318 H   0  0  0  0  0  0  0  0  0  0  0  0
    2.3590  -46.4102  -15.3760 C   0  0  0  0  0  0  0  0  0  0  0  0
    3.4846  -45.4343  -15.5299 C   0  0  0  0  0  0  0  0  0  0  0  0
    3.6487  -44.8241  -14.1695 C   0  0  0  0  0  0  0  0  0  0  0  0
    2.9176  -45.7232  -13.2246 C   0  0  0  0  0  0  0  0  0  0  0  0
    1.8437  -46.2860  -14.0698 N   0  0  0  0  0  0  0  0  0  0  0  0
    0.6014  -46.6334  -13.5343 C   0  0  0  0  0  0  0  0  0  0  0  0
    0.4519  -46.3103  -12.2800 O   0  0  0  0  0  0  0  0  0  0  0  0
   -0.5539  -47.2891  -14.1081 C   0  0  0  0  0  0  0  0  0  0  0  0
   -0.6868  -47.0020  -15.5447 N   0  0  0  0  0  0  0  0  0  0  0  0
   -0.3078  -47.8531  -16.0630 H   0  0  0  0  0  0  0  0  0  0  0  0
   -1.7037  -46.9687  -15.8006 H   0  0  0  0  0  0  0  0  0  0  0  0
   -0.6792  -48.7662  -13.9232 C   0  0  0  0  0  0  0  0  0  0  0  0
   -1.9313  -49.4253  -14.2967 C   0  0  0  0  0  0  0  0  0  0  0  0
   -3.2224  -49.1001  -13.8439 C   0  0  0  0  0  0  0  0  0  0  0  0
   -4.1229  -49.9409  -14.3883 N   0  0  0  0  0  0  0  0  0  0  0  0
   -3.4791  -50.8101  -15.1833 C   0  0  0  0  0  0  0  0  0  0  0  0
   -3.9306  -51.8573  -15.9868 C   0  0  0  0  0  0  0  0  0  0  0  0
   -3.0617  -52.6004  -16.7428 C   0  0  0  0  0  0  0  0  0  0  0  0
   -1.7191  -52.3193  -16.7178 C   0  0  0  0  0  0  0  0  0  0  0  0
   -1.2847  -51.2922  -15.9265 C   0  0  0  0  0  0  0  0  0  0  0  0
   -2.1207  -50.5187  -15.1496 C   0  0  0  0  0  0  0  0  0  0  0  0
   -5.1428  -49.8816  -14.1898 H   0  0  0  0  0  0  0  0  0  0  0  0
    3.0068  -48.5833  -21.0430 N   0  0  0  0  0  0  0  0  0  0  0  0
    2.4578  -49.8576  -21.2275 C   0  0  0  0  0  0  0  0  0  0  0  0
    2.7861  -50.5475  -22.2204 O   0  0  0  0  0  0  0  0  0  0  0  0
    2.6680  -48.0662  -20.1718 H   0  0  0  0  0  0  0  0  0  0  0  0
    3.9442  -47.9411  -21.8985 C   0  0  0  0  0  0  0  0  0  0  0  0
    3.4549  -47.9286  -23.2764 C   0  0  0  0  0  0  0  0  0  0  0  0
    2.6709  -46.9608  -23.5934 O   0  0  0  0  0  0  0  0  0  0  0  0
    3.7718  -48.8806  -24.2672 N   0  0  0  0  0  0  0  0  0  0  0  0
    4.3781  -49.7049  -24.0995 H   0  0  0  0  0  0  0  0  0  0  0  0
    3.2249  -48.7234  -25.6103 C   0  0  0  0  0  0  0  0  0  0  0  0
    2.8511  -50.1197  -26.0755 C   0  0  0  0  0  0  0  0  0  0  0  0
    3.5718  -50.7458  -27.1095 N   0  0  0  0  0  0  0  0  0  0  0  0
    1.8937  -50.7418  -25.5489 O   0  0  0  0  0  0  0  0  0  0  0  0
    4.6039  -50.7810  -27.0777 H   0  0  0  0  0  0  0  0  0  0  0  0
    3.0727  -51.1719  -27.9046 H   0  0  0  0  0  0  0  0  0  0  0  0
    4.2430  -48.1965  -26.5868 C   0  0  0  0  0  0  0  0  0  0  0  0
    3.6803  -47.3817  -27.6754 C   0  0  0  0  0  0  0  0  0  0  0  0
    4.1322  -47.5127  -28.9582 C   0  0  0  0  0  0  0  0  0  0  0  0
    3.5919  -46.7359  -29.9624 C   0  0  0  0  0  0  0  0  0  0  0  0
    2.5996  -45.8305  -29.6634 C   0  0  0  0  0  0  0  0  0  0  0  0
    2.1235  -45.6756  -28.3783 C   0  0  0  0  0  0  0  0  0  0  0  0
    2.6856  -46.4744  -27.3822 C   0  0  0  0  0  0  0  0  0  0  0  0
    5.3918  -48.1675  -21.7038 C   0  0  0  0  0  0  0  0  0  0  0  0
    6.8780  -48.9068  -19.7500 C   0  0  0  0  0  0  0  0  0  0  0  0
    5.8287  -49.2135  -20.7595 C   0  0  0  0  0  0  0  0  0  0  0  0
    6.2383  -50.5071  -21.4634 C   0  0  0  0  0  0  0  0  0  0  0  0
    0.0989  -50.5989  -20.7567 C   0  0  0  0  0  0  0  0  0  0  0  0
   -0.2375  -52.0515  -20.8948 C   0  0  0  0  0  0  0  0  0  0  0  0
   -0.4493  -52.9442  -19.8411 C   0  0  0  0  0  0  0  0  0  0  0  0
   -0.7350  -54.1450  -20.3775 N   0  0  0  0  0  0  0  0  0  0  0  0
   -0.7259  -54.1087  -21.7201 C   0  0  0  0  0  0  0  0  0  0  0  0
   -0.9578  -55.0841  -22.6553 C   0  0  0  0  0  0  0  0  0  0  0  0
   -0.8694  -54.7108  -23.9847 C   0  0  0  0  0  0  0  0  0  0  0  0
   -0.5627  -53.4195  -24.3305 C   0  0  0  0  0  0  0  0  0  0  0  0
   -0.3324  -52.4487  -23.3861 C   0  0  0  0  0  0  0  0  0  0  0  0
   -0.4126  -52.7868  -22.0496 C   0  0  0  0  0  0  0  0  0  0  0  0
   -0.9498  -55.0360  -19.8389 H   0  0  0  0  0  0  0  0  0  0  0  0
 56 57  1  0  0  0
 57 58  1  0  0  0
 57 55  1  0  0  0
 55 37  1  0  0  0
 37 33  1  0  0  0
 33 34  1  0  0  0
 34 35  2  0  0  0
 34  1  1  0  0  0
  1 59  1  0  0  0
 59 60  1  0  0  0
 60 61  2  0  0  0
 61 62  1  0  0  0
 62 63  1  0  0  0
 63 64  2  0  0  0
 64 65  1  0  0  0
 65 66  2  0  0  0
 66 67  1  0  0  0
 67 68  2  0  0  0
  1  2  1  0  0  0
  2  3  1  0  0  0
  3  4  2  0  0  0
  3  6  1  0  0  0
  6  7  1  0  0  0
  7  8  1  0  0  0
  8  9  2  0  0  0
  8 11  1  0  0  0
 11 12  1  0  0  0
 12 13  1  0  0  0
 13 14  1  0  0  0
 14 15  1  0  0  0
 15 16  1  0  0  0
 16 17  2  0  0  0
 16 18  1  0  0  0
 18 19  1  0  0  0
 18 22  1  0  0  0
 22 23  1  0  0  0
 23 24  2  0  0  0
 24 25  1  0  0  0
 25 26  1  0  0  0
 26 27  2  0  0  0
 27 28  1  0  0  0
 28 29  2  0  0  0
 29 30  1  0  0  0
 30 31  2  0  0  0
 37 38  1  0  0  0
 38 39  2  0  0  0
 38 40  1  0  0  0
 40 42  1  0  0  0
 42 48  1  0  0  0
 48 49  1  0  0  0
 49 50  2  0  0  0
 50 51  1  0  0  0
 51 52  2  0  0  0
 52 53  1  0  0  0
 53 54  2  0  0  0
 42 43  1  0  0  0
 43 44  1  0  0  0
 43 45  2  0  0  0
 68 60  1  0  0  0
 15 11  1  0  0  0
 31 23  1  0  0  0
 54 49  1  0  0  0
 68 63  1  0  0  0
 31 26  1  0  0  0
 33 36  1  0  0  0
 62 69  1  0  0  0
  2  5  1  0  0  0
  7 10  1  0  0  0
 19 20  1  0  0  0
 19 21  1  0  0  0
 25 32  1  0  0  0
 40 41  1  0  0  0
 44 46  1  0  0  0
 44 47  1  0  0  0
M  END
> <minimizedAffinity>
-8.04774

> <CNNscore>
0.1295582354

> <CNNaffinity>
7.0842676163

> <CNN_VS>
0.9178252220

> <CNNaffinity_variance>
1.1345754862

$$$$
[H]c1c([H])c([H])c(C([H])([H])[C@@]([H])(C(=O)N([H])[H])N([H])C(=O)[C@@]([H])(N([H])C(=O)[C@@]([H])(N([H])C(=O)C([H])([H])N([H])C(=O)[C@@]2([H])N(C(=O)[C@@]([H])(N([H])[H])C([H])([H])c3c([H])n([H])c4c([H])c([H])c([H])c([H])c34)C([H])([H])C([H])([H])C2([H])[H])C([H])([H])c2c([H])n([H])c3c([H])c([H])c([H])c([H])c23)C([H])([H])C([H])(C([H])([H])[H])C([H])([H])[H])c([H])c1[H]


 69 74  0  0  0  0  0  0  0  0999 V2000
    3.3462  -51.7057  -24.3387 C   0  0  0  0  0  0  0  0  0  0  0  0
    3.6741  -51.5363  -22.9279 N   0  0  0  0  0  0  0  0  0  0  0  0
    4.9306  -51.0815  -22.5349 C   0  0  0  0  0  0  0  0  0  0  0  0
    5.7700  -50.8242  -23.4717 O   0  0  0  0  0  0  0  0  0  0  0  0
    2.9534  -51.7589  -22.1953 H   0  0  0  0  0  0  0  0  0  0  0  0
    5.3529  -50.8779  -21.1524 C   0  0  0  0  0  0  0  0  0  0  0  0
    4.5068  -50.0596  -20.3803 N   0  0  0  0  0  0  0  0  0  0  0  0
    4.8645  -48.6631  -20.2454 C   0  0  0  0  0  0  0  0  0  0  0  0
    5.8806  -48.2606  -20.8210 O   0  0  0  0  0  0  0  0  0  0  0  0
    3.6606  -50.3725  -19.9078 H   0  0  0  0  0  0  0  0  0  0  0  0
    3.9940  -47.7522  -19.4133 C   0  0  0  0  0  0  0  0  0  0  0  0
    4.4614  -46.3459  -19.6297 C   0  0  0  0  0  0  0  0  0  0  0  0
    4.9018  -45.8778  -18.2744 C   0  0  0  0  0  0  0  0  0  0  0  0
    5.0478  -47.1106  -17.4409 C   0  0  0  0  0  0  0  0  0  0  0  0
    4.0510  -48.0278  -18.0320 N   0  0  0  0  0  0  0  0  0  0  0  0
    3.3891  -48.9825  -17.2565 C   0  0  0  0  0  0  0  0  0  0  0  0
    3.6450  -48.9039  -15.9805 O   0  0  0  0  0  0  0  0  0  0  0  0
    2.4730  -50.0481  -17.6019 C   0  0  0  0  0  0  0  0  0  0  0  0
    2.1733  -50.9063  -16.4454 N   0  0  0  0  0  0  0  0  0  0  0  0
    1.2215  -50.5998  -16.0756 H   0  0  0  0  0  0  0  0  0  0  0  0
    2.0242  -51.8919  -16.7725 H   0  0  0  0  0  0  0  0  0  0  0  0
    1.1761  -49.6712  -18.2403 C   0  0  0  0  0  0  0  0  0  0  0  0
    0.9305  -50.0558  -19.6309 C   0  0  0  0  0  0  0  0  0  0  0  0
    1.1069  -49.2520  -20.7712 C   0  0  0  0  0  0  0  0  0  0  0  0
    0.7581  -49.9412  -21.8746 N   0  0  0  0  0  0  0  0  0  0  0  0
    0.3575  -51.1694  -21.5100 C   0  0  0  0  0  0  0  0  0  0  0  0
   -0.0804  -52.2700  -22.2470 C   0  0  0  0  0  0  0  0  0  0  0  0
   -0.4160  -53.4493  -21.6344 C   0  0  0  0  0  0  0  0  0  0  0  0
   -0.3241  -53.5629  -20.2702 C   0  0  0  0  0  0  0  0  0  0  0  0
    0.1045  -52.4791  -19.5552 C   0  0  0  0  0  0  0  0  0  0  0  0
    0.4520  -51.2738  -20.1274 C   0  0  0  0  0  0  0  0  0  0  0  0
    0.8100  -49.5375  -22.8325 H   0  0  0  0  0  0  0  0  0  0  0  0
    3.7911  -49.5688  -25.6349 N   0  0  0  0  0  0  0  0  0  0  0  0
    2.9228  -50.4150  -24.9356 C   0  0  0  0  0  0  0  0  0  0  0  0
    1.7190  -50.1005  -24.7884 O   0  0  0  0  0  0  0  0  0  0  0  0
    4.7990  -49.9152  -25.7089 H   0  0  0  0  0  0  0  0  0  0  0  0
    3.4508  -48.3225  -26.2299 C   0  0  0  0  0  0  0  0  0  0  0  0
    3.9407  -48.2616  -27.6063 C   0  0  0  0  0  0  0  0  0  0  0  0
    3.9147  -49.3625  -28.2691 O   0  0  0  0  0  0  0  0  0  0  0  0
    4.4310  -47.1076  -28.2514 N   0  0  0  0  0  0  0  0  0  0  0  0
    4.5088  -46.1813  -27.7919 H   0  0  0  0  0  0  0  0  0  0  0  0
    4.8646  -47.1954  -29.6413 C   0  0  0  0  0  0  0  0  0  0  0  0
    6.3570  -47.4725  -29.5969 C   0  0  0  0  0  0  0  0  0  0  0  0
    6.8362  -48.7657  -29.3167 N   0  0  0  0  0  0  0  0  0  0  0  0
    7.1911  -46.5557  -29.8080 O   0  0  0  0  0  0  0  0  0  0  0  0
    6.4646  -49.5815  -29.8303 H   0  0  0  0  0  0  0  0  0  0  0  0
    7.5605  -48.9050  -28.5963 H   0  0  0  0  0  0  0  0  0  0  0  0
    4.6842  -45.8970  -30.3823 C   0  0  0  0  0  0  0  0  0  0  0  0
    4.0227  -46.0272  -31.6904 C   0  0  0  0  0  0  0  0  0  0  0  0
    4.6481  -45.6283  -32.8379 C   0  0  0  0  0  0  0  0  0  0  0  0
    4.0072  -45.7571  -34.0531 C   0  0  0  0  0  0  0  0  0  0  0  0
    2.7380  -46.2868  -34.1005 C   0  0  0  0  0  0  0  0  0  0  0  0
    2.0814  -46.6977  -32.9593 C   0  0  0  0  0  0  0  0  0  0  0  0
    2.7523  -46.5580  -31.7442 C   0  0  0  0  0  0  0  0  0  0  0  0
    3.5357  -47.0804  -25.4331 C   0  0  0  0  0  0  0  0  0  0  0  0
    2.8666  -46.8932  -22.9654 C   0  0  0  0  0  0  0  0  0  0  0  0
    3.8938  -47.1732  -24.0049 C   0  0  0  0  0  0  0  0  0  0  0  0
    5.1326  -46.3489  -23.6547 C   0  0  0  0  0  0  0  0  0  0  0  0
    2.5230  -52.8813  -24.6302 C   0  0  0  0  0  0  0  0  0  0  0  0
    2.2102  -52.9104  -26.0944 C   0  0  0  0  0  0  0  0  0  0  0  0
    3.1417  -53.0557  -27.1254 C   0  0  0  0  0  0  0  0  0  0  0  0
    2.4653  -53.0417  -28.2887 N   0  0  0  0  0  0  0  0  0  0  0  0
    1.1437  -52.8956  -28.0979 C   0  0  0  0  0  0  0  0  0  0  0  0
    0.1009  -52.8304  -28.9856 C   0  0  0  0  0  0  0  0  0  0  0  0
   -1.1663  -52.6743  -28.4527 C   0  0  0  0  0  0  0  0  0  0  0  0
   -1.3501  -52.5906  -27.0961 C   0  0  0  0  0  0  0  0  0  0  0  0
   -0.2987  -52.6574  -26.2142 C   0  0  0  0  0  0  0  0  0  0  0  0
    0.9798  -52.8132  -26.7121 C   0  0  0  0  0  0  0  0  0  0  0  0
    2.8879  -53.1349  -29.2598 H   0  0  0  0  0  0  0  0  0  0  0  0
 56 57  1  0  0  0
 57 58  1  0  0  0
 57 55  1  0  0  0
 55 37  1  0  0  0
 37 33  1  0  0  0
 33 34  1  0  0  0
 34 35  2  0  0  0
 34  1  1  0  0  0
  1 59  1  0  0  0
 59 60  1  0  0  0
 60 61  2  0  0  0
 61 62  1  0  0  0
 62 63  1  0  0  0
 63 64  2  0  0  0
 64 65  1  0  0  0
 65 66  2  0  0  0
 66 67  1  0  0  0
 67 68  2  0  0  0
  1  2  1  0  0  0
  2  3  1  0  0  0
  3  4  2  0  0  0
  3  6  1  0  0  0
  6  7  1  0  0  0
  7  8  1  0  0  0
  8  9  2  0  0  0
  8 11  1  0  0  0
 11 12  1  0  0  0
 12 13  1  0  0  0
 13 14  1  0  0  0
 14 15  1  0  0  0
 15 16  1  0  0  0
 16 17  2  0  0  0
 16 18  1  0  0  0
 18 19  1  0  0  0
 18 22  1  0  0  0
 22 23  1  0  0  0
 23 24  2  0  0  0
 24 25  1  0  0  0
 25 26  1  0  0  0
 26 27  2  0  0  0
 27 28  1  0  0  0
 28 29  2  0  0  0
 29 30  1  0  0  0
 30 31  2  0  0  0
 37 38  1  0  0  0
 38 39  2  0  0  0
 38 40  1  0  0  0
 40 42  1  0  0  0
 42 48  1  0  0  0
 48 49  1  0  0  0
 49 50  2  0  0  0
 50 51  1  0  0  0
 51 52  2  0  0  0
 52 53  1  0  0  0
 53 54  2  0  0  0
 42 43  1  0  0  0
 43 44  1  0  0  0
 43 45  2  0  0  0
 68 60  1  0  0  0
 15 11  1  0  0  0
 31 23  1  0  0  0
 54 49  1  0  0  0
 68 63  1  0  0  0
 31 26  1  0  0  0
 33 36  1  0  0  0
 62 69  1  0  0  0
  2  5  1  0  0  0
  7 10  1  0  0  0
 19 20  1  0  0  0
 19 21  1  0  0  0
 25 32  1  0  0  0
 40 41  1  0  0  0
 44 46  1  0  0  0
 44 47  1  0  0  0
M  END
> <minimizedAffinity>
-8.79445

> <CNNscore>
0.1283433735

> <CNNaffinity>
7.2203583717

> <CNN_VS>
0.9266851544

> <CNNaffinity_variance>
1.5622365475

$$$$
[H]Oc1c([H])c([H])c(C([H])([H])[C@@]2([H])C(=O)N([H])[C@@]([H])(C([H])([H])c3c([H])n([H])c4c([H])c([H])c([H])c([H])c34)C(=O)N3C([H])([H])C([H])([H])C([H])([H])[C@@]3([H])C(=O)N([H])[C@@]([H])(C([H])([H])c3c([H])n([H])c4c([H])c([H])c([H])c([H])c34)C(=O)N([H])[C@@]([H])(C([H])(C([H])([H])[H])C([H])([H])[H])C(=O)N2[H])c([H])c1[H]


 61 67  0  0  0  0  0  0  0  0999 V2000
    4.2893  -45.5610  -25.3429 C   0  0  0  0  0  0  0  0  0  0  0  0
    5.6224  -45.8475  -24.9410 N   0  0  0  0  0  0  0  0  0  0  0  0
    6.2042  -45.7267  -23.6610 C   0  0  0  0  0  0  0  0  0  0  0  0
    7.4511  -45.5598  -23.6142 O   0  0  0  0  0  0  0  0  0  0  0  0
    5.4731  -45.7800  -22.3710 C   0  0  0  0  0  0  0  0  0  0  0  0
    4.7406  -46.9837  -22.1793 N   0  0  0  0  0  0  0  0  0  0  0  0
    5.0124  -48.1660  -21.5114 C   0  0  0  0  0  0  0  0  0  0  0  0
    3.9986  -48.6267  -20.8231 O   0  0  0  0  0  0  0  0  0  0  0  0
    6.1407  -49.0316  -21.3767 C   0  0  0  0  0  0  0  0  0  0  0  0
    7.3535  -48.9013  -22.1800 C   0  0  0  0  0  0  0  0  0  0  0  0
    8.1007  -50.2038  -21.8397 C   0  0  0  0  0  0  0  0  0  0  0  0
    7.1541  -50.9260  -20.8652 C   0  0  0  0  0  0  0  0  0  0  0  0
    5.8826  -50.4827  -21.4718 N   0  0  0  0  0  0  0  0  0  0  0  0
    4.7651  -51.1334  -21.9746 C   0  0  0  0  0  0  0  0  0  0  0  0
    4.0297  -51.6948  -21.0522 O   0  0  0  0  0  0  0  0  0  0  0  0
    4.2347  -51.3237  -23.3209 C   0  0  0  0  0  0  0  0  0  0  0  0
    5.0069  -50.6530  -24.3578 N   0  0  0  0  0  0  0  0  0  0  0  0
    4.5828  -49.9142  -25.4389 C   0  0  0  0  0  0  0  0  0  0  0  0
    5.1316  -50.2036  -26.5724 O   0  0  0  0  0  0  0  0  0  0  0  0
    3.5904  -48.8241  -25.5253 C   0  0  0  0  0  0  0  0  0  0  0  0
    3.9860  -47.8347  -26.5247 N   0  0  0  0  0  0  0  0  0  0  0  0
    3.9114  -46.4573  -26.4563 C   0  0  0  0  0  0  0  0  0  0  0  0
    3.4527  -45.8635  -27.4973 O   0  0  0  0  0  0  0  0  0  0  0  0
    6.2618  -46.2000  -25.7252 H   0  0  0  0  0  0  0  0  0  0  0  0
    3.7680  -46.9719  -22.6480 H   0  0  0  0  0  0  0  0  0  0  0  0
    6.0586  -50.7889  -24.2343 H   0  0  0  0  0  0  0  0  0  0  0  0
    4.3793  -48.2856  -27.4081 H   0  0  0  0  0  0  0  0  0  0  0  0
    3.8699  -43.9661  -27.2264 C   0  0  0  0  0  0  0  0  0  0  0  0
    4.1881  -44.0835  -25.7715 C   0  0  0  0  0  0  0  0  0  0  0  0
    5.4062  -43.2972  -25.3513 C   0  0  0  0  0  0  0  0  0  0  0  0
    6.3084  -45.3504  -21.1906 C   0  0  0  0  0  0  0  0  0  0  0  0
    5.5498  -44.5797  -20.1796 C   0  0  0  0  0  0  0  0  0  0  0  0
    4.3465  -43.9296  -20.2672 C   0  0  0  0  0  0  0  0  0  0  0  0
    4.0617  -43.3728  -19.0779 N   0  0  0  0  0  0  0  0  0  0  0  0
    5.0595  -43.6430  -18.1979 C   0  0  0  0  0  0  0  0  0  0  0  0
    5.2250  -43.2971  -16.8804 C   0  0  0  0  0  0  0  0  0  0  0  0
    6.3465  -43.7031  -16.2013 C   0  0  0  0  0  0  0  0  0  0  0  0
    7.2842  -44.4626  -16.8929 C   0  0  0  0  0  0  0  0  0  0  0  0
    7.1317  -44.8127  -18.2005 C   0  0  0  0  0  0  0  0  0  0  0  0
    5.9874  -44.3962  -18.8868 C   0  0  0  0  0  0  0  0  0  0  0  0
    3.2176  -42.8129  -18.8263 H   0  0  0  0  0  0  0  0  0  0  0  0
    4.2103  -52.7680  -23.7672 C   0  0  0  0  0  0  0  0  0  0  0  0
    3.3867  -53.0985  -24.9175 C   0  0  0  0  0  0  0  0  0  0  0  0
    3.8420  -52.8975  -26.2348 C   0  0  0  0  0  0  0  0  0  0  0  0
    2.8904  -53.3536  -27.0463 N   0  0  0  0  0  0  0  0  0  0  0  0
    1.8477  -53.8358  -26.3479 C   0  0  0  0  0  0  0  0  0  0  0  0
    0.6524  -54.3803  -26.7946 C   0  0  0  0  0  0  0  0  0  0  0  0
   -0.2640  -54.7755  -25.8658 C   0  0  0  0  0  0  0  0  0  0  0  0
    0.0234  -54.6227  -24.5258 C   0  0  0  0  0  0  0  0  0  0  0  0
    1.1996  -54.0879  -24.0920 C   0  0  0  0  0  0  0  0  0  0  0  0
    2.1473  -53.6803  -25.0021 C   0  0  0  0  0  0  0  0  0  0  0  0
    2.9479  -53.3386  -28.0936 H   0  0  0  0  0  0  0  0  0  0  0  0
    2.2650  -49.3676  -25.9806 C   0  0  0  0  0  0  0  0  0  0  0  0
    1.4755  -50.0350  -24.9258 C   0  0  0  0  0  0  0  0  0  0  0  0
    1.7459  -49.9117  -23.5800 C   0  0  0  0  0  0  0  0  0  0  0  0
    0.9895  -50.5477  -22.6287 C   0  0  0  0  0  0  0  0  0  0  0  0
   -0.0684  -51.3327  -22.9922 C   0  0  0  0  0  0  0  0  0  0  0  0
   -0.8794  -52.0094  -22.0648 O   0  0  0  0  0  0  0  0  0  0  0  0
   -0.3416  -51.4581  -24.3321 C   0  0  0  0  0  0  0  0  0  0  0  0
    0.3945  -50.8359  -25.3076 C   0  0  0  0  0  0  0  0  0  0  0  0
   -1.7045  -51.5939  -21.6680 H   0  0  0  0  0  0  0  0  0  0  0  0
 28 29  1  0  0  0
 29 30  1  0  0  0
 29  1  1  0  0  0
  1  2  1  0  0  0
  2  3  1  0  0  0
  3  4  2  0  0  0
  3  5  1  0  0  0
  5 31  1  0  0  0
 31 32  1  0  0  0
 32 33  2  0  0  0
 33 34  1  0  0  0
 34 35  1  0  0  0
 35 36  2  0  0  0
 36 37  1  0  0  0
 37 38  2  0  0  0
 38 39  1  0  0  0
 39 40  2  0  0  0
  5  6  1  0  0  0
  6  7  1  0  0  0
  7  8  2  0  0  0
  7  9  1  0  0  0
  9 10  1  0  0  0
 10 11  1  0  0  0
 11 12  1  0  0  0
 12 13  1  0  0  0
 13 14  1  0  0  0
 14 15  2  0  0  0
 14 16  1  0  0  0
 16 42  1  0  0  0
 42 43  1  0  0  0
 43 44  2  0  0  0
 44 45  1  0  0  0
 45 46  1  0  0  0
 46 47  2  0  0  0
 47 48  1  0  0  0
 48 49  2  0  0  0
 49 50  1  0  0  0
 50 51  2  0  0  0
 16 17  1  0  0  0
 17 18  1  0  0  0
 18 19  2  0  0  0
 18 20  1  0  0  0
 20 53  1  0  0  0
 53 54  1  0  0  0
 54 55  2  0  0  0
 55 56  1  0  0  0
 56 57  2  0  0  0
 57 58  1  0  0  0
 57 59  1  0  0  0
 59 60  2  0  0  0
 20 21  1  0  0  0
 21 22  1  0  0  0
 22 23  2  0  0  0
 22  1  1  0  0  0
 40 32  1  0  0  0
 13  9  1  0  0  0
 51 43  1  0  0  0
 60 54  1  0  0  0
 40 35  1  0  0  0
 51 46  1  0  0  0
  2 24  1  0  0  0
 34 41  1  0  0  0
  6 25  1  0  0  0
 45 52  1  0  0  0
 17 26  1  0  0  0
 58 61  1  0  0  0
 21 27  1  0  0  0
M  END
> <minimizedAffinity>
-2.37075

> <CNNscore>
0.3928596675

> <CNNaffinity>
7.1999788284

> <CNN_VS>
2.8285813332

> <CNNaffinity_variance>
1.7796341181

$$$$
[H]Oc1c([H])c([H])c(C([H])([H])[C@@]2([H])C(=O)N([H])[C@@]([H])(C([H])([H])c3c([H])n([H])c4c([H])c([H])c([H])c([H])c34)C(=O)N3C([H])([H])C([H])([H])C([H])([H])[C@@]3([H])C(=O)N([H])[C@@]([H])(C([H])([H])c3c([H])n([H])c4c([H])c([H])c([H])c([H])c34)C(=O)N([H])[C@@]([H])(C([H])(C([H])([H])[H])C([H])([H])[H])C(=O)N2[H])c([H])c1[H]


 61 67  0  0  0  0  0  0  0  0999 V2000
    1.2002  -51.4466  -24.4869 C   0  0  0  0  0  0  0  0  0  0  0  0
    1.0703  -50.6289  -23.3314 N   0  0  0  0  0  0  0  0  0  0  0  0
    1.4305  -50.9200  -21.9984 C   0  0  0  0  0  0  0  0  0  0  0  0
    0.8135  -50.3012  -21.0922 O   0  0  0  0  0  0  0  0  0  0  0  0
    2.4712  -51.8898  -21.5766 C   0  0  0  0  0  0  0  0  0  0  0  0
    3.7602  -51.6112  -22.1088 N   0  0  0  0  0  0  0  0  0  0  0  0
    4.8716  -50.9511  -21.6119 C   0  0  0  0  0  0  0  0  0  0  0  0
    6.0032  -51.5555  -21.8730 O   0  0  0  0  0  0  0  0  0  0  0  0
    5.1061  -49.7530  -20.8703 C   0  0  0  0  0  0  0  0  0  0  0  0
    4.0709  -48.7579  -20.6034 C   0  0  0  0  0  0  0  0  0  0  0  0
    4.8948  -47.5877  -20.0356 C   0  0  0  0  0  0  0  0  0  0  0  0
    6.3440  -48.1025  -20.0825 C   0  0  0  0  0  0  0  0  0  0  0  0
    6.2230  -48.8981  -21.3208 N   0  0  0  0  0  0  0  0  0  0  0  0
    6.8934  -48.9162  -22.5354 C   0  0  0  0  0  0  0  0  0  0  0  0
    8.1088  -49.3884  -22.4530 O   0  0  0  0  0  0  0  0  0  0  0  0
    6.5269  -48.5187  -23.8909 C   0  0  0  0  0  0  0  0  0  0  0  0
    5.1544  -48.0471  -24.0150 N   0  0  0  0  0  0  0  0  0  0  0  0
    4.2076  -48.3220  -24.9754 C   0  0  0  0  0  0  0  0  0  0  0  0
    3.5779  -47.3018  -25.4576 O   0  0  0  0  0  0  0  0  0  0  0  0
    3.7784  -49.6093  -25.5580 C   0  0  0  0  0  0  0  0  0  0  0  0
    2.3504  -49.5937  -25.8661 N   0  0  0  0  0  0  0  0  0  0  0  0
    1.4118  -50.5880  -25.6718 C   0  0  0  0  0  0  0  0  0  0  0  0
    0.6071  -50.8044  -26.6476 O   0  0  0  0  0  0  0  0  0  0  0  0
    0.6376  -49.6651  -23.5099 H   0  0  0  0  0  0  0  0  0  0  0  0
    3.9044  -51.9994  -23.1060 H   0  0  0  0  0  0  0  0  0  0  0  0
    4.8815  -47.3774  -23.2296 H   0  0  0  0  0  0  0  0  0  0  0  0
    2.0388  -48.6688  -26.2973 H   0  0  0  0  0  0  0  0  0  0  0  0
   -0.7632  -52.4991  -23.3450 C   0  0  0  0  0  0  0  0  0  0  0  0
   -0.0688  -52.3059  -24.6536 C   0  0  0  0  0  0  0  0  0  0  0  0
    0.2237  -53.5955  -25.3816 C   0  0  0  0  0  0  0  0  0  0  0  0
    2.4461  -52.1908  -20.0987 C   0  0  0  0  0  0  0  0  0  0  0  0
    1.1246  -52.6462  -19.6111 C   0  0  0  0  0  0  0  0  0  0  0  0
    0.3316  -53.6884  -20.0155 C   0  0  0  0  0  0  0  0  0  0  0  0
   -0.7829  -53.7078  -19.2653 N   0  0  0  0  0  0  0  0  0  0  0  0
   -0.7439  -52.6919  -18.3655 C   0  0  0  0  0  0  0  0  0  0  0  0
   -1.6354  -52.3032  -17.3975 C   0  0  0  0  0  0  0  0  0  0  0  0
   -1.3549  -51.2196  -16.6033 C   0  0  0  0  0  0  0  0  0  0  0  0
   -0.1550  -50.5501  -16.8195 C   0  0  0  0  0  0  0  0  0  0  0  0
    0.7383  -50.9260  -17.7768 C   0  0  0  0  0  0  0  0  0  0  0  0
    0.4470  -52.0304  -18.5825 C   0  0  0  0  0  0  0  0  0  0  0  0
   -1.5786  -54.3800  -19.3299 H   0  0  0  0  0  0  0  0  0  0  0  0
    7.3516  -47.3737  -24.4338 C   0  0  0  0  0  0  0  0  0  0  0  0
    7.0647  -46.0432  -23.9259 C   0  0  0  0  0  0  0  0  0  0  0  0
    6.3598  -45.0954  -24.6926 C   0  0  0  0  0  0  0  0  0  0  0  0
    6.2087  -44.0157  -23.9286 N   0  0  0  0  0  0  0  0  0  0  0  0
    6.7678  -44.1955  -22.7192 C   0  0  0  0  0  0  0  0  0  0  0  0
    6.8547  -43.3272  -21.6407 C   0  0  0  0  0  0  0  0  0  0  0  0
    7.5073  -43.7513  -20.5213 C   0  0  0  0  0  0  0  0  0  0  0  0
    8.0547  -45.0167  -20.4973 C   0  0  0  0  0  0  0  0  0  0  0  0
    7.9658  -45.8665  -21.5593 C   0  0  0  0  0  0  0  0  0  0  0  0
    7.3128  -45.4713  -22.7039 C   0  0  0  0  0  0  0  0  0  0  0  0
    5.7172  -43.1400  -24.2316 H   0  0  0  0  0  0  0  0  0  0  0  0
    4.4829  -49.8449  -26.8647 C   0  0  0  0  0  0  0  0  0  0  0  0
    4.7954  -48.6198  -27.6281 C   0  0  0  0  0  0  0  0  0  0  0  0
    3.8332  -47.7811  -28.1481 C   0  0  0  0  0  0  0  0  0  0  0  0
    4.1623  -46.6512  -28.8526 C   0  0  0  0  0  0  0  0  0  0  0  0
    5.4713  -46.3193  -29.0625 C   0  0  0  0  0  0  0  0  0  0  0  0
    5.8708  -45.1761  -29.7759 O   0  0  0  0  0  0  0  0  0  0  0  0
    6.4333  -47.1520  -28.5459 C   0  0  0  0  0  0  0  0  0  0  0  0
    6.1378  -48.2883  -27.8373 C   0  0  0  0  0  0  0  0  0  0  0  0
    6.0253  -44.2893  -29.3280 H   0  0  0  0  0  0  0  0  0  0  0  0
 28 29  1  0  0  0
 29 30  1  0  0  0
 29  1  1  0  0  0
  1  2  1  0  0  0
  2  3  1  0  0  0
  3  4  2  0  0  0
  3  5  1  0  0  0
  5 31  1  0  0  0
 31 32  1  0  0  0
 32 33  2  0  0  0
 33 34  1  0  0  0
 34 35  1  0  0  0
 35 36  2  0  0  0
 36 37  1  0  0  0
 37 38  2  0  0  0
 38 39  1  0  0  0
 39 40  2  0  0  0
  5  6  1  0  0  0
  6  7  1  0  0  0
  7  8  2  0  0  0
  7  9  1  0  0  0
  9 10  1  0  0  0
 10 11  1  0  0  0
 11 12  1  0  0  0
 12 13  1  0  0  0
 13 14  1  0  0  0
 14 15  2  0  0  0
 14 16  1  0  0  0
 16 42  1  0  0  0
 42 43  1  0  0  0
 43 44  2  0  0  0
 44 45  1  0  0  0
 45 46  1  0  0  0
 46 47  2  0  0  0
 47 48  1  0  0  0
 48 49  2  0  0  0
 49 50  1  0  0  0
 50 51  2  0  0  0
 16 17  1  0  0  0
 17 18  1  0  0  0
 18 19  2  0  0  0
 18 20  1  0  0  0
 20 53  1  0  0  0
 53 54  1  0  0  0
 54 55  2  0  0  0
 55 56  1  0  0  0
 56 57  2  0  0  0
 57 58  1  0  0  0
 57 59  1  0  0  0
 59 60  2  0  0  0
 20 21  1  0  0  0
 21 22  1  0  0  0
 22 23  2  0  0  0
 22  1  1  0  0  0
 40 32  1  0  0  0
 13  9  1  0  0  0
 51 43  1  0  0  0
 60 54  1  0  0  0
 40 35  1  0  0  0
 51 46  1  0  0  0
  2 24  1  0  0  0
 34 41  1  0  0  0
  6 25  1  0  0  0
 45 52  1  0  0  0
 17 26  1  0  0  0
 58 61  1  0  0  0
 21 27  1  0  0  0
M  END
> <minimizedAffinity>
-6.50771

> <CNNscore>
0.3016352654

> <CNNaffinity>
7.1742262840

> <CNN_VS>
2.1639995575

> <CNNaffinity_variance>
0.9610186815

$$$$
[H]Oc1c([H])c([H])c(C([H])([H])[C@@]2([H])C(=O)N([H])[C@@]([H])(C([H])([H])c3c([H])n([H])c4c([H])c([H])c([H])c([H])c34)C(=O)N3C([H])([H])C([H])([H])C([H])([H])[C@@]3([H])C(=O)N([H])[C@@]([H])(C([H])([H])c3c([H])n([H])c4c([H])c([H])c([H])c([H])c34)C(=O)N([H])[C@@]([H])(C([H])(C([H])([H])[H])C([H])([H])[H])C(=O)N2[H])c([H])c1[H]


 61 67  0  0  0  0  0  0  0  0999 V2000
    3.3130  -50.9985  -24.1350 C   0  0  0  0  0  0  0  0  0  0  0  0
    4.6818  -51.2073  -23.8135 N   0  0  0  0  0  0  0  0  0  0  0  0
    5.7810  -50.3494  -24.0311 C   0  0  0  0  0  0  0  0  0  0  0  0
    6.9148  -50.8877  -24.1283 O   0  0  0  0  0  0  0  0  0  0  0  0
    5.7131  -48.8723  -24.1542 C   0  0  0  0  0  0  0  0  0  0  0  0
    5.1399  -48.2310  -23.0218 N   0  0  0  0  0  0  0  0  0  0  0  0
    5.6779  -47.6214  -21.9008 C   0  0  0  0  0  0  0  0  0  0  0  0
    5.0831  -46.5019  -21.5739 O   0  0  0  0  0  0  0  0  0  0  0  0
    6.7398  -47.9063  -20.9888 C   0  0  0  0  0  0  0  0  0  0  0  0
    7.4580  -49.1777  -20.9641 C   0  0  0  0  0  0  0  0  0  0  0  0
    8.2707  -49.0575  -19.6619 C   0  0  0  0  0  0  0  0  0  0  0  0
    7.8639  -47.6838  -19.1009 C   0  0  0  0  0  0  0  0  0  0  0  0
    6.4582  -47.7025  -19.5534 N   0  0  0  0  0  0  0  0  0  0  0  0
    5.2304  -47.5688  -18.9211 C   0  0  0  0  0  0  0  0  0  0  0  0
    4.9893  -46.3551  -18.5020 O   0  0  0  0  0  0  0  0  0  0  0  0
    4.1467  -48.5003  -18.6246 C   0  0  0  0  0  0  0  0  0  0  0  0
    4.3694  -49.8449  -19.1383 N   0  0  0  0  0  0  0  0  0  0  0  0
    3.5060  -50.6993  -19.7854 C   0  0  0  0  0  0  0  0  0  0  0  0
    3.4802  -51.9153  -19.3489 O   0  0  0  0  0  0  0  0  0  0  0  0
    2.5883  -50.4594  -20.9173 C   0  0  0  0  0  0  0  0  0  0  0  0
    2.4941  -51.6393  -21.7734 N   0  0  0  0  0  0  0  0  0  0  0  0
    2.4666  -51.7085  -23.1525 C   0  0  0  0  0  0  0  0  0  0  0  0
    1.5896  -52.4948  -23.6617 O   0  0  0  0  0  0  0  0  0  0  0  0
    4.8946  -52.1471  -23.3451 H   0  0  0  0  0  0  0  0  0  0  0  0
    4.0605  -48.2105  -23.0424 H   0  0  0  0  0  0  0  0  0  0  0  0
    5.3622  -50.1917  -18.9542 H   0  0  0  0  0  0  0  0  0  0  0  0
    2.4421  -52.5448  -21.2114 H   0  0  0  0  0  0  0  0  0  0  0  0
    3.8926  -52.6887  -25.8884 C   0  0  0  0  0  0  0  0  0  0  0  0
    3.0372  -51.5077  -25.5638 C   0  0  0  0  0  0  0  0  0  0  0  0
    3.1290  -50.3944  -26.5790 C   0  0  0  0  0  0  0  0  0  0  0  0
    6.9949  -48.2530  -24.6533 C   0  0  0  0  0  0  0  0  0  0  0  0
    7.2035  -48.4198  -26.1094 C   0  0  0  0  0  0  0  0  0  0  0  0
    8.2265  -49.0091  -26.8056 C   0  0  0  0  0  0  0  0  0  0  0  0
    7.9692  -48.9202  -28.1214 N   0  0  0  0  0  0  0  0  0  0  0  0
    6.7878  -48.2792  -28.3122 C   0  0  0  0  0  0  0  0  0  0  0  0
    6.1087  -47.9515  -29.4586 C   0  0  0  0  0  0  0  0  0  0  0  0
    4.9093  -47.2890  -29.3787 C   0  0  0  0  0  0  0  0  0  0  0  0
    4.4258  -46.9732  -28.1133 C   0  0  0  0  0  0  0  0  0  0  0  0
    5.0901  -47.2930  -26.9679 C   0  0  0  0  0  0  0  0  0  0  0  0
    6.3111  -47.9676  -27.0558 C   0  0  0  0  0  0  0  0  0  0  0  0
    8.5573  -49.2746  -28.9073 H   0  0  0  0  0  0  0  0  0  0  0  0
    3.9144  -48.7134  -17.1459 C   0  0  0  0  0  0  0  0  0  0  0  0
    2.6440  -49.2931  -16.7454 C   0  0  0  0  0  0  0  0  0  0  0  0
    1.4337  -48.9174  -17.3595 C   0  0  0  0  0  0  0  0  0  0  0  0
    0.4763  -49.6667  -16.8172 N   0  0  0  0  0  0  0  0  0  0  0  0
    0.9801  -50.5023  -15.8922 C   0  0  0  0  0  0  0  0  0  0  0  0
    0.3365  -51.4281  -15.0839 C   0  0  0  0  0  0  0  0  0  0  0  0
    1.0860  -52.1419  -14.1965 C   0  0  0  0  0  0  0  0  0  0  0  0
    2.4458  -51.9229  -14.1313 C   0  0  0  0  0  0  0  0  0  0  0  0
    3.0737  -51.0127  -14.9283 C   0  0  0  0  0  0  0  0  0  0  0  0
    2.3479  -50.2765  -15.8359 C   0  0  0  0  0  0  0  0  0  0  0  0
   -0.5381  -49.6117  -17.0784 H   0  0  0  0  0  0  0  0  0  0  0  0
    1.1974  -50.2029  -20.4086 C   0  0  0  0  0  0  0  0  0  0  0  0
    0.2767  -51.3522  -20.5203 C   0  0  0  0  0  0  0  0  0  0  0  0
    0.2102  -52.3670  -19.5900 C   0  0  0  0  0  0  0  0  0  0  0  0
   -0.6586  -53.4195  -19.7281 C   0  0  0  0  0  0  0  0  0  0  0  0
   -1.4948  -53.4939  -20.8064 C   0  0  0  0  0  0  0  0  0  0  0  0
   -2.4054  -54.5463  -21.0033 O   0  0  0  0  0  0  0  0  0  0  0  0
   -1.4320  -52.4848  -21.7356 C   0  0  0  0  0  0  0  0  0  0  0  0
   -0.5755  -51.4193  -21.6271 C   0  0  0  0  0  0  0  0  0  0  0  0
   -3.3460  -54.5169  -20.6492 H   0  0  0  0  0  0  0  0  0  0  0  0
 28 29  1  0  0  0
 29 30  1  0  0  0
 29  1  1  0  0  0
  1  2  1  0  0  0
  2  3  1  0  0  0
  3  4  2  0  0  0
  3  5  1  0  0  0
  5 31  1  0  0  0
 31 32  1  0  0  0
 32 33  2  0  0  0
 33 34  1  0  0  0
 34 35  1  0  0  0
 35 36  2  0  0  0
 36 37  1  0  0  0
 37 38  2  0  0  0
 38 39  1  0  0  0
 39 40  2  0  0  0
  5  6  1  0  0  0
  6  7  1  0  0  0
  7  8  2  0  0  0
  7  9  1  0  0  0
  9 10  1  0  0  0
 10 11  1  0  0  0
 11 12  1  0  0  0
 12 13  1  0  0  0
 13 14  1  0  0  0
 14 15  2  0  0  0
 14 16  1  0  0  0
 16 42  1  0  0  0
 42 43  1  0  0  0
 43 44  2  0  0  0
 44 45  1  0  0  0
 45 46  1  0  0  0
 46 47  2  0  0  0
 47 48  1  0  0  0
 48 49  2  0  0  0
 49 50  1  0  0  0
 50 51  2  0  0  0
 16 17  1  0  0  0
 17 18  1  0  0  0
 18 19  2  0  0  0
 18 20  1  0  0  0
 20 53  1  0  0  0
 53 54  1  0  0  0
 54 55  2  0  0  0
 55 56  1  0  0  0
 56 57  2  0  0  0
 57 58  1  0  0  0
 57 59  1  0  0  0
 59 60  2  0  0  0
 20 21  1  0  0  0
 21 22  1  0  0  0
 22 23  2  0  0  0
 22  1  1  0  0  0
 40 32  1  0  0  0
 13  9  1  0  0  0
 51 43  1  0  0  0
 60 54  1  0  0  0
 40 35  1  0  0  0
 51 46  1  0  0  0
  2 24  1  0  0  0
 34 41  1  0  0  0
  6 25  1  0  0  0
 45 52  1  0  0  0
 17 26  1  0  0  0
 58 61  1  0  0  0
 21 27  1  0  0  0
M  END
> <minimizedAffinity>
-9.35449

> <CNNscore>
0.2678987980

> <CNNaffinity>
7.2899522781

> <CNN_VS>
1.9529694319

> <CNNaffinity_variance>
0.4958786070

$$$$
[H]Oc1c([H])c([H])c(C([H])([H])[C@@]2([H])C(=O)N([H])[C@@]([H])(C([H])([H])c3c([H])n([H])c4c([H])c([H])c([H])c([H])c34)C(=O)N3C([H])([H])C([H])([H])C([H])([H])[C@@]3([H])C(=O)N([H])[C@@]([H])(C([H])([H])c3c([H])n([H])c4c([H])c([H])c([H])c([H])c34)C(=O)N([H])[C@@]([H])(C([H])(C([H])([H])[H])C([H])([H])[H])C(=O)N2[H])c([H])c1[H]


 61 67  0  0  0  0  0  0  0  0999 V2000
    3.2570  -51.0521  -24.1361 C   0  0  0  0  0  0  0  0  0  0  0  0
    4.6412  -51.2522  -23.8821 N   0  0  0  0  0  0  0  0  0  0  0  0
    5.7301  -50.4195  -24.2174 C   0  0  0  0  0  0  0  0  0  0  0  0
    6.8535  -50.9728  -24.3458 O   0  0  0  0  0  0  0  0  0  0  0  0
    5.6627  -48.9526  -24.4303 C   0  0  0  0  0  0  0  0  0  0  0  0
    5.1601  -48.2358  -23.3097 N   0  0  0  0  0  0  0  0  0  0  0  0
    5.7659  -47.5611  -22.2630 C   0  0  0  0  0  0  0  0  0  0  0  0
    5.1970  -46.4180  -21.9741 O   0  0  0  0  0  0  0  0  0  0  0  0
    6.8779  -47.7970  -21.3980 C   0  0  0  0  0  0  0  0  0  0  0  0
    7.5898  -49.0706  -21.3340 C   0  0  0  0  0  0  0  0  0  0  0  0
    8.4780  -48.8754  -20.0915 C   0  0  0  0  0  0  0  0  0  0  0  0
    8.1118  -47.4653  -19.5966 C   0  0  0  0  0  0  0  0  0  0  0  0
    6.6819  -47.5002  -19.9645 N   0  0  0  0  0  0  0  0  0  0  0  0
    5.4939  -47.3159  -19.2718 C   0  0  0  0  0  0  0  0  0  0  0  0
    5.2839  -46.0760  -18.9177 O   0  0  0  0  0  0  0  0  0  0  0  0
    4.4247  -48.2171  -18.8540 C   0  0  0  0  0  0  0  0  0  0  0  0
    4.6101  -49.5935  -19.2929 N   0  0  0  0  0  0  0  0  0  0  0  0
    3.7059  -50.4796  -19.8330 C   0  0  0  0  0  0  0  0  0  0  0  0
    3.6995  -51.6652  -19.3191 O   0  0  0  0  0  0  0  0  0  0  0  0
    2.7247  -50.3037  -20.9226 C   0  0  0  0  0  0  0  0  0  0  0  0
    2.5746  -51.5347  -21.6949 N   0  0  0  0  0  0  0  0  0  0  0  0
    2.4660  -51.6909  -23.0628 C   0  0  0  0  0  0  0  0  0  0  0  0
    1.5567  -52.5001  -23.4690 O   0  0  0  0  0  0  0  0  0  0  0  0
    4.8763  -52.1622  -23.3678 H   0  0  0  0  0  0  0  0  0  0  0  0
    4.0815  -48.2072  -23.2689 H   0  0  0  0  0  0  0  0  0  0  0  0
    5.6102  -49.9367  -19.1451 H   0  0  0  0  0  0  0  0  0  0  0  0
    2.5509  -52.4023  -21.0742 H   0  0  0  0  0  0  0  0  0  0  0  0
    1.5186  -51.2446  -25.9271 C   0  0  0  0  0  0  0  0  0  0  0  0
    2.8954  -51.6483  -25.5110 C   0  0  0  0  0  0  0  0  0  0  0  0
    3.1285  -53.1392  -25.5501 C   0  0  0  0  0  0  0  0  0  0  0  0
    6.9163  -48.3776  -25.0415 C   0  0  0  0  0  0  0  0  0  0  0  0
    6.6883  -47.1130  -25.7767 C   0  0  0  0  0  0  0  0  0  0  0  0
    5.8582  -46.8262  -26.8289 C   0  0  0  0  0  0  0  0  0  0  0  0
    5.9941  -45.5294  -27.1534 N   0  0  0  0  0  0  0  0  0  0  0  0
    6.9042  -44.9472  -26.3313 C   0  0  0  0  0  0  0  0  0  0  0  0
    7.3772  -43.6606  -26.2686 C   0  0  0  0  0  0  0  0  0  0  0  0
    8.3153  -43.3209  -25.3261 C   0  0  0  0  0  0  0  0  0  0  0  0
    8.7535  -44.3161  -24.4588 C   0  0  0  0  0  0  0  0  0  0  0  0
    8.2918  -45.5966  -24.5106 C   0  0  0  0  0  0  0  0  0  0  0  0
    7.3365  -45.9366  -25.4727 C   0  0  0  0  0  0  0  0  0  0  0  0
    5.4978  -45.0104  -27.9107 H   0  0  0  0  0  0  0  0  0  0  0  0
    4.2783  -48.3340  -17.3537 C   0  0  0  0  0  0  0  0  0  0  0  0
    3.0320  -48.8796  -16.8441 C   0  0  0  0  0  0  0  0  0  0  0  0
    1.7820  -48.3922  -17.2720 C   0  0  0  0  0  0  0  0  0  0  0  0
    0.8527  -49.1345  -16.6740 N   0  0  0  0  0  0  0  0  0  0  0  0
    1.4118  -50.0694  -15.8861 C   0  0  0  0  0  0  0  0  0  0  0  0
    0.8145  -51.0256  -15.0777 C   0  0  0  0  0  0  0  0  0  0  0  0
    1.6200  -51.8487  -14.3481 C   0  0  0  0  0  0  0  0  0  0  0  0
    2.9887  -51.7058  -14.4359 C   0  0  0  0  0  0  0  0  0  0  0  0
    3.5708  -50.7653  -15.2324 C   0  0  0  0  0  0  0  0  0  0  0  0
    2.7878  -49.9194  -15.9833 C   0  0  0  0  0  0  0  0  0  0  0  0
   -0.1805  -49.0060  -16.8019 H   0  0  0  0  0  0  0  0  0  0  0  0
    1.3673  -50.0033  -20.3514 C   0  0  0  0  0  0  0  0  0  0  0  0
    0.4204  -51.1363  -20.3792 C   0  0  0  0  0  0  0  0  0  0  0  0
   -0.5043  -51.3306  -21.3827 C   0  0  0  0  0  0  0  0  0  0  0  0
   -1.3684  -52.3958  -21.3741 C   0  0  0  0  0  0  0  0  0  0  0  0
   -1.3375  -53.3079  -20.3568 C   0  0  0  0  0  0  0  0  0  0  0  0
   -2.1966  -54.4185  -20.2923 O   0  0  0  0  0  0  0  0  0  0  0  0
   -0.4175  -53.1183  -19.3551 C   0  0  0  0  0  0  0  0  0  0  0  0
    0.4600  -52.0647  -19.3341 C   0  0  0  0  0  0  0  0  0  0  0  0
   -1.9593  -55.3064  -20.7000 H   0  0  0  0  0  0  0  0  0  0  0  0
 28 29  1  0  0  0
 29 30  1  0  0  0
 29  1  1  0  0  0
  1  2  1  0  0  0
  2  3  1  0  0  0
  3  4  2  0  0  0
  3  5  1  0  0  0
  5 31  1  0  0  0
 31 32  1  0  0  0
 32 33  2  0  0  0
 33 34  1  0  0  0
 34 35  1  0  0  0
 35 36  2  0  0  0
 36 37  1  0  0  0
 37 38  2  0  0  0
 38 39  1  0  0  0
 39 40  2  0  0  0
  5  6  1  0  0  0
  6  7  1  0  0  0
  7  8  2  0  0  0
  7  9  1  0  0  0
  9 10  1  0  0  0
 10 11  1  0  0  0
 11 12  1  0  0  0
 12 13  1  0  0  0
 13 14  1  0  0  0
 14 15  2  0  0  0
 14 16  1  0  0  0
 16 42  1  0  0  0
 42 43  1  0  0  0
 43 44  2  0  0  0
 44 45  1  0  0  0
 45 46  1  0  0  0
 46 47  2  0  0  0
 47 48  1  0  0  0
 48 49  2  0  0  0
 49 50  1  0  0  0
 50 51  2  0  0  0
 16 17  1  0  0  0
 17 18  1  0  0  0
 18 19  2  0  0  0
 18 20  1  0  0  0
 20 53  1  0  0  0
 53 54  1  0  0  0
 54 55  2  0  0  0
 55 56  1  0  0  0
 56 57  2  0  0  0
 57 58  1  0  0  0
 57 59  1  0  0  0
 59 60  2  0  0  0
 20 21  1  0  0  0
 21 22  1  0  0  0
 22 23  2  0  0  0
 22  1  1  0  0  0
 40 32  1  0  0  0
 13  9  1  0  0  0
 51 43  1  0  0  0
 60 54  1  0  0  0
 40 35  1  0  0  0
 51 46  1  0  0  0
  2 24  1  0  0  0
 34 41  1  0  0  0
  6 25  1  0  0  0
 45 52  1  0  0  0
 17 26  1  0  0  0
 58 61  1  0  0  0
 21 27  1  0  0  0
M  END
> <minimizedAffinity>
-8.10953

> <CNNscore>
0.2337723225

> <CNNaffinity>
7.3453154564

> <CNN_VS>
1.7171314955

> <CNNaffinity_variance>
0.5880424380

$$$$
[H]Oc1c([H])c([H])c(C([H])([H])[C@@]2([H])C(=O)N([H])[C@@]([H])(C([H])([H])c3c([H])n([H])c4c([H])c([H])c([H])c([H])c34)C(=O)N3C([H])([H])C([H])([H])C([H])([H])[C@@]3([H])C(=O)N([H])[C@@]([H])(C([H])([H])c3c([H])n([H])c4c([H])c([H])c([H])c([H])c34)C(=O)N([H])[C@@]([H])(C([H])(C([H])([H])[H])C([H])([H])[H])C(=O)N2[H])c([H])c1[H]


 61 67  0  0  0  0  0  0  0  0999 V2000
    2.4742  -49.9479  -23.7559 C   0  0  0  0  0  0  0  0  0  0  0  0
    1.2912  -49.8972  -22.9695 N   0  0  0  0  0  0  0  0  0  0  0  0
    0.7398  -50.8953  -22.1380 C   0  0  0  0  0  0  0  0  0  0  0  0
   -0.5009  -50.8446  -21.9311 O   0  0  0  0  0  0  0  0  0  0  0  0
    1.4963  -51.9948  -21.4897 C   0  0  0  0  0  0  0  0  0  0  0  0
    2.5466  -51.5437  -20.6439 N   0  0  0  0  0  0  0  0  0  0  0  0
    2.6436  -51.3322  -19.2787 C   0  0  0  0  0  0  0  0  0  0  0  0
    3.7679  -51.7563  -18.7590 O   0  0  0  0  0  0  0  0  0  0  0  0
    1.8130  -50.7576  -18.2685 C   0  0  0  0  0  0  0  0  0  0  0  0
    0.5885  -50.0172  -18.5607 C   0  0  0  0  0  0  0  0  0  0  0  0
    0.2540  -49.4039  -17.1885 C   0  0  0  0  0  0  0  0  0  0  0  0
    1.3972  -49.8898  -16.2808 C   0  0  0  0  0  0  0  0  0  0  0  0
    2.4702  -49.8620  -17.2952 N   0  0  0  0  0  0  0  0  0  0  0  0
    3.7101  -49.2458  -17.3838 C   0  0  0  0  0  0  0  0  0  0  0  0
    4.6037  -49.7541  -16.5775 O   0  0  0  0  0  0  0  0  0  0  0  0
    4.2299  -48.1463  -18.1906 C   0  0  0  0  0  0  0  0  0  0  0  0
    3.2664  -47.6065  -19.1402 N   0  0  0  0  0  0  0  0  0  0  0  0
    3.4284  -47.2512  -20.4599 C   0  0  0  0  0  0  0  0  0  0  0  0
    2.9491  -46.1000  -20.7990 O   0  0  0  0  0  0  0  0  0  0  0  0
    4.0665  -47.9765  -21.5769 C   0  0  0  0  0  0  0  0  0  0  0  0
    3.3744  -47.7115  -22.8359 N   0  0  0  0  0  0  0  0  0  0  0  0
    3.0561  -48.5921  -23.8511 C   0  0  0  0  0  0  0  0  0  0  0  0
    3.2938  -48.1878  -25.0454 O   0  0  0  0  0  0  0  0  0  0  0  0
    0.7540  -48.9718  -23.0258 H   0  0  0  0  0  0  0  0  0  0  0  0
    3.4604  -51.3250  -21.1759 H   0  0  0  0  0  0  0  0  0  0  0  0
    2.3013  -47.4666  -18.7057 H   0  0  0  0  0  0  0  0  0  0  0  0
    3.0979  -46.6861  -22.9384 H   0  0  0  0  0  0  0  0  0  0  0  0
    0.7128  -50.9420  -25.2311 C   0  0  0  0  0  0  0  0  0  0  0  0
    2.1373  -50.4982  -25.1560 C   0  0  0  0  0  0  0  0  0  0  0  0
    3.1254  -51.5526  -25.5924 C   0  0  0  0  0  0  0  0  0  0  0  0
    0.6110  -53.0590  -20.8901 C   0  0  0  0  0  0  0  0  0  0  0  0
   -0.2481  -53.7414  -21.8840 C   0  0  0  0  0  0  0  0  0  0  0  0
   -1.5131  -54.2564  -21.7704 C   0  0  0  0  0  0  0  0  0  0  0  0
   -1.8818  -54.7776  -22.9527 N   0  0  0  0  0  0  0  0  0  0  0  0
   -0.8792  -54.6170  -23.8538 C   0  0  0  0  0  0  0  0  0  0  0  0
   -0.7800  -54.9776  -25.1740 C   0  0  0  0  0  0  0  0  0  0  0  0
    0.3645  -54.6956  -25.8770 C   0  0  0  0  0  0  0  0  0  0  0  0
    1.3939  -54.0436  -25.2061 C   0  0  0  0  0  0  0  0  0  0  0  0
    1.3078  -53.6803  -23.8961 C   0  0  0  0  0  0  0  0  0  0  0  0
    0.1396  -53.9702  -23.1854 C   0  0  0  0  0  0  0  0  0  0  0  0
   -2.7870  -55.2419  -23.1859 H   0  0  0  0  0  0  0  0  0  0  0  0
    4.6501  -46.9415  -17.3795 C   0  0  0  0  0  0  0  0  0  0  0  0
    5.9009  -46.2962  -17.7397 C   0  0  0  0  0  0  0  0  0  0  0  0
    7.1351  -46.7365  -17.2240 C   0  0  0  0  0  0  0  0  0  0  0  0
    8.0794  -45.9881  -17.7901 N   0  0  0  0  0  0  0  0  0  0  0  0
    7.5445  -45.0910  -18.6366 C   0  0  0  0  0  0  0  0  0  0  0  0
    8.1615  -44.1171  -19.4083 C   0  0  0  0  0  0  0  0  0  0  0  0
    7.3766  -43.3064  -20.1734 C   0  0  0  0  0  0  0  0  0  0  0  0
    6.0085  -43.4785  -20.1559 C   0  0  0  0  0  0  0  0  0  0  0  0
    5.4071  -44.4376  -19.3966 C   0  0  0  0  0  0  0  0  0  0  0  0
    6.1693  -45.2738  -18.6141 C   0  0  0  0  0  0  0  0  0  0  0  0
    9.1062  -46.0866  -17.5998 H   0  0  0  0  0  0  0  0  0  0  0  0
    5.4766  -47.4925  -21.7680 C   0  0  0  0  0  0  0  0  0  0  0  0
    6.2104  -48.1461  -22.8706 C   0  0  0  0  0  0  0  0  0  0  0  0
    6.6744  -47.4728  -23.9801 C   0  0  0  0  0  0  0  0  0  0  0  0
    7.3523  -48.1146  -24.9851 C   0  0  0  0  0  0  0  0  0  0  0  0
    7.5909  -49.4584  -24.9147 C   0  0  0  0  0  0  0  0  0  0  0  0
    8.2787  -50.1714  -25.9118 O   0  0  0  0  0  0  0  0  0  0  0  0
    7.1306  -50.1331  -23.8109 C   0  0  0  0  0  0  0  0  0  0  0  0
    6.4501  -49.5215  -22.7894 C   0  0  0  0  0  0  0  0  0  0  0  0
    9.2766  -50.2929  -25.8947 H   0  0  0  0  0  0  0  0  0  0  0  0
 28 29  1  0  0  0
 29 30  1  0  0  0
 29  1  1  0  0  0
  1  2  1  0  0  0
  2  3  1  0  0  0
  3  4  2  0  0  0
  3  5  1  0  0  0
  5 31  1  0  0  0
 31 32  1  0  0  0
 32 33  2  0  0  0
 33 34  1  0  0  0
 34 35  1  0  0  0
 35 36  2  0  0  0
 36 37  1  0  0  0
 37 38  2  0  0  0
 38 39  1  0  0  0
 39 40  2  0  0  0
  5  6  1  0  0  0
  6  7  1  0  0  0
  7  8  2  0  0  0
  7  9  1  0  0  0
  9 10  1  0  0  0
 10 11  1  0  0  0
 11 12  1  0  0  0
 12 13  1  0  0  0
 13 14  1  0  0  0
 14 15  2  0  0  0
 14 16  1  0  0  0
 16 42  1  0  0  0
 42 43  1  0  0  0
 43 44  2  0  0  0
 44 45  1  0  0  0
 45 46  1  0  0  0
 46 47  2  0  0  0
 47 48  1  0  0  0
 48 49  2  0  0  0
 49 50  1  0  0  0
 50 51  2  0  0  0
 16 17  1  0  0  0
 17 18  1  0  0  0
 18 19  2  0  0  0
 18 20  1  0  0  0
 20 53  1  0  0  0
 53 54  1  0  0  0
 54 55  2  0  0  0
 55 56  1  0  0  0
 56 57  2  0  0  0
 57 58  1  0  0  0
 57 59  1  0  0  0
 59 60  2  0  0  0
 20 21  1  0  0  0
 21 22  1  0  0  0
 22 23  2  0  0  0
 22  1  1  0  0  0
 40 32  1  0  0  0
 13  9  1  0  0  0
 51 43  1  0  0  0
 60 54  1  0  0  0
 40 35  1  0  0  0
 51 46  1  0  0  0
  2 24  1  0  0  0
 34 41  1  0  0  0
  6 25  1  0  0  0
 45 52  1  0  0  0
 17 26  1  0  0  0
 58 61  1  0  0  0
 21 27  1  0  0  0
M  END
> <minimizedAffinity>
-5.76427

> <CNNscore>
0.2329964340

> <CNNaffinity>
6.9932432175

> <CNN_VS>
1.6294007301

> <CNNaffinity_variance>
0.9471157193

$$$$
[H]Oc1c([H])c([H])c(C([H])([H])[C@@]2([H])C(=O)N([H])[C@@]([H])(C([H])([H])c3c([H])n([H])c4c([H])c([H])c([H])c([H])c34)C(=O)N3C([H])([H])C([H])([H])C([H])([H])[C@@]3([H])C(=O)N([H])[C@@]([H])(C([H])([H])c3c([H])n([H])c4c([H])c([H])c([H])c([H])c34)C(=O)N([H])[C@@]([H])(C([H])(C([H])([H])[H])C([H])([H])[H])C(=O)N2[H])c([H])c1[H]


 61 67  0  0  0  0  0  0  0  0999 V2000
   -0.0787  -51.7596  -18.3261 C   0  0  0  0  0  0  0  0  0  0  0  0
    0.6360  -52.8077  -18.9674 N   0  0  0  0  0  0  0  0  0  0  0  0
    0.4718  -53.3190  -20.2724 C   0  0  0  0  0  0  0  0  0  0  0  0
    0.8366  -54.5076  -20.4699 O   0  0  0  0  0  0  0  0  0  0  0  0
   -0.0919  -52.5767  -21.4268 C   0  0  0  0  0  0  0  0  0  0  0  0
    0.6116  -51.3797  -21.7343 N   0  0  0  0  0  0  0  0  0  0  0  0
    1.6046  -51.0686  -22.6480 C   0  0  0  0  0  0  0  0  0  0  0  0
    1.4216  -49.9228  -23.2544 O   0  0  0  0  0  0  0  0  0  0  0  0
    2.8044  -51.6910  -23.1101 C   0  0  0  0  0  0  0  0  0  0  0  0
    3.3875  -52.8749  -22.4845 C   0  0  0  0  0  0  0  0  0  0  0  0
    4.7624  -52.9528  -23.1733 C   0  0  0  0  0  0  0  0  0  0  0  0
    4.7693  -51.7377  -24.1171 C   0  0  0  0  0  0  0  0  0  0  0  0
    3.9912  -50.8241  -23.2564 N   0  0  0  0  0  0  0  0  0  0  0  0
    4.2125  -49.5606  -22.7277 C   0  0  0  0  0  0  0  0  0  0  0  0
    4.1791  -48.6083  -23.6215 O   0  0  0  0  0  0  0  0  0  0  0  0
    4.4747  -49.0679  -21.3792 C   0  0  0  0  0  0  0  0  0  0  0  0
    4.4546  -50.1070  -20.3588 N   0  0  0  0  0  0  0  0  0  0  0  0
    3.8842  -50.1065  -19.1063 C   0  0  0  0  0  0  0  0  0  0  0  0
    4.6351  -50.5266  -18.1422 O   0  0  0  0  0  0  0  0  0  0  0  0
    2.5330  -49.7025  -18.6682 C   0  0  0  0  0  0  0  0  0  0  0  0
    2.0668  -50.5430  -17.5680 N   0  0  0  0  0  0  0  0  0  0  0  0
    0.8116  -51.0805  -17.3607 C   0  0  0  0  0  0  0  0  0  0  0  0
    0.3444  -50.9830  -16.1696 O   0  0  0  0  0  0  0  0  0  0  0  0
    1.3978  -53.2639  -18.3678 H   0  0  0  0  0  0  0  0  0  0  0  0
    0.3044  -50.5366  -21.1337 H   0  0  0  0  0  0  0  0  0  0  0  0
    4.9851  -50.9833  -20.6598 H   0  0  0  0  0  0  0  0  0  0  0  0
    2.8354  -50.7401  -16.8546 H   0  0  0  0  0  0  0  0  0  0  0  0
   -1.8396  -51.3941  -16.5846 C   0  0  0  0  0  0  0  0  0  0  0  0
   -1.3156  -52.3420  -17.6136 C   0  0  0  0  0  0  0  0  0  0  0  0
   -1.0497  -53.7293  -17.0814 C   0  0  0  0  0  0  0  0  0  0  0  0
   -0.3973  -53.4563  -22.6136 C   0  0  0  0  0  0  0  0  0  0  0  0
   -0.6580  -52.6988  -23.8585 C   0  0  0  0  0  0  0  0  0  0  0  0
   -1.2474  -51.4774  -24.0565 C   0  0  0  0  0  0  0  0  0  0  0  0
   -1.2550  -51.2026  -25.3718 N   0  0  0  0  0  0  0  0  0  0  0  0
   -0.6783  -52.2249  -26.0540 C   0  0  0  0  0  0  0  0  0  0  0  0
   -0.4556  -52.4083  -27.3955 C   0  0  0  0  0  0  0  0  0  0  0  0
    0.1580  -53.5536  -27.8377 C   0  0  0  0  0  0  0  0  0  0  0  0
    0.5344  -54.4964  -26.8868 C   0  0  0  0  0  0  0  0  0  0  0  0
    0.3191  -54.3263  -25.5526 C   0  0  0  0  0  0  0  0  0  0  0  0
   -0.3063  -53.1578  -25.1084 C   0  0  0  0  0  0  0  0  0  0  0  0
   -1.6340  -50.3496  -25.8387 H   0  0  0  0  0  0  0  0  0  0  0  0
    5.8363  -48.4308  -21.2178 C   0  0  0  0  0  0  0  0  0  0  0  0
    6.8214  -48.6866  -22.2544 C   0  0  0  0  0  0  0  0  0  0  0  0
    7.5439  -49.8943  -22.3057 C   0  0  0  0  0  0  0  0  0  0  0  0
    8.3076  -49.8417  -23.3948 N   0  0  0  0  0  0  0  0  0  0  0  0
    8.1328  -48.6831  -24.0541 C   0  0  0  0  0  0  0  0  0  0  0  0
    8.7395  -48.2169  -25.2114 C   0  0  0  0  0  0  0  0  0  0  0  0
    8.3991  -46.9769  -25.6643 C   0  0  0  0  0  0  0  0  0  0  0  0
    7.4724  -46.2332  -24.9647 C   0  0  0  0  0  0  0  0  0  0  0  0
    6.8784  -46.6960  -23.8286 C   0  0  0  0  0  0  0  0  0  0  0  0
    7.1974  -47.9436  -23.3446 C   0  0  0  0  0  0  0  0  0  0  0  0
    8.9599  -50.6051  -23.6981 H   0  0  0  0  0  0  0  0  0  0  0  0
    2.5619  -48.2976  -18.1346 C   0  0  0  0  0  0  0  0  0  0  0  0
    2.1123  -48.1588  -16.7347 C   0  0  0  0  0  0  0  0  0  0  0  0
    2.9688  -48.1776  -15.6550 C   0  0  0  0  0  0  0  0  0  0  0  0
    2.5136  -48.0459  -14.3677 C   0  0  0  0  0  0  0  0  0  0  0  0
    1.1797  -47.8900  -14.1146 C   0  0  0  0  0  0  0  0  0  0  0  0
    0.6531  -47.7507  -12.8189 O   0  0  0  0  0  0  0  0  0  0  0  0
    0.3228  -47.8704  -15.1875 C   0  0  0  0  0  0  0  0  0  0  0  0
    0.7454  -47.9993  -16.4857 C   0  0  0  0  0  0  0  0  0  0  0  0
    0.5398  -46.8542  -12.3779 H   0  0  0  0  0  0  0  0  0  0  0  0
 28 29  1  0  0  0
 29 30  1  0  0  0
 29  1  1  0  0  0
  1  2  1  0  0  0
  2  3  1  0  0  0
  3  4  2  0  0  0
  3  5  1  0  0  0
  5 31  1  0  0  0
 31 32  1  0  0  0
 32 33  2  0  0  0
 33 34  1  0  0  0
 34 35  1  0  0  0
 35 36  2  0  0  0
 36 37  1  0  0  0
 37 38  2  0  0  0
 38 39  1  0  0  0
 39 40  2  0  0  0
  5  6  1  0  0  0
  6  7  1  0  0  0
  7  8  2  0  0  0
  7  9  1  0  0  0
  9 10  1  0  0  0
 10 11  1  0  0  0
 11 12  1  0  0  0
 12 13  1  0  0  0
 13 14  1  0  0  0
 14 15  2  0  0  0
 14 16  1  0  0  0
 16 42  1  0  0  0
 42 43  1  0  0  0
 43 44  2  0  0  0
 44 45  1  0  0  0
 45 46  1  0  0  0
 46 47  2  0  0  0
 47 48  1  0  0  0
 48 49  2  0  0  0
 49 50  1  0  0  0
 50 51  2  0  0  0
 16 17  1  0  0  0
 17 18  1  0  0  0
 18 19  2  0  0  0
 18 20  1  0  0  0
 20 53  1  0  0  0
 53 54  1  0  0  0
 54 55  2  0  0  0
 55 56  1  0  0  0
 56 57  2  0  0  0
 57 58  1  0  0  0
 57 59  1  0  0  0
 59 60  2  0  0  0
 20 21  1  0  0  0
 21 22  1  0  0  0
 22 23  2  0  0  0
 22  1  1  0  0  0
 40 32  1  0  0  0
 13  9  1  0  0  0
 51 43  1  0  0  0
 60 54  1  0  0  0
 40 35  1  0  0  0
 51 46  1  0  0  0
  2 24  1  0  0  0
 34 41  1  0  0  0
  6 25  1  0  0  0
 45 52  1  0  0  0
 17 26  1  0  0  0
 58 61  1  0  0  0
 21 27  1  0  0  0
M  END
> <minimizedAffinity>
-3.76424

> <CNNscore>
0.2256951332

> <CNNaffinity>
7.2444486618

> <CNN_VS>
1.6350368261

> <CNNaffinity_variance>
0.6187905073

$$$$
[H]Oc1c([H])c([H])c(C([H])([H])[C@@]2([H])C(=O)N([H])[C@@]([H])(C([H])([H])c3c([H])n([H])c4c([H])c([H])c([H])c([H])c34)C(=O)N3C([H])([H])C([H])([H])C([H])([H])[C@@]3([H])C(=O)N([H])[C@@]([H])(C([H])([H])c3c([H])n([H])c4c([H])c([H])c([H])c([H])c34)C(=O)N([H])[C@@]([H])(C([H])(C([H])([H])[H])C([H])([H])[H])C(=O)N2[H])c([H])c1[H]


 61 67  0  0  0  0  0  0  0  0999 V2000
    5.8986  -48.6309  -23.3817 C   0  0  0  0  0  0  0  0  0  0  0  0
    4.4923  -48.4240  -23.3681 N   0  0  0  0  0  0  0  0  0  0  0  0
    3.4582  -49.3772  -23.4853 C   0  0  0  0  0  0  0  0  0  0  0  0
    2.3527  -48.9686  -23.9277 O   0  0  0  0  0  0  0  0  0  0  0  0
    3.5637  -50.8144  -23.1321 C   0  0  0  0  0  0  0  0  0  0  0  0
    3.9374  -51.0438  -21.7793 N   0  0  0  0  0  0  0  0  0  0  0  0
    3.2186  -51.3187  -20.6280 C   0  0  0  0  0  0  0  0  0  0  0  0
    3.7600  -52.2453  -19.8782 O   0  0  0  0  0  0  0  0  0  0  0  0
    2.0103  -50.8406  -20.0348 C   0  0  0  0  0  0  0  0  0  0  0  0
    1.2841  -49.6710  -20.5223 C   0  0  0  0  0  0  0  0  0  0  0  0
    0.2576  -49.4436  -19.3975 C   0  0  0  0  0  0  0  0  0  0  0  0
    0.5759  -50.5532  -18.3804 C   0  0  0  0  0  0  0  0  0  0  0  0
    2.0388  -50.5810  -18.5811 N   0  0  0  0  0  0  0  0  0  0  0  0
    3.1384  -50.4367  -17.7475 C   0  0  0  0  0  0  0  0  0  0  0  0
    3.3166  -51.4480  -16.9398 O   0  0  0  0  0  0  0  0  0  0  0  0
    4.1426  -49.3908  -17.5817 C   0  0  0  0  0  0  0  0  0  0  0  0
    3.9976  -48.2825  -18.5156 N   0  0  0  0  0  0  0  0  0  0  0  0
    4.9510  -47.6099  -19.2458 C   0  0  0  0  0  0  0  0  0  0  0  0
    4.8859  -46.3199  -19.2094 O   0  0  0  0  0  0  0  0  0  0  0  0
    6.0553  -48.1214  -20.0824 C   0  0  0  0  0  0  0  0  0  0  0  0
    6.2841  -47.2527  -21.2345 N   0  0  0  0  0  0  0  0  0  0  0  0
    6.5517  -47.6030  -22.5434 C   0  0  0  0  0  0  0  0  0  0  0  0
    7.4951  -46.9527  -23.1211 O   0  0  0  0  0  0  0  0  0  0  0  0
    4.1899  -47.4024  -23.2550 H   0  0  0  0  0  0  0  0  0  0  0  0
    5.0038  -50.9992  -21.6166 H   0  0  0  0  0  0  0  0  0  0  0  0
    2.9840  -47.9616  -18.6122 H   0  0  0  0  0  0  0  0  0  0  0  0
    6.2264  -46.2182  -20.9800 H   0  0  0  0  0  0  0  0  0  0  0  0
    5.6164  -47.5913  -25.6415 C   0  0  0  0  0  0  0  0  0  0  0  0
    6.4142  -48.5617  -24.8330 C   0  0  0  0  0  0  0  0  0  0  0  0
    6.5123  -49.9336  -25.4549 C   0  0  0  0  0  0  0  0  0  0  0  0
    2.3963  -51.6378  -23.6166 C   0  0  0  0  0  0  0  0  0  0  0  0
    2.5732  -52.1627  -24.9895 C   0  0  0  0  0  0  0  0  0  0  0  0
    3.6912  -52.6227  -25.6349 C   0  0  0  0  0  0  0  0  0  0  0  0
    3.3541  -53.0020  -26.8791 N   0  0  0  0  0  0  0  0  0  0  0  0
    2.0254  -52.8008  -27.0721 C   0  0  0  0  0  0  0  0  0  0  0  0
    1.2226  -53.0288  -28.1614 C   0  0  0  0  0  0  0  0  0  0  0  0
   -0.1162  -52.7330  -28.0994 C   0  0  0  0  0  0  0  0  0  0  0  0
   -0.6095  -52.2046  -26.9111 C   0  0  0  0  0  0  0  0  0  0  0  0
    0.1767  -51.9738  -25.8230 C   0  0  0  0  0  0  0  0  0  0  0  0
    1.5394  -52.2770  -25.8921 C   0  0  0  0  0  0  0  0  0  0  0  0
    3.9824  -53.3948  -27.6140 H   0  0  0  0  0  0  0  0  0  0  0  0
    4.1101  -48.7250  -16.2247 C   0  0  0  0  0  0  0  0  0  0  0  0
    3.0676  -47.7415  -15.9871 C   0  0  0  0  0  0  0  0  0  0  0  0
    1.7317  -48.1219  -15.7550 C   0  0  0  0  0  0  0  0  0  0  0  0
    1.0485  -47.0052  -15.5133 N   0  0  0  0  0  0  0  0  0  0  0  0
    1.8473  -45.9254  -15.5736 C   0  0  0  0  0  0  0  0  0  0  0  0
    1.5425  -44.5822  -15.4075 C   0  0  0  0  0  0  0  0  0  0  0  0
    2.5462  -43.6703  -15.5479 C   0  0  0  0  0  0  0  0  0  0  0  0
    3.8190  -44.1077  -15.8478 C   0  0  0  0  0  0  0  0  0  0  0  0
    4.1136  -45.4287  -16.0092 C   0  0  0  0  0  0  0  0  0  0  0  0
    3.1251  -46.3757  -15.8728 C   0  0  0  0  0  0  0  0  0  0  0  0
    0.0213  -46.9733  -15.3031 H   0  0  0  0  0  0  0  0  0  0  0  0
    7.3386  -48.1206  -19.2999 C   0  0  0  0  0  0  0  0  0  0  0  0
    7.6506  -46.8441  -18.6257 C   0  0  0  0  0  0  0  0  0  0  0  0
    8.1115  -45.7266  -19.2879 C   0  0  0  0  0  0  0  0  0  0  0  0
    8.3910  -44.5577  -18.6269 C   0  0  0  0  0  0  0  0  0  0  0  0
    8.2185  -44.4655  -17.2743 C   0  0  0  0  0  0  0  0  0  0  0  0
    8.4877  -43.2965  -16.5418 O   0  0  0  0  0  0  0  0  0  0  0  0
    7.7592  -45.5765  -16.6106 C   0  0  0  0  0  0  0  0  0  0  0  0
    7.4705  -46.7594  -17.2415 C   0  0  0  0  0  0  0  0  0  0  0  0
    7.7908  -42.5899  -16.3813 H   0  0  0  0  0  0  0  0  0  0  0  0
 28 29  1  0  0  0
 29 30  1  0  0  0
 29  1  1  0  0  0
  1  2  1  0  0  0
  2  3  1  0  0  0
  3  4  2  0  0  0
  3  5  1  0  0  0
  5 31  1  0  0  0
 31 32  1  0  0  0
 32 33  2  0  0  0
 33 34  1  0  0  0
 34 35  1  0  0  0
 35 36  2  0  0  0
 36 37  1  0  0  0
 37 38  2  0  0  0
 38 39  1  0  0  0
 39 40  2  0  0  0
  5  6  1  0  0  0
  6  7  1  0  0  0
  7  8  2  0  0  0
  7  9  1  0  0  0
  9 10  1  0  0  0
 10 11  1  0  0  0
 11 12  1  0  0  0
 12 13  1  0  0  0
 13 14  1  0  0  0
 14 15  2  0  0  0
 14 16  1  0  0  0
 16 42  1  0  0  0
 42 43  1  0  0  0
 43 44  2  0  0  0
 44 45  1  0  0  0
 45 46  1  0  0  0
 46 47  2  0  0  0
 47 48  1  0  0  0
 48 49  2  0  0  0
 49 50  1  0  0  0
 50 51  2  0  0  0
 16 17  1  0  0  0
 17 18  1  0  0  0
 18 19  2  0  0  0
 18 20  1  0  0  0
 20 53  1  0  0  0
 53 54  1  0  0  0
 54 55  2  0  0  0
 55 56  1  0  0  0
 56 57  2  0  0  0
 57 58  1  0  0  0
 57 59  1  0  0  0
 59 60  2  0  0  0
 20 21  1  0  0  0
 21 22  1  0  0  0
 22 23  2  0  0  0
 22  1  1  0  0  0
 40 32  1  0  0  0
 13  9  1  0  0  0
 51 43  1  0  0  0
 60 54  1  0  0  0
 40 35  1  0  0  0
 51 46  1  0  0  0
  2 24  1  0  0  0
 34 41  1  0  0  0
  6 25  1  0  0  0
 45 52  1  0  0  0
 17 26  1  0  0  0
 58 61  1  0  0  0
 21 27  1  0  0  0
M  END
> <minimizedAffinity>
-6.58728

> <CNNscore>
0.2180706263

> <CNNaffinity>
7.0076255798

> <CNN_VS>
1.5281573534

> <CNNaffinity_variance>
1.2521555424

$$$$
[H]Oc1c([H])c([H])c(C([H])([H])[C@@]2([H])C(=O)N([H])[C@@]([H])(C([H])([H])c3c([H])n([H])c4c([H])c([H])c([H])c([H])c34)C(=O)N3C([H])([H])C([H])([H])C([H])([H])[C@@]3([H])C(=O)N([H])[C@@]([H])(C([H])([H])c3c([H])n([H])c4c([H])c([H])c([H])c([H])c34)C(=O)N([H])[C@@]([H])(C([H])(C([H])([H])[H])C([H])([H])[H])C(=O)N2[H])c([H])c1[H]


 61 67  0  0  0  0  0  0  0  0999 V2000
    3.4106  -50.5145  -23.3865 C   0  0  0  0  0  0  0  0  0  0  0  0
    4.7574  -50.3586  -22.9594 N   0  0  0  0  0  0  0  0  0  0  0  0
    5.5894  -49.2231  -23.0580 C   0  0  0  0  0  0  0  0  0  0  0  0
    6.8317  -49.4257  -23.0777 O   0  0  0  0  0  0  0  0  0  0  0  0
    5.1253  -47.8162  -23.1399 C   0  0  0  0  0  0  0  0  0  0  0  0
    4.3182  -47.4165  -22.0394 N   0  0  0  0  0  0  0  0  0  0  0  0
    4.5859  -46.7435  -20.8590 C   0  0  0  0  0  0  0  0  0  0  0  0
    3.6834  -45.8477  -20.5476 O   0  0  0  0  0  0  0  0  0  0  0  0
    5.6175  -46.7757  -19.8715 C   0  0  0  0  0  0  0  0  0  0  0  0
    6.6552  -47.8025  -19.8273 C   0  0  0  0  0  0  0  0  0  0  0  0
    7.3084  -47.5343  -18.4590 C   0  0  0  0  0  0  0  0  0  0  0  0
    6.4993  -46.3554  -17.8909 C   0  0  0  0  0  0  0  0  0  0  0  0
    5.1892  -46.7329  -18.4587 N   0  0  0  0  0  0  0  0  0  0  0  0
    3.9306  -46.9729  -17.9265 C   0  0  0  0  0  0  0  0  0  0  0  0
    3.3345  -45.8950  -17.4911 O   0  0  0  0  0  0  0  0  0  0  0  0
    3.1280  -48.1790  -17.7503 C   0  0  0  0  0  0  0  0  0  0  0  0
    3.7493  -49.3827  -18.2857 N   0  0  0  0  0  0  0  0  0  0  0  0
    3.2037  -50.4048  -19.0286 C   0  0  0  0  0  0  0  0  0  0  0  0
    3.4837  -51.6031  -18.6342 O   0  0  0  0  0  0  0  0  0  0  0  0
    2.3383  -50.3647  -20.2246 C   0  0  0  0  0  0  0  0  0  0  0  0
    2.6348  -51.4785  -21.1222 N   0  0  0  0  0  0  0  0  0  0  0  0
    2.7255  -51.4795  -22.5004 C   0  0  0  0  0  0  0  0  0  0  0  0
    2.1383  -52.4470  -23.1050 O   0  0  0  0  0  0  0  0  0  0  0  0
    5.1876  -51.2281  -22.5046 H   0  0  0  0  0  0  0  0  0  0  0  0
    3.2795  -47.6902  -22.1488 H   0  0  0  0  0  0  0  0  0  0  0  0
    4.7836  -49.4547  -18.0309 H   0  0  0  0  0  0  0  0  0  0  0  0
    2.7950  -52.3923  -20.5952 H   0  0  0  0  0  0  0  0  0  0  0  0
    4.5170  -51.9441  -25.1182 C   0  0  0  0  0  0  0  0  0  0  0  0
    3.3884  -51.0032  -24.8485 C   0  0  0  0  0  0  0  0  0  0  0  0
    3.3143  -49.8501  -25.8199 C   0  0  0  0  0  0  0  0  0  0  0  0
    6.2183  -46.8452  -23.5113 C   0  0  0  0  0  0  0  0  0  0  0  0
    5.7114  -45.5664  -24.0585 C   0  0  0  0  0  0  0  0  0  0  0  0
    5.6910  -44.3069  -23.5185 C   0  0  0  0  0  0  0  0  0  0  0  0
    5.1314  -43.4612  -24.4000 N   0  0  0  0  0  0  0  0  0  0  0  0
    4.7781  -44.1401  -25.5212 C   0  0  0  0  0  0  0  0  0  0  0  0
    4.1818  -43.7223  -26.6843 C   0  0  0  0  0  0  0  0  0  0  0  0
    3.9261  -44.6253  -27.6858 C   0  0  0  0  0  0  0  0  0  0  0  0
    4.2903  -45.9507  -27.4727 C   0  0  0  0  0  0  0  0  0  0  0  0
    4.8828  -46.3781  -26.3230 C   0  0  0  0  0  0  0  0  0  0  0  0
    5.1406  -45.4537  -25.3067 C   0  0  0  0  0  0  0  0  0  0  0  0
    4.9738  -42.4362  -24.2824 H   0  0  0  0  0  0  0  0  0  0  0  0
    2.8591  -48.5255  -16.3034 C   0  0  0  0  0  0  0  0  0  0  0  0
    1.4710  -48.6305  -15.8879 C   0  0  0  0  0  0  0  0  0  0  0  0
    0.7911  -47.5460  -15.3007 C   0  0  0  0  0  0  0  0  0  0  0  0
   -0.4638  -47.9412  -15.0972 N   0  0  0  0  0  0  0  0  0  0  0  0
   -0.6463  -49.2076  -15.5101 C   0  0  0  0  0  0  0  0  0  0  0  0
   -1.7814  -50.0039  -15.4648 C   0  0  0  0  0  0  0  0  0  0  0  0
   -1.6928  -51.2816  -15.9321 C   0  0  0  0  0  0  0  0  0  0  0  0
   -0.4900  -51.7369  -16.4295 C   0  0  0  0  0  0  0  0  0  0  0  0
    0.6223  -50.9503  -16.4727 C   0  0  0  0  0  0  0  0  0  0  0  0
    0.5676  -49.6555  -16.0110 C   0  0  0  0  0  0  0  0  0  0  0  0
   -1.2115  -47.3418  -14.6708 H   0  0  0  0  0  0  0  0  0  0  0  0
    0.8981  -50.5247  -19.8252 C   0  0  0  0  0  0  0  0  0  0  0  0
    0.2397  -51.7346  -20.3582 C   0  0  0  0  0  0  0  0  0  0  0  0
    0.4744  -53.0039  -19.8751 C   0  0  0  0  0  0  0  0  0  0  0  0
   -0.1566  -54.1047  -20.3963 C   0  0  0  0  0  0  0  0  0  0  0  0
   -1.0483  -53.9734  -21.4235 C   0  0  0  0  0  0  0  0  0  0  0  0
   -1.7253  -55.0625  -21.9992 O   0  0  0  0  0  0  0  0  0  0  0  0
   -1.2854  -52.7105  -21.9077 C   0  0  0  0  0  0  0  0  0  0  0  0
   -0.6716  -51.5901  -21.4090 C   0  0  0  0  0  0  0  0  0  0  0  0
   -2.6155  -55.3830  -21.6592 H   0  0  0  0  0  0  0  0  0  0  0  0
 28 29  1  0  0  0
 29 30  1  0  0  0
 29  1  1  0  0  0
  1  2  1  0  0  0
  2  3  1  0  0  0
  3  4  2  0  0  0
  3  5  1  0  0  0
  5 31  1  0  0  0
 31 32  1  0  0  0
 32 33  2  0  0  0
 33 34  1  0  0  0
 34 35  1  0  0  0
 35 36  2  0  0  0
 36 37  1  0  0  0
 37 38  2  0  0  0
 38 39  1  0  0  0
 39 40  2  0  0  0
  5  6  1  0  0  0
  6  7  1  0  0  0
  7  8  2  0  0  0
  7  9  1  0  0  0
  9 10  1  0  0  0
 10 11  1  0  0  0
 11 12  1  0  0  0
 12 13  1  0  0  0
 13 14  1  0  0  0
 14 15  2  0  0  0
 14 16  1  0  0  0
 16 42  1  0  0  0
 42 43  1  0  0  0
 43 44  2  0  0  0
 44 45  1  0  0  0
 45 46  1  0  0  0
 46 47  2  0  0  0
 47 48  1  0  0  0
 48 49  2  0  0  0
 49 50  1  0  0  0
 50 51  2  0  0  0
 16 17  1  0  0  0
 17 18  1  0  0  0
 18 19  2  0  0  0
 18 20  1  0  0  0
 20 53  1  0  0  0
 53 54  1  0  0  0
 54 55  2  0  0  0
 55 56  1  0  0  0
 56 57  2  0  0  0
 57 58  1  0  0  0
 57 59  1  0  0  0
 59 60  2  0  0  0
 20 21  1  0  0  0
 21 22  1  0  0  0
 22 23  2  0  0  0
 22  1  1  0  0  0
 40 32  1  0  0  0
 13  9  1  0  0  0
 51 43  1  0  0  0
 60 54  1  0  0  0
 40 35  1  0  0  0
 51 46  1  0  0  0
  2 24  1  0  0  0
 34 41  1  0  0  0
  6 25  1  0  0  0
 45 52  1  0  0  0
 17 26  1  0  0  0
 58 61  1  0  0  0
 21 27  1  0  0  0
M  END
> <minimizedAffinity>
-9.10257

> <CNNscore>
0.2087628692

> <CNNaffinity>
7.1580300331

> <CNN_VS>
1.4943308830

> <CNNaffinity_variance>
0.7283985615

$$$$
[H]Oc1c([H])c([H])c(C([H])([H])[C@@]2([H])C(=O)N([H])[C@@]([H])(C([H])([H])c3c([H])n([H])c4c([H])c([H])c([H])c([H])c34)C(=O)N3C([H])([H])C([H])([H])C([H])([H])[C@@]3([H])C(=O)N([H])[C@@]([H])(C([H])([H])c3c([H])n([H])c4c([H])c([H])c([H])c([H])c34)C(=O)N([H])[C@@]([H])(C([H])(C([H])([H])[H])C([H])([H])[H])C(=O)N2[H])c([H])c1[H]


 61 67  0  0  0  0  0  0  0  0999 V2000
    0.3414  -50.6455  -16.9477 C   0  0  0  0  0  0  0  0  0  0  0  0
    1.2157  -51.5881  -17.5542 N   0  0  0  0  0  0  0  0  0  0  0  0
    1.0616  -52.2767  -18.7763 C   0  0  0  0  0  0  0  0  0  0  0  0
    1.6641  -53.3759  -18.8921 O   0  0  0  0  0  0  0  0  0  0  0  0
    0.2528  -51.8159  -19.9317 C   0  0  0  0  0  0  0  0  0  0  0  0
    0.6441  -50.5432  -20.4311 N   0  0  0  0  0  0  0  0  0  0  0  0
    1.4635  -50.1417  -21.4729 C   0  0  0  0  0  0  0  0  0  0  0  0
    0.9803  -49.1427  -22.1675 O   0  0  0  0  0  0  0  0  0  0  0  0
    2.7291  -50.5469  -21.9968 C   0  0  0  0  0  0  0  0  0  0  0  0
    3.6110  -51.4957  -21.3224 C   0  0  0  0  0  0  0  0  0  0  0  0
    4.9066  -51.3633  -22.1438 C   0  0  0  0  0  0  0  0  0  0  0  0
    4.5644  -50.2977  -23.1996 C   0  0  0  0  0  0  0  0  0  0  0  0
    3.6767  -49.4724  -22.3558 N   0  0  0  0  0  0  0  0  0  0  0  0
    3.6543  -48.1362  -21.9829 C   0  0  0  0  0  0  0  0  0  0  0  0
    3.3356  -47.3280  -22.9586 O   0  0  0  0  0  0  0  0  0  0  0  0
    3.9115  -47.4397  -20.7265 C   0  0  0  0  0  0  0  0  0  0  0  0
    4.2081  -48.3282  -19.6111 N   0  0  0  0  0  0  0  0  0  0  0  0
    3.7580  -48.2970  -18.3108 C   0  0  0  0  0  0  0  0  0  0  0  0
    4.6611  -48.4286  -17.3960 O   0  0  0  0  0  0  0  0  0  0  0  0
    2.3919  -48.1386  -17.7725 C   0  0  0  0  0  0  0  0  0  0  0  0
    2.2177  -48.9193  -16.5501 N   0  0  0  0  0  0  0  0  0  0  0  0
    1.1353  -49.6815  -16.1564 C   0  0  0  0  0  0  0  0  0  0  0  0
    0.7588  -49.5417  -14.9377 O   0  0  0  0  0  0  0  0  0  0  0  0
    2.1071  -51.7965  -16.9974 H   0  0  0  0  0  0  0  0  0  0  0  0
    0.2080  -49.7180  -19.8883 H   0  0  0  0  0  0  0  0  0  0  0  0
    4.8934  -49.1020  -19.8783 H   0  0  0  0  0  0  0  0  0  0  0  0
    3.0674  -48.8612  -15.9075 H   0  0  0  0  0  0  0  0  0  0  0  0
   -1.9489  -50.6207  -15.9375 C   0  0  0  0  0  0  0  0  0  0  0  0
   -0.6711  -51.3862  -16.0517 C   0  0  0  0  0  0  0  0  0  0  0  0
   -0.0667  -51.7603  -14.7201 C   0  0  0  0  0  0  0  0  0  0  0  0
    0.0533  -52.8772  -20.9850 C   0  0  0  0  0  0  0  0  0  0  0  0
   -0.6856  -52.3972  -22.1746 C   0  0  0  0  0  0  0  0  0  0  0  0
   -1.7766  -51.5742  -22.2789 C   0  0  0  0  0  0  0  0  0  0  0  0
   -2.0870  -51.4206  -23.5772 N   0  0  0  0  0  0  0  0  0  0  0  0
   -1.2173  -52.1306  -24.3404 C   0  0  0  0  0  0  0  0  0  0  0  0
   -1.1242  -52.2886  -25.7003 C   0  0  0  0  0  0  0  0  0  0  0  0
   -0.1341  -53.0763  -26.2322 C   0  0  0  0  0  0  0  0  0  0  0  0
    0.7488  -53.6918  -25.3511 C   0  0  0  0  0  0  0  0  0  0  0  0
    0.6671  -53.5429  -23.9995 C   0  0  0  0  0  0  0  0  0  0  0  0
   -0.3434  -52.7395  -23.4638 C   0  0  0  0  0  0  0  0  0  0  0  0
   -2.8655  -50.8540  -23.9798 H   0  0  0  0  0  0  0  0  0  0  0  0
    5.1056  -46.5138  -20.7769 C   0  0  0  0  0  0  0  0  0  0  0  0
    6.3005  -46.9994  -21.4454 C   0  0  0  0  0  0  0  0  0  0  0  0
    7.1688  -47.9216  -20.8300 C   0  0  0  0  0  0  0  0  0  0  0  0
    8.1190  -48.2088  -21.7170 N   0  0  0  0  0  0  0  0  0  0  0  0
    7.9294  -47.5362  -22.8656 C   0  0  0  0  0  0  0  0  0  0  0  0
    8.6870  -47.5277  -24.0278 C   0  0  0  0  0  0  0  0  0  0  0  0
    8.2854  -46.7256  -25.0544 C   0  0  0  0  0  0  0  0  0  0  0  0
    7.1507  -45.9562  -24.9063 C   0  0  0  0  0  0  0  0  0  0  0  0
    6.4091  -45.9688  -23.7627 C   0  0  0  0  0  0  0  0  0  0  0  0
    6.7849  -46.7679  -22.7078 C   0  0  0  0  0  0  0  0  0  0  0  0
    8.9113  -48.8734  -21.5417 H   0  0  0  0  0  0  0  0  0  0  0  0
    2.1517  -46.7054  -17.3882 C   0  0  0  0  0  0  0  0  0  0  0  0
    3.3084  -45.8094  -17.5892 C   0  0  0  0  0  0  0  0  0  0  0  0
    3.2858  -44.7137  -18.4250 C   0  0  0  0  0  0  0  0  0  0  0  0
    4.3812  -43.9040  -18.5865 C   0  0  0  0  0  0  0  0  0  0  0  0
    5.5425  -44.1632  -17.9143 C   0  0  0  0  0  0  0  0  0  0  0  0
    6.6971  -43.3714  -18.0385 O   0  0  0  0  0  0  0  0  0  0  0  0
    5.5693  -45.2538  -17.0802 C   0  0  0  0  0  0  0  0  0  0  0  0
    4.4922  -46.0826  -16.8967 C   0  0  0  0  0  0  0  0  0  0  0  0
    6.8745  -42.5819  -17.4417 H   0  0  0  0  0  0  0  0  0  0  0  0
 28 29  1  0  0  0
 29 30  1  0  0  0
 29  1  1  0  0  0
  1  2  1  0  0  0
  2  3  1  0  0  0
  3  4  2  0  0  0
  3  5  1  0  0  0
  5 31  1  0  0  0
 31 32  1  0  0  0
 32 33  2  0  0  0
 33 34  1  0  0  0
 34 35  1  0  0  0
 35 36  2  0  0  0
 36 37  1  0  0  0
 37 38  2  0  0  0
 38 39  1  0  0  0
 39 40  2  0  0  0
  5  6  1  0  0  0
  6  7  1  0  0  0
  7  8  2  0  0  0
  7  9  1  0  0  0
  9 10  1  0  0  0
 10 11  1  0  0  0
 11 12  1  0  0  0
 12 13  1  0  0  0
 13 14  1  0  0  0
 14 15  2  0  0  0
 14 16  1  0  0  0
 16 42  1  0  0  0
 42 43  1  0  0  0
 43 44  2  0  0  0
 44 45  1  0  0  0
 45 46  1  0  0  0
 46 47  2  0  0  0
 47 48  1  0  0  0
 48 49  2  0  0  0
 49 50  1  0  0  0
 50 51  2  0  0  0
 16 17  1  0  0  0
 17 18  1  0  0  0
 18 19  2  0  0  0
 18 20  1  0  0  0
 20 53  1  0  0  0
 53 54  1  0  0  0
 54 55  2  0  0  0
 55 56  1  0  0  0
 56 57  2  0  0  0
 57 58  1  0  0  0
 57 59  1  0  0  0
 59 60  2  0  0  0
 20 21  1  0  0  0
 21 22  1  0  0  0
 22 23  2  0  0  0
 22  1  1  0  0  0
 40 32  1  0  0  0
 13  9  1  0  0  0
 51 43  1  0  0  0
 60 54  1  0  0  0
 40 35  1  0  0  0
 51 46  1  0  0  0
  2 24  1  0  0  0
 34 41  1  0  0  0
  6 25  1  0  0  0
 45 52  1  0  0  0
 17 26  1  0  0  0
 58 61  1  0  0  0
 21 27  1  0  0  0
M  END
> <minimizedAffinity>
-1.70884

> <CNNscore>
0.1949798465

> <CNNaffinity>
6.9402971268

> <CNN_VS>
1.3532180786

> <CNNaffinity_variance>
0.6894663572

$$$$
[H]c1c([H])c([C@]([H])(N([H])[C@]([H])(C(=O)N([H])C([H])([H])C#N)C([H])([H])C([H])(C([H])([H])[H])C([H])([H])[H])C(F)(F)F)c([H])c([H])c1-c1c([H])c([H])c(S(=O)(=O)C([H])([H])[H])c([H])c1[H]


 35 36  0  0  0  0  0  0  0  0999 V2000
    1.9069  -51.3889  -25.3639 C   0  0  0  0  0  0  0  0  0  0  0  0
    1.7055  -51.2132  -23.8767 C   0  0  0  0  0  0  0  0  0  0  0  0
    2.6380  -50.6066  -23.0688 C   0  0  0  0  0  0  0  0  0  0  0  0
    2.3824  -50.4215  -21.7305 C   0  0  0  0  0  0  0  0  0  0  0  0
    1.1806  -50.8419  -21.1716 C   0  0  0  0  0  0  0  0  0  0  0  0
    0.2704  -51.4449  -22.0016 C   0  0  0  0  0  0  0  0  0  0  0  0
    0.5157  -51.6399  -23.3570 C   0  0  0  0  0  0  0  0  0  0  0  0
    0.8996  -50.6321  -19.7569 C   0  0  0  0  0  0  0  0  0  0  0  0
    0.2317  -51.6276  -19.0526 C   0  0  0  0  0  0  0  0  0  0  0  0
   -0.0496  -51.4488  -17.7276 C   0  0  0  0  0  0  0  0  0  0  0  0
    0.3193  -50.2970  -17.0769 C   0  0  0  0  0  0  0  0  0  0  0  0
    0.9827  -49.3194  -17.7887 C   0  0  0  0  0  0  0  0  0  0  0  0
    1.2774  -49.4672  -19.1127 C   0  0  0  0  0  0  0  0  0  0  0  0
   -0.0477  -50.0484  -15.3928 S   0  0  0  0  0  0  0  0  0  0  0  0
   -0.0294  -51.5527  -14.4691 C   0  0  0  0  0  0  0  0  0  0  0  0
   -1.3702  -49.3500  -15.2956 O   0  0  0  0  0  0  0  0  0  0  0  0
    0.9668  -49.0912  -14.7823 O   0  0  0  0  0  0  0  0  0  0  0  0
    2.9661  -52.4126  -25.5789 C   0  0  0  0  0  0  0  0  0  0  0  0
    4.2486  -51.8088  -25.5295 F   0  0  0  0  0  0  0  0  0  0  0  0
    2.9325  -52.7969  -26.9783 F   0  0  0  0  0  0  0  0  0  0  0  0
    2.9330  -53.5862  -24.9387 F   0  0  0  0  0  0  0  0  0  0  0  0
    0.6859  -51.4185  -25.9676 N   0  0  0  0  0  0  0  0  0  0  0  0
    0.0544  -50.6028  -25.6202 H   0  0  0  0  0  0  0  0  0  0  0  0
   -0.1013  -52.4531  -26.4747 C   0  0  0  0  0  0  0  0  0  0  0  0
   -0.0964  -53.7231  -25.8197 C   0  0  0  0  0  0  0  0  0  0  0  0
    0.5407  -54.7698  -26.0429 O   0  0  0  0  0  0  0  0  0  0  0  0
   -0.9785  -53.8846  -24.6606 N   0  0  0  0  0  0  0  0  0  0  0  0
   -1.5733  -53.0717  -24.3401 H   0  0  0  0  0  0  0  0  0  0  0  0
   -1.0799  -55.0893  -23.9070 C   0  0  0  0  0  0  0  0  0  0  0  0
   -1.3234  -54.9118  -22.4833 C   0  0  0  0  0  0  0  0  0  0  0  0
   -1.5048  -54.7461  -21.3347 N   0  0  0  0  0  0  0  0  0  0  0  0
    0.1558  -52.4578  -27.9752 C   0  0  0  0  0  0  0  0  0  0  0  0
   -2.3292  -52.4874  -28.3539 C   0  0  0  0  0  0  0  0  0  0  0  0
   -0.9342  -52.4656  -28.9240 C   0  0  0  0  0  0  0  0  0  0  0  0
   -0.7845  -53.4149  -30.0825 C   0  0  0  0  0  0  0  0  0  0  0  0
 33 34  1  0  0  0
 34 35  1  0  0  0
 34 32  1  0  0  0
 32 24  1  0  0  0
 24 22  1  0  0  0
 22  1  1  0  0  0
  1  2  1  0  0  0
  2  3  2  0  0  0
  3  4  1  0  0  0
  4  5  2  0  0  0
  5  6  1  0  0  0
  6  7  2  0  0  0
  5  8  1  0  0  0
  8  9  2  0  0  0
  9 10  1  0  0  0
 10 11  2  0  0  0
 11 12  1  0  0  0
 12 13  2  0  0  0
 11 14  1  0  0  0
 14 15  1  0  0  0
 14 16  2  0  0  0
 14 17  2  0  0  0
  1 18  1  0  0  0
 18 19  1  0  0  0
 18 20  1  0  0  0
 18 21  1  0  0  0
 24 25  1  0  0  0
 25 26  2  0  0  0
 25 27  1  0  0  0
 27 29  1  0  0  0
 29 30  1  0  0  0
 30 31  3  0  0  0
  7  2  1  0  0  0
 13  8  1  0  0  0
 22 23  1  0  0  0
 27 28  1  0  0  0
M  END
> <minimizedAffinity>
-7.66076

> <CNNscore>
0.2674850523

> <CNNaffinity>
6.5923337936

> <CNN_VS>
1.7633507252

> <CNNaffinity_variance>
0.2132014930

$$$$
[H]c1c([H])c([C@]([H])(N([H])[C@]([H])(C(=O)N([H])C([H])([H])C#N)C([H])([H])C([H])(C([H])([H])[H])C([H])([H])[H])C(F)(F)F)c([H])c([H])c1-c1c([H])c([H])c(S(=O)(=O)C([H])([H])[H])c([H])c1[H]


 35 36  0  0  0  0  0  0  0  0999 V2000
    0.3381  -53.1746  -25.2701 C   0  0  0  0  0  0  0  0  0  0  0  0
    0.1250  -52.9499  -23.7912 C   0  0  0  0  0  0  0  0  0  0  0  0
   -0.3115  -53.9424  -22.9457 C   0  0  0  0  0  0  0  0  0  0  0  0
   -0.4362  -53.7016  -21.5977 C   0  0  0  0  0  0  0  0  0  0  0  0
   -0.1238  -52.4552  -21.0665 C   0  0  0  0  0  0  0  0  0  0  0  0
    0.3075  -51.4846  -21.9341 C   0  0  0  0  0  0  0  0  0  0  0  0
    0.4375  -51.7133  -23.3001 C   0  0  0  0  0  0  0  0  0  0  0  0
   -0.2389  -52.2017  -19.6357 C   0  0  0  0  0  0  0  0  0  0  0  0
    0.4440  -51.1201  -19.0908 C   0  0  0  0  0  0  0  0  0  0  0  0
    0.3572  -50.8685  -17.7507 C   0  0  0  0  0  0  0  0  0  0  0  0
   -0.3979  -51.6696  -16.9296 C   0  0  0  0  0  0  0  0  0  0  0  0
   -1.0709  -52.7378  -17.4853 C   0  0  0  0  0  0  0  0  0  0  0  0
   -1.0038  -53.0161  -18.8193 C   0  0  0  0  0  0  0  0  0  0  0  0
   -0.5039  -51.3710  -15.2172 S   0  0  0  0  0  0  0  0  0  0  0  0
   -2.1588  -51.4858  -14.6135 C   0  0  0  0  0  0  0  0  0  0  0  0
    0.1019  -50.0299  -14.9332 O   0  0  0  0  0  0  0  0  0  0  0  0
    0.3578  -52.3769  -14.4664 O   0  0  0  0  0  0  0  0  0  0  0  0
   -0.6310  -52.3294  -26.0202 C   0  0  0  0  0  0  0  0  0  0  0  0
   -1.9378  -52.4988  -25.4956 F   0  0  0  0  0  0  0  0  0  0  0  0
   -0.8163  -52.9256  -27.3307 F   0  0  0  0  0  0  0  0  0  0  0  0
   -0.3592  -51.0507  -26.3019 F   0  0  0  0  0  0  0  0  0  0  0  0
    1.6776  -53.1993  -25.5177 N   0  0  0  0  0  0  0  0  0  0  0  0
    2.0847  -54.2001  -25.3852 H   0  0  0  0  0  0  0  0  0  0  0  0
    2.6890  -52.2475  -25.3827 C   0  0  0  0  0  0  0  0  0  0  0  0
    2.9615  -51.3560  -26.4657 C   0  0  0  0  0  0  0  0  0  0  0  0
    2.8888  -51.5030  -27.7004 O   0  0  0  0  0  0  0  0  0  0  0  0
    3.4069  -50.0019  -26.1254 N   0  0  0  0  0  0  0  0  0  0  0  0
    3.5017  -49.7233  -25.1102 H   0  0  0  0  0  0  0  0  0  0  0  0
    3.7137  -49.0044  -27.0951 C   0  0  0  0  0  0  0  0  0  0  0  0
    4.9948  -48.3378  -26.9153 C   0  0  0  0  0  0  0  0  0  0  0  0
    6.0179  -47.7769  -26.7796 N   0  0  0  0  0  0  0  0  0  0  0  0
    3.8780  -53.0012  -24.8032 C   0  0  0  0  0  0  0  0  0  0  0  0
    3.9308  -51.6611  -22.6770 C   0  0  0  0  0  0  0  0  0  0  0  0
    4.6708  -52.4435  -23.7313 C   0  0  0  0  0  0  0  0  0  0  0  0
    5.9450  -51.7598  -24.1493 C   0  0  0  0  0  0  0  0  0  0  0  0
 33 34  1  0  0  0
 34 35  1  0  0  0
 34 32  1  0  0  0
 32 24  1  0  0  0
 24 22  1  0  0  0
 22  1  1  0  0  0
  1  2  1  0  0  0
  2  3  2  0  0  0
  3  4  1  0  0  0
  4  5  2  0  0  0
  5  6  1  0  0  0
  6  7  2  0  0  0
  5  8  1  0  0  0
  8  9  2  0  0  0
  9 10  1  0  0  0
 10 11  2  0  0  0
 11 12  1  0  0  0
 12 13  2  0  0  0
 11 14  1  0  0  0
 14 15  1  0  0  0
 14 16  2  0  0  0
 14 17  2  0  0  0
  1 18  1  0  0  0
 18 19  1  0  0  0
 18 20  1  0  0  0
 18 21  1  0  0  0
 24 25  1  0  0  0
 25 26  2  0  0  0
 25 27  1  0  0  0
 27 29  1  0  0  0
 29 30  1  0  0  0
 30 31  3  0  0  0
  7  2  1  0  0  0
 13  8  1  0  0  0
 22 23  1  0  0  0
 27 28  1  0  0  0
M  END
> <minimizedAffinity>
-7.33325

> <CNNscore>
0.2389542162

> <CNNaffinity>
6.4438972473

> <CNN_VS>
1.5397964716

> <CNNaffinity_variance>
0.1373506188

$$$$
[H]c1c([H])c([C@]([H])(N([H])[C@]([H])(C(=O)N([H])C([H])([H])C#N)C([H])([H])C([H])(C([H])([H])[H])C([H])([H])[H])C(F)(F)F)c([H])c([H])c1-c1c([H])c([H])c(S(=O)(=O)C([H])([H])[H])c([H])c1[H]


 35 36  0  0  0  0  0  0  0  0999 V2000
    2.1555  -51.1378  -23.9585 C   0  0  0  0  0  0  0  0  0  0  0  0
    1.5848  -51.2180  -22.5617 C   0  0  0  0  0  0  0  0  0  0  0  0
    1.4712  -52.4031  -21.8741 C   0  0  0  0  0  0  0  0  0  0  0  0
    0.9964  -52.4149  -20.5838 C   0  0  0  0  0  0  0  0  0  0  0  0
    0.6243  -51.2332  -19.9525 C   0  0  0  0  0  0  0  0  0  0  0  0
    0.7472  -50.0670  -20.6636 C   0  0  0  0  0  0  0  0  0  0  0  0
    1.2249  -50.0398  -21.9699 C   0  0  0  0  0  0  0  0  0  0  0  0
    0.1364  -51.2403  -18.5791 C   0  0  0  0  0  0  0  0  0  0  0  0
    0.4082  -50.1451  -17.7668 C   0  0  0  0  0  0  0  0  0  0  0  0
   -0.0322  -50.1338  -16.4735 C   0  0  0  0  0  0  0  0  0  0  0  0
   -0.7431  -51.1912  -15.9608 C   0  0  0  0  0  0  0  0  0  0  0  0
   -1.0062  -52.2697  -16.7794 C   0  0  0  0  0  0  0  0  0  0  0  0
   -0.5796  -52.3117  -18.0747 C   0  0  0  0  0  0  0  0  0  0  0  0
   -1.2959  -51.1979  -14.3093 S   0  0  0  0  0  0  0  0  0  0  0  0
   -1.3343  -49.5800  -13.6041 C   0  0  0  0  0  0  0  0  0  0  0  0
   -0.4235  -52.1288  -13.5229 O   0  0  0  0  0  0  0  0  0  0  0  0
   -2.6962  -51.7916  -14.2393 O   0  0  0  0  0  0  0  0  0  0  0  0
    3.3647  -52.0036  -24.0245 C   0  0  0  0  0  0  0  0  0  0  0  0
    4.2420  -51.7030  -22.9514 F   0  0  0  0  0  0  0  0  0  0  0  0
    4.1766  -51.5458  -25.1373 F   0  0  0  0  0  0  0  0  0  0  0  0
    3.2617  -53.3190  -24.2423 F   0  0  0  0  0  0  0  0  0  0  0  0
    1.1285  -51.1952  -24.8519 N   0  0  0  0  0  0  0  0  0  0  0  0
    0.3656  -50.4531  -24.6238 H   0  0  0  0  0  0  0  0  0  0  0  0
    0.5794  -52.2324  -25.6068 C   0  0  0  0  0  0  0  0  0  0  0  0
   -0.5099  -52.9875  -25.0725 C   0  0  0  0  0  0  0  0  0  0  0  0
   -1.7435  -52.8596  -25.1866 O   0  0  0  0  0  0  0  0  0  0  0  0
   -0.1790  -54.1414  -24.2319 N   0  0  0  0  0  0  0  0  0  0  0  0
    0.8343  -54.3858  -24.0562 H   0  0  0  0  0  0  0  0  0  0  0  0
   -1.1556  -54.9878  -23.6324 C   0  0  0  0  0  0  0  0  0  0  0  0
   -1.4589  -54.6952  -22.2395 C   0  0  0  0  0  0  0  0  0  0  0  0
   -1.6798  -54.4466  -21.1130 N   0  0  0  0  0  0  0  0  0  0  0  0
    1.7693  -53.0259  -26.1284 C   0  0  0  0  0  0  0  0  0  0  0  0
    3.1360  -52.1972  -28.0687 C   0  0  0  0  0  0  0  0  0  0  0  0
    2.0560  -53.1072  -27.5425 C   0  0  0  0  0  0  0  0  0  0  0  0
    0.8563  -53.1413  -28.4510 C   0  0  0  0  0  0  0  0  0  0  0  0
 33 34  1  0  0  0
 34 35  1  0  0  0
 34 32  1  0  0  0
 32 24  1  0  0  0
 24 22  1  0  0  0
 22  1  1  0  0  0
  1  2  1  0  0  0
  2  3  2  0  0  0
  3  4  1  0  0  0
  4  5  2  0  0  0
  5  6  1  0  0  0
  6  7  2  0  0  0
  5  8  1  0  0  0
  8  9  2  0  0  0
  9 10  1  0  0  0
 10 11  2  0  0  0
 11 12  1  0  0  0
 12 13  2  0  0  0
 11 14  1  0  0  0
 14 15  1  0  0  0
 14 16  2  0  0  0
 14 17  2  0  0  0
  1 18  1  0  0  0
 18 19  1  0  0  0
 18 20  1  0  0  0
 18 21  1  0  0  0
 24 25  1  0  0  0
 25 26  2  0  0  0
 25 27  1  0  0  0
 27 29  1  0  0  0
 29 30  1  0  0  0
 30 31  3  0  0  0
  7  2  1  0  0  0
 13  8  1  0  0  0
 22 23  1  0  0  0
 27 28  1  0  0  0
M  END
> <minimizedAffinity>
-7.01002

> <CNNscore>
0.1904447973

> <CNNaffinity>
6.2315435410

> <CNN_VS>
1.1867650747

> <CNNaffinity_variance>
0.1379067004

$$$$
[H]c1c([H])c([C@]([H])(N([H])[C@]([H])(C(=O)N([H])C([H])([H])C#N)C([H])([H])C([H])(C([H])([H])[H])C([H])([H])[H])C(F)(F)F)c([H])c([H])c1-c1c([H])c([H])c(S(=O)(=O)C([H])([H])[H])c([H])c1[H]


 35 36  0  0  0  0  0  0  0  0999 V2000
    0.7332  -53.2621  -23.7397 C   0  0  0  0  0  0  0  0  0  0  0  0
    0.4693  -52.8579  -22.3079 C   0  0  0  0  0  0  0  0  0  0  0  0
    0.3572  -53.7730  -21.2878 C   0  0  0  0  0  0  0  0  0  0  0  0
    0.1720  -53.3502  -19.9926 C   0  0  0  0  0  0  0  0  0  0  0  0
    0.0956  -51.9950  -19.6913 C   0  0  0  0  0  0  0  0  0  0  0  0
    0.2093  -51.1059  -20.7293 C   0  0  0  0  0  0  0  0  0  0  0  0
    0.3958  -51.5189  -22.0446 C   0  0  0  0  0  0  0  0  0  0  0  0
   -0.0838  -51.5431  -18.3172 C   0  0  0  0  0  0  0  0  0  0  0  0
   -0.8377  -52.3247  -17.4489 C   0  0  0  0  0  0  0  0  0  0  0  0
   -1.0259  -51.9165  -16.1587 C   0  0  0  0  0  0  0  0  0  0  0  0
   -0.4793  -50.7417  -15.7033 C   0  0  0  0  0  0  0  0  0  0  0  0
    0.2674  -49.9782  -16.5762 C   0  0  0  0  0  0  0  0  0  0  0  0
    0.4730  -50.3577  -17.8704 C   0  0  0  0  0  0  0  0  0  0  0  0
   -0.7253  -50.2006  -14.0663 S   0  0  0  0  0  0  0  0  0  0  0  0
    0.6886  -49.3719  -13.4101 C   0  0  0  0  0  0  0  0  0  0  0  0
   -1.1166  -51.3824  -13.2318 O   0  0  0  0  0  0  0  0  0  0  0  0
   -1.9134  -49.2501  -14.0131 O   0  0  0  0  0  0  0  0  0  0  0  0
   -0.4885  -53.9219  -24.2766 C   0  0  0  0  0  0  0  0  0  0  0  0
   -0.1423  -54.8243  -25.3146 F   0  0  0  0  0  0  0  0  0  0  0  0
   -1.2219  -52.9347  -25.0478 F   0  0  0  0  0  0  0  0  0  0  0  0
   -1.4195  -54.4233  -23.4580 F   0  0  0  0  0  0  0  0  0  0  0  0
    1.3857  -52.2432  -24.3660 N   0  0  0  0  0  0  0  0  0  0  0  0
    0.6987  -51.4445  -24.6400 H   0  0  0  0  0  0  0  0  0  0  0  0
    2.5256  -52.1930  -25.1692 C   0  0  0  0  0  0  0  0  0  0  0  0
    2.4839  -52.7576  -26.4813 C   0  0  0  0  0  0  0  0  0  0  0  0
    3.3425  -53.3592  -27.1538 O   0  0  0  0  0  0  0  0  0  0  0  0
    1.2238  -52.6456  -27.2211 N   0  0  0  0  0  0  0  0  0  0  0  0
    0.3942  -52.1707  -26.7701 H   0  0  0  0  0  0  0  0  0  0  0  0
    1.0311  -53.1607  -28.5352 C   0  0  0  0  0  0  0  0  0  0  0  0
   -0.3130  -53.0060  -29.0712 C   0  0  0  0  0  0  0  0  0  0  0  0
   -1.4070  -52.8985  -29.4851 N   0  0  0  0  0  0  0  0  0  0  0  0
    3.6721  -52.6366  -24.2712 C   0  0  0  0  0  0  0  0  0  0  0  0
    5.9309  -51.6297  -23.8199 C   0  0  0  0  0  0  0  0  0  0  0  0
    4.4541  -51.6788  -23.5232 C   0  0  0  0  0  0  0  0  0  0  0  0
    4.1745  -51.6200  -22.0452 C   0  0  0  0  0  0  0  0  0  0  0  0
 33 34  1  0  0  0
 34 35  1  0  0  0
 34 32  1  0  0  0
 32 24  1  0  0  0
 24 22  1  0  0  0
 22  1  1  0  0  0
  1  2  1  0  0  0
  2  3  2  0  0  0
  3  4  1  0  0  0
  4  5  2  0  0  0
  5  6  1  0  0  0
  6  7  2  0  0  0
  5  8  1  0  0  0
  8  9  2  0  0  0
  9 10  1  0  0  0
 10 11  2  0  0  0
 11 12  1  0  0  0
 12 13  2  0  0  0
 11 14  1  0  0  0
 14 15  1  0  0  0
 14 16  2  0  0  0
 14 17  2  0  0  0
  1 18  1  0  0  0
 18 19  1  0  0  0
 18 20  1  0  0  0
 18 21  1  0  0  0
 24 25  1  0  0  0
 25 26  2  0  0  0
 25 27  1  0  0  0
 27 29  1  0  0  0
 29 30  1  0  0  0
 30 31  3  0  0  0
  7  2  1  0  0  0
 13  8  1  0  0  0
 22 23  1  0  0  0
 27 28  1  0  0  0
M  END
> <minimizedAffinity>
-7.67375

> <CNNscore>
0.1904229224

> <CNNaffinity>
6.0942468643

> <CNN_VS>
1.1604843140

> <CNNaffinity_variance>
0.5188528299

$$$$
[H]c1c([H])c([C@]([H])(N([H])[C@]([H])(C(=O)N([H])C([H])([H])C#N)C([H])([H])C([H])(C([H])([H])[H])C([H])([H])[H])C(F)(F)F)c([H])c([H])c1-c1c([H])c([H])c(S(=O)(=O)C([H])([H])[H])c([H])c1[H]


 35 36  0  0  0  0  0  0  0  0999 V2000
    0.1706  -52.9709  -22.0261 C   0  0  0  0  0  0  0  0  0  0  0  0
    0.7287  -51.8927  -21.1265 C   0  0  0  0  0  0  0  0  0  0  0  0
    1.6139  -52.1606  -20.1092 C   0  0  0  0  0  0  0  0  0  0  0  0
    2.1353  -51.1365  -19.3543 C   0  0  0  0  0  0  0  0  0  0  0  0
    1.7792  -49.8161  -19.6050 C   0  0  0  0  0  0  0  0  0  0  0  0
    0.8934  -49.5796  -20.6250 C   0  0  0  0  0  0  0  0  0  0  0  0
    0.3568  -50.6055  -21.3963 C   0  0  0  0  0  0  0  0  0  0  0  0
    2.3430  -48.7267  -18.8176 C   0  0  0  0  0  0  0  0  0  0  0  0
    2.2504  -48.7855  -17.4316 C   0  0  0  0  0  0  0  0  0  0  0  0
    2.7647  -47.7715  -16.6738 C   0  0  0  0  0  0  0  0  0  0  0  0
    3.3751  -46.6908  -17.2617 C   0  0  0  0  0  0  0  0  0  0  0  0
    3.4605  -46.6477  -18.6377 C   0  0  0  0  0  0  0  0  0  0  0  0
    2.9563  -47.6436  -19.4222 C   0  0  0  0  0  0  0  0  0  0  0  0
    4.0197  -45.3831  -16.3092 S   0  0  0  0  0  0  0  0  0  0  0  0
    4.6598  -45.9302  -14.7577 C   0  0  0  0  0  0  0  0  0  0  0  0
    2.9471  -44.3504  -16.1373 O   0  0  0  0  0  0  0  0  0  0  0  0
    5.1362  -44.6899  -17.0780 O   0  0  0  0  0  0  0  0  0  0  0  0
   -0.7522  -53.8220  -21.2260 C   0  0  0  0  0  0  0  0  0  0  0  0
   -1.2666  -53.0882  -20.1267 F   0  0  0  0  0  0  0  0  0  0  0  0
    0.0522  -54.7969  -20.5121 F   0  0  0  0  0  0  0  0  0  0  0  0
   -1.6879  -54.5722  -21.8176 F   0  0  0  0  0  0  0  0  0  0  0  0
   -0.1565  -52.4112  -23.2244 N   0  0  0  0  0  0  0  0  0  0  0  0
   -1.0320  -51.7706  -23.1344 H   0  0  0  0  0  0  0  0  0  0  0  0
   -0.0027  -52.8317  -24.5460 C   0  0  0  0  0  0  0  0  0  0  0  0
    1.2995  -52.8314  -25.1345 C   0  0  0  0  0  0  0  0  0  0  0  0
    2.1710  -53.7168  -25.2223 O   0  0  0  0  0  0  0  0  0  0  0  0
    1.7474  -51.5912  -25.7740 N   0  0  0  0  0  0  0  0  0  0  0  0
    1.1051  -50.7519  -25.7924 H   0  0  0  0  0  0  0  0  0  0  0  0
    3.0168  -51.4406  -26.4028 C   0  0  0  0  0  0  0  0  0  0  0  0
    3.1879  -52.1857  -27.6411 C   0  0  0  0  0  0  0  0  0  0  0  0
    3.3409  -52.7667  -28.6504 N   0  0  0  0  0  0  0  0  0  0  0  0
   -1.1042  -52.1263  -25.3250 C   0  0  0  0  0  0  0  0  0  0  0  0
   -0.6295  -53.0198  -27.6262 C   0  0  0  0  0  0  0  0  0  0  0  0
   -1.6301  -52.6809  -26.5514 C   0  0  0  0  0  0  0  0  0  0  0  0
   -2.8458  -51.9917  -27.1109 C   0  0  0  0  0  0  0  0  0  0  0  0
 33 34  1  0  0  0
 34 35  1  0  0  0
 34 32  1  0  0  0
 32 24  1  0  0  0
 24 22  1  0  0  0
 22  1  1  0  0  0
  1  2  1  0  0  0
  2  3  2  0  0  0
  3  4  1  0  0  0
  4  5  2  0  0  0
  5  6  1  0  0  0
  6  7  2  0  0  0
  5  8  1  0  0  0
  8  9  2  0  0  0
  9 10  1  0  0  0
 10 11  2  0  0  0
 11 12  1  0  0  0
 12 13  2  0  0  0
 11 14  1  0  0  0
 14 15  1  0  0  0
 14 16  2  0  0  0
 14 17  2  0  0  0
  1 18  1  0  0  0
 18 19  1  0  0  0
 18 20  1  0  0  0
 18 21  1  0  0  0
 24 25  1  0  0  0
 25 26  2  0  0  0
 25 27  1  0  0  0
 27 29  1  0  0  0
 29 30  1  0  0  0
 30 31  3  0  0  0
  7  2  1  0  0  0
 13  8  1  0  0  0
 22 23  1  0  0  0
 27 28  1  0  0  0
M  END
> <minimizedAffinity>
-5.97944

> <CNNscore>
0.1900883913

> <CNNaffinity>
5.9818754196

> <CNN_VS>
1.1370850801

> <CNNaffinity_variance>
0.0797043219

$$$$
[H]c1c([H])c([C@]([H])(N([H])[C@]([H])(C(=O)N([H])C([H])([H])C#N)C([H])([H])C([H])(C([H])([H])[H])C([H])([H])[H])C(F)(F)F)c([H])c([H])c1-c1c([H])c([H])c(S(=O)(=O)C([H])([H])[H])c([H])c1[H]


 35 36  0  0  0  0  0  0  0  0999 V2000
    0.8155  -53.1435  -23.6654 C   0  0  0  0  0  0  0  0  0  0  0  0
    0.5484  -52.7251  -22.2383 C   0  0  0  0  0  0  0  0  0  0  0  0
    0.3920  -53.6319  -21.2167 C   0  0  0  0  0  0  0  0  0  0  0  0
    0.2059  -53.1982  -19.9252 C   0  0  0  0  0  0  0  0  0  0  0  0
    0.1733  -51.8401  -19.6293 C   0  0  0  0  0  0  0  0  0  0  0  0
    0.3307  -50.9593  -20.6687 C   0  0  0  0  0  0  0  0  0  0  0  0
    0.5187  -51.3833  -21.9802 C   0  0  0  0  0  0  0  0  0  0  0  0
   -0.0070  -51.3772  -18.2590 C   0  0  0  0  0  0  0  0  0  0  0  0
    0.5663  -50.1685  -17.8802 C   0  0  0  0  0  0  0  0  0  0  0  0
    0.4172  -49.7192  -16.5986 C   0  0  0  0  0  0  0  0  0  0  0  0
   -0.2938  -50.4448  -15.6745 C   0  0  0  0  0  0  0  0  0  0  0  0
   -0.8580  -51.6411  -16.0658 C   0  0  0  0  0  0  0  0  0  0  0  0
   -0.7265  -52.1175  -17.3376 C   0  0  0  0  0  0  0  0  0  0  0  0
   -0.4776  -49.8927  -14.0330 S   0  0  0  0  0  0  0  0  0  0  0  0
   -1.7550  -50.7536  -13.1707 C   0  0  0  0  0  0  0  0  0  0  0  0
   -0.7189  -48.4138  -14.0563 O   0  0  0  0  0  0  0  0  0  0  0  0
    0.8310  -50.0824  -13.2782 O   0  0  0  0  0  0  0  0  0  0  0  0
   -0.4177  -53.7742  -24.2108 C   0  0  0  0  0  0  0  0  0  0  0  0
   -0.0900  -54.6487  -25.2784 F   0  0  0  0  0  0  0  0  0  0  0  0
   -1.1472  -52.7569  -24.9456 F   0  0  0  0  0  0  0  0  0  0  0  0
   -1.3468  -54.2904  -23.3993 F   0  0  0  0  0  0  0  0  0  0  0  0
    1.5001  -52.1450  -24.2904 N   0  0  0  0  0  0  0  0  0  0  0  0
    0.8424  -51.3162  -24.5462 H   0  0  0  0  0  0  0  0  0  0  0  0
    2.6298  -52.1323  -25.1095 C   0  0  0  0  0  0  0  0  0  0  0  0
    2.5590  -52.7197  -26.4103 C   0  0  0  0  0  0  0  0  0  0  0  0
    3.3758  -53.3999  -27.0594 O   0  0  0  0  0  0  0  0  0  0  0  0
    1.3198  -52.5262  -27.1682 N   0  0  0  0  0  0  0  0  0  0  0  0
    0.5245  -51.9791  -26.7376 H   0  0  0  0  0  0  0  0  0  0  0  0
    1.1024  -53.0526  -28.4741 C   0  0  0  0  0  0  0  0  0  0  0  0
   -0.2676  -52.9668  -28.9572 C   0  0  0  0  0  0  0  0  0  0  0  0
   -1.3758  -52.8734  -29.3352 N   0  0  0  0  0  0  0  0  0  0  0  0
    3.7794  -52.5825  -24.2187 C   0  0  0  0  0  0  0  0  0  0  0  0
    5.9985  -51.4894  -23.7717 C   0  0  0  0  0  0  0  0  0  0  0  0
    4.5370  -51.6347  -23.4338 C   0  0  0  0  0  0  0  0  0  0  0  0
    4.3050  -51.6849  -21.9474 C   0  0  0  0  0  0  0  0  0  0  0  0
 33 34  1  0  0  0
 34 35  1  0  0  0
 34 32  1  0  0  0
 32 24  1  0  0  0
 24 22  1  0  0  0
 22  1  1  0  0  0
  1  2  1  0  0  0
  2  3  2  0  0  0
  3  4  1  0  0  0
  4  5  2  0  0  0
  5  6  1  0  0  0
  6  7  2  0  0  0
  5  8  1  0  0  0
  8  9  2  0  0  0
  9 10  1  0  0  0
 10 11  2  0  0  0
 11 12  1  0  0  0
 12 13  2  0  0  0
 11 14  1  0  0  0
 14 15  1  0  0  0
 14 16  2  0  0  0
 14 17  2  0  0  0
  1 18  1  0  0  0
 18 19  1  0  0  0
 18 20  1  0  0  0
 18 21  1  0  0  0
 24 25  1  0  0  0
 25 26  2  0  0  0
 25 27  1  0  0  0
 27 29  1  0  0  0
 29 30  1  0  0  0
 30 31  3  0  0  0
  7  2  1  0  0  0
 13  8  1  0  0  0
 22 23  1  0  0  0
 27 28  1  0  0  0
M  END
> <minimizedAffinity>
-7.58126

> <CNNscore>
0.1871506423

> <CNNaffinity>
6.0657830238

> <CNN_VS>
1.1352151632

> <CNNaffinity_variance>
0.4831948876

$$$$
[H]c1c([H])c([C@]([H])(N([H])[C@]([H])(C(=O)N([H])C([H])([H])C#N)C([H])([H])C([H])(C([H])([H])[H])C([H])([H])[H])C(F)(F)F)c([H])c([H])c1-c1c([H])c([H])c(S(=O)(=O)C([H])([H])[H])c([H])c1[H]


 35 36  0  0  0  0  0  0  0  0999 V2000
    0.5415  -53.3404  -24.0401 C   0  0  0  0  0  0  0  0  0  0  0  0
    0.3214  -52.9679  -22.5923 C   0  0  0  0  0  0  0  0  0  0  0  0
    0.2558  -53.9042  -21.5876 C   0  0  0  0  0  0  0  0  0  0  0  0
    0.1095  -53.5094  -20.2786 C   0  0  0  0  0  0  0  0  0  0  0  0
    0.0262  -52.1615  -19.9478 C   0  0  0  0  0  0  0  0  0  0  0  0
    0.0932  -51.2508  -20.9711 C   0  0  0  0  0  0  0  0  0  0  0  0
    0.2400  -51.6354  -22.2999 C   0  0  0  0  0  0  0  0  0  0  0  0
   -0.1120  -51.7391  -18.5597 C   0  0  0  0  0  0  0  0  0  0  0  0
    0.5243  -50.5732  -18.1486 C   0  0  0  0  0  0  0  0  0  0  0  0
    0.4153  -50.1627  -16.8500 C   0  0  0  0  0  0  0  0  0  0  0  0
   -0.3167  -50.8857  -15.9403 C   0  0  0  0  0  0  0  0  0  0  0  0
   -0.9434  -52.0392  -16.3637 C   0  0  0  0  0  0  0  0  0  0  0  0
   -0.8532  -52.4762  -17.6530 C   0  0  0  0  0  0  0  0  0  0  0  0
   -0.4502  -50.3836  -14.2781 S   0  0  0  0  0  0  0  0  0  0  0  0
   -1.5184  -51.4309  -13.3407 C   0  0  0  0  0  0  0  0  0  0  0  0
   -0.9044  -48.9556  -14.2510 O   0  0  0  0  0  0  0  0  0  0  0  0
    0.9267  -50.3878  -13.6285 O   0  0  0  0  0  0  0  0  0  0  0  0
   -0.6102  -54.1668  -24.4949 C   0  0  0  0  0  0  0  0  0  0  0  0
   -0.2349  -54.9590  -25.6100 F   0  0  0  0  0  0  0  0  0  0  0  0
   -1.5644  -53.2810  -25.1367 F   0  0  0  0  0  0  0  0  0  0  0  0
   -1.3621  -54.8446  -23.6212 F   0  0  0  0  0  0  0  0  0  0  0  0
    1.0020  -52.2446  -24.7059 N   0  0  0  0  0  0  0  0  0  0  0  0
    0.4865  -51.3417  -24.3833 H   0  0  0  0  0  0  0  0  0  0  0  0
    1.5414  -52.0607  -25.9796 C   0  0  0  0  0  0  0  0  0  0  0  0
    2.6548  -51.1811  -26.1490 C   0  0  0  0  0  0  0  0  0  0  0  0
    3.1563  -50.6629  -27.1645 O   0  0  0  0  0  0  0  0  0  0  0  0
    3.3776  -50.7721  -24.9415 N   0  0  0  0  0  0  0  0  0  0  0  0
    3.0563  -51.1218  -23.9972 H   0  0  0  0  0  0  0  0  0  0  0  0
    4.5038  -49.8998  -24.9526 C   0  0  0  0  0  0  0  0  0  0  0  0
    5.7107  -50.4372  -24.3424 C   0  0  0  0  0  0  0  0  0  0  0  0
    6.6754  -50.8637  -23.8255 N   0  0  0  0  0  0  0  0  0  0  0  0
    0.3464  -51.8335  -26.8952 C   0  0  0  0  0  0  0  0  0  0  0  0
   -1.1987  -52.7931  -28.6304 C   0  0  0  0  0  0  0  0  0  0  0  0
    0.2061  -52.5542  -28.1398 C   0  0  0  0  0  0  0  0  0  0  0  0
    1.0694  -53.7787  -28.2860 C   0  0  0  0  0  0  0  0  0  0  0  0
 33 34  1  0  0  0
 34 35  1  0  0  0
 34 32  1  0  0  0
 32 24  1  0  0  0
 24 22  1  0  0  0
 22  1  1  0  0  0
  1  2  1  0  0  0
  2  3  2  0  0  0
  3  4  1  0  0  0
  4  5  2  0  0  0
  5  6  1  0  0  0
  6  7  2  0  0  0
  5  8  1  0  0  0
  8  9  2  0  0  0
  9 10  1  0  0  0
 10 11  2  0  0  0
 11 12  1  0  0  0
 12 13  2  0  0  0
 11 14  1  0  0  0
 14 15  1  0  0  0
 14 16  2  0  0  0
 14 17  2  0  0  0
  1 18  1  0  0  0
 18 19  1  0  0  0
 18 20  1  0  0  0
 18 21  1  0  0  0
 24 25  1  0  0  0
 25 26  2  0  0  0
 25 27  1  0  0  0
 27 29  1  0  0  0
 29 30  1  0  0  0
 30 31  3  0  0  0
  7  2  1  0  0  0
 13  8  1  0  0  0
 22 23  1  0  0  0
 27 28  1  0  0  0
M  END
> <minimizedAffinity>
-7.34363

> <CNNscore>
0.1712423265

> <CNNaffinity>
6.1949987411

> <CNN_VS>
1.0608459711

> <CNNaffinity_variance>
0.2201307714

$$$$
[H]c1c([H])c([C@]([H])(N([H])[C@]([H])(C(=O)N([H])C([H])([H])C#N)C([H])([H])C([H])(C([H])([H])[H])C([H])([H])[H])C(F)(F)F)c([H])c([H])c1-c1c([H])c([H])c(S(=O)(=O)C([H])([H])[H])c([H])c1[H]


 35 36  0  0  0  0  0  0  0  0999 V2000
    0.1895  -53.2298  -22.7733 C   0  0  0  0  0  0  0  0  0  0  0  0
    0.2115  -52.5217  -21.4386 C   0  0  0  0  0  0  0  0  0  0  0  0
    0.2082  -53.1969  -20.2410 C   0  0  0  0  0  0  0  0  0  0  0  0
    0.2851  -52.5068  -19.0542 C   0  0  0  0  0  0  0  0  0  0  0  0
    0.3681  -51.1189  -19.0431 C   0  0  0  0  0  0  0  0  0  0  0  0
    0.3678  -50.4727  -20.2528 C   0  0  0  0  0  0  0  0  0  0  0  0
    0.2894  -51.1574  -21.4612 C   0  0  0  0  0  0  0  0  0  0  0  0
    0.4666  -50.3854  -17.7874 C   0  0  0  0  0  0  0  0  0  0  0  0
    1.4335  -49.3937  -17.6661 C   0  0  0  0  0  0  0  0  0  0  0  0
    1.5494  -48.6990  -16.4953 C   0  0  0  0  0  0  0  0  0  0  0  0
    0.7220  -48.9650  -15.4319 C   0  0  0  0  0  0  0  0  0  0  0  0
   -0.2333  -49.9506  -15.5682 C   0  0  0  0  0  0  0  0  0  0  0  0
   -0.3738  -50.6626  -16.7236 C   0  0  0  0  0  0  0  0  0  0  0  0
    0.8696  -48.0994  -13.9280 S   0  0  0  0  0  0  0  0  0  0  0  0
    0.9928  -46.3542  -14.1633 C   0  0  0  0  0  0  0  0  0  0  0  0
    2.0486  -48.6464  -13.1818 O   0  0  0  0  0  0  0  0  0  0  0  0
   -0.3403  -48.3868  -13.0495 O   0  0  0  0  0  0  0  0  0  0  0  0
   -0.8812  -54.2635  -22.7413 C   0  0  0  0  0  0  0  0  0  0  0  0
   -0.3214  -55.5413  -22.4855 F   0  0  0  0  0  0  0  0  0  0  0  0
   -1.3399  -54.4678  -24.1033 F   0  0  0  0  0  0  0  0  0  0  0  0
   -2.0163  -54.0621  -22.0636 F   0  0  0  0  0  0  0  0  0  0  0  0
    0.3211  -52.3005  -23.7608 N   0  0  0  0  0  0  0  0  0  0  0  0
   -0.5905  -51.7170  -23.8771 H   0  0  0  0  0  0  0  0  0  0  0  0
    1.0709  -52.2598  -24.9369 C   0  0  0  0  0  0  0  0  0  0  0  0
    2.4287  -51.8173  -24.8875 C   0  0  0  0  0  0  0  0  0  0  0  0
    2.9841  -50.7918  -25.3249 O   0  0  0  0  0  0  0  0  0  0  0  0
    3.3932  -52.6837  -24.2043 N   0  0  0  0  0  0  0  0  0  0  0  0
    3.0640  -53.5875  -23.7661 H   0  0  0  0  0  0  0  0  0  0  0  0
    4.7778  -52.3752  -24.0736 C   0  0  0  0  0  0  0  0  0  0  0  0
    5.1550  -51.7338  -22.8229 C   0  0  0  0  0  0  0  0  0  0  0  0
    5.4510  -51.2380  -21.8001 N   0  0  0  0  0  0  0  0  0  0  0  0
    0.1714  -51.5894  -25.9662 C   0  0  0  0  0  0  0  0  0  0  0  0
   -0.5779  -52.6035  -28.1409 C   0  0  0  0  0  0  0  0  0  0  0  0
   -0.8386  -52.3362  -26.6808 C   0  0  0  0  0  0  0  0  0  0  0  0
   -2.2616  -51.9137  -26.4310 C   0  0  0  0  0  0  0  0  0  0  0  0
 33 34  1  0  0  0
 34 35  1  0  0  0
 34 32  1  0  0  0
 32 24  1  0  0  0
 24 22  1  0  0  0
 22  1  1  0  0  0
  1  2  1  0  0  0
  2  3  2  0  0  0
  3  4  1  0  0  0
  4  5  2  0  0  0
  5  6  1  0  0  0
  6  7  2  0  0  0
  5  8  1  0  0  0
  8  9  2  0  0  0
  9 10  1  0  0  0
 10 11  2  0  0  0
 11 12  1  0  0  0
 12 13  2  0  0  0
 11 14  1  0  0  0
 14 15  1  0  0  0
 14 16  2  0  0  0
 14 17  2  0  0  0
  1 18  1  0  0  0
 18 19  1  0  0  0
 18 20  1  0  0  0
 18 21  1  0  0  0
 24 25  1  0  0  0
 25 26  2  0  0  0
 25 27  1  0  0  0
 27 29  1  0  0  0
 29 30  1  0  0  0
 30 31  3  0  0  0
  7  2  1  0  0  0
 13  8  1  0  0  0
 22 23  1  0  0  0
 27 28  1  0  0  0
M  END
> <minimizedAffinity>
-6.92221

> <CNNscore>
0.1685038954

> <CNNaffinity>
6.0189080238

> <CNN_VS>
1.0142093897

> <CNNaffinity_variance>
0.3030664325

$$$$
[H]c1c([H])c([C@]([H])(N([H])[C@]([H])(C(=O)N([H])C([H])([H])C#N)C([H])([H])C([H])(C([H])([H])[H])C([H])([H])[H])C(F)(F)F)c([H])c([H])c1-c1c([H])c([H])c(S(=O)(=O)C([H])([H])[H])c([H])c1[H]


 35 36  0  0  0  0  0  0  0  0999 V2000
    0.4114  -53.4997  -23.6735 C   0  0  0  0  0  0  0  0  0  0  0  0
    0.2194  -53.0567  -22.2417 C   0  0  0  0  0  0  0  0  0  0  0  0
    0.1427  -53.9447  -21.1948 C   0  0  0  0  0  0  0  0  0  0  0  0
    0.0232  -53.4876  -19.9035 C   0  0  0  0  0  0  0  0  0  0  0  0
   -0.0213  -52.1245  -19.6333 C   0  0  0  0  0  0  0  0  0  0  0  0
    0.0559  -51.2629  -20.6975 C   0  0  0  0  0  0  0  0  0  0  0  0
    0.1758  -51.7107  -22.0091 C   0  0  0  0  0  0  0  0  0  0  0  0
   -0.1309  -51.6364  -18.2642 C   0  0  0  0  0  0  0  0  0  0  0  0
    0.5353  -50.4670  -17.9154 C   0  0  0  0  0  0  0  0  0  0  0  0
    0.4533  -49.9955  -16.6357 C   0  0  0  0  0  0  0  0  0  0  0  0
   -0.2806  -50.6605  -15.6842 C   0  0  0  0  0  0  0  0  0  0  0  0
   -0.9372  -51.8183  -16.0460 C   0  0  0  0  0  0  0  0  0  0  0  0
   -0.8745  -52.3154  -17.3150 C   0  0  0  0  0  0  0  0  0  0  0  0
   -0.3801  -50.0805  -14.0451 S   0  0  0  0  0  0  0  0  0  0  0  0
   -1.2095  -51.2152  -12.9771 C   0  0  0  0  0  0  0  0  0  0  0  0
   -1.0464  -48.7381  -14.0586 O   0  0  0  0  0  0  0  0  0  0  0  0
    1.0209  -49.8369  -13.5010 O   0  0  0  0  0  0  0  0  0  0  0  0
   -0.6309  -54.5118  -23.9980 C   0  0  0  0  0  0  0  0  0  0  0  0
   -1.9241  -53.9671  -23.7920 F   0  0  0  0  0  0  0  0  0  0  0  0
   -0.6187  -55.5124  -22.9464 F   0  0  0  0  0  0  0  0  0  0  0  0
   -0.5604  -55.2425  -25.1158 F   0  0  0  0  0  0  0  0  0  0  0  0
    0.6702  -52.4017  -24.4374 N   0  0  0  0  0  0  0  0  0  0  0  0
   -0.0605  -51.6151  -24.2575 H   0  0  0  0  0  0  0  0  0  0  0  0
    1.2625  -52.2301  -25.6891 C   0  0  0  0  0  0  0  0  0  0  0  0
    2.5518  -51.6202  -25.7768 C   0  0  0  0  0  0  0  0  0  0  0  0
    3.7006  -52.0874  -25.6622 O   0  0  0  0  0  0  0  0  0  0  0  0
    2.5972  -50.1825  -26.0572 N   0  0  0  0  0  0  0  0  0  0  0  0
    1.6953  -49.6489  -26.1954 H   0  0  0  0  0  0  0  0  0  0  0  0
    3.8064  -49.4386  -26.1749 C   0  0  0  0  0  0  0  0  0  0  0  0
    4.0271  -48.8144  -27.4709 C   0  0  0  0  0  0  0  0  0  0  0  0
    4.1787  -48.3123  -28.5218 N   0  0  0  0  0  0  0  0  0  0  0  0
    0.1704  -51.6487  -26.5763 C   0  0  0  0  0  0  0  0  0  0  0  0
   -0.9127  -52.7965  -28.5330 C   0  0  0  0  0  0  0  0  0  0  0  0
   -0.9172  -52.4667  -27.0624 C   0  0  0  0  0  0  0  0  0  0  0  0
   -2.2893  -52.0850  -26.5751 C   0  0  0  0  0  0  0  0  0  0  0  0
 33 34  1  0  0  0
 34 35  1  0  0  0
 34 32  1  0  0  0
 32 24  1  0  0  0
 24 22  1  0  0  0
 22  1  1  0  0  0
  1  2  1  0  0  0
  2  3  2  0  0  0
  3  4  1  0  0  0
  4  5  2  0  0  0
  5  6  1  0  0  0
  6  7  2  0  0  0
  5  8  1  0  0  0
  8  9  2  0  0  0
  9 10  1  0  0  0
 10 11  2  0  0  0
 11 12  1  0  0  0
 12 13  2  0  0  0
 11 14  1  0  0  0
 14 15  1  0  0  0
 14 16  2  0  0  0
 14 17  2  0  0  0
  1 18  1  0  0  0
 18 19  1  0  0  0
 18 20  1  0  0  0
 18 21  1  0  0  0
 24 25  1  0  0  0
 25 26  2  0  0  0
 25 27  1  0  0  0
 27 29  1  0  0  0
 29 30  1  0  0  0
 30 31  3  0  0  0
  7  2  1  0  0  0
 13  8  1  0  0  0
 22 23  1  0  0  0
 27 28  1  0  0  0
M  END
> <minimizedAffinity>
-6.97074

> <CNNscore>
0.1629421115

> <CNNaffinity>
6.2346878052

> <CNN_VS>
1.0158932209

> <CNNaffinity_variance>
0.1339038610

$$$$
[H]/C(=C1/C(=O)N([H])c2c1c([H])c([H])c([H])c2C([H])([H])[H])c1c(C([H])([H])[H])c(C(=O)OC([H])([H])C([H])([H])[H])c(C([H])([H])[H])n1[H]


 26 28  0  0  0  0  0  0  0  0999 V2000
   -0.0375  -53.7505  -24.9717 C   0  0  0  0  0  0  0  0  0  0  0  0
   -0.5055  -54.7264  -24.1193 C   0  0  0  0  0  0  0  0  0  0  0  0
   -1.0111  -56.0425  -24.5917 C   0  0  0  0  0  0  0  0  0  0  0  0
   -0.4144  -54.2671  -22.8545 N   0  0  0  0  0  0  0  0  0  0  0  0
    0.0969  -53.0200  -22.8343 C   0  0  0  0  0  0  0  0  0  0  0  0
    0.3353  -52.6949  -24.1763 C   0  0  0  0  0  0  0  0  0  0  0  0
    0.9014  -51.4059  -24.6252 C   0  0  0  0  0  0  0  0  0  0  0  0
   -0.6943  -54.8272  -22.0109 H   0  0  0  0  0  0  0  0  0  0  0  0
    0.3715  -52.0972  -21.7645 C   0  0  0  0  0  0  0  0  0  0  0  0
   -0.0486  -52.2764  -20.5503 C   0  0  0  0  0  0  0  0  0  0  0  0
   -0.8460  -53.3588  -19.9926 C   0  0  0  0  0  0  0  0  0  0  0  0
   -1.3177  -54.3461  -20.5901 O   0  0  0  0  0  0  0  0  0  0  0  0
   -1.0003  -53.0796  -18.5968 N   0  0  0  0  0  0  0  0  0  0  0  0
   -0.3251  -51.8661  -18.2917 C   0  0  0  0  0  0  0  0  0  0  0  0
   -0.1622  -51.1479  -17.0979 C   0  0  0  0  0  0  0  0  0  0  0  0
   -0.8069  -51.7293  -15.8758 C   0  0  0  0  0  0  0  0  0  0  0  0
    0.5481  -49.9685  -17.0311 C   0  0  0  0  0  0  0  0  0  0  0  0
    1.1156  -49.4871  -18.1910 C   0  0  0  0  0  0  0  0  0  0  0  0
    0.9728  -50.1703  -19.3782 C   0  0  0  0  0  0  0  0  0  0  0  0
    0.2572  -51.3503  -19.4242 C   0  0  0  0  0  0  0  0  0  0  0  0
   -1.5156  -53.6592  -17.9170 H   0  0  0  0  0  0  0  0  0  0  0  0
    0.0378  -53.8423  -26.4171 C   0  0  0  0  0  0  0  0  0  0  0  0
    1.1254  -54.2082  -26.9276 O   0  0  0  0  0  0  0  0  0  0  0  0
   -1.0089  -53.5540  -27.2729 O   0  0  0  0  0  0  0  0  0  0  0  0
   -0.6117  -52.7411  -29.4476 C   0  0  0  0  0  0  0  0  0  0  0  0
   -1.1417  -52.4051  -28.0542 C   0  0  0  0  0  0  0  0  0  0  0  0
 25 26  1  0  0  0
 26 24  1  0  0  0
 24 22  1  0  0  0
 22 23  2  0  0  0
 22  1  1  0  0  0
  1  2  2  0  0  0
  2  3  1  0  0  0
  2  4  1  0  0  0
  4  5  1  0  0  0
  5  9  1  0  0  0
  9 10  2  0  0  0
 10 11  1  0  0  0
 11 12  2  0  0  0
 11 13  1  0  0  0
 13 14  1  0  0  0
 14 15  2  0  0  0
 15 16  1  0  0  0
 15 17  1  0  0  0
 17 18  2  0  0  0
 18 19  1  0  0  0
 19 20  2  0  0  0
  5  6  2  0  0  0
  6  7  1  0  0  0
  6  1  1  0  0  0
 20 10  1  0  0  0
 20 14  1  0  0  0
  4  8  1  0  0  0
 13 21  1  0  0  0
M  END
> <minimizedAffinity>
-8.36580

> <CNNscore>
0.9621034265

> <CNNaffinity>
6.6484947205

> <CNN_VS>
6.3965396881

> <CNNaffinity_variance>
0.0708699822

$$$$
[H]/C(=C1/C(=O)N([H])c2c1c([H])c([H])c([H])c2C([H])([H])[H])c1c(C([H])([H])[H])c(C(=O)OC([H])([H])C([H])([H])[H])c(C([H])([H])[H])n1[H]


 26 28  0  0  0  0  0  0  0  0999 V2000
    1.1361  -53.2082  -26.2677 C   0  0  0  0  0  0  0  0  0  0  0  0
    0.4075  -54.2403  -25.7184 C   0  0  0  0  0  0  0  0  0  0  0  0
   -0.0373  -55.4253  -26.4988 C   0  0  0  0  0  0  0  0  0  0  0  0
    0.1979  -53.9673  -24.4144 N   0  0  0  0  0  0  0  0  0  0  0  0
    0.7603  -52.7899  -24.0760 C   0  0  0  0  0  0  0  0  0  0  0  0
    1.3543  -52.3110  -25.2513 C   0  0  0  0  0  0  0  0  0  0  0  0
    2.0925  -51.0342  -25.3419 C   0  0  0  0  0  0  0  0  0  0  0  0
   -0.3222  -54.6064  -23.7628 H   0  0  0  0  0  0  0  0  0  0  0  0
    0.8054  -52.0511  -22.8416 C   0  0  0  0  0  0  0  0  0  0  0  0
    0.2548  -52.4719  -21.7448 C   0  0  0  0  0  0  0  0  0  0  0  0
   -0.4962  -53.6923  -21.4903 C   0  0  0  0  0  0  0  0  0  0  0  0
   -0.7892  -54.5921  -22.3020 O   0  0  0  0  0  0  0  0  0  0  0  0
   -0.8524  -53.6749  -20.1036 N   0  0  0  0  0  0  0  0  0  0  0  0
   -0.3438  -52.4864  -19.5116 C   0  0  0  0  0  0  0  0  0  0  0  0
   -0.4045  -51.9787  -18.2055 C   0  0  0  0  0  0  0  0  0  0  0  0
   -1.1382  -52.8125  -17.1986 C   0  0  0  0  0  0  0  0  0  0  0  0
    0.1721  -50.7792  -17.8467 C   0  0  0  0  0  0  0  0  0  0  0  0
    0.8315  -50.0603  -18.8201 C   0  0  0  0  0  0  0  0  0  0  0  0
    0.9078  -50.5334  -20.1114 C   0  0  0  0  0  0  0  0  0  0  0  0
    0.3234  -51.7374  -20.4505 C   0  0  0  0  0  0  0  0  0  0  0  0
   -1.3899  -54.4020  -19.6076 H   0  0  0  0  0  0  0  0  0  0  0  0
    1.5746  -53.1107  -27.6468 C   0  0  0  0  0  0  0  0  0  0  0  0
    2.6814  -53.6211  -27.9498 O   0  0  0  0  0  0  0  0  0  0  0  0
    0.8550  -52.4928  -28.6525 O   0  0  0  0  0  0  0  0  0  0  0  0
   -1.4980  -52.5911  -28.6148 C   0  0  0  0  0  0  0  0  0  0  0  0
   -0.2298  -53.0360  -29.3424 C   0  0  0  0  0  0  0  0  0  0  0  0
 25 26  1  0  0  0
 26 24  1  0  0  0
 24 22  1  0  0  0
 22 23  2  0  0  0
 22  1  1  0  0  0
  1  2  2  0  0  0
  2  3  1  0  0  0
  2  4  1  0  0  0
  4  5  1  0  0  0
  5  9  1  0  0  0
  9 10  2  0  0  0
 10 11  1  0  0  0
 11 12  2  0  0  0
 11 13  1  0  0  0
 13 14  1  0  0  0
 14 15  2  0  0  0
 15 16  1  0  0  0
 15 17  1  0  0  0
 17 18  2  0  0  0
 18 19  1  0  0  0
 19 20  2  0  0  0
  5  6  2  0  0  0
  6  7  1  0  0  0
  6  1  1  0  0  0
 20 10  1  0  0  0
 20 14  1  0  0  0
  4  8  1  0  0  0
 13 21  1  0  0  0
M  END
> <minimizedAffinity>
-8.58708

> <CNNscore>
0.9583026767

> <CNNaffinity>
6.9120187759

> <CNN_VS>
6.6238059998

> <CNNaffinity_variance>
0.0824113265

$$$$
[H]/C(=C1/C(=O)N([H])c2c1c([H])c([H])c([H])c2C([H])([H])[H])c1c(C([H])([H])[H])c(C(=O)OC([H])([H])C([H])([H])[H])c(C([H])([H])[H])n1[H]


 26 28  0  0  0  0  0  0  0  0999 V2000
   -0.1575  -53.7418  -25.1274 C   0  0  0  0  0  0  0  0  0  0  0  0
   -0.5019  -54.7634  -24.2697 C   0  0  0  0  0  0  0  0  0  0  0  0
   -0.9494  -56.1015  -24.7392 C   0  0  0  0  0  0  0  0  0  0  0  0
   -0.3573  -54.3236  -23.0030 N   0  0  0  0  0  0  0  0  0  0  0  0
    0.0704  -53.0453  -22.9866 C   0  0  0  0  0  0  0  0  0  0  0  0
    0.1967  -52.6790  -24.3332 C   0  0  0  0  0  0  0  0  0  0  0  0
    0.6448  -51.3461  -24.7873 C   0  0  0  0  0  0  0  0  0  0  0  0
   -0.5426  -54.9175  -22.1565 H   0  0  0  0  0  0  0  0  0  0  0  0
    0.3538  -52.1268  -21.9154 C   0  0  0  0  0  0  0  0  0  0  0  0
   -0.0476  -52.3161  -20.6964 C   0  0  0  0  0  0  0  0  0  0  0  0
   -0.8293  -53.4072  -20.1338 C   0  0  0  0  0  0  0  0  0  0  0  0
   -1.3027  -54.3944  -20.7303 O   0  0  0  0  0  0  0  0  0  0  0  0
   -0.9656  -53.1373  -18.7343 N   0  0  0  0  0  0  0  0  0  0  0  0
   -0.2945  -51.9209  -18.4317 C   0  0  0  0  0  0  0  0  0  0  0  0
   -0.1195  -51.2085  -17.2361 C   0  0  0  0  0  0  0  0  0  0  0  0
   -0.7426  -51.8015  -16.0084 C   0  0  0  0  0  0  0  0  0  0  0  0
    0.5834  -50.0245  -17.1725 C   0  0  0  0  0  0  0  0  0  0  0  0
    1.1309  -49.5324  -18.3374 C   0  0  0  0  0  0  0  0  0  0  0  0
    0.9759  -50.2098  -19.5266 C   0  0  0  0  0  0  0  0  0  0  0  0
    0.2679  -51.3944  -19.5693 C   0  0  0  0  0  0  0  0  0  0  0  0
   -1.4671  -53.7245  -18.0506 H   0  0  0  0  0  0  0  0  0  0  0  0
   -0.1728  -53.8004  -26.5765 C   0  0  0  0  0  0  0  0  0  0  0  0
   -1.1511  -53.2895  -27.1757 O   0  0  0  0  0  0  0  0  0  0  0  0
    0.8191  -54.3815  -27.3444 O   0  0  0  0  0  0  0  0  0  0  0  0
    2.5492  -52.8234  -27.7002 C   0  0  0  0  0  0  0  0  0  0  0  0
    1.5413  -53.7605  -28.3645 C   0  0  0  0  0  0  0  0  0  0  0  0
 25 26  1  0  0  0
 26 24  1  0  0  0
 24 22  1  0  0  0
 22 23  2  0  0  0
 22  1  1  0  0  0
  1  2  2  0  0  0
  2  3  1  0  0  0
  2  4  1  0  0  0
  4  5  1  0  0  0
  5  9  1  0  0  0
  9 10  2  0  0  0
 10 11  1  0  0  0
 11 12  2  0  0  0
 11 13  1  0  0  0
 13 14  1  0  0  0
 14 15  2  0  0  0
 15 16  1  0  0  0
 15 17  1  0  0  0
 17 18  2  0  0  0
 18 19  1  0  0  0
 19 20  2  0  0  0
  5  6  2  0  0  0
  6  7  1  0  0  0
  6  1  1  0  0  0
 20 10  1  0  0  0
 20 14  1  0  0  0
  4  8  1  0  0  0
 13 21  1  0  0  0
M  END
> <minimizedAffinity>
-8.18404

> <CNNscore>
0.9496865273

> <CNNaffinity>
6.5398392677

> <CNN_VS>
6.2107973099

> <CNNaffinity_variance>
0.0930819586

$$$$
[H]/C(=C1/C(=O)N([H])c2c1c([H])c([H])c([H])c2C([H])([H])[H])c1c(C([H])([H])[H])c(C(=O)OC([H])([H])C([H])([H])[H])c(C([H])([H])[H])n1[H]


 26 28  0  0  0  0  0  0  0  0999 V2000
    1.4223  -52.0743  -24.7681 C   0  0  0  0  0  0  0  0  0  0  0  0
    0.0844  -52.3764  -24.6383 C   0  0  0  0  0  0  0  0  0  0  0  0
   -0.7050  -53.0423  -25.7080 C   0  0  0  0  0  0  0  0  0  0  0  0
   -0.3285  -51.9685  -23.4208 N   0  0  0  0  0  0  0  0  0  0  0  0
    0.6865  -51.4051  -22.7356 C   0  0  0  0  0  0  0  0  0  0  0  0
    1.7946  -51.4735  -23.5907 C   0  0  0  0  0  0  0  0  0  0  0  0
    3.1382  -50.9669  -23.2425 C   0  0  0  0  0  0  0  0  0  0  0  0
   -1.3091  -52.0963  -23.0665 H   0  0  0  0  0  0  0  0  0  0  0  0
    0.7654  -50.8051  -21.4298 C   0  0  0  0  0  0  0  0  0  0  0  0
    0.3308  -51.3886  -20.3557 C   0  0  0  0  0  0  0  0  0  0  0  0
   -0.3037  -52.6886  -20.1958 C   0  0  0  0  0  0  0  0  0  0  0  0
   -0.5857  -53.5155  -21.0852 O   0  0  0  0  0  0  0  0  0  0  0  0
   -0.5573  -52.8535  -18.7963 N   0  0  0  0  0  0  0  0  0  0  0  0
   -0.0992  -51.6985  -18.1052 C   0  0  0  0  0  0  0  0  0  0  0  0
   -0.1026  -51.3441  -16.7480 C   0  0  0  0  0  0  0  0  0  0  0  0
   -0.6942  -52.3423  -15.7989 C   0  0  0  0  0  0  0  0  0  0  0  0
    0.4052  -50.1468  -16.2913 C   0  0  0  0  0  0  0  0  0  0  0  0
    0.9342  -49.2724  -17.2157 C   0  0  0  0  0  0  0  0  0  0  0  0
    0.9515  -49.5928  -18.5551 C   0  0  0  0  0  0  0  0  0  0  0  0
    0.4377  -50.7974  -18.9925 C   0  0  0  0  0  0  0  0  0  0  0  0
   -0.9997  -53.6735  -18.3539 H   0  0  0  0  0  0  0  0  0  0  0  0
    2.2517  -52.3468  -25.9262 C   0  0  0  0  0  0  0  0  0  0  0  0
    2.7413  -53.4976  -26.0417 O   0  0  0  0  0  0  0  0  0  0  0  0
    2.5402  -51.4236  -26.9140 O   0  0  0  0  0  0  0  0  0  0  0  0
    2.8122  -49.1671  -26.2960 C   0  0  0  0  0  0  0  0  0  0  0  0
    3.5029  -50.4155  -26.8436 C   0  0  0  0  0  0  0  0  0  0  0  0
 25 26  1  0  0  0
 26 24  1  0  0  0
 24 22  1  0  0  0
 22 23  2  0  0  0
 22  1  1  0  0  0
  1  2  2  0  0  0
  2  3  1  0  0  0
  2  4  1  0  0  0
  4  5  1  0  0  0
  5  9  1  0  0  0
  9 10  2  0  0  0
 10 11  1  0  0  0
 11 12  2  0  0  0
 11 13  1  0  0  0
 13 14  1  0  0  0
 14 15  2  0  0  0
 15 16  1  0  0  0
 15 17  1  0  0  0
 17 18  2  0  0  0
 18 19  1  0  0  0
 19 20  2  0  0  0
  5  6  2  0  0  0
  6  7  1  0  0  0
  6  1  1  0  0  0
 20 10  1  0  0  0
 20 14  1  0  0  0
  4  8  1  0  0  0
 13 21  1  0  0  0
M  END
> <minimizedAffinity>
-6.45721

> <CNNscore>
0.5183241367

> <CNNaffinity>
5.9691948891

> <CNN_VS>
3.0939776897

> <CNNaffinity_variance>
0.5292595625

$$$$
[H]/C(=C1/C(=O)N([H])c2c1c([H])c([H])c([H])c2C([H])([H])[H])c1c(C([H])([H])[H])c(C(=O)OC([H])([H])C([H])([H])[H])c(C([H])([H])[H])n1[H]


 26 28  0  0  0  0  0  0  0  0999 V2000
    0.2667  -51.3245  -17.9001 C   0  0  0  0  0  0  0  0  0  0  0  0
   -0.5607  -52.3905  -18.1776 C   0  0  0  0  0  0  0  0  0  0  0  0
   -1.6131  -52.8667  -17.2413 C   0  0  0  0  0  0  0  0  0  0  0  0
   -0.2365  -52.8766  -19.3932 N   0  0  0  0  0  0  0  0  0  0  0  0
    0.7777  -52.1727  -19.9346 C   0  0  0  0  0  0  0  0  0  0  0  0
    1.0945  -51.1899  -18.9874 C   0  0  0  0  0  0  0  0  0  0  0  0
    2.1608  -50.1830  -19.1679 C   0  0  0  0  0  0  0  0  0  0  0  0
   -0.7303  -53.6853  -19.8467 H   0  0  0  0  0  0  0  0  0  0  0  0
    1.4940  -52.2952  -21.1770 C   0  0  0  0  0  0  0  0  0  0  0  0
    0.9030  -52.3910  -22.3278 C   0  0  0  0  0  0  0  0  0  0  0  0
   -0.5173  -52.4064  -22.6452 C   0  0  0  0  0  0  0  0  0  0  0  0
   -1.4778  -52.3521  -21.8521 O   0  0  0  0  0  0  0  0  0  0  0  0
   -0.6198  -52.5009  -24.0702 N   0  0  0  0  0  0  0  0  0  0  0  0
    0.6886  -52.5442  -24.6249 C   0  0  0  0  0  0  0  0  0  0  0  0
    1.1546  -52.6346  -25.9448 C   0  0  0  0  0  0  0  0  0  0  0  0
    0.1103  -52.7024  -27.0182 C   0  0  0  0  0  0  0  0  0  0  0  0
    2.4964  -52.6617  -26.2591 C   0  0  0  0  0  0  0  0  0  0  0  0
    3.4055  -52.5968  -25.2256 C   0  0  0  0  0  0  0  0  0  0  0  0
    2.9780  -52.5075  -23.9194 C   0  0  0  0  0  0  0  0  0  0  0  0
    1.6292  -52.4817  -23.6254 C   0  0  0  0  0  0  0  0  0  0  0  0
   -1.4961  -52.5329  -24.6132 H   0  0  0  0  0  0  0  0  0  0  0  0
    0.2481  -50.5194  -16.6939 C   0  0  0  0  0  0  0  0  0  0  0  0
    1.0918  -50.7786  -15.8004 O   0  0  0  0  0  0  0  0  0  0  0  0
   -0.6371  -49.4835  -16.4607 O   0  0  0  0  0  0  0  0  0  0  0  0
   -2.5256  -49.6678  -15.0652 C   0  0  0  0  0  0  0  0  0  0  0  0
   -1.1232  -49.0795  -15.2164 C   0  0  0  0  0  0  0  0  0  0  0  0
 25 26  1  0  0  0
 26 24  1  0  0  0
 24 22  1  0  0  0
 22 23  2  0  0  0
 22  1  1  0  0  0
  1  2  2  0  0  0
  2  3  1  0  0  0
  2  4  1  0  0  0
  4  5  1  0  0  0
  5  9  1  0  0  0
  9 10  2  0  0  0
 10 11  1  0  0  0
 11 12  2  0  0  0
 11 13  1  0  0  0
 13 14  1  0  0  0
 14 15  2  0  0  0
 15 16  1  0  0  0
 15 17  1  0  0  0
 17 18  2  0  0  0
 18 19  1  0  0  0
 19 20  2  0  0  0
  5  6  2  0  0  0
  6  7  1  0  0  0
  6  1  1  0  0  0
 20 10  1  0  0  0
 20 14  1  0  0  0
  4  8  1  0  0  0
 13 21  1  0  0  0
M  END
> <minimizedAffinity>
-6.81554

> <CNNscore>
0.4513493776

> <CNNaffinity>
5.7399630547

> <CNN_VS>
2.5907287598

> <CNNaffinity_variance>
0.4383064806

$$$$
[H]/C(=C1/C(=O)N([H])c2c1c([H])c([H])c([H])c2C([H])([H])[H])c1c(C([H])([H])[H])c(C(=O)OC([H])([H])C([H])([H])[H])c(C([H])([H])[H])n1[H]


 26 28  0  0  0  0  0  0  0  0999 V2000
    2.0031  -51.6926  -20.5438 C   0  0  0  0  0  0  0  0  0  0  0  0
    0.8906  -52.5000  -20.4524 C   0  0  0  0  0  0  0  0  0  0  0  0
    0.1702  -52.7479  -19.1754 C   0  0  0  0  0  0  0  0  0  0  0  0
    0.6130  -52.9840  -21.6802 N   0  0  0  0  0  0  0  0  0  0  0  0
    1.5014  -52.5282  -22.5859 C   0  0  0  0  0  0  0  0  0  0  0  0
    2.3807  -51.7101  -21.8640 C   0  0  0  0  0  0  0  0  0  0  0  0
    3.5245  -50.9944  -22.4664 C   0  0  0  0  0  0  0  0  0  0  0  0
   -0.2000  -53.6166  -21.8858 H   0  0  0  0  0  0  0  0  0  0  0  0
    1.6572  -52.7576  -23.9982 C   0  0  0  0  0  0  0  0  0  0  0  0
    0.6677  -52.7103  -24.8360 C   0  0  0  0  0  0  0  0  0  0  0  0
   -0.7425  -52.4432  -24.5950 C   0  0  0  0  0  0  0  0  0  0  0  0
   -1.3025  -52.2229  -23.5031 O   0  0  0  0  0  0  0  0  0  0  0  0
   -1.3927  -52.4826  -25.8701 N   0  0  0  0  0  0  0  0  0  0  0  0
   -0.4250  -52.7651  -26.8728 C   0  0  0  0  0  0  0  0  0  0  0  0
   -0.5195  -52.9127  -28.2645 C   0  0  0  0  0  0  0  0  0  0  0  0
   -1.8851  -52.7521  -28.8617 C   0  0  0  0  0  0  0  0  0  0  0  0
    0.5725  -53.1914  -29.0581 C   0  0  0  0  0  0  0  0  0  0  0  0
    1.8000  -53.3279  -28.4469 C   0  0  0  0  0  0  0  0  0  0  0  0
    1.9239  -53.1883  -27.0823 C   0  0  0  0  0  0  0  0  0  0  0  0
    0.8176  -52.9091  -26.3048 C   0  0  0  0  0  0  0  0  0  0  0  0
   -2.3985  -52.3317  -26.0415 H   0  0  0  0  0  0  0  0  0  0  0  0
    2.6319  -50.9764  -19.4506 C   0  0  0  0  0  0  0  0  0  0  0  0
    3.4951  -51.5829  -18.7691 O   0  0  0  0  0  0  0  0  0  0  0  0
    2.3450  -49.6684  -19.1073 O   0  0  0  0  0  0  0  0  0  0  0  0
    2.2167  -47.9527  -20.7159 C   0  0  0  0  0  0  0  0  0  0  0  0
    1.4284  -48.8313  -19.7453 C   0  0  0  0  0  0  0  0  0  0  0  0
 25 26  1  0  0  0
 26 24  1  0  0  0
 24 22  1  0  0  0
 22 23  2  0  0  0
 22  1  1  0  0  0
  1  2  2  0  0  0
  2  3  1  0  0  0
  2  4  1  0  0  0
  4  5  1  0  0  0
  5  9  1  0  0  0
  9 10  2  0  0  0
 10 11  1  0  0  0
 11 12  2  0  0  0
 11 13  1  0  0  0
 13 14  1  0  0  0
 14 15  2  0  0  0
 15 16  1  0  0  0
 15 17  1  0  0  0
 17 18  2  0  0  0
 18 19  1  0  0  0
 19 20  2  0  0  0
  5  6  2  0  0  0
  6  7  1  0  0  0
  6  1  1  0  0  0
 20 10  1  0  0  0
 20 14  1  0  0  0
  4  8  1  0  0  0
 13 21  1  0  0  0
M  END
> <minimizedAffinity>
-6.75348

> <CNNscore>
0.4148832858

> <CNNaffinity>
6.0640363693

> <CNN_VS>
2.5158672333

> <CNNaffinity_variance>
0.1878550798

$$$$
[H]/C(=C1/C(=O)N([H])c2c1c([H])c([H])c([H])c2C([H])([H])[H])c1c(C([H])([H])[H])c(C(=O)OC([H])([H])C([H])([H])[H])c(C([H])([H])[H])n1[H]


 26 28  0  0  0  0  0  0  0  0999 V2000
    0.5771  -52.7298  -24.2206 C   0  0  0  0  0  0  0  0  0  0  0  0
    1.9532  -52.6936  -24.1661 C   0  0  0  0  0  0  0  0  0  0  0  0
    2.8233  -53.3011  -25.2077 C   0  0  0  0  0  0  0  0  0  0  0  0
    2.3183  -52.0365  -23.0463 N   0  0  0  0  0  0  0  0  0  0  0  0
    1.2345  -51.6345  -22.3529 C   0  0  0  0  0  0  0  0  0  0  0  0
    0.1327  -52.0744  -23.0987 C   0  0  0  0  0  0  0  0  0  0  0  0
   -1.2735  -51.8481  -22.7053 C   0  0  0  0  0  0  0  0  0  0  0  0
    3.3178  -51.8580  -22.7766 H   0  0  0  0  0  0  0  0  0  0  0  0
    1.0814  -50.9296  -21.1075 C   0  0  0  0  0  0  0  0  0  0  0  0
    0.6528  -51.4961  -20.0220 C   0  0  0  0  0  0  0  0  0  0  0  0
    0.2410  -52.8730  -19.7921 C   0  0  0  0  0  0  0  0  0  0  0  0
    0.1941  -53.8045  -20.6195 O   0  0  0  0  0  0  0  0  0  0  0  0
   -0.1144  -52.9709  -18.4085 N   0  0  0  0  0  0  0  0  0  0  0  0
    0.0674  -51.7014  -17.7947 C   0  0  0  0  0  0  0  0  0  0  0  0
   -0.1287  -51.2481  -16.4818 C   0  0  0  0  0  0  0  0  0  0  0  0
   -0.6272  -52.2595  -15.4938 C   0  0  0  0  0  0  0  0  0  0  0  0
    0.1171  -49.9466  -16.1003 C   0  0  0  0  0  0  0  0  0  0  0  0
    0.5733  -49.0660  -17.0572 C   0  0  0  0  0  0  0  0  0  0  0  0
    0.7754  -49.4820  -18.3544 C   0  0  0  0  0  0  0  0  0  0  0  0
    0.5231  -50.7903  -18.7164 C   0  0  0  0  0  0  0  0  0  0  0  0
   -0.4485  -53.8202  -17.9281 H   0  0  0  0  0  0  0  0  0  0  0  0
   -0.2212  -53.3429  -25.2648 C   0  0  0  0  0  0  0  0  0  0  0  0
   -0.8074  -54.4217  -25.0005 O   0  0  0  0  0  0  0  0  0  0  0  0
   -0.3811  -52.8188  -26.5340 O   0  0  0  0  0  0  0  0  0  0  0  0
   -0.6056  -52.5872  -28.8671 C   0  0  0  0  0  0  0  0  0  0  0  0
   -0.0554  -53.4525  -27.7340 C   0  0  0  0  0  0  0  0  0  0  0  0
 25 26  1  0  0  0
 26 24  1  0  0  0
 24 22  1  0  0  0
 22 23  2  0  0  0
 22  1  1  0  0  0
  1  2  2  0  0  0
  2  3  1  0  0  0
  2  4  1  0  0  0
  4  5  1  0  0  0
  5  9  1  0  0  0
  9 10  2  0  0  0
 10 11  1  0  0  0
 11 12  2  0  0  0
 11 13  1  0  0  0
 13 14  1  0  0  0
 14 15  2  0  0  0
 15 16  1  0  0  0
 15 17  1  0  0  0
 17 18  2  0  0  0
 18 19  1  0  0  0
 19 20  2  0  0  0
  5  6  2  0  0  0
  6  7  1  0  0  0
  6  1  1  0  0  0
 20 10  1  0  0  0
 20 14  1  0  0  0
  4  8  1  0  0  0
 13 21  1  0  0  0
M  END
> <minimizedAffinity>
-6.48207

> <CNNscore>
0.3995007873

> <CNNaffinity>
5.7721867561

> <CNN_VS>
2.3059930801

> <CNNaffinity_variance>
0.4923809469

$$$$
[H]/C(=C1/C(=O)N([H])c2c1c([H])c([H])c([H])c2C([H])([H])[H])c1c(C([H])([H])[H])c(C(=O)OC([H])([H])C([H])([H])[H])c(C([H])([H])[H])n1[H]


 26 28  0  0  0  0  0  0  0  0999 V2000
    0.9198  -50.9999  -16.4798 C   0  0  0  0  0  0  0  0  0  0  0  0
   -0.4089  -51.2588  -16.7359 C   0  0  0  0  0  0  0  0  0  0  0  0
   -1.4115  -51.4947  -15.6635 C   0  0  0  0  0  0  0  0  0  0  0  0
   -0.5943  -51.2533  -18.0718 N   0  0  0  0  0  0  0  0  0  0  0  0
    0.5635  -51.0007  -18.7143 C   0  0  0  0  0  0  0  0  0  0  0  0
    1.5211  -50.8402  -17.7040 C   0  0  0  0  0  0  0  0  0  0  0  0
    2.9467  -50.5452  -17.9574 C   0  0  0  0  0  0  0  0  0  0  0  0
   -1.5264  -51.4107  -18.5301 H   0  0  0  0  0  0  0  0  0  0  0  0
    0.9030  -50.9090  -20.1099 C   0  0  0  0  0  0  0  0  0  0  0  0
    0.5461  -51.7981  -20.9847 C   0  0  0  0  0  0  0  0  0  0  0  0
   -0.2195  -53.0229  -20.8063 C   0  0  0  0  0  0  0  0  0  0  0  0
   -0.6794  -53.4885  -19.7450 O   0  0  0  0  0  0  0  0  0  0  0  0
   -0.3525  -53.6178  -22.1018 N   0  0  0  0  0  0  0  0  0  0  0  0
    0.3068  -52.7960  -23.0566 C   0  0  0  0  0  0  0  0  0  0  0  0
    0.4795  -52.9088  -24.4440 C   0  0  0  0  0  0  0  0  0  0  0  0
   -0.1295  -54.1131  -25.0968 C   0  0  0  0  0  0  0  0  0  0  0  0
    1.1694  -51.9740  -25.1856 C   0  0  0  0  0  0  0  0  0  0  0  0
    1.7058  -50.8901  -24.5248 C   0  0  0  0  0  0  0  0  0  0  0  0
    1.5525  -50.7521  -23.1631 C   0  0  0  0  0  0  0  0  0  0  0  0
    0.8578  -51.6999  -22.4381 C   0  0  0  0  0  0  0  0  0  0  0  0
   -0.8447  -54.4985  -22.3158 H   0  0  0  0  0  0  0  0  0  0  0  0
    1.5375  -50.9167  -15.1702 C   0  0  0  0  0  0  0  0  0  0  0  0
    1.7588  -49.7752  -14.6955 O   0  0  0  0  0  0  0  0  0  0  0  0
    1.8995  -52.0112  -14.4072 O   0  0  0  0  0  0  0  0  0  0  0  0
    4.1955  -52.3133  -14.8370 C   0  0  0  0  0  0  0  0  0  0  0  0
    3.1208  -52.1945  -13.7571 C   0  0  0  0  0  0  0  0  0  0  0  0
 25 26  1  0  0  0
 26 24  1  0  0  0
 24 22  1  0  0  0
 22 23  2  0  0  0
 22  1  1  0  0  0
  1  2  2  0  0  0
  2  3  1  0  0  0
  2  4  1  0  0  0
  4  5  1  0  0  0
  5  9  1  0  0  0
  9 10  2  0  0  0
 10 11  1  0  0  0
 11 12  2  0  0  0
 11 13  1  0  0  0
 13 14  1  0  0  0
 14 15  2  0  0  0
 15 16  1  0  0  0
 15 17  1  0  0  0
 17 18  2  0  0  0
 18 19  1  0  0  0
 19 20  2  0  0  0
  5  6  2  0  0  0
  6  7  1  0  0  0
  6  1  1  0  0  0
 20 10  1  0  0  0
 20 14  1  0  0  0
  4  8  1  0  0  0
 13 21  1  0  0  0
M  END
> <minimizedAffinity>
-6.34918

> <CNNscore>
0.3717075586

> <CNNaffinity>
5.5362415314

> <CNN_VS>
2.0578627586

> <CNNaffinity_variance>
0.5211009979

$$$$
[H]/C(=C1/C(=O)N([H])c2c1c([H])c([H])c([H])c2C([H])([H])[H])c1c(C([H])([H])[H])c(C(=O)OC([H])([H])C([H])([H])[H])c(C([H])([H])[H])n1[H]


 26 28  0  0  0  0  0  0  0  0999 V2000
    1.2020  -51.3951  -19.5232 C   0  0  0  0  0  0  0  0  0  0  0  0
    0.2785  -52.4097  -19.6482 C   0  0  0  0  0  0  0  0  0  0  0  0
   -0.6390  -52.8123  -18.5495 C   0  0  0  0  0  0  0  0  0  0  0  0
    0.3762  -52.9243  -20.8910 N   0  0  0  0  0  0  0  0  0  0  0  0
    1.3322  -52.2891  -21.5978 C   0  0  0  0  0  0  0  0  0  0  0  0
    1.8537  -51.3206  -20.7296 C   0  0  0  0  0  0  0  0  0  0  0  0
    2.9366  -50.3833  -21.0936 C   0  0  0  0  0  0  0  0  0  0  0  0
   -0.2311  -53.7042  -21.2468 H   0  0  0  0  0  0  0  0  0  0  0  0
    1.8339  -52.4654  -22.9352 C   0  0  0  0  0  0  0  0  0  0  0  0
    1.0624  -52.5486  -23.9749 C   0  0  0  0  0  0  0  0  0  0  0  0
   -0.3895  -52.4978  -24.0617 C   0  0  0  0  0  0  0  0  0  0  0  0
   -1.2070  -52.3840  -23.1273 O   0  0  0  0  0  0  0  0  0  0  0  0
   -0.7231  -52.6080  -25.4498 N   0  0  0  0  0  0  0  0  0  0  0  0
    0.4762  -52.7247  -26.2045 C   0  0  0  0  0  0  0  0  0  0  0  0
    0.7202  -52.8576  -27.5794 C   0  0  0  0  0  0  0  0  0  0  0  0
   -0.4845  -52.8891  -28.4712 C   0  0  0  0  0  0  0  0  0  0  0  0
    1.9916  -52.9562  -28.1026 C   0  0  0  0  0  0  0  0  0  0  0  0
    3.0565  -52.9215  -27.2286 C   0  0  0  0  0  0  0  0  0  0  0  0
    2.8482  -52.7918  -25.8734 C   0  0  0  0  0  0  0  0  0  0  0  0
    1.5665  -52.6945  -25.3692 C   0  0  0  0  0  0  0  0  0  0  0  0
   -1.6755  -52.6043  -25.8455 H   0  0  0  0  0  0  0  0  0  0  0  0
    1.4234  -50.5811  -18.3434 C   0  0  0  0  0  0  0  0  0  0  0  0
    0.9441  -49.4203  -18.3311 O   0  0  0  0  0  0  0  0  0  0  0  0
    2.1274  -50.9976  -17.2289 O   0  0  0  0  0  0  0  0  0  0  0  0
    3.7506  -51.2844  -15.5465 C   0  0  0  0  0  0  0  0  0  0  0  0
    3.3776  -50.5296  -16.8219 C   0  0  0  0  0  0  0  0  0  0  0  0
 25 26  1  0  0  0
 26 24  1  0  0  0
 24 22  1  0  0  0
 22 23  2  0  0  0
 22  1  1  0  0  0
  1  2  2  0  0  0
  2  3  1  0  0  0
  2  4  1  0  0  0
  4  5  1  0  0  0
  5  9  1  0  0  0
  9 10  2  0  0  0
 10 11  1  0  0  0
 11 12  2  0  0  0
 11 13  1  0  0  0
 13 14  1  0  0  0
 14 15  2  0  0  0
 15 16  1  0  0  0
 15 17  1  0  0  0
 17 18  2  0  0  0
 18 19  1  0  0  0
 19 20  2  0  0  0
  5  6  2  0  0  0
  6  7  1  0  0  0
  6  1  1  0  0  0
 20 10  1  0  0  0
 20 14  1  0  0  0
  4  8  1  0  0  0
 13 21  1  0  0  0
M  END
> <minimizedAffinity>
-6.75588

> <CNNscore>
0.3050694764

> <CNNaffinity>
5.8684210777

> <CNN_VS>
1.7902761698

> <CNNaffinity_variance>
0.2428075373

$$$$
[H]c1nc(C([H])([H])[H])c([H])c([H])c1C(=O)N([H])c1c([H])c(N([H])C(=O)c2c([H])c([H])c(C([H])([H])N3C([H])([H])C([H])([H])N(C([H])([H])[H])C([H])([H])C3([H])[H])c(C(F)(F)F)c2[H])c([H])c([H])c1C([H])([H])[H]


 40 43  0  0  0  0  0  0  0  0999 V2000
    3.3030  -47.9925  -23.1011 C   0  0  0  0  0  0  0  0  0  0  0  0
    3.3403  -48.5026  -24.2395 O   0  0  0  0  0  0  0  0  0  0  0  0
    3.9324  -46.7998  -22.7821 N   0  0  0  0  0  0  0  0  0  0  0  0
    3.8137  -46.4630  -21.7624 H   0  0  0  0  0  0  0  0  0  0  0  0
    4.7129  -45.9540  -23.6135 C   0  0  0  0  0  0  0  0  0  0  0  0
    5.5981  -45.0481  -23.0173 C   0  0  0  0  0  0  0  0  0  0  0  0
    6.3837  -44.2205  -23.7716 C   0  0  0  0  0  0  0  0  0  0  0  0
    6.3495  -44.2307  -25.1403 C   0  0  0  0  0  0  0  0  0  0  0  0
    7.2303  -43.3028  -25.9147 C   0  0  0  0  0  0  0  0  0  0  0  0
    5.4766  -45.1238  -25.7730 C   0  0  0  0  0  0  0  0  0  0  0  0
    4.6843  -45.9592  -24.9910 C   0  0  0  0  0  0  0  0  0  0  0  0
    5.4729  -45.1024  -27.1863 N   0  0  0  0  0  0  0  0  0  0  0  0
    4.4568  -44.6760  -28.0438 C   0  0  0  0  0  0  0  0  0  0  0  0
    3.3682  -44.2360  -27.6434 O   0  0  0  0  0  0  0  0  0  0  0  0
    6.3744  -45.4592  -27.6545 H   0  0  0  0  0  0  0  0  0  0  0  0
    4.6226  -44.7245  -29.5065 C   0  0  0  0  0  0  0  0  0  0  0  0
    3.7615  -45.3857  -30.3376 C   0  0  0  0  0  0  0  0  0  0  0  0
    4.0098  -45.3768  -31.7064 C   0  0  0  0  0  0  0  0  0  0  0  0
    5.0806  -44.7361  -32.2811 C   0  0  0  0  0  0  0  0  0  0  0  0
    5.3575  -44.7170  -33.7333 C   0  0  0  0  0  0  0  0  0  0  0  0
    5.9073  -44.0948  -31.4248 N   0  0  0  0  0  0  0  0  0  0  0  0
    5.7017  -44.0827  -30.1193 C   0  0  0  0  0  0  0  0  0  0  0  0
    1.1022  -50.1370  -20.1357 C   0  0  0  0  0  0  0  0  0  0  0  0
    0.6133  -48.9615  -20.7091 C   0  0  0  0  0  0  0  0  0  0  0  0
    1.3137  -48.2617  -21.6605 C   0  0  0  0  0  0  0  0  0  0  0  0
    2.5379  -48.7276  -22.0685 C   0  0  0  0  0  0  0  0  0  0  0  0
    3.0237  -49.8738  -21.5169 C   0  0  0  0  0  0  0  0  0  0  0  0
    2.3312  -50.6108  -20.5422 C   0  0  0  0  0  0  0  0  0  0  0  0
    2.9032  -51.8045  -20.0267 C   0  0  0  0  0  0  0  0  0  0  0  0
    2.1654  -52.9122  -19.8335 F   0  0  0  0  0  0  0  0  0  0  0  0
    3.4125  -51.5323  -18.7318 F   0  0  0  0  0  0  0  0  0  0  0  0
    4.0843  -52.1260  -20.7149 F   0  0  0  0  0  0  0  0  0  0  0  0
    0.3680  -50.8944  -19.1462 C   0  0  0  0  0  0  0  0  0  0  0  0
    2.2695  -50.5690  -14.9069 C   0  0  0  0  0  0  0  0  0  0  0  0
    0.9041  -50.2053  -15.1074 N   0  0  0  0  0  0  0  0  0  0  0  0
    0.0176  -51.2692  -15.4507 C   0  0  0  0  0  0  0  0  0  0  0  0
   -0.4709  -51.0293  -16.8691 C   0  0  0  0  0  0  0  0  0  0  0  0
    0.5844  -50.6343  -17.7681 N   0  0  0  0  0  0  0  0  0  0  0  0
    1.0791  -49.3599  -17.4233 C   0  0  0  0  0  0  0  0  0  0  0  0
    0.6933  -49.0903  -15.9684 C   0  0  0  0  0  0  0  0  0  0  0  0
 34 35  1  0  0  0
 35 36  1  0  0  0
 36 37  1  0  0  0
 37 38  1  0  0  0
 38 33  1  0  0  0
 33 23  1  0  0  0
 23 24  2  0  0  0
 24 25  1  0  0  0
 25 26  2  0  0  0
 26 27  1  0  0  0
 27 28  2  0  0  0
 28 29  1  0  0  0
 29 30  1  0  0  0
 29 31  1  0  0  0
 29 32  1  0  0  0
 26  1  1  0  0  0
  1  2  2  0  0  0
  1  3  1  0  0  0
  3  5  1  0  0  0
  5  6  2  0  0  0
  6  7  1  0  0  0
  7  8  2  0  0  0
  8  9  1  0  0  0
  8 10  1  0  0  0
 10 12  1  0  0  0
 12 13  1  0  0  0
 13 14  2  0  0  0
 13 16  1  0  0  0
 16 17  2  0  0  0
 17 18  1  0  0  0
 18 19  2  0  0  0
 19 20  1  0  0  0
 19 21  1  0  0  0
 21 22  2  0  0  0
 10 11  2  0  0  0
 38 39  1  0  0  0
 39 40  1  0  0  0
 40 35  1  0  0  0
 28 23  1  0  0  0
 11  5  1  0  0  0
 22 16  1  0  0  0
  3  4  1  0  0  0
 12 15  1  0  0  0
M  END
> <minimizedAffinity>
-5.73643

> <CNNscore>
0.3639612794

> <CNNaffinity>
5.8890562057

> <CNN_VS>
2.1433885098

> <CNNaffinity_variance>
0.6849868298

$$$$
[H]c1nc(C([H])([H])[H])c([H])c([H])c1C(=O)N([H])c1c([H])c(N([H])C(=O)c2c([H])c([H])c(C([H])([H])N3C([H])([H])C([H])([H])N(C([H])([H])[H])C([H])([H])C3([H])[H])c(C(F)(F)F)c2[H])c([H])c([H])c1C([H])([H])[H]


 40 43  0  0  0  0  0  0  0  0999 V2000
    5.0677  -47.6822  -22.5972 C   0  0  0  0  0  0  0  0  0  0  0  0
    5.4650  -48.8488  -22.4001 O   0  0  0  0  0  0  0  0  0  0  0  0
    4.4901  -46.8994  -21.6102 N   0  0  0  0  0  0  0  0  0  0  0  0
    4.1984  -45.9034  -21.9101 H   0  0  0  0  0  0  0  0  0  0  0  0
    4.2294  -47.2255  -20.2532 C   0  0  0  0  0  0  0  0  0  0  0  0
    5.1642  -46.8597  -19.2774 C   0  0  0  0  0  0  0  0  0  0  0  0
    4.9561  -47.1366  -17.9540 C   0  0  0  0  0  0  0  0  0  0  0  0
    3.8319  -47.7815  -17.5123 C   0  0  0  0  0  0  0  0  0  0  0  0
    3.6570  -48.0593  -16.0533 C   0  0  0  0  0  0  0  0  0  0  0  0
    2.8737  -48.1629  -18.4590 C   0  0  0  0  0  0  0  0  0  0  0  0
    3.1006  -47.8734  -19.8013 C   0  0  0  0  0  0  0  0  0  0  0  0
    1.7287  -48.8252  -17.9609 N   0  0  0  0  0  0  0  0  0  0  0  0
    1.5118  -50.1979  -17.8257 C   0  0  0  0  0  0  0  0  0  0  0  0
    2.3508  -51.0542  -18.1450 O   0  0  0  0  0  0  0  0  0  0  0  0
    0.9260  -48.1816  -17.6438 H   0  0  0  0  0  0  0  0  0  0  0  0
    0.2461  -50.7205  -17.2835 C   0  0  0  0  0  0  0  0  0  0  0  0
   -0.4641  -50.0927  -16.2983 C   0  0  0  0  0  0  0  0  0  0  0  0
   -1.6468  -50.6720  -15.8499 C   0  0  0  0  0  0  0  0  0  0  0  0
   -2.1509  -51.8510  -16.3429 C   0  0  0  0  0  0  0  0  0  0  0  0
   -3.4061  -52.4787  -15.8775 C   0  0  0  0  0  0  0  0  0  0  0  0
   -1.4187  -52.4393  -17.3154 N   0  0  0  0  0  0  0  0  0  0  0  0
   -0.2910  -51.9170  -17.7650 C   0  0  0  0  0  0  0  0  0  0  0  0
    5.5526  -46.1520  -26.5543 C   0  0  0  0  0  0  0  0  0  0  0  0
    6.5931  -46.1298  -25.6235 C   0  0  0  0  0  0  0  0  0  0  0  0
    6.4475  -46.6155  -24.3474 C   0  0  0  0  0  0  0  0  0  0  0  0
    5.2404  -47.1438  -23.9655 C   0  0  0  0  0  0  0  0  0  0  0  0
    4.2192  -47.1717  -24.8658 C   0  0  0  0  0  0  0  0  0  0  0  0
    4.3375  -46.6825  -26.1770 C   0  0  0  0  0  0  0  0  0  0  0  0
    3.2265  -46.7609  -27.0586 C   0  0  0  0  0  0  0  0  0  0  0  0
    2.8051  -45.6915  -27.7569 F   0  0  0  0  0  0  0  0  0  0  0  0
    2.0813  -47.1178  -26.3026 F   0  0  0  0  0  0  0  0  0  0  0  0
    3.3434  -47.8745  -27.9061 F   0  0  0  0  0  0  0  0  0  0  0  0
    5.6964  -45.6609  -27.9071 C   0  0  0  0  0  0  0  0  0  0  0  0
    5.5943  -49.3289  -30.7757 C   0  0  0  0  0  0  0  0  0  0  0  0
    6.6111  -48.3378  -30.9191 N   0  0  0  0  0  0  0  0  0  0  0  0
    7.5526  -48.2487  -29.8508 C   0  0  0  0  0  0  0  0  0  0  0  0
    7.3594  -46.9042  -29.1704 C   0  0  0  0  0  0  0  0  0  0  0  0
    5.9722  -46.5769  -28.9552 N   0  0  0  0  0  0  0  0  0  0  0  0
    5.3157  -46.3650  -30.1848 C   0  0  0  0  0  0  0  0  0  0  0  0
    6.1468  -47.0395  -31.2770 C   0  0  0  0  0  0  0  0  0  0  0  0
 34 35  1  0  0  0
 35 36  1  0  0  0
 36 37  1  0  0  0
 37 38  1  0  0  0
 38 33  1  0  0  0
 33 23  1  0  0  0
 23 24  2  0  0  0
 24 25  1  0  0  0
 25 26  2  0  0  0
 26 27  1  0  0  0
 27 28  2  0  0  0
 28 29  1  0  0  0
 29 30  1  0  0  0
 29 31  1  0  0  0
 29 32  1  0  0  0
 26  1  1  0  0  0
  1  2  2  0  0  0
  1  3  1  0  0  0
  3  5  1  0  0  0
  5  6  2  0  0  0
  6  7  1  0  0  0
  7  8  2  0  0  0
  8  9  1  0  0  0
  8 10  1  0  0  0
 10 12  1  0  0  0
 12 13  1  0  0  0
 13 14  2  0  0  0
 13 16  1  0  0  0
 16 17  2  0  0  0
 17 18  1  0  0  0
 18 19  2  0  0  0
 19 20  1  0  0  0
 19 21  1  0  0  0
 21 22  2  0  0  0
 10 11  2  0  0  0
 38 39  1  0  0  0
 39 40  1  0  0  0
 40 35  1  0  0  0
 28 23  1  0  0  0
 11  5  1  0  0  0
 22 16  1  0  0  0
  3  4  1  0  0  0
 12 15  1  0  0  0
M  END
> <minimizedAffinity>
-5.51830

> <CNNscore>
0.3533260226

> <CNNaffinity>
5.9812374115

> <CNN_VS>
2.1133267879

> <CNNaffinity_variance>
0.9473940730

$$$$
[H]c1nc(C([H])([H])[H])c([H])c([H])c1C(=O)N([H])c1c([H])c(N([H])C(=O)c2c([H])c([H])c(C([H])([H])N3C([H])([H])C([H])([H])N(C([H])([H])[H])C([H])([H])C3([H])[H])c(C(F)(F)F)c2[H])c([H])c([H])c1C([H])([H])[H]


 40 43  0  0  0  0  0  0  0  0999 V2000
    3.0451  -49.3634  -23.8775 C   0  0  0  0  0  0  0  0  0  0  0  0
    2.1986  -50.2751  -23.7790 O   0  0  0  0  0  0  0  0  0  0  0  0
    3.7804  -48.8901  -22.8024 N   0  0  0  0  0  0  0  0  0  0  0  0
    4.4877  -48.1045  -23.0254 H   0  0  0  0  0  0  0  0  0  0  0  0
    3.7347  -49.2977  -21.4431 C   0  0  0  0  0  0  0  0  0  0  0  0
    3.7595  -50.6653  -21.1452 C   0  0  0  0  0  0  0  0  0  0  0  0
    3.7320  -51.1121  -19.8526 C   0  0  0  0  0  0  0  0  0  0  0  0
    3.6791  -50.2551  -18.7861 C   0  0  0  0  0  0  0  0  0  0  0  0
    3.6502  -50.7993  -17.3935 C   0  0  0  0  0  0  0  0  0  0  0  0
    3.6533  -48.8794  -19.0443 C   0  0  0  0  0  0  0  0  0  0  0  0
    3.6821  -48.4413  -20.3651 C   0  0  0  0  0  0  0  0  0  0  0  0
    3.5994  -48.0301  -17.9158 N   0  0  0  0  0  0  0  0  0  0  0  0
    3.4440  -46.6429  -17.8818 C   0  0  0  0  0  0  0  0  0  0  0  0
    3.3257  -45.9461  -18.9015 O   0  0  0  0  0  0  0  0  0  0  0  0
    3.6868  -48.5242  -16.9632 H   0  0  0  0  0  0  0  0  0  0  0  0
    3.4101  -45.9101  -16.6047 C   0  0  0  0  0  0  0  0  0  0  0  0
    3.7965  -46.4596  -15.4140 C   0  0  0  0  0  0  0  0  0  0  0  0
    3.7209  -45.6848  -14.2610 C   0  0  0  0  0  0  0  0  0  0  0  0
    3.2763  -44.3850  -14.2458 C   0  0  0  0  0  0  0  0  0  0  0  0
    3.1909  -43.5488  -13.0294 C   0  0  0  0  0  0  0  0  0  0  0  0
    2.9041  -43.8798  -15.4434 N   0  0  0  0  0  0  0  0  0  0  0  0
    2.9628  -44.5873  -16.5581 C   0  0  0  0  0  0  0  0  0  0  0  0
    3.5961  -47.6878  -27.7664 C   0  0  0  0  0  0  0  0  0  0  0  0
    4.0592  -48.9645  -27.4423 C   0  0  0  0  0  0  0  0  0  0  0  0
    3.8911  -49.5119  -26.1943 C   0  0  0  0  0  0  0  0  0  0  0  0
    3.2454  -48.7857  -25.2258 C   0  0  0  0  0  0  0  0  0  0  0  0
    2.7884  -47.5400  -25.5316 C   0  0  0  0  0  0  0  0  0  0  0  0
    2.9456  -46.9534  -26.7981 C   0  0  0  0  0  0  0  0  0  0  0  0
    2.4275  -45.6529  -27.0387 C   0  0  0  0  0  0  0  0  0  0  0  0
    3.2298  -44.6259  -27.3705 F   0  0  0  0  0  0  0  0  0  0  0  0
    1.8007  -45.1956  -25.8520 F   0  0  0  0  0  0  0  0  0  0  0  0
    1.3307  -45.7100  -27.9138 F   0  0  0  0  0  0  0  0  0  0  0  0
    3.7497  -47.1054  -29.0814 C   0  0  0  0  0  0  0  0  0  0  0  0
    8.0104  -48.4302  -30.4173 C   0  0  0  0  0  0  0  0  0  0  0  0
    7.4248  -47.2496  -30.9650 N   0  0  0  0  0  0  0  0  0  0  0  0
    7.2277  -46.1691  -30.0544 C   0  0  0  0  0  0  0  0  0  0  0  0
    5.7313  -45.9589  -29.8975 C   0  0  0  0  0  0  0  0  0  0  0  0
    5.0035  -47.1932  -29.7402 N   0  0  0  0  0  0  0  0  0  0  0  0
    5.0562  -47.9550  -30.9253 C   0  0  0  0  0  0  0  0  0  0  0  0
    6.2500  -47.4598  -31.7427 C   0  0  0  0  0  0  0  0  0  0  0  0
 34 35  1  0  0  0
 35 36  1  0  0  0
 36 37  1  0  0  0
 37 38  1  0  0  0
 38 33  1  0  0  0
 33 23  1  0  0  0
 23 24  2  0  0  0
 24 25  1  0  0  0
 25 26  2  0  0  0
 26 27  1  0  0  0
 27 28  2  0  0  0
 28 29  1  0  0  0
 29 30  1  0  0  0
 29 31  1  0  0  0
 29 32  1  0  0  0
 26  1  1  0  0  0
  1  2  2  0  0  0
  1  3  1  0  0  0
  3  5  1  0  0  0
  5  6  2  0  0  0
  6  7  1  0  0  0
  7  8  2  0  0  0
  8  9  1  0  0  0
  8 10  1  0  0  0
 10 12  1  0  0  0
 12 13  1  0  0  0
 13 14  2  0  0  0
 13 16  1  0  0  0
 16 17  2  0  0  0
 17 18  1  0  0  0
 18 19  2  0  0  0
 19 20  1  0  0  0
 19 21  1  0  0  0
 21 22  2  0  0  0
 10 11  2  0  0  0
 38 39  1  0  0  0
 39 40  1  0  0  0
 40 35  1  0  0  0
 28 23  1  0  0  0
 11  5  1  0  0  0
 22 16  1  0  0  0
  3  4  1  0  0  0
 12 15  1  0  0  0
M  END
> <minimizedAffinity>
-5.41428

> <CNNscore>
0.3055980504

> <CNNaffinity>
5.8081955910

> <CNN_VS>
1.7749732733

> <CNNaffinity_variance>
0.2431509793

$$$$
[H]c1nc(C([H])([H])[H])c([H])c([H])c1C(=O)N([H])c1c([H])c(N([H])C(=O)c2c([H])c([H])c(C([H])([H])N3C([H])([H])C([H])([H])N(C([H])([H])[H])C([H])([H])C3([H])[H])c(C(F)(F)F)c2[H])c([H])c([H])c1C([H])([H])[H]


 40 43  0  0  0  0  0  0  0  0999 V2000
    3.5777  -48.3891  -20.1334 C   0  0  0  0  0  0  0  0  0  0  0  0
    3.1109  -49.5462  -20.1610 O   0  0  0  0  0  0  0  0  0  0  0  0
    3.5705  -47.5939  -18.9984 N   0  0  0  0  0  0  0  0  0  0  0  0
    4.0150  -46.6152  -19.1066 H   0  0  0  0  0  0  0  0  0  0  0  0
    3.0599  -47.8891  -17.7069 C   0  0  0  0  0  0  0  0  0  0  0  0
    3.7879  -47.4836  -16.5820 C   0  0  0  0  0  0  0  0  0  0  0  0
    3.3347  -47.7297  -15.3151 C   0  0  0  0  0  0  0  0  0  0  0  0
    2.1540  -48.3808  -15.0768 C   0  0  0  0  0  0  0  0  0  0  0  0
    1.7076  -48.6239  -13.6704 C   0  0  0  0  0  0  0  0  0  0  0  0
    1.3976  -48.8016  -16.1772 C   0  0  0  0  0  0  0  0  0  0  0  0
    1.8727  -48.5431  -17.4596 C   0  0  0  0  0  0  0  0  0  0  0  0
    0.1858  -49.4690  -15.8872 N   0  0  0  0  0  0  0  0  0  0  0  0
   -0.0237  -50.8340  -15.6810 C   0  0  0  0  0  0  0  0  0  0  0  0
    0.8851  -51.6771  -15.7290 O   0  0  0  0  0  0  0  0  0  0  0  0
   -0.6822  -48.8363  -15.8141 H   0  0  0  0  0  0  0  0  0  0  0  0
   -1.3662  -51.3638  -15.3873 C   0  0  0  0  0  0  0  0  0  0  0  0
   -1.9659  -51.2517  -14.1638 C   0  0  0  0  0  0  0  0  0  0  0  0
   -3.2355  -51.7920  -13.9863 C   0  0  0  0  0  0  0  0  0  0  0  0
   -3.9321  -52.4393  -14.9778 C   0  0  0  0  0  0  0  0  0  0  0  0
   -5.2817  -53.0178  -14.8049 C   0  0  0  0  0  0  0  0  0  0  0  0
   -3.3040  -52.5284  -16.1717 N   0  0  0  0  0  0  0  0  0  0  0  0
   -2.0984  -52.0267  -16.3754 C   0  0  0  0  0  0  0  0  0  0  0  0
    5.2336  -46.8957  -23.7752 C   0  0  0  0  0  0  0  0  0  0  0  0
    5.2420  -48.2573  -23.4662 C   0  0  0  0  0  0  0  0  0  0  0  0
    4.7160  -48.7484  -22.2968 C   0  0  0  0  0  0  0  0  0  0  0  0
    4.1596  -47.8771  -21.3948 C   0  0  0  0  0  0  0  0  0  0  0  0
    4.1448  -46.5472  -21.6867 C   0  0  0  0  0  0  0  0  0  0  0  0
    4.6751  -46.0153  -22.8735 C   0  0  0  0  0  0  0  0  0  0  0  0
    4.6080  -44.6157  -23.1071 C   0  0  0  0  0  0  0  0  0  0  0  0
    5.7151  -43.8853  -23.3293 F   0  0  0  0  0  0  0  0  0  0  0  0
    4.0449  -43.9986  -21.9616 F   0  0  0  0  0  0  0  0  0  0  0  0
    3.6336  -44.3205  -24.0743 F   0  0  0  0  0  0  0  0  0  0  0  0
    5.7674  -46.3659  -25.0107 C   0  0  0  0  0  0  0  0  0  0  0  0
    2.1774  -45.8604  -27.9347 C   0  0  0  0  0  0  0  0  0  0  0  0
    3.4068  -46.4146  -28.4018 N   0  0  0  0  0  0  0  0  0  0  0  0
    3.7622  -47.6881  -27.8658 C   0  0  0  0  0  0  0  0  0  0  0  0
    5.0108  -47.5054  -27.0198 C   0  0  0  0  0  0  0  0  0  0  0  0
    4.9492  -46.3428  -26.1699 N   0  0  0  0  0  0  0  0  0  0  0  0
    4.9592  -45.1629  -26.9415 C   0  0  0  0  0  0  0  0  0  0  0  0
    4.5245  -45.5325  -28.3603 C   0  0  0  0  0  0  0  0  0  0  0  0
 34 35  1  0  0  0
 35 36  1  0  0  0
 36 37  1  0  0  0
 37 38  1  0  0  0
 38 33  1  0  0  0
 33 23  1  0  0  0
 23 24  2  0  0  0
 24 25  1  0  0  0
 25 26  2  0  0  0
 26 27  1  0  0  0
 27 28  2  0  0  0
 28 29  1  0  0  0
 29 30  1  0  0  0
 29 31  1  0  0  0
 29 32  1  0  0  0
 26  1  1  0  0  0
  1  2  2  0  0  0
  1  3  1  0  0  0
  3  5  1  0  0  0
  5  6  2  0  0  0
  6  7  1  0  0  0
  7  8  2  0  0  0
  8  9  1  0  0  0
  8 10  1  0  0  0
 10 12  1  0  0  0
 12 13  1  0  0  0
 13 14  2  0  0  0
 13 16  1  0  0  0
 16 17  2  0  0  0
 17 18  1  0  0  0
 18 19  2  0  0  0
 19 20  1  0  0  0
 19 21  1  0  0  0
 21 22  2  0  0  0
 10 11  2  0  0  0
 38 39  1  0  0  0
 39 40  1  0  0  0
 40 35  1  0  0  0
 28 23  1  0  0  0
 11  5  1  0  0  0
 22 16  1  0  0  0
  3  4  1  0  0  0
 12 15  1  0  0  0
M  END
> <minimizedAffinity>
-4.74426

> <CNNscore>
0.2361330986

> <CNNaffinity>
5.8892068863

> <CNN_VS>
1.3906366825

> <CNNaffinity_variance>
0.6841763258

$$$$
[H]c1nc(C([H])([H])[H])c([H])c([H])c1C(=O)N([H])c1c([H])c(N([H])C(=O)c2c([H])c([H])c(C([H])([H])N3C([H])([H])C([H])([H])N(C([H])([H])[H])C([H])([H])C3([H])[H])c(C(F)(F)F)c2[H])c([H])c([H])c1C([H])([H])[H]


 40 43  0  0  0  0  0  0  0  0999 V2000
    5.4184  -46.7373  -24.8591 C   0  0  0  0  0  0  0  0  0  0  0  0
    6.5605  -46.4733  -24.4309 O   0  0  0  0  0  0  0  0  0  0  0  0
    4.2720  -46.6164  -24.0899 N   0  0  0  0  0  0  0  0  0  0  0  0
    3.3448  -46.8674  -24.5844 H   0  0  0  0  0  0  0  0  0  0  0  0
    4.1461  -46.2044  -22.7371 C   0  0  0  0  0  0  0  0  0  0  0  0
    4.3340  -44.8538  -22.4203 C   0  0  0  0  0  0  0  0  0  0  0  0
    4.2103  -44.4010  -21.1354 C   0  0  0  0  0  0  0  0  0  0  0  0
    3.8987  -45.2351  -20.0953 C   0  0  0  0  0  0  0  0  0  0  0  0
    3.7771  -44.6854  -18.7099 C   0  0  0  0  0  0  0  0  0  0  0  0
    3.7029  -46.5932  -20.3731 C   0  0  0  0  0  0  0  0  0  0  0  0
    3.8322  -47.0377  -21.6857 C   0  0  0  0  0  0  0  0  0  0  0  0
    3.3825  -47.4190  -19.2716 N   0  0  0  0  0  0  0  0  0  0  0  0
    4.1316  -48.4622  -18.7238 C   0  0  0  0  0  0  0  0  0  0  0  0
    5.2379  -48.8102  -19.1644 O   0  0  0  0  0  0  0  0  0  0  0  0
    2.4393  -47.2082  -18.7972 H   0  0  0  0  0  0  0  0  0  0  0  0
    3.6410  -49.2268  -17.5645 C   0  0  0  0  0  0  0  0  0  0  0  0
    2.9602  -48.6579  -16.5243 C   0  0  0  0  0  0  0  0  0  0  0  0
    2.5440  -49.4669  -15.4718 C   0  0  0  0  0  0  0  0  0  0  0  0
    2.7783  -50.8194  -15.4133 C   0  0  0  0  0  0  0  0  0  0  0  0
    2.3420  -51.6922  -14.3026 C   0  0  0  0  0  0  0  0  0  0  0  0
    3.4541  -51.3421  -16.4611 N   0  0  0  0  0  0  0  0  0  0  0  0
    3.8643  -50.6032  -17.4772 C   0  0  0  0  0  0  0  0  0  0  0  0
    5.1637  -48.0433  -28.9168 C   0  0  0  0  0  0  0  0  0  0  0  0
    4.0726  -48.1190  -28.0489 C   0  0  0  0  0  0  0  0  0  0  0  0
    4.1439  -47.7056  -26.7414 C   0  0  0  0  0  0  0  0  0  0  0  0
    5.3253  -47.1981  -26.2630 C   0  0  0  0  0  0  0  0  0  0  0  0
    6.3954  -47.1185  -27.1012 C   0  0  0  0  0  0  0  0  0  0  0  0
    6.3533  -47.5334  -28.4424 C   0  0  0  0  0  0  0  0  0  0  0  0
    7.5118  -47.4042  -29.2541 C   0  0  0  0  0  0  0  0  0  0  0  0
    7.4642  -46.8089  -30.4591 F   0  0  0  0  0  0  0  0  0  0  0  0
    7.9892  -48.7036  -29.5604 F   0  0  0  0  0  0  0  0  0  0  0  0
    8.5865  -46.8952  -28.5071 F   0  0  0  0  0  0  0  0  0  0  0  0
    5.0983  -48.4577  -30.3010 C   0  0  0  0  0  0  0  0  0  0  0  0
    1.3947  -46.6191  -32.4446 C   0  0  0  0  0  0  0  0  0  0  0  0
    2.6960  -46.4671  -33.0104 N   0  0  0  0  0  0  0  0  0  0  0  0
    3.3166  -47.6624  -33.4811 C   0  0  0  0  0  0  0  0  0  0  0  0
    4.5274  -47.9350  -32.6049 C   0  0  0  0  0  0  0  0  0  0  0  0
    4.2581  -47.7519  -31.2007 N   0  0  0  0  0  0  0  0  0  0  0  0
    4.0071  -46.3940  -30.9164 C   0  0  0  0  0  0  0  0  0  0  0  0
    3.6138  -45.7105  -32.2266 C   0  0  0  0  0  0  0  0  0  0  0  0
 34 35  1  0  0  0
 35 36  1  0  0  0
 36 37  1  0  0  0
 37 38  1  0  0  0
 38 33  1  0  0  0
 33 23  1  0  0  0
 23 24  2  0  0  0
 24 25  1  0  0  0
 25 26  2  0  0  0
 26 27  1  0  0  0
 27 28  2  0  0  0
 28 29  1  0  0  0
 29 30  1  0  0  0
 29 31  1  0  0  0
 29 32  1  0  0  0
 26  1  1  0  0  0
  1  2  2  0  0  0
  1  3  1  0  0  0
  3  5  1  0  0  0
  5  6  2  0  0  0
  6  7  1  0  0  0
  7  8  2  0  0  0
  8  9  1  0  0  0
  8 10  1  0  0  0
 10 12  1  0  0  0
 12 13  1  0  0  0
 13 14  2  0  0  0
 13 16  1  0  0  0
 16 17  2  0  0  0
 17 18  1  0  0  0
 18 19  2  0  0  0
 19 20  1  0  0  0
 19 21  1  0  0  0
 21 22  2  0  0  0
 10 11  2  0  0  0
 38 39  1  0  0  0
 39 40  1  0  0  0
 40 35  1  0  0  0
 28 23  1  0  0  0
 11  5  1  0  0  0
 22 16  1  0  0  0
  3  4  1  0  0  0
 12 15  1  0  0  0
M  END
> <minimizedAffinity>
-5.34245

> <CNNscore>
0.2358563095

> <CNNaffinity>
5.5460753441

> <CNN_VS>
1.3080768585

> <CNNaffinity_variance>
0.4661684930

$$$$
[H]c1nc(C([H])([H])[H])c([H])c([H])c1C(=O)N([H])c1c([H])c(N([H])C(=O)c2c([H])c([H])c(C([H])([H])N3C([H])([H])C([H])([H])N(C([H])([H])[H])C([H])([H])C3([H])[H])c(C(F)(F)F)c2[H])c([H])c([H])c1C([H])([H])[H]


 40 43  0  0  0  0  0  0  0  0999 V2000
    1.8274  -49.2867  -21.9537 C   0  0  0  0  0  0  0  0  0  0  0  0
    1.9737  -49.8753  -23.0443 O   0  0  0  0  0  0  0  0  0  0  0  0
    2.1949  -47.9664  -21.7476 N   0  0  0  0  0  0  0  0  0  0  0  0
    2.0054  -47.5739  -20.7591 H   0  0  0  0  0  0  0  0  0  0  0  0
    2.7863  -47.0534  -22.6600 C   0  0  0  0  0  0  0  0  0  0  0  0
    3.3807  -45.8878  -22.1620 C   0  0  0  0  0  0  0  0  0  0  0  0
    3.9771  -44.9818  -22.9955 C   0  0  0  0  0  0  0  0  0  0  0  0
    4.0263  -45.1614  -24.3519 C   0  0  0  0  0  0  0  0  0  0  0  0
    4.6908  -44.1373  -25.2157 C   0  0  0  0  0  0  0  0  0  0  0  0
    3.4427  -46.3158  -24.8874 C   0  0  0  0  0  0  0  0  0  0  0  0
    2.8401  -47.2277  -24.0257 C   0  0  0  0  0  0  0  0  0  0  0  0
    3.5160  -46.4626  -26.2913 N   0  0  0  0  0  0  0  0  0  0  0  0
    2.5433  -46.1600  -27.2461 C   0  0  0  0  0  0  0  0  0  0  0  0
    1.4291  -45.6958  -26.9593 O   0  0  0  0  0  0  0  0  0  0  0  0
    4.4460  -46.8556  -26.6651 H   0  0  0  0  0  0  0  0  0  0  0  0
    2.7893  -46.3789  -28.6817 C   0  0  0  0  0  0  0  0  0  0  0  0
    2.0691  -45.7651  -29.6684 C   0  0  0  0  0  0  0  0  0  0  0  0
    2.3762  -46.0440  -30.9964 C   0  0  0  0  0  0  0  0  0  0  0  0
    3.3714  -46.9093  -31.3813 C   0  0  0  0  0  0  0  0  0  0  0  0
    3.7101  -47.2154  -32.7876 C   0  0  0  0  0  0  0  0  0  0  0  0
    4.0593  -47.4949  -30.3754 N   0  0  0  0  0  0  0  0  0  0  0  0
    3.7944  -47.2530  -29.1034 C   0  0  0  0  0  0  0  0  0  0  0  0
    0.0741  -51.5541  -18.7882 C   0  0  0  0  0  0  0  0  0  0  0  0
    0.7034  -50.3294  -18.5560 C   0  0  0  0  0  0  0  0  0  0  0  0
    1.2738  -49.5937  -19.5653 C   0  0  0  0  0  0  0  0  0  0  0  0
    1.2274  -50.0710  -20.8506 C   0  0  0  0  0  0  0  0  0  0  0  0
    0.6149  -51.2636  -21.0886 C   0  0  0  0  0  0  0  0  0  0  0  0
    0.0233  -52.0386  -20.0777 C   0  0  0  0  0  0  0  0  0  0  0  0
   -0.6075  -53.2665  -20.4127 C   0  0  0  0  0  0  0  0  0  0  0  0
   -1.7385  -53.6657  -19.8043 F   0  0  0  0  0  0  0  0  0  0  0  0
    0.2948  -54.3232  -20.1307 F   0  0  0  0  0  0  0  0  0  0  0  0
   -0.7386  -53.3931  -21.8051 F   0  0  0  0  0  0  0  0  0  0  0  0
   -0.5469  -52.3312  -17.7383 C   0  0  0  0  0  0  0  0  0  0  0  0
   -2.4855  -49.2022  -14.8844 C   0  0  0  0  0  0  0  0  0  0  0  0
   -1.9496  -50.4150  -14.3567 N   0  0  0  0  0  0  0  0  0  0  0  0
   -0.5340  -50.5663  -14.4511 C   0  0  0  0  0  0  0  0  0  0  0  0
   -0.2508  -51.7132  -15.4064 C   0  0  0  0  0  0  0  0  0  0  0  0
   -1.0651  -51.6693  -16.5951 N   0  0  0  0  0  0  0  0  0  0  0  0
   -2.4195  -51.8978  -16.2775 C   0  0  0  0  0  0  0  0  0  0  0  0
   -2.6028  -51.6052  -14.7877 C   0  0  0  0  0  0  0  0  0  0  0  0
 34 35  1  0  0  0
 35 36  1  0  0  0
 36 37  1  0  0  0
 37 38  1  0  0  0
 38 33  1  0  0  0
 33 23  1  0  0  0
 23 24  2  0  0  0
 24 25  1  0  0  0
 25 26  2  0  0  0
 26 27  1  0  0  0
 27 28  2  0  0  0
 28 29  1  0  0  0
 29 30  1  0  0  0
 29 31  1  0  0  0
 29 32  1  0  0  0
 26  1  1  0  0  0
  1  2  2  0  0  0
  1  3  1  0  0  0
  3  5  1  0  0  0
  5  6  2  0  0  0
  6  7  1  0  0  0
  7  8  2  0  0  0
  8  9  1  0  0  0
  8 10  1  0  0  0
 10 12  1  0  0  0
 12 13  1  0  0  0
 13 14  2  0  0  0
 13 16  1  0  0  0
 16 17  2  0  0  0
 17 18  1  0  0  0
 18 19  2  0  0  0
 19 20  1  0  0  0
 19 21  1  0  0  0
 21 22  2  0  0  0
 10 11  2  0  0  0
 38 39  1  0  0  0
 39 40  1  0  0  0
 40 35  1  0  0  0
 28 23  1  0  0  0
 11  5  1  0  0  0
 22 16  1  0  0  0
  3  4  1  0  0  0
 12 15  1  0  0  0
M  END
> <minimizedAffinity>
-8.35623

> <CNNscore>
0.2204969078

> <CNNaffinity>
6.0361881256

> <CNN_VS>
1.3309608698

> <CNNaffinity_variance>
0.0268673338

$$$$
[H]c1nc(C([H])([H])[H])c([H])c([H])c1C(=O)N([H])c1c([H])c(N([H])C(=O)c2c([H])c([H])c(C([H])([H])N3C([H])([H])C([H])([H])N(C([H])([H])[H])C([H])([H])C3([H])[H])c(C(F)(F)F)c2[H])c([H])c([H])c1C([H])([H])[H]


 40 43  0  0  0  0  0  0  0  0999 V2000
    2.6640  -48.0590  -22.1174 C   0  0  0  0  0  0  0  0  0  0  0  0
    2.0691  -49.1394  -22.3079 O   0  0  0  0  0  0  0  0  0  0  0  0
    3.1386  -47.6614  -20.8775 N   0  0  0  0  0  0  0  0  0  0  0  0
    3.6444  -46.7072  -20.8510 H   0  0  0  0  0  0  0  0  0  0  0  0
    3.0540  -48.3382  -19.6322 C   0  0  0  0  0  0  0  0  0  0  0  0
    4.2179  -48.5070  -18.8729 C   0  0  0  0  0  0  0  0  0  0  0  0
    4.1902  -49.1387  -17.6599 C   0  0  0  0  0  0  0  0  0  0  0  0
    3.0332  -49.6376  -17.1241 C   0  0  0  0  0  0  0  0  0  0  0  0
    3.0616  -50.3202  -15.7938 C   0  0  0  0  0  0  0  0  0  0  0  0
    1.8482  -49.4875  -17.8543 C   0  0  0  0  0  0  0  0  0  0  0  0
    1.8935  -48.8421  -19.0866 C   0  0  0  0  0  0  0  0  0  0  0  0
    0.6770  -50.0159  -17.2652 N   0  0  0  0  0  0  0  0  0  0  0  0
   -0.1586  -49.4237  -16.3163 C   0  0  0  0  0  0  0  0  0  0  0  0
    0.0377  -48.2916  -15.8483 O   0  0  0  0  0  0  0  0  0  0  0  0
    0.3981  -51.0009  -17.5986 H   0  0  0  0  0  0  0  0  0  0  0  0
   -1.3490  -50.1243  -15.8048 C   0  0  0  0  0  0  0  0  0  0  0  0
   -1.6825  -51.3996  -16.1674 C   0  0  0  0  0  0  0  0  0  0  0  0
   -2.8324  -51.9709  -15.6319 C   0  0  0  0  0  0  0  0  0  0  0  0
   -3.6635  -51.3237  -14.7500 C   0  0  0  0  0  0  0  0  0  0  0  0
   -4.8880  -51.9174  -14.1719 C   0  0  0  0  0  0  0  0  0  0  0  0
   -3.2980  -50.0652  -14.4175 N   0  0  0  0  0  0  0  0  0  0  0  0
   -2.2125  -49.4917  -14.9070 C   0  0  0  0  0  0  0  0  0  0  0  0
    3.2318  -45.5610  -25.5339 C   0  0  0  0  0  0  0  0  0  0  0  0
    2.9917  -45.0300  -24.2651 C   0  0  0  0  0  0  0  0  0  0  0  0
    2.8039  -45.8234  -23.1603 C   0  0  0  0  0  0  0  0  0  0  0  0
    2.8533  -47.1874  -23.2991 C   0  0  0  0  0  0  0  0  0  0  0  0
    3.0883  -47.7159  -24.5317 C   0  0  0  0  0  0  0  0  0  0  0  0
    3.2837  -46.9307  -25.6798 C   0  0  0  0  0  0  0  0  0  0  0  0
    3.5366  -47.5615  -26.9271 C   0  0  0  0  0  0  0  0  0  0  0  0
    3.4280  -48.8936  -27.0770 F   0  0  0  0  0  0  0  0  0  0  0  0
    4.8841  -47.3101  -27.2892 F   0  0  0  0  0  0  0  0  0  0  0  0
    2.8553  -46.9026  -27.9633 F   0  0  0  0  0  0  0  0  0  0  0  0
    3.4496  -44.7378  -26.7031 C   0  0  0  0  0  0  0  0  0  0  0  0
    8.0068  -44.5532  -27.6467 C   0  0  0  0  0  0  0  0  0  0  0  0
    7.2644  -43.3473  -27.4702 N   0  0  0  0  0  0  0  0  0  0  0  0
    6.7615  -43.1092  -26.1564 C   0  0  0  0  0  0  0  0  0  0  0  0
    5.2449  -43.1726  -26.2194 C   0  0  0  0  0  0  0  0  0  0  0  0
    4.7603  -44.2829  -27.0006 N   0  0  0  0  0  0  0  0  0  0  0  0
    5.0900  -44.1140  -28.3609 C   0  0  0  0  0  0  0  0  0  0  0  0
    6.2453  -43.1151  -28.4380 C   0  0  0  0  0  0  0  0  0  0  0  0
 34 35  1  0  0  0
 35 36  1  0  0  0
 36 37  1  0  0  0
 37 38  1  0  0  0
 38 33  1  0  0  0
 33 23  1  0  0  0
 23 24  2  0  0  0
 24 25  1  0  0  0
 25 26  2  0  0  0
 26 27  1  0  0  0
 27 28  2  0  0  0
 28 29  1  0  0  0
 29 30  1  0  0  0
 29 31  1  0  0  0
 29 32  1  0  0  0
 26  1  1  0  0  0
  1  2  2  0  0  0
  1  3  1  0  0  0
  3  5  1  0  0  0
  5  6  2  0  0  0
  6  7  1  0  0  0
  7  8  2  0  0  0
  8  9  1  0  0  0
  8 10  1  0  0  0
 10 12  1  0  0  0
 12 13  1  0  0  0
 13 14  2  0  0  0
 13 16  1  0  0  0
 16 17  2  0  0  0
 17 18  1  0  0  0
 18 19  2  0  0  0
 19 20  1  0  0  0
 19 21  1  0  0  0
 21 22  2  0  0  0
 10 11  2  0  0  0
 38 39  1  0  0  0
 39 40  1  0  0  0
 40 35  1  0  0  0
 28 23  1  0  0  0
 11  5  1  0  0  0
 22 16  1  0  0  0
  3  4  1  0  0  0
 12 15  1  0  0  0
M  END
> <minimizedAffinity>
-5.45250

> <CNNscore>
0.2163539827

> <CNNaffinity>
5.5637831688

> <CNN_VS>
1.2037466764

> <CNNaffinity_variance>
0.4049355388

$$$$
[H]c1nc(C([H])([H])[H])c([H])c([H])c1C(=O)N([H])c1c([H])c(N([H])C(=O)c2c([H])c([H])c(C([H])([H])N3C([H])([H])C([H])([H])N(C([H])([H])[H])C([H])([H])C3([H])[H])c(C(F)(F)F)c2[H])c([H])c([H])c1C([H])([H])[H]


 40 43  0  0  0  0  0  0  0  0999 V2000
    2.4289  -49.0471  -19.1858 C   0  0  0  0  0  0  0  0  0  0  0  0
    2.0234  -50.2274  -19.1900 O   0  0  0  0  0  0  0  0  0  0  0  0
    2.2376  -48.1818  -18.1203 N   0  0  0  0  0  0  0  0  0  0  0  0
    2.6471  -47.1894  -18.2407 H   0  0  0  0  0  0  0  0  0  0  0  0
    1.5774  -48.4204  -16.8862 C   0  0  0  0  0  0  0  0  0  0  0  0
    2.0858  -47.8329  -15.7217 C   0  0  0  0  0  0  0  0  0  0  0  0
    1.4804  -48.0183  -14.5091 C   0  0  0  0  0  0  0  0  0  0  0  0
    0.3530  -48.7821  -14.3664 C   0  0  0  0  0  0  0  0  0  0  0  0
   -0.2664  -48.9513  -13.0158 C   0  0  0  0  0  0  0  0  0  0  0  0
   -0.1853  -49.3859  -15.5090 C   0  0  0  0  0  0  0  0  0  0  0  0
    0.4426  -49.1871  -16.7351 C   0  0  0  0  0  0  0  0  0  0  0  0
   -1.3490  -50.1650  -15.3177 N   0  0  0  0  0  0  0  0  0  0  0  0
   -1.5952  -51.4730  -15.7398 C   0  0  0  0  0  0  0  0  0  0  0  0
   -0.7702  -52.1511  -16.3713 O   0  0  0  0  0  0  0  0  0  0  0  0
   -2.1419  -49.6821  -14.7726 H   0  0  0  0  0  0  0  0  0  0  0  0
   -2.8773  -52.1387  -15.4528 C   0  0  0  0  0  0  0  0  0  0  0  0
   -3.6293  -52.7625  -16.4090 C   0  0  0  0  0  0  0  0  0  0  0  0
   -4.8304  -53.3574  -16.0363 C   0  0  0  0  0  0  0  0  0  0  0  0
   -5.3128  -53.3563  -14.7500 C   0  0  0  0  0  0  0  0  0  0  0  0
   -6.5863  -53.9844  -14.3382 C   0  0  0  0  0  0  0  0  0  0  0  0
   -4.5392  -52.7293  -13.8354 N   0  0  0  0  0  0  0  0  0  0  0  0
   -3.3930  -52.1539  -14.1544 C   0  0  0  0  0  0  0  0  0  0  0  0
    4.4778  -47.6987  -22.6814 C   0  0  0  0  0  0  0  0  0  0  0  0
    4.2450  -49.0543  -22.4411 C   0  0  0  0  0  0  0  0  0  0  0  0
    3.5908  -49.4996  -21.3190 C   0  0  0  0  0  0  0  0  0  0  0  0
    3.1459  -48.5867  -20.3966 C   0  0  0  0  0  0  0  0  0  0  0  0
    3.3664  -47.2620  -20.6216 C   0  0  0  0  0  0  0  0  0  0  0  0
    4.0324  -46.7764  -21.7588 C   0  0  0  0  0  0  0  0  0  0  0  0
    4.2101  -45.3769  -21.9243 C   0  0  0  0  0  0  0  0  0  0  0  0
    5.4328  -44.8342  -22.0629 F   0  0  0  0  0  0  0  0  0  0  0  0
    3.7012  -44.7233  -20.7736 F   0  0  0  0  0  0  0  0  0  0  0  0
    3.3474  -44.8810  -22.9151 F   0  0  0  0  0  0  0  0  0  0  0  0
    5.1491  -47.2138  -23.8672 C   0  0  0  0  0  0  0  0  0  0  0  0
    4.5387  -47.6932  -28.4597 C   0  0  0  0  0  0  0  0  0  0  0  0
    3.4677  -47.9837  -27.5624 N   0  0  0  0  0  0  0  0  0  0  0  0
    2.9313  -46.8714  -26.8479 C   0  0  0  0  0  0  0  0  0  0  0  0
    3.2486  -47.0668  -25.3751 C   0  0  0  0  0  0  0  0  0  0  0  0
    4.6030  -47.5031  -25.1445 N   0  0  0  0  0  0  0  0  0  0  0  0
    4.7972  -48.8057  -25.6478 C   0  0  0  0  0  0  0  0  0  0  0  0
    3.6978  -49.0748  -26.6760 C   0  0  0  0  0  0  0  0  0  0  0  0
 34 35  1  0  0  0
 35 36  1  0  0  0
 36 37  1  0  0  0
 37 38  1  0  0  0
 38 33  1  0  0  0
 33 23  1  0  0  0
 23 24  2  0  0  0
 24 25  1  0  0  0
 25 26  2  0  0  0
 26 27  1  0  0  0
 27 28  2  0  0  0
 28 29  1  0  0  0
 29 30  1  0  0  0
 29 31  1  0  0  0
 29 32  1  0  0  0
 26  1  1  0  0  0
  1  2  2  0  0  0
  1  3  1  0  0  0
  3  5  1  0  0  0
  5  6  2  0  0  0
  6  7  1  0  0  0
  7  8  2  0  0  0
  8  9  1  0  0  0
  8 10  1  0  0  0
 10 12  1  0  0  0
 12 13  1  0  0  0
 13 14  2  0  0  0
 13 16  1  0  0  0
 16 17  2  0  0  0
 17 18  1  0  0  0
 18 19  2  0  0  0
 19 20  1  0  0  0
 19 21  1  0  0  0
 21 22  2  0  0  0
 10 11  2  0  0  0
 38 39  1  0  0  0
 39 40  1  0  0  0
 40 35  1  0  0  0
 28 23  1  0  0  0
 11  5  1  0  0  0
 22 16  1  0  0  0
  3  4  1  0  0  0
 12 15  1  0  0  0
M  END
> <minimizedAffinity>
-5.72771

> <CNNscore>
0.1693731993

> <CNNaffinity>
5.8719186783

> <CNN_VS>
0.9945456386

> <CNNaffinity_variance>
0.2284515202

$$$$
[H]c1nc(C([H])([H])[H])c([H])c([H])c1C(=O)N([H])c1c([H])c(N([H])C(=O)c2c([H])c([H])c(C([H])([H])N3C([H])([H])C([H])([H])N(C([H])([H])[H])C([H])([H])C3([H])[H])c(C(F)(F)F)c2[H])c([H])c([H])c1C([H])([H])[H]


 40 43  0  0  0  0  0  0  0  0999 V2000
    1.1637  -51.6821  -20.2061 C   0  0  0  0  0  0  0  0  0  0  0  0
    1.0153  -52.9089  -20.0316 O   0  0  0  0  0  0  0  0  0  0  0  0
    1.0051  -50.7465  -19.1962 N   0  0  0  0  0  0  0  0  0  0  0  0
    1.1720  -49.7170  -19.4779 H   0  0  0  0  0  0  0  0  0  0  0  0
    0.6544  -50.9543  -17.8361 C   0  0  0  0  0  0  0  0  0  0  0  0
    1.5192  -50.4942  -16.8360 C   0  0  0  0  0  0  0  0  0  0  0  0
    1.2229  -50.6555  -15.5103 C   0  0  0  0  0  0  0  0  0  0  0  0
    0.0743  -51.2705  -15.0897 C   0  0  0  0  0  0  0  0  0  0  0  0
   -0.1981  -51.4204  -13.6269 C   0  0  0  0  0  0  0  0  0  0  0  0
   -0.8158  -51.7439  -16.0611 C   0  0  0  0  0  0  0  0  0  0  0  0
   -0.4997  -51.5716  -17.4055 C   0  0  0  0  0  0  0  0  0  0  0  0
   -1.9891  -52.3716  -15.5843 N   0  0  0  0  0  0  0  0  0  0  0  0
   -3.2380  -51.7991  -15.3352 C   0  0  0  0  0  0  0  0  0  0  0  0
   -3.4836  -50.5964  -15.5150 O   0  0  0  0  0  0  0  0  0  0  0  0
   -1.9016  -53.4276  -15.3943 H   0  0  0  0  0  0  0  0  0  0  0  0
   -4.3618  -52.6083  -14.8337 C   0  0  0  0  0  0  0  0  0  0  0  0
   -4.8821  -52.4723  -13.5767 C   0  0  0  0  0  0  0  0  0  0  0  0
   -5.9413  -53.2902  -13.1964 C   0  0  0  0  0  0  0  0  0  0  0  0
   -6.5034  -54.2378  -14.0170 C   0  0  0  0  0  0  0  0  0  0  0  0
   -7.6292  -55.1136  -13.6278 C   0  0  0  0  0  0  0  0  0  0  0  0
   -5.9600  -54.3400  -15.2508 N   0  0  0  0  0  0  0  0  0  0  0  0
   -4.9536  -53.5796  -15.6452 C   0  0  0  0  0  0  0  0  0  0  0  0
    2.2110  -50.4470  -24.1574 C   0  0  0  0  0  0  0  0  0  0  0  0
    2.9210  -50.0110  -23.0370 C   0  0  0  0  0  0  0  0  0  0  0  0
    2.5910  -50.3984  -21.7617 C   0  0  0  0  0  0  0  0  0  0  0  0
    1.5279  -51.2447  -21.5728 C   0  0  0  0  0  0  0  0  0  0  0  0
    0.8293  -51.6772  -22.6587 C   0  0  0  0  0  0  0  0  0  0  0  0
    1.1424  -51.2982  -23.9744 C   0  0  0  0  0  0  0  0  0  0  0  0
    0.3704  -51.8053  -25.0536 C   0  0  0  0  0  0  0  0  0  0  0  0
   -0.2282  -50.9863  -25.9366 F   0  0  0  0  0  0  0  0  0  0  0  0
   -0.7156  -52.5426  -24.5177 F   0  0  0  0  0  0  0  0  0  0  0  0
    1.0699  -52.8167  -25.7316 F   0  0  0  0  0  0  0  0  0  0  0  0
    2.5580  -50.0620  -25.5077 C   0  0  0  0  0  0  0  0  0  0  0  0
    5.1236  -46.2220  -24.9027 C   0  0  0  0  0  0  0  0  0  0  0  0
    4.9963  -46.7989  -26.2018 N   0  0  0  0  0  0  0  0  0  0  0  0
    3.6952  -46.7460  -26.7848 C   0  0  0  0  0  0  0  0  0  0  0  0
    3.1785  -48.1699  -26.9013 C   0  0  0  0  0  0  0  0  0  0  0  0
    3.4204  -48.9547  -25.7166 N   0  0  0  0  0  0  0  0  0  0  0  0
    4.8020  -49.1721  -25.5390 C   0  0  0  0  0  0  0  0  0  0  0  0
    5.5469  -48.1052  -26.3422 C   0  0  0  0  0  0  0  0  0  0  0  0
 34 35  1  0  0  0
 35 36  1  0  0  0
 36 37  1  0  0  0
 37 38  1  0  0  0
 38 33  1  0  0  0
 33 23  1  0  0  0
 23 24  2  0  0  0
 24 25  1  0  0  0
 25 26  2  0  0  0
 26 27  1  0  0  0
 27 28  2  0  0  0
 28 29  1  0  0  0
 29 30  1  0  0  0
 29 31  1  0  0  0
 29 32  1  0  0  0
 26  1  1  0  0  0
  1  2  2  0  0  0
  1  3  1  0  0  0
  3  5  1  0  0  0
  5  6  2  0  0  0
  6  7  1  0  0  0
  7  8  2  0  0  0
  8  9  1  0  0  0
  8 10  1  0  0  0
 10 12  1  0  0  0
 12 13  1  0  0  0
 13 14  2  0  0  0
 13 16  1  0  0  0
 16 17  2  0  0  0
 17 18  1  0  0  0
 18 19  2  0  0  0
 19 20  1  0  0  0
 19 21  1  0  0  0
 21 22  2  0  0  0
 10 11  2  0  0  0
 38 39  1  0  0  0
 39 40  1  0  0  0
 40 35  1  0  0  0
 28 23  1  0  0  0
 11  5  1  0  0  0
 22 16  1  0  0  0
  3  4  1  0  0  0
 12 15  1  0  0  0
M  END
> <minimizedAffinity>
-7.50886

> <CNNscore>
0.1552067399

> <CNNaffinity>
6.1641464233

> <CNN_VS>
0.9567170739

> <CNNaffinity_variance>
0.1894538701

$$$$
[H]N([H])C(=O)C([H])([H])C([H])([H])[C@@]([H])(C(=O)N([H])[H])N([H])C(=O)[C@@]([H])(N([H])C(=O)[C@@]([H])(N([H])C(=O)[C@@]([H])(N([H])C(=O)[C@@]([H])(N([H])C(=O)[C@@]([H])(N([H])C(=O)[C@@]([H])(N([H])C(=O)C([H])([H])[H])C([H])([H])C([H])([H])C(=O)N([H])[H])C([H])([H])C([H])([H])C(=O)N([H])[H])C([H])([H])C([H])([H])C(=O)N([H])[H])C([H])([H])C([H])(C([H])([H])[H])C([H])([H])[H])C([H])([H])C([H])([H])C(=O)N([H])[H])C([H])([H])C([H])([H])C(=O)N([H])[H]


 87 86  0  0  0  0  0  0  0  0999 V2000
    1.3712  -51.6811  -20.5418 C   0  0  0  0  0  0  0  0  0  0  0  0
    1.7329  -52.0566  -21.9556 N   0  0  0  0  0  0  0  0  0  0  0  0
    1.2104  -51.1639  -22.9869 C   0  0  0  0  0  0  0  0  0  0  0  0
    0.5920  -50.2020  -22.5389 O   0  0  0  0  0  0  0  0  0  0  0  0
    2.2829  -52.8631  -22.1147 H   0  0  0  0  0  0  0  0  0  0  0  0
    1.4034  -51.4238  -24.4211 C   0  0  0  0  0  0  0  0  0  0  0  0
    2.6327  -50.9244  -24.9248 N   0  0  0  0  0  0  0  0  0  0  0  0
    3.9388  -50.9297  -24.5046 C   0  0  0  0  0  0  0  0  0  0  0  0
    4.3401  -51.5182  -23.4547 O   0  0  0  0  0  0  0  0  0  0  0  0
    2.4888  -50.4191  -25.8946 H   0  0  0  0  0  0  0  0  0  0  0  0
    5.1104  -50.2569  -25.1978 C   0  0  0  0  0  0  0  0  0  0  0  0
    4.6489  -49.0975  -25.8477 N   0  0  0  0  0  0  0  0  0  0  0  0
    3.9539  -48.9334  -27.0432 C   0  0  0  0  0  0  0  0  0  0  0  0
    3.6171  -49.8525  -27.7856 O   0  0  0  0  0  0  0  0  0  0  0  0
    4.8769  -48.1648  -25.3376 H   0  0  0  0  0  0  0  0  0  0  0  0
    3.5568  -47.5183  -27.4854 C   0  0  0  0  0  0  0  0  0  0  0  0
    3.5903  -46.6202  -26.3851 N   0  0  0  0  0  0  0  0  0  0  0  0
    2.5617  -45.6737  -26.0359 C   0  0  0  0  0  0  0  0  0  0  0  0
    2.7397  -44.7771  -24.8756 C   0  0  0  0  0  0  0  0  0  0  0  0
    1.5200  -45.6134  -26.7248 O   0  0  0  0  0  0  0  0  0  0  0  0
    4.4434  -46.6131  -25.7532 H   0  0  0  0  0  0  0  0  0  0  0  0
    4.7314  -47.1235  -28.4022 C   0  0  0  0  0  0  0  0  0  0  0  0
    4.3922  -47.2665  -29.8573 C   0  0  0  0  0  0  0  0  0  0  0  0
    5.3685  -48.1742  -30.5016 C   0  0  0  0  0  0  0  0  0  0  0  0
    5.5787  -49.5172  -30.1602 N   0  0  0  0  0  0  0  0  0  0  0  0
    6.0785  -47.7075  -31.4487 O   0  0  0  0  0  0  0  0  0  0  0  0
    4.7695  -50.1274  -29.9069 H   0  0  0  0  0  0  0  0  0  0  0  0
    6.5620  -49.9238  -30.1531 H   0  0  0  0  0  0  0  0  0  0  0  0
    6.3717  -50.2321  -24.4565 C   0  0  0  0  0  0  0  0  0  0  0  0
    7.4176  -49.2887  -24.9898 C   0  0  0  0  0  0  0  0  0  0  0  0
    8.4165  -48.9220  -23.9652 C   0  0  0  0  0  0  0  0  0  0  0  0
    9.4193  -47.9425  -24.2783 N   0  0  0  0  0  0  0  0  0  0  0  0
    8.4286  -49.4313  -22.8277 O   0  0  0  0  0  0  0  0  0  0  0  0
    9.4472  -47.5405  -25.2459 H   0  0  0  0  0  0  0  0  0  0  0  0
   10.1241  -47.6265  -23.5514 H   0  0  0  0  0  0  0  0  0  0  0  0
    1.1013  -52.8388  -24.7578 C   0  0  0  0  0  0  0  0  0  0  0  0
   -0.0328  -53.1146  -25.6682 C   0  0  0  0  0  0  0  0  0  0  0  0
    0.0653  -54.2463  -26.5708 C   0  0  0  0  0  0  0  0  0  0  0  0
    0.0191  -55.6387  -26.1859 N   0  0  0  0  0  0  0  0  0  0  0  0
    0.2196  -54.0834  -27.8265 O   0  0  0  0  0  0  0  0  0  0  0  0
   -0.9121  -56.0846  -25.9543 H   0  0  0  0  0  0  0  0  0  0  0  0
    0.8567  -56.2414  -26.1308 H   0  0  0  0  0  0  0  0  0  0  0  0
    2.5830  -51.3643  -19.8265 C   0  0  0  0  0  0  0  0  0  0  0  0
    3.6467  -52.0145  -19.9050 O   0  0  0  0  0  0  0  0  0  0  0  0
    2.6901  -50.2229  -18.9345 N   0  0  0  0  0  0  0  0  0  0  0  0
    1.8617  -49.6150  -18.8518 H   0  0  0  0  0  0  0  0  0  0  0  0
    3.9558  -49.9352  -18.2304 C   0  0  0  0  0  0  0  0  0  0  0  0
    3.8673  -50.2612  -16.8276 C   0  0  0  0  0  0  0  0  0  0  0  0
    3.7753  -51.5201  -16.5610 O   0  0  0  0  0  0  0  0  0  0  0  0
    3.8707  -49.4335  -15.6922 N   0  0  0  0  0  0  0  0  0  0  0  0
    3.8970  -48.4165  -15.7772 H   0  0  0  0  0  0  0  0  0  0  0  0
    3.8234  -50.0310  -14.3481 C   0  0  0  0  0  0  0  0  0  0  0  0
    2.3969  -50.3041  -14.0140 C   0  0  0  0  0  0  0  0  0  0  0  0
    1.7488  -49.2851  -13.5296 O   0  0  0  0  0  0  0  0  0  0  0  0
    1.6932  -51.4872  -14.1454 N   0  0  0  0  0  0  0  0  0  0  0  0
    2.1565  -52.3452  -14.5174 H   0  0  0  0  0  0  0  0  0  0  0  0
    0.3131  -51.5457  -13.7651 C   0  0  0  0  0  0  0  0  0  0  0  0
   -0.0027  -52.6482  -12.8061 C   0  0  0  0  0  0  0  0  0  0  0  0
    1.0680  -53.5287  -12.4036 N   0  0  0  0  0  0  0  0  0  0  0  0
   -1.1252  -52.8714  -12.3206 O   0  0  0  0  0  0  0  0  0  0  0  0
    1.1723  -54.4799  -12.8587 H   0  0  0  0  0  0  0  0  0  0  0  0
    1.7621  -53.2959  -11.6834 H   0  0  0  0  0  0  0  0  0  0  0  0
   -0.6171  -51.7198  -14.9414 C   0  0  0  0  0  0  0  0  0  0  0  0
   -1.1962  -50.3918  -15.3854 C   0  0  0  0  0  0  0  0  0  0  0  0
   -0.2682  -49.8294  -16.4324 C   0  0  0  0  0  0  0  0  0  0  0  0
    0.2427  -48.5220  -16.3028 N   0  0  0  0  0  0  0  0  0  0  0  0
    0.0554  -50.5150  -17.4264 O   0  0  0  0  0  0  0  0  0  0  0  0
   -0.0128  -47.8160  -17.0355 H   0  0  0  0  0  0  0  0  0  0  0  0
    0.8751  -48.2169  -15.5077 H   0  0  0  0  0  0  0  0  0  0  0  0
    4.4497  -49.2104  -13.3017 C   0  0  0  0  0  0  0  0  0  0  0  0
    5.0534  -47.9088  -13.7681 C   0  0  0  0  0  0  0  0  0  0  0  0
    6.4045  -47.6431  -13.2437 C   0  0  0  0  0  0  0  0  0  0  0  0
    6.9479  -48.4076  -12.1937 N   0  0  0  0  0  0  0  0  0  0  0  0
    7.1172  -46.6997  -13.7454 O   0  0  0  0  0  0  0  0  0  0  0  0
    6.5761  -48.3301  -11.1912 H   0  0  0  0  0  0  0  0  0  0  0  0
    7.7255  -49.0968  -12.2993 H   0  0  0  0  0  0  0  0  0  0  0  0
    4.4900  -48.6471  -18.6787 C   0  0  0  0  0  0  0  0  0  0  0  0
    5.8351  -48.9572  -19.3717 C   0  0  0  0  0  0  0  0  0  0  0  0
    5.6362  -49.4197  -20.7643 C   0  0  0  0  0  0  0  0  0  0  0  0
    6.1361  -50.6557  -21.1752 N   0  0  0  0  0  0  0  0  0  0  0  0
    5.0148  -48.6832  -21.5567 O   0  0  0  0  0  0  0  0  0  0  0  0
    7.1846  -50.8165  -21.2830 H   0  0  0  0  0  0  0  0  0  0  0  0
    5.4895  -51.4391  -21.3821 H   0  0  0  0  0  0  0  0  0  0  0  0
    0.6366  -52.8543  -19.9974 C   0  0  0  0  0  0  0  0  0  0  0  0
   -0.7779  -54.4769  -21.2917 C   0  0  0  0  0  0  0  0  0  0  0  0
   -0.7097  -53.1788  -20.4990 C   0  0  0  0  0  0  0  0  0  0  0  0
   -1.5756  -53.4689  -19.2405 C   0  0  0  0  0  0  0  0  0  0  0  0
 85 86  1  0  0  0
 86 87  1  0  0  0
 86 84  1  0  0  0
 84  1  1  0  0  0
  1  2  1  0  0  0
  2  3  1  0  0  0
  3  4  2  0  0  0
  3  6  1  0  0  0
  6 36  1  0  0  0
 36 37  1  0  0  0
 37 38  1  0  0  0
 38 39  1  0  0  0
 38 40  2  0  0  0
  6  7  1  0  0  0
  7  8  1  0  0  0
  8  9  2  0  0  0
  8 11  1  0  0  0
 11 29  1  0  0  0
 29 30  1  0  0  0
 30 31  1  0  0  0
 31 32  1  0  0  0
 31 33  2  0  0  0
 11 12  1  0  0  0
 12 13  1  0  0  0
 13 14  2  0  0  0
 13 16  1  0  0  0
 16 22  1  0  0  0
 22 23  1  0  0  0
 23 24  1  0  0  0
 24 25  1  0  0  0
 24 26  2  0  0  0
 16 17  1  0  0  0
 17 18  1  0  0  0
 18 19  1  0  0  0
 18 20  2  0  0  0
  1 43  1  0  0  0
 43 44  2  0  0  0
 43 45  1  0  0  0
 45 47  1  0  0  0
 47 77  1  0  0  0
 77 78  1  0  0  0
 78 79  1  0  0  0
 79 80  1  0  0  0
 79 81  2  0  0  0
 47 48  1  0  0  0
 48 49  2  0  0  0
 48 50  1  0  0  0
 50 52  1  0  0  0
 52 70  1  0  0  0
 70 71  1  0  0  0
 71 72  1  0  0  0
 72 73  1  0  0  0
 72 74  2  0  0  0
 52 53  1  0  0  0
 53 54  2  0  0  0
 53 55  1  0  0  0
 55 57  1  0  0  0
 57 63  1  0  0  0
 63 64  1  0  0  0
 64 65  1  0  0  0
 65 66  1  0  0  0
 65 67  2  0  0  0
 57 58  1  0  0  0
 58 59  1  0  0  0
 58 60  2  0  0  0
  2  5  1  0  0  0
 39 41  1  0  0  0
 39 42  1  0  0  0
  7 10  1  0  0  0
 32 34  1  0  0  0
 32 35  1  0  0  0
 12 15  1  0  0  0
 25 27  1  0  0  0
 25 28  1  0  0  0
 17 21  1  0  0  0
 45 46  1  0  0  0
 80 82  1  0  0  0
 80 83  1  0  0  0
 50 51  1  0  0  0
 73 75  1  0  0  0
 73 76  1  0  0  0
 55 56  1  0  0  0
 66 68  1  0  0  0
 66 69  1  0  0  0
 59 61  1  0  0  0
 59 62  1  0  0  0
M  END
> <minimizedAffinity>
-6.10599

> <CNNscore>
0.3557153046

> <CNNaffinity>
7.6569609642

> <CNN_VS>
2.7236981392

> <CNNaffinity_variance>
0.2289839983

$$$$
[H]N([H])C(=O)C([H])([H])C([H])([H])[C@@]([H])(C(=O)N([H])[H])N([H])C(=O)[C@@]([H])(N([H])C(=O)[C@@]([H])(N([H])C(=O)[C@@]([H])(N([H])C(=O)[C@@]([H])(N([H])C(=O)[C@@]([H])(N([H])C(=O)[C@@]([H])(N([H])C(=O)C([H])([H])[H])C([H])([H])C([H])([H])C(=O)N([H])[H])C([H])([H])C([H])([H])C(=O)N([H])[H])C([H])([H])C([H])([H])C(=O)N([H])[H])C([H])([H])C([H])(C([H])([H])[H])C([H])([H])[H])C([H])([H])C([H])([H])C(=O)N([H])[H])C([H])([H])C([H])([H])C(=O)N([H])[H]


 87 86  0  0  0  0  0  0  0  0999 V2000
    2.3632  -51.2685  -26.5291 C   0  0  0  0  0  0  0  0  0  0  0  0
    3.5177  -50.5912  -27.2214 N   0  0  0  0  0  0  0  0  0  0  0  0
    3.5813  -49.1424  -27.0466 C   0  0  0  0  0  0  0  0  0  0  0  0
    2.7051  -48.6957  -26.3111 O   0  0  0  0  0  0  0  0  0  0  0  0
    4.1528  -51.1377  -27.7468 H   0  0  0  0  0  0  0  0  0  0  0  0
    4.5971  -48.3154  -27.7144 C   0  0  0  0  0  0  0  0  0  0  0  0
    5.5859  -47.8120  -26.8295 N   0  0  0  0  0  0  0  0  0  0  0  0
    5.6777  -46.7526  -25.9624 C   0  0  0  0  0  0  0  0  0  0  0  0
    4.7263  -45.9458  -25.7306 O   0  0  0  0  0  0  0  0  0  0  0  0
    6.4922  -48.4404  -26.8475 H   0  0  0  0  0  0  0  0  0  0  0  0
    6.8948  -46.3631  -25.1423 C   0  0  0  0  0  0  0  0  0  0  0  0
    6.7307  -46.8422  -23.8298 N   0  0  0  0  0  0  0  0  0  0  0  0
    7.1095  -46.3015  -22.6037 C   0  0  0  0  0  0  0  0  0  0  0  0
    7.7074  -45.2370  -22.4662 O   0  0  0  0  0  0  0  0  0  0  0  0
    6.2284  -47.8034  -23.7523 H   0  0  0  0  0  0  0  0  0  0  0  0
    6.7598  -47.0592  -21.3157 C   0  0  0  0  0  0  0  0  0  0  0  0
    5.4143  -47.5137  -21.3497 N   0  0  0  0  0  0  0  0  0  0  0  0
    4.2746  -46.8204  -20.8054 C   0  0  0  0  0  0  0  0  0  0  0  0
    2.9289  -47.4240  -20.8870 C   0  0  0  0  0  0  0  0  0  0  0  0
    4.4337  -45.7070  -20.2592 O   0  0  0  0  0  0  0  0  0  0  0  0
    5.1998  -48.4518  -21.7982 H   0  0  0  0  0  0  0  0  0  0  0  0
    7.6443  -48.3166  -21.4289 C   0  0  0  0  0  0  0  0  0  0  0  0
    7.5676  -49.1801  -20.2036 C   0  0  0  0  0  0  0  0  0  0  0  0
    8.6813  -48.8360  -19.2906 C   0  0  0  0  0  0  0  0  0  0  0  0
    8.5504  -48.1802  -18.0589 N   0  0  0  0  0  0  0  0  0  0  0  0
    9.8600  -49.1622  -19.6418 O   0  0  0  0  0  0  0  0  0  0  0  0
    7.7444  -48.3984  -17.4311 H   0  0  0  0  0  0  0  0  0  0  0  0
    9.2671  -47.4544  -17.7560 H   0  0  0  0  0  0  0  0  0  0  0  0
    8.1901  -46.4825  -25.8125 C   0  0  0  0  0  0  0  0  0  0  0  0
    8.9552  -47.7469  -25.5221 C   0  0  0  0  0  0  0  0  0  0  0  0
    8.8630  -48.7238  -26.6263 C   0  0  0  0  0  0  0  0  0  0  0  0
    8.6656  -50.1136  -26.3220 N   0  0  0  0  0  0  0  0  0  0  0  0
    8.9507  -48.3922  -27.8244 O   0  0  0  0  0  0  0  0  0  0  0  0
    8.6357  -50.4109  -25.3172 H   0  0  0  0  0  0  0  0  0  0  0  0
    8.5528  -50.8339  -27.0924 H   0  0  0  0  0  0  0  0  0  0  0  0
    5.1125  -48.9793  -28.9394 C   0  0  0  0  0  0  0  0  0  0  0  0
    5.8282  -48.1511  -29.9357 C   0  0  0  0  0  0  0  0  0  0  0  0
    5.0768  -47.6118  -31.0535 C   0  0  0  0  0  0  0  0  0  0  0  0
    5.5346  -46.5831  -31.9597 N   0  0  0  0  0  0  0  0  0  0  0  0
    3.8975  -48.0187  -31.3196 O   0  0  0  0  0  0  0  0  0  0  0  0
    6.2225  -46.8309  -32.7245 H   0  0  0  0  0  0  0  0  0  0  0  0
    5.2171  -45.6009  -31.9117 H   0  0  0  0  0  0  0  0  0  0  0  0
    2.8069  -51.7224  -25.2339 C   0  0  0  0  0  0  0  0  0  0  0  0
    3.2483  -52.8659  -24.9930 O   0  0  0  0  0  0  0  0  0  0  0  0
    2.7957  -50.8686  -24.0588 N   0  0  0  0  0  0  0  0  0  0  0  0
    2.4820  -49.8956  -24.1911 H   0  0  0  0  0  0  0  0  0  0  0  0
    3.2680  -51.3772  -22.7554 C   0  0  0  0  0  0  0  0  0  0  0  0
    2.1659  -51.7405  -21.8979 C   0  0  0  0  0  0  0  0  0  0  0  0
    2.4904  -52.0528  -20.6890 O   0  0  0  0  0  0  0  0  0  0  0  0
    0.7864  -51.8064  -22.1564 N   0  0  0  0  0  0  0  0  0  0  0  0
    0.4119  -51.6225  -23.0882 H   0  0  0  0  0  0  0  0  0  0  0  0
   -0.1472  -52.1584  -21.0746 C   0  0  0  0  0  0  0  0  0  0  0  0
    0.1066  -51.2403  -19.9284 C   0  0  0  0  0  0  0  0  0  0  0  0
    0.0932  -49.9755  -20.2336 O   0  0  0  0  0  0  0  0  0  0  0  0
    0.3579  -51.5617  -18.6072 N   0  0  0  0  0  0  0  0  0  0  0  0
    0.3929  -52.5578  -18.2976 H   0  0  0  0  0  0  0  0  0  0  0  0
    0.5776  -50.5218  -17.6464 C   0  0  0  0  0  0  0  0  0  0  0  0
    1.9523  -50.5237  -17.0586 C   0  0  0  0  0  0  0  0  0  0  0  0
    3.0572  -50.8926  -17.9109 N   0  0  0  0  0  0  0  0  0  0  0  0
    2.2251  -50.2295  -15.8818 O   0  0  0  0  0  0  0  0  0  0  0  0
    3.4581  -51.8725  -17.8657 H   0  0  0  0  0  0  0  0  0  0  0  0
    3.5016  -50.2552  -18.5823 H   0  0  0  0  0  0  0  0  0  0  0  0
   -0.3861  -50.5762  -16.4857 C   0  0  0  0  0  0  0  0  0  0  0  0
   -1.0796  -51.9213  -16.4097 C   0  0  0  0  0  0  0  0  0  0  0  0
   -2.4964  -51.6668  -15.9606 C   0  0  0  0  0  0  0  0  0  0  0  0
   -2.8265  -50.4731  -15.2874 N   0  0  0  0  0  0  0  0  0  0  0  0
   -3.3915  -52.5120  -16.1781 O   0  0  0  0  0  0  0  0  0  0  0  0
   -3.1811  -50.5423  -14.3025 H   0  0  0  0  0  0  0  0  0  0  0  0
   -2.7404  -49.5109  -15.7258 H   0  0  0  0  0  0  0  0  0  0  0  0
   -0.0648  -53.5601  -20.6400 C   0  0  0  0  0  0  0  0  0  0  0  0
    0.0290  -54.5813  -21.7466 C   0  0  0  0  0  0  0  0  0  0  0  0
   -1.2046  -54.7355  -22.5375 C   0  0  0  0  0  0  0  0  0  0  0  0
   -1.1849  -54.6919  -23.9445 N   0  0  0  0  0  0  0  0  0  0  0  0
   -2.3307  -54.9175  -21.9471 O   0  0  0  0  0  0  0  0  0  0  0  0
   -0.9937  -53.7807  -24.4761 H   0  0  0  0  0  0  0  0  0  0  0  0
   -1.3405  -55.5151  -24.5682 H   0  0  0  0  0  0  0  0  0  0  0  0
    4.3674  -50.5415  -22.2669 C   0  0  0  0  0  0  0  0  0  0  0  0
    5.6690  -51.2951  -22.6180 C   0  0  0  0  0  0  0  0  0  0  0  0
    6.0148  -51.1463  -24.0502 C   0  0  0  0  0  0  0  0  0  0  0  0
    6.2534  -52.2722  -24.8389 N   0  0  0  0  0  0  0  0  0  0  0  0
    6.0873  -49.9980  -24.5324 O   0  0  0  0  0  0  0  0  0  0  0  0
    7.1284  -52.8653  -24.7003 H   0  0  0  0  0  0  0  0  0  0  0  0
    5.5774  -52.5483  -25.5747 H   0  0  0  0  0  0  0  0  0  0  0  0
    1.9429  -52.3643  -27.4428 C   0  0  0  0  0  0  0  0  0  0  0  0
    0.0186  -52.7206  -29.0173 C   0  0  0  0  0  0  0  0  0  0  0  0
    0.5164  -52.7049  -27.5784 C   0  0  0  0  0  0  0  0  0  0  0  0
    0.3865  -54.1870  -27.1269 C   0  0  0  0  0  0  0  0  0  0  0  0
 85 86  1  0  0  0
 86 87  1  0  0  0
 86 84  1  0  0  0
 84  1  1  0  0  0
  1  2  1  0  0  0
  2  3  1  0  0  0
  3  4  2  0  0  0
  3  6  1  0  0  0
  6 36  1  0  0  0
 36 37  1  0  0  0
 37 38  1  0  0  0
 38 39  1  0  0  0
 38 40  2  0  0  0
  6  7  1  0  0  0
  7  8  1  0  0  0
  8  9  2  0  0  0
  8 11  1  0  0  0
 11 29  1  0  0  0
 29 30  1  0  0  0
 30 31  1  0  0  0
 31 32  1  0  0  0
 31 33  2  0  0  0
 11 12  1  0  0  0
 12 13  1  0  0  0
 13 14  2  0  0  0
 13 16  1  0  0  0
 16 22  1  0  0  0
 22 23  1  0  0  0
 23 24  1  0  0  0
 24 25  1  0  0  0
 24 26  2  0  0  0
 16 17  1  0  0  0
 17 18  1  0  0  0
 18 19  1  0  0  0
 18 20  2  0  0  0
  1 43  1  0  0  0
 43 44  2  0  0  0
 43 45  1  0  0  0
 45 47  1  0  0  0
 47 77  1  0  0  0
 77 78  1  0  0  0
 78 79  1  0  0  0
 79 80  1  0  0  0
 79 81  2  0  0  0
 47 48  1  0  0  0
 48 49  2  0  0  0
 48 50  1  0  0  0
 50 52  1  0  0  0
 52 70  1  0  0  0
 70 71  1  0  0  0
 71 72  1  0  0  0
 72 73  1  0  0  0
 72 74  2  0  0  0
 52 53  1  0  0  0
 53 54  2  0  0  0
 53 55  1  0  0  0
 55 57  1  0  0  0
 57 63  1  0  0  0
 63 64  1  0  0  0
 64 65  1  0  0  0
 65 66  1  0  0  0
 65 67  2  0  0  0
 57 58  1  0  0  0
 58 59  1  0  0  0
 58 60  2  0  0  0
  2  5  1  0  0  0
 39 41  1  0  0  0
 39 42  1  0  0  0
  7 10  1  0  0  0
 32 34  1  0  0  0
 32 35  1  0  0  0
 12 15  1  0  0  0
 25 27  1  0  0  0
 25 28  1  0  0  0
 17 21  1  0  0  0
 45 46  1  0  0  0
 80 82  1  0  0  0
 80 83  1  0  0  0
 50 51  1  0  0  0
 73 75  1  0  0  0
 73 76  1  0  0  0
 55 56  1  0  0  0
 66 68  1  0  0  0
 66 69  1  0  0  0
 59 61  1  0  0  0
 59 62  1  0  0  0
M  END
> <minimizedAffinity>
-6.14413

> <CNNscore>
0.3411810994

> <CNNaffinity>
7.7824392319

> <CNN_VS>
2.6552212238

> <CNNaffinity_variance>
0.4304177761

$$$$
[H]N([H])C(=O)C([H])([H])C([H])([H])[C@@]([H])(C(=O)N([H])[H])N([H])C(=O)[C@@]([H])(N([H])C(=O)[C@@]([H])(N([H])C(=O)[C@@]([H])(N([H])C(=O)[C@@]([H])(N([H])C(=O)[C@@]([H])(N([H])C(=O)[C@@]([H])(N([H])C(=O)C([H])([H])[H])C([H])([H])C([H])([H])C(=O)N([H])[H])C([H])([H])C([H])([H])C(=O)N([H])[H])C([H])([H])C([H])([H])C(=O)N([H])[H])C([H])([H])C([H])(C([H])([H])[H])C([H])([H])[H])C([H])([H])C([H])([H])C(=O)N([H])[H])C([H])([H])C([H])([H])C(=O)N([H])[H]


 87 86  0  0  0  0  0  0  0  0999 V2000
    6.5481  -49.2448  -22.9505 C   0  0  0  0  0  0  0  0  0  0  0  0
    5.2460  -49.0448  -22.2188 N   0  0  0  0  0  0  0  0  0  0  0  0
    5.3455  -49.0601  -20.7616 C   0  0  0  0  0  0  0  0  0  0  0  0
    6.4950  -49.1829  -20.3473 O   0  0  0  0  0  0  0  0  0  0  0  0
    4.4142  -48.9218  -22.7394 H   0  0  0  0  0  0  0  0  0  0  0  0
    4.1635  -48.9559  -19.8934 C   0  0  0  0  0  0  0  0  0  0  0  0
    2.9712  -49.4237  -20.5046 N   0  0  0  0  0  0  0  0  0  0  0  0
    2.3587  -50.6425  -20.6532 C   0  0  0  0  0  0  0  0  0  0  0  0
    2.7977  -51.7195  -20.1462 O   0  0  0  0  0  0  0  0  0  0  0  0
    2.4053  -48.5932  -20.9591 H   0  0  0  0  0  0  0  0  0  0  0  0
    1.0803  -50.9197  -21.4243 C   0  0  0  0  0  0  0  0  0  0  0  0
    1.3974  -51.6571  -22.5798 N   0  0  0  0  0  0  0  0  0  0  0  0
    1.8366  -51.2467  -23.8359 C   0  0  0  0  0  0  0  0  0  0  0  0
    2.0198  -50.0765  -24.1623 O   0  0  0  0  0  0  0  0  0  0  0  0
    1.2739  -52.7331  -22.4848 H   0  0  0  0  0  0  0  0  0  0  0  0
    2.1318  -52.3077  -24.9049 C   0  0  0  0  0  0  0  0  0  0  0  0
    1.3513  -53.4741  -24.6840 N   0  0  0  0  0  0  0  0  0  0  0  0
   -0.0869  -53.5278  -24.6176 C   0  0  0  0  0  0  0  0  0  0  0  0
   -0.7712  -54.8100  -24.3536 C   0  0  0  0  0  0  0  0  0  0  0  0
   -0.7510  -52.4809  -24.7798 O   0  0  0  0  0  0  0  0  0  0  0  0
    1.8448  -54.4026  -24.5377 H   0  0  0  0  0  0  0  0  0  0  0  0
    1.5719  -51.6475  -26.1803 C   0  0  0  0  0  0  0  0  0  0  0  0
    2.2325  -52.1619  -27.4259 C   0  0  0  0  0  0  0  0  0  0  0  0
    1.2980  -53.0600  -28.1416 C   0  0  0  0  0  0  0  0  0  0  0  0
    1.2018  -54.4463  -27.9592 N   0  0  0  0  0  0  0  0  0  0  0  0
    0.5085  -52.5396  -28.9930 O   0  0  0  0  0  0  0  0  0  0  0  0
    1.2921  -54.8575  -27.0031 H   0  0  0  0  0  0  0  0  0  0  0  0
    1.0399  -55.0894  -28.7913 H   0  0  0  0  0  0  0  0  0  0  0  0
   -0.0925  -51.2740  -20.6242 C   0  0  0  0  0  0  0  0  0  0  0  0
   -1.0495  -52.2405  -21.2712 C   0  0  0  0  0  0  0  0  0  0  0  0
   -1.0011  -53.5790  -20.6481 C   0  0  0  0  0  0  0  0  0  0  0  0
    0.0620  -53.8921  -19.7342 N   0  0  0  0  0  0  0  0  0  0  0  0
   -1.8511  -54.4595  -20.8832 O   0  0  0  0  0  0  0  0  0  0  0  0
    0.8078  -53.1757  -19.5633 H   0  0  0  0  0  0  0  0  0  0  0  0
    0.1015  -54.8286  -19.2379 H   0  0  0  0  0  0  0  0  0  0  0  0
    4.4417  -49.4948  -18.5372 C   0  0  0  0  0  0  0  0  0  0  0  0
    3.3860  -49.3750  -17.5066 C   0  0  0  0  0  0  0  0  0  0  0  0
    3.1571  -50.4990  -16.6182 C   0  0  0  0  0  0  0  0  0  0  0  0
    2.0347  -50.6493  -15.7201 N   0  0  0  0  0  0  0  0  0  0  0  0
    3.9769  -51.4743  -16.5556 O   0  0  0  0  0  0  0  0  0  0  0  0
    1.0947  -50.9444  -16.1057 H   0  0  0  0  0  0  0  0  0  0  0  0
    2.0974  -50.4922  -14.7007 H   0  0  0  0  0  0  0  0  0  0  0  0
    6.5444  -48.4141  -24.1297 C   0  0  0  0  0  0  0  0  0  0  0  0
    6.4990  -47.1658  -24.1210 O   0  0  0  0  0  0  0  0  0  0  0  0
    6.6084  -48.9618  -25.4736 N   0  0  0  0  0  0  0  0  0  0  0  0
    6.6897  -49.9860  -25.5574 H   0  0  0  0  0  0  0  0  0  0  0  0
    6.6100  -48.0691  -26.6498 C   0  0  0  0  0  0  0  0  0  0  0  0
    5.2707  -47.8112  -27.1207 C   0  0  0  0  0  0  0  0  0  0  0  0
    4.4312  -48.7747  -26.9438 O   0  0  0  0  0  0  0  0  0  0  0  0
    4.7192  -46.6766  -27.7392 N   0  0  0  0  0  0  0  0  0  0  0  0
    5.2949  -45.8657  -27.9702 H   0  0  0  0  0  0  0  0  0  0  0  0
    3.2872  -46.6479  -28.0774 C   0  0  0  0  0  0  0  0  0  0  0  0
    3.1505  -46.1187  -29.4638 C   0  0  0  0  0  0  0  0  0  0  0  0
    2.4876  -45.0029  -29.5554 O   0  0  0  0  0  0  0  0  0  0  0  0
    3.6256  -46.6620  -30.6434 N   0  0  0  0  0  0  0  0  0  0  0  0
    4.1562  -47.5607  -30.6414 H   0  0  0  0  0  0  0  0  0  0  0  0
    3.3880  -45.9919  -31.8873 C   0  0  0  0  0  0  0  0  0  0  0  0
    2.8037  -46.8721  -32.9451 C   0  0  0  0  0  0  0  0  0  0  0  0
    2.9767  -46.4858  -34.3251 N   0  0  0  0  0  0  0  0  0  0  0  0
    2.1738  -47.9224  -32.7311 O   0  0  0  0  0  0  0  0  0  0  0  0
    2.1901  -45.9998  -34.8427 H   0  0  0  0  0  0  0  0  0  0  0  0
    3.8349  -46.6520  -34.8642 H   0  0  0  0  0  0  0  0  0  0  0  0
    4.6362  -45.3813  -32.4776 C   0  0  0  0  0  0  0  0  0  0  0  0
    4.5877  -43.8680  -32.4206 C   0  0  0  0  0  0  0  0  0  0  0  0
    5.5571  -43.3523  -33.4540 C   0  0  0  0  0  0  0  0  0  0  0  0
    6.3528  -44.2500  -34.1945 N   0  0  0  0  0  0  0  0  0  0  0  0
    5.6671  -42.1248  -33.6629 O   0  0  0  0  0  0  0  0  0  0  0  0
    7.3946  -44.1931  -34.0859 H   0  0  0  0  0  0  0  0  0  0  0  0
    5.9540  -44.9748  -34.8586 H   0  0  0  0  0  0  0  0  0  0  0  0
    2.4633  -45.8665  -27.1441 C   0  0  0  0  0  0  0  0  0  0  0  0
    3.2086  -45.2132  -26.0065 C   0  0  0  0  0  0  0  0  0  0  0  0
    2.8877  -45.7599  -24.6763 C   0  0  0  0  0  0  0  0  0  0  0  0
    3.2392  -47.0755  -24.3191 N   0  0  0  0  0  0  0  0  0  0  0  0
    2.2774  -45.0336  -23.8106 O   0  0  0  0  0  0  0  0  0  0  0  0
    2.7508  -47.9255  -24.7531 H   0  0  0  0  0  0  0  0  0  0  0  0
    3.9847  -47.3273  -23.6321 H   0  0  0  0  0  0  0  0  0  0  0  0
    7.6761  -48.4675  -27.5720 C   0  0  0  0  0  0  0  0  0  0  0  0
    9.0044  -48.0726  -26.8899 C   0  0  0  0  0  0  0  0  0  0  0  0
    9.9954  -49.1711  -26.9509 C   0  0  0  0  0  0  0  0  0  0  0  0
    9.6272  -50.4272  -27.4341 N   0  0  0  0  0  0  0  0  0  0  0  0
   11.1601  -48.9489  -26.5630 O   0  0  0  0  0  0  0  0  0  0  0  0
    8.9751  -51.0609  -26.8775 H   0  0  0  0  0  0  0  0  0  0  0  0
    9.9857  -50.7623  -28.3472 H   0  0  0  0  0  0  0  0  0  0  0  0
    6.6196  -50.7025  -23.2377 C   0  0  0  0  0  0  0  0  0  0  0  0
    5.5809  -52.3909  -24.7803 C   0  0  0  0  0  0  0  0  0  0  0  0
    5.3997  -51.4427  -23.6028 C   0  0  0  0  0  0  0  0  0  0  0  0
    5.1021  -52.3914  -22.4074 C   0  0  0  0  0  0  0  0  0  0  0  0
 85 86  1  0  0  0
 86 87  1  0  0  0
 86 84  1  0  0  0
 84  1  1  0  0  0
  1  2  1  0  0  0
  2  3  1  0  0  0
  3  4  2  0  0  0
  3  6  1  0  0  0
  6 36  1  0  0  0
 36 37  1  0  0  0
 37 38  1  0  0  0
 38 39  1  0  0  0
 38 40  2  0  0  0
  6  7  1  0  0  0
  7  8  1  0  0  0
  8  9  2  0  0  0
  8 11  1  0  0  0
 11 29  1  0  0  0
 29 30  1  0  0  0
 30 31  1  0  0  0
 31 32  1  0  0  0
 31 33  2  0  0  0
 11 12  1  0  0  0
 12 13  1  0  0  0
 13 14  2  0  0  0
 13 16  1  0  0  0
 16 22  1  0  0  0
 22 23  1  0  0  0
 23 24  1  0  0  0
 24 25  1  0  0  0
 24 26  2  0  0  0
 16 17  1  0  0  0
 17 18  1  0  0  0
 18 19  1  0  0  0
 18 20  2  0  0  0
  1 43  1  0  0  0
 43 44  2  0  0  0
 43 45  1  0  0  0
 45 47  1  0  0  0
 47 77  1  0  0  0
 77 78  1  0  0  0
 78 79  1  0  0  0
 79 80  1  0  0  0
 79 81  2  0  0  0
 47 48  1  0  0  0
 48 49  2  0  0  0
 48 50  1  0  0  0
 50 52  1  0  0  0
 52 70  1  0  0  0
 70 71  1  0  0  0
 71 72  1  0  0  0
 72 73  1  0  0  0
 72 74  2  0  0  0
 52 53  1  0  0  0
 53 54  2  0  0  0
 53 55  1  0  0  0
 55 57  1  0  0  0
 57 63  1  0  0  0
 63 64  1  0  0  0
 64 65  1  0  0  0
 65 66  1  0  0  0
 65 67  2  0  0  0
 57 58  1  0  0  0
 58 59  1  0  0  0
 58 60  2  0  0  0
  2  5  1  0  0  0
 39 41  1  0  0  0
 39 42  1  0  0  0
  7 10  1  0  0  0
 32 34  1  0  0  0
 32 35  1  0  0  0
 12 15  1  0  0  0
 25 27  1  0  0  0
 25 28  1  0  0  0
 17 21  1  0  0  0
 45 46  1  0  0  0
 80 82  1  0  0  0
 80 83  1  0  0  0
 50 51  1  0  0  0
 73 75  1  0  0  0
 73 76  1  0  0  0
 55 56  1  0  0  0
 66 68  1  0  0  0
 66 69  1  0  0  0
 59 61  1  0  0  0
 59 62  1  0  0  0
M  END
> <minimizedAffinity>
-6.59912

> <CNNscore>
0.2754962146

> <CNNaffinity>
7.5332250595

> <CNN_VS>
2.0753750801

> <CNNaffinity_variance>
0.6000174284

$$$$
[H]N([H])C(=O)C([H])([H])C([H])([H])[C@@]([H])(C(=O)N([H])[H])N([H])C(=O)[C@@]([H])(N([H])C(=O)[C@@]([H])(N([H])C(=O)[C@@]([H])(N([H])C(=O)[C@@]([H])(N([H])C(=O)[C@@]([H])(N([H])C(=O)[C@@]([H])(N([H])C(=O)C([H])([H])[H])C([H])([H])C([H])([H])C(=O)N([H])[H])C([H])([H])C([H])([H])C(=O)N([H])[H])C([H])([H])C([H])([H])C(=O)N([H])[H])C([H])([H])C([H])(C([H])([H])[H])C([H])([H])[H])C([H])([H])C([H])([H])C(=O)N([H])[H])C([H])([H])C([H])([H])C(=O)N([H])[H]


 87 86  0  0  0  0  0  0  0  0999 V2000
    1.4509  -52.0383  -21.5615 C   0  0  0  0  0  0  0  0  0  0  0  0
    2.3209  -50.8496  -21.2440 N   0  0  0  0  0  0  0  0  0  0  0  0
    3.3316  -51.0787  -20.2147 C   0  0  0  0  0  0  0  0  0  0  0  0
    3.3551  -52.2327  -19.7953 O   0  0  0  0  0  0  0  0  0  0  0  0
    2.1699  -49.9991  -21.7258 H   0  0  0  0  0  0  0  0  0  0  0  0
    4.2138  -50.0074  -19.7291 C   0  0  0  0  0  0  0  0  0  0  0  0
    4.1470  -48.8240  -20.5096 N   0  0  0  0  0  0  0  0  0  0  0  0
    4.2031  -48.5280  -21.8482 C   0  0  0  0  0  0  0  0  0  0  0  0
    4.2867  -49.4042  -22.7619 O   0  0  0  0  0  0  0  0  0  0  0  0
    4.0071  -47.9348  -19.8720 H   0  0  0  0  0  0  0  0  0  0  0  0
    4.1730  -47.1410  -22.4656 C   0  0  0  0  0  0  0  0  0  0  0  0
    5.4707  -46.8056  -22.8930 N   0  0  0  0  0  0  0  0  0  0  0  0
    6.3124  -45.7579  -22.5286 C   0  0  0  0  0  0  0  0  0  0  0  0
    6.0239  -44.8820  -21.7168 O   0  0  0  0  0  0  0  0  0  0  0  0
    5.8926  -47.4710  -23.6423 H   0  0  0  0  0  0  0  0  0  0  0  0
    7.7089  -45.6706  -23.1594 C   0  0  0  0  0  0  0  0  0  0  0  0
    7.6640  -44.9466  -24.3809 N   0  0  0  0  0  0  0  0  0  0  0  0
    8.6210  -45.0403  -25.4538 C   0  0  0  0  0  0  0  0  0  0  0  0
    8.4664  -44.2055  -26.6626 C   0  0  0  0  0  0  0  0  0  0  0  0
    9.5856  -45.8292  -25.3522 O   0  0  0  0  0  0  0  0  0  0  0  0
    6.8730  -44.2567  -24.5407 H   0  0  0  0  0  0  0  0  0  0  0  0
    8.4633  -44.7776  -22.1546 C   0  0  0  0  0  0  0  0  0  0  0  0
    9.5310  -45.5285  -21.4138 C   0  0  0  0  0  0  0  0  0  0  0  0
   10.7616  -45.5702  -22.2361 C   0  0  0  0  0  0  0  0  0  0  0  0
   11.3103  -46.7194  -22.8213 N   0  0  0  0  0  0  0  0  0  0  0  0
   11.3785  -44.4759  -22.4383 O   0  0  0  0  0  0  0  0  0  0  0  0
   10.6855  -47.4480  -23.2338 H   0  0  0  0  0  0  0  0  0  0  0  0
   12.3647  -46.8602  -22.8468 H   0  0  0  0  0  0  0  0  0  0  0  0
    3.0180  -46.8353  -23.3105 C   0  0  0  0  0  0  0  0  0  0  0  0
    2.6046  -45.3874  -23.3426 C   0  0  0  0  0  0  0  0  0  0  0  0
    2.3631  -44.9038  -24.7173 C   0  0  0  0  0  0  0  0  0  0  0  0
    3.3394  -44.0605  -25.3488 N   0  0  0  0  0  0  0  0  0  0  0  0
    1.3373  -45.1977  -25.3612 O   0  0  0  0  0  0  0  0  0  0  0  0
    4.1845  -43.7695  -24.8011 H   0  0  0  0  0  0  0  0  0  0  0  0
    3.2160  -43.7315  -26.3495 H   0  0  0  0  0  0  0  0  0  0  0  0
    4.0724  -49.8160  -18.2627 C   0  0  0  0  0  0  0  0  0  0  0  0
    3.3736  -48.6039  -17.7794 C   0  0  0  0  0  0  0  0  0  0  0  0
    2.7530  -48.6406  -16.4685 C   0  0  0  0  0  0  0  0  0  0  0  0
    3.3954  -49.0572  -15.2426 N   0  0  0  0  0  0  0  0  0  0  0  0
    1.5343  -48.3036  -16.3005 O   0  0  0  0  0  0  0  0  0  0  0  0
    4.0615  -48.3968  -14.7530 H   0  0  0  0  0  0  0  0  0  0  0  0
    3.2334  -49.9768  -14.8000 H   0  0  0  0  0  0  0  0  0  0  0  0
    1.4107  -52.2086  -22.9933 C   0  0  0  0  0  0  0  0  0  0  0  0
    1.1250  -53.2761  -23.5755 O   0  0  0  0  0  0  0  0  0  0  0  0
    1.6924  -51.1251  -23.9189 N   0  0  0  0  0  0  0  0  0  0  0  0
    1.8963  -50.2015  -23.5090 H   0  0  0  0  0  0  0  0  0  0  0  0
    1.6305  -51.3472  -25.3773 C   0  0  0  0  0  0  0  0  0  0  0  0
    2.5650  -50.5030  -26.0817 C   0  0  0  0  0  0  0  0  0  0  0  0
    2.8394  -50.8732  -27.2866 O   0  0  0  0  0  0  0  0  0  0  0  0
    3.2279  -49.3323  -25.6766 N   0  0  0  0  0  0  0  0  0  0  0  0
    3.1238  -48.9641  -24.7301 H   0  0  0  0  0  0  0  0  0  0  0  0
    4.1025  -48.6195  -26.6216 C   0  0  0  0  0  0  0  0  0  0  0  0
    5.4455  -48.4780  -25.9913 C   0  0  0  0  0  0  0  0  0  0  0  0
    5.7655  -47.2599  -25.6646 O   0  0  0  0  0  0  0  0  0  0  0  0
    6.3789  -49.4625  -25.7235 N   0  0  0  0  0  0  0  0  0  0  0  0
    6.1895  -50.4588  -25.9701 H   0  0  0  0  0  0  0  0  0  0  0  0
    7.6245  -49.1192  -25.1043 C   0  0  0  0  0  0  0  0  0  0  0  0
    8.7897  -49.1382  -26.0409 C   0  0  0  0  0  0  0  0  0  0  0  0
    8.8140  -48.1775  -27.1179 N   0  0  0  0  0  0  0  0  0  0  0  0
    9.7513  -49.9228  -25.9670 O   0  0  0  0  0  0  0  0  0  0  0  0
    8.5217  -48.4674  -28.0943 H   0  0  0  0  0  0  0  0  0  0  0  0
    9.1037  -47.1985  -27.0070 H   0  0  0  0  0  0  0  0  0  0  0  0
    7.9831  -50.0285  -23.9538 C   0  0  0  0  0  0  0  0  0  0  0  0
    8.2671  -49.2355  -22.6943 C   0  0  0  0  0  0  0  0  0  0  0  0
    7.6119  -49.9674  -21.5503 C   0  0  0  0  0  0  0  0  0  0  0  0
    6.7701  -51.0703  -21.7994 N   0  0  0  0  0  0  0  0  0  0  0  0
    7.8063  -49.6027  -20.3705 O   0  0  0  0  0  0  0  0  0  0  0  0
    5.7619  -50.9965  -21.5192 H   0  0  0  0  0  0  0  0  0  0  0  0
    7.1035  -51.9712  -22.2496 H   0  0  0  0  0  0  0  0  0  0  0  0
    3.5909  -47.3080  -27.0442 C   0  0  0  0  0  0  0  0  0  0  0  0
    3.5684  -47.0660  -28.5332 C   0  0  0  0  0  0  0  0  0  0  0  0
    2.9037  -45.8139  -28.9354 C   0  0  0  0  0  0  0  0  0  0  0  0
    1.9258  -45.7944  -29.9479 N   0  0  0  0  0  0  0  0  0  0  0  0
    3.2086  -44.7077  -28.3584 O   0  0  0  0  0  0  0  0  0  0  0  0
    2.1788  -45.9554  -30.9772 H   0  0  0  0  0  0  0  0  0  0  0  0
    0.9058  -45.6357  -29.7880 H   0  0  0  0  0  0  0  0  0  0  0  0
    0.2329  -51.4538  -25.8030 C   0  0  0  0  0  0  0  0  0  0  0  0
    0.2394  -52.3075  -27.0901 C   0  0  0  0  0  0  0  0  0  0  0  0
    0.2666  -53.7557  -26.7827 C   0  0  0  0  0  0  0  0  0  0  0  0
   -0.5315  -54.2755  -25.7631 N   0  0  0  0  0  0  0  0  0  0  0  0
    1.0148  -54.4960  -27.4525 O   0  0  0  0  0  0  0  0  0  0  0  0
   -0.3216  -54.0652  -24.7392 H   0  0  0  0  0  0  0  0  0  0  0  0
   -1.3447  -54.8769  -25.9902 H   0  0  0  0  0  0  0  0  0  0  0  0
    0.1290  -51.7342  -20.9511 C   0  0  0  0  0  0  0  0  0  0  0  0
   -1.6897  -53.4567  -21.1371 C   0  0  0  0  0  0  0  0  0  0  0  0
   -0.6291  -52.7959  -20.2672 C   0  0  0  0  0  0  0  0  0  0  0  0
    0.3889  -53.9390  -19.9941 C   0  0  0  0  0  0  0  0  0  0  0  0
 85 86  1  0  0  0
 86 87  1  0  0  0
 86 84  1  0  0  0
 84  1  1  0  0  0
  1  2  1  0  0  0
  2  3  1  0  0  0
  3  4  2  0  0  0
  3  6  1  0  0  0
  6 36  1  0  0  0
 36 37  1  0  0  0
 37 38  1  0  0  0
 38 39  1  0  0  0
 38 40  2  0  0  0
  6  7  1  0  0  0
  7  8  1  0  0  0
  8  9  2  0  0  0
  8 11  1  0  0  0
 11 29  1  0  0  0
 29 30  1  0  0  0
 30 31  1  0  0  0
 31 32  1  0  0  0
 31 33  2  0  0  0
 11 12  1  0  0  0
 12 13  1  0  0  0
 13 14  2  0  0  0
 13 16  1  0  0  0
 16 22  1  0  0  0
 22 23  1  0  0  0
 23 24  1  0  0  0
 24 25  1  0  0  0
 24 26  2  0  0  0
 16 17  1  0  0  0
 17 18  1  0  0  0
 18 19  1  0  0  0
 18 20  2  0  0  0
  1 43  1  0  0  0
 43 44  2  0  0  0
 43 45  1  0  0  0
 45 47  1  0  0  0
 47 77  1  0  0  0
 77 78  1  0  0  0
 78 79  1  0  0  0
 79 80  1  0  0  0
 79 81  2  0  0  0
 47 48  1  0  0  0
 48 49  2  0  0  0
 48 50  1  0  0  0
 50 52  1  0  0  0
 52 70  1  0  0  0
 70 71  1  0  0  0
 71 72  1  0  0  0
 72 73  1  0  0  0
 72 74  2  0  0  0
 52 53  1  0  0  0
 53 54  2  0  0  0
 53 55  1  0  0  0
 55 57  1  0  0  0
 57 63  1  0  0  0
 63 64  1  0  0  0
 64 65  1  0  0  0
 65 66  1  0  0  0
 65 67  2  0  0  0
 57 58  1  0  0  0
 58 59  1  0  0  0
 58 60  2  0  0  0
  2  5  1  0  0  0
 39 41  1  0  0  0
 39 42  1  0  0  0
  7 10  1  0  0  0
 32 34  1  0  0  0
 32 35  1  0  0  0
 12 15  1  0  0  0
 25 27  1  0  0  0
 25 28  1  0  0  0
 17 21  1  0  0  0
 45 46  1  0  0  0
 80 82  1  0  0  0
 80 83  1  0  0  0
 50 51  1  0  0  0
 73 75  1  0  0  0
 73 76  1  0  0  0
 55 56  1  0  0  0
 66 68  1  0  0  0
 66 69  1  0  0  0
 59 61  1  0  0  0
 59 62  1  0  0  0
M  END
> <minimizedAffinity>
-5.93671

> <CNNscore>
0.2379274070

> <CNNaffinity>
7.5075325966

> <CNN_VS>
1.7862477303

> <CNNaffinity_variance>
0.9018351436

$$$$
[H]N([H])C(=O)C([H])([H])C([H])([H])[C@@]([H])(C(=O)N([H])[H])N([H])C(=O)[C@@]([H])(N([H])C(=O)[C@@]([H])(N([H])C(=O)[C@@]([H])(N([H])C(=O)[C@@]([H])(N([H])C(=O)[C@@]([H])(N([H])C(=O)[C@@]([H])(N([H])C(=O)C([H])([H])[H])C([H])([H])C([H])([H])C(=O)N([H])[H])C([H])([H])C([H])([H])C(=O)N([H])[H])C([H])([H])C([H])([H])C(=O)N([H])[H])C([H])([H])C([H])(C([H])([H])[H])C([H])([H])[H])C([H])([H])C([H])([H])C(=O)N([H])[H])C([H])([H])C([H])([H])C(=O)N([H])[H]


 87 86  0  0  0  0  0  0  0  0999 V2000
    2.2737  -51.2692  -26.4286 C   0  0  0  0  0  0  0  0  0  0  0  0
    3.4954  -50.6114  -27.0166 N   0  0  0  0  0  0  0  0  0  0  0  0
    3.5451  -49.1584  -26.8758 C   0  0  0  0  0  0  0  0  0  0  0  0
    2.5992  -48.6914  -26.2471 O   0  0  0  0  0  0  0  0  0  0  0  0
    4.1795  -51.1724  -27.4586 H   0  0  0  0  0  0  0  0  0  0  0  0
    4.6268  -48.3503  -27.4578 C   0  0  0  0  0  0  0  0  0  0  0  0
    5.6584  -48.0391  -26.5341 N   0  0  0  0  0  0  0  0  0  0  0  0
    6.1860  -46.8885  -26.0047 C   0  0  0  0  0  0  0  0  0  0  0  0
    5.7372  -45.7277  -26.2513 O   0  0  0  0  0  0  0  0  0  0  0  0
    6.1379  -48.9553  -26.1504 H   0  0  0  0  0  0  0  0  0  0  0  0
    7.3652  -46.7935  -25.0527 C   0  0  0  0  0  0  0  0  0  0  0  0
    7.0240  -47.4242  -23.8423 N   0  0  0  0  0  0  0  0  0  0  0  0
    6.4151  -46.9291  -22.6920 C   0  0  0  0  0  0  0  0  0  0  0  0
    6.0617  -45.7627  -22.5371 O   0  0  0  0  0  0  0  0  0  0  0  0
    7.2839  -48.4784  -23.7858 H   0  0  0  0  0  0  0  0  0  0  0  0
    6.1429  -47.8857  -21.5230 C   0  0  0  0  0  0  0  0  0  0  0  0
    7.2584  -47.9360  -20.6448 N   0  0  0  0  0  0  0  0  0  0  0  0
    8.4958  -48.6320  -20.8903 C   0  0  0  0  0  0  0  0  0  0  0  0
    9.5676  -48.6235  -19.8738 C   0  0  0  0  0  0  0  0  0  0  0  0
    8.6538  -49.2472  -21.9673 O   0  0  0  0  0  0  0  0  0  0  0  0
    7.1995  -47.4365  -19.7098 H   0  0  0  0  0  0  0  0  0  0  0  0
    5.0229  -47.1528  -20.7583 C   0  0  0  0  0  0  0  0  0  0  0  0
    4.0742  -48.1029  -20.0874 C   0  0  0  0  0  0  0  0  0  0  0  0
    4.5450  -48.3753  -18.7103 C   0  0  0  0  0  0  0  0  0  0  0  0
    4.2008  -49.4940  -17.9394 N   0  0  0  0  0  0  0  0  0  0  0  0
    5.3319  -47.5317  -18.1736 O   0  0  0  0  0  0  0  0  0  0  0  0
    4.1171  -50.4343  -18.3869 H   0  0  0  0  0  0  0  0  0  0  0  0
    4.0191  -49.3940  -16.8958 H   0  0  0  0  0  0  0  0  0  0  0  0
    8.6888  -46.9989  -25.6418 C   0  0  0  0  0  0  0  0  0  0  0  0
    8.7366  -47.9456  -26.8122 C   0  0  0  0  0  0  0  0  0  0  0  0
    9.1659  -49.3030  -26.4179 C   0  0  0  0  0  0  0  0  0  0  0  0
    9.2935  -50.3208  -27.4233 N   0  0  0  0  0  0  0  0  0  0  0  0
    9.4246  -49.6083  -25.2376 O   0  0  0  0  0  0  0  0  0  0  0  0
    9.0352  -50.0884  -28.4122 H   0  0  0  0  0  0  0  0  0  0  0  0
    9.6401  -51.2932  -27.1795 H   0  0  0  0  0  0  0  0  0  0  0  0
    5.0787  -48.9105  -28.7574 C   0  0  0  0  0  0  0  0  0  0  0  0
    4.9292  -48.0744  -29.9697 C   0  0  0  0  0  0  0  0  0  0  0  0
    5.6924  -48.4286  -31.1516 C   0  0  0  0  0  0  0  0  0  0  0  0
    5.1662  -48.5409  -32.4931 N   0  0  0  0  0  0  0  0  0  0  0  0
    6.9389  -48.6908  -31.0839 O   0  0  0  0  0  0  0  0  0  0  0  0
    4.9743  -47.6637  -33.0527 H   0  0  0  0  0  0  0  0  0  0  0  0
    4.9704  -49.4454  -32.9530 H   0  0  0  0  0  0  0  0  0  0  0  0
    2.5951  -51.7308  -25.1004 C   0  0  0  0  0  0  0  0  0  0  0  0
    2.8769  -52.9115  -24.8059 O   0  0  0  0  0  0  0  0  0  0  0  0
    2.6362  -50.8430  -23.9514 N   0  0  0  0  0  0  0  0  0  0  0  0
    2.4542  -49.8435  -24.1264 H   0  0  0  0  0  0  0  0  0  0  0  0
    2.9786  -51.3621  -22.6122 C   0  0  0  0  0  0  0  0  0  0  0  0
    1.8359  -51.3494  -21.7312 C   0  0  0  0  0  0  0  0  0  0  0  0
    0.7353  -50.9396  -22.2651 O   0  0  0  0  0  0  0  0  0  0  0  0
    1.7159  -51.7168  -20.3804 N   0  0  0  0  0  0  0  0  0  0  0  0
    2.5271  -52.0172  -19.8382 H   0  0  0  0  0  0  0  0  0  0  0  0
    0.4028  -51.6604  -19.7181 C   0  0  0  0  0  0  0  0  0  0  0  0
    0.5267  -50.7813  -18.5211 C   0  0  0  0  0  0  0  0  0  0  0  0
    1.1512  -49.6599  -18.7342 O   0  0  0  0  0  0  0  0  0  0  0  0
    0.0751  -51.0104  -17.2343 N   0  0  0  0  0  0  0  0  0  0  0  0
   -0.4242  -51.8946  -16.9935 H   0  0  0  0  0  0  0  0  0  0  0  0
    0.2944  -50.0297  -16.2131 C   0  0  0  0  0  0  0  0  0  0  0  0
    1.4530  -50.3373  -15.3196 C   0  0  0  0  0  0  0  0  0  0  0  0
    1.2402  -51.2416  -14.2149 N   0  0  0  0  0  0  0  0  0  0  0  0
    2.5986  -49.8728  -15.4519 O   0  0  0  0  0  0  0  0  0  0  0  0
    1.0884  -50.8598  -13.2382 H   0  0  0  0  0  0  0  0  0  0  0  0
    1.2242  -52.2645  -14.3056 H   0  0  0  0  0  0  0  0  0  0  0  0
   -0.9023  -49.8354  -15.3135 C   0  0  0  0  0  0  0  0  0  0  0  0
   -2.0182  -50.7973  -15.6678 C   0  0  0  0  0  0  0  0  0  0  0  0
   -2.3526  -51.5710  -14.4175 C   0  0  0  0  0  0  0  0  0  0  0  0
   -3.3950  -52.5200  -14.4248 N   0  0  0  0  0  0  0  0  0  0  0  0
   -1.7114  -51.3773  -13.3620 O   0  0  0  0  0  0  0  0  0  0  0  0
   -4.2212  -52.3523  -13.8005 H   0  0  0  0  0  0  0  0  0  0  0  0
   -3.3849  -53.3958  -15.0232 H   0  0  0  0  0  0  0  0  0  0  0  0
   -0.1378  -52.9736  -19.3393 C   0  0  0  0  0  0  0  0  0  0  0  0
    0.1307  -54.0946  -20.3128 C   0  0  0  0  0  0  0  0  0  0  0  0
   -0.8231  -54.1676  -21.4336 C   0  0  0  0  0  0  0  0  0  0  0  0
   -0.4421  -53.8265  -22.7452 N   0  0  0  0  0  0  0  0  0  0  0  0
   -2.0314  -54.5517  -21.2282 O   0  0  0  0  0  0  0  0  0  0  0  0
   -0.2370  -52.8121  -23.0252 H   0  0  0  0  0  0  0  0  0  0  0  0
   -0.3225  -54.5084  -23.5272 H   0  0  0  0  0  0  0  0  0  0  0  0
    4.2716  -50.8207  -22.1871 C   0  0  0  0  0  0  0  0  0  0  0  0
    5.3468  -51.7488  -22.7941 C   0  0  0  0  0  0  0  0  0  0  0  0
    6.2204  -51.0219  -23.7434 C   0  0  0  0  0  0  0  0  0  0  0  0
    7.5987  -51.2382  -23.7409 N   0  0  0  0  0  0  0  0  0  0  0  0
    5.6986  -50.2167  -24.5409 O   0  0  0  0  0  0  0  0  0  0  0  0
    8.2075  -50.8960  -22.9354 H   0  0  0  0  0  0  0  0  0  0  0  0
    8.0513  -51.7384  -24.5280 H   0  0  0  0  0  0  0  0  0  0  0  0
    1.9162  -52.3575  -27.3773 C   0  0  0  0  0  0  0  0  0  0  0  0
   -0.4741  -52.0125  -26.6873 C   0  0  0  0  0  0  0  0  0  0  0  0
    0.5425  -52.8881  -27.4069 C   0  0  0  0  0  0  0  0  0  0  0  0
    0.0937  -52.8282  -28.8944 C   0  0  0  0  0  0  0  0  0  0  0  0
 85 86  1  0  0  0
 86 87  1  0  0  0
 86 84  1  0  0  0
 84  1  1  0  0  0
  1  2  1  0  0  0
  2  3  1  0  0  0
  3  4  2  0  0  0
  3  6  1  0  0  0
  6 36  1  0  0  0
 36 37  1  0  0  0
 37 38  1  0  0  0
 38 39  1  0  0  0
 38 40  2  0  0  0
  6  7  1  0  0  0
  7  8  1  0  0  0
  8  9  2  0  0  0
  8 11  1  0  0  0
 11 29  1  0  0  0
 29 30  1  0  0  0
 30 31  1  0  0  0
 31 32  1  0  0  0
 31 33  2  0  0  0
 11 12  1  0  0  0
 12 13  1  0  0  0
 13 14  2  0  0  0
 13 16  1  0  0  0
 16 22  1  0  0  0
 22 23  1  0  0  0
 23 24  1  0  0  0
 24 25  1  0  0  0
 24 26  2  0  0  0
 16 17  1  0  0  0
 17 18  1  0  0  0
 18 19  1  0  0  0
 18 20  2  0  0  0
  1 43  1  0  0  0
 43 44  2  0  0  0
 43 45  1  0  0  0
 45 47  1  0  0  0
 47 77  1  0  0  0
 77 78  1  0  0  0
 78 79  1  0  0  0
 79 80  1  0  0  0
 79 81  2  0  0  0
 47 48  1  0  0  0
 48 49  2  0  0  0
 48 50  1  0  0  0
 50 52  1  0  0  0
 52 70  1  0  0  0
 70 71  1  0  0  0
 71 72  1  0  0  0
 72 73  1  0  0  0
 72 74  2  0  0  0
 52 53  1  0  0  0
 53 54  2  0  0  0
 53 55  1  0  0  0
 55 57  1  0  0  0
 57 63  1  0  0  0
 63 64  1  0  0  0
 64 65  1  0  0  0
 65 66  1  0  0  0
 65 67  2  0  0  0
 57 58  1  0  0  0
 58 59  1  0  0  0
 58 60  2  0  0  0
  2  5  1  0  0  0
 39 41  1  0  0  0
 39 42  1  0  0  0
  7 10  1  0  0  0
 32 34  1  0  0  0
 32 35  1  0  0  0
 12 15  1  0  0  0
 25 27  1  0  0  0
 25 28  1  0  0  0
 17 21  1  0  0  0
 45 46  1  0  0  0
 80 82  1  0  0  0
 80 83  1  0  0  0
 50 51  1  0  0  0
 73 75  1  0  0  0
 73 76  1  0  0  0
 55 56  1  0  0  0
 66 68  1  0  0  0
 66 69  1  0  0  0
 59 61  1  0  0  0
 59 62  1  0  0  0
M  END
> <minimizedAffinity>
-6.27111

> <CNNscore>
0.2333238125

> <CNNaffinity>
7.6128416061

> <CNN_VS>
1.7762572765

> <CNNaffinity_variance>
0.3145715892

$$$$
[H]N([H])C(=O)C([H])([H])C([H])([H])[C@@]([H])(C(=O)N([H])[H])N([H])C(=O)[C@@]([H])(N([H])C(=O)[C@@]([H])(N([H])C(=O)[C@@]([H])(N([H])C(=O)[C@@]([H])(N([H])C(=O)[C@@]([H])(N([H])C(=O)[C@@]([H])(N([H])C(=O)C([H])([H])[H])C([H])([H])C([H])([H])C(=O)N([H])[H])C([H])([H])C([H])([H])C(=O)N([H])[H])C([H])([H])C([H])([H])C(=O)N([H])[H])C([H])([H])C([H])(C([H])([H])[H])C([H])([H])[H])C([H])([H])C([H])([H])C(=O)N([H])[H])C([H])([H])C([H])([H])C(=O)N([H])[H]


 87 86  0  0  0  0  0  0  0  0999 V2000
    3.1477  -50.9965  -25.7662 C   0  0  0  0  0  0  0  0  0  0  0  0
    2.2498  -50.9347  -24.5576 N   0  0  0  0  0  0  0  0  0  0  0  0
    2.3489  -52.0773  -23.6530 C   0  0  0  0  0  0  0  0  0  0  0  0
    3.1957  -52.9006  -23.9898 O   0  0  0  0  0  0  0  0  0  0  0  0
    1.6533  -50.1548  -24.4393 H   0  0  0  0  0  0  0  0  0  0  0  0
    1.4909  -52.2159  -22.4670 C   0  0  0  0  0  0  0  0  0  0  0  0
    1.6995  -51.2004  -21.4978 N   0  0  0  0  0  0  0  0  0  0  0  0
    2.2000  -51.1516  -20.2211 C   0  0  0  0  0  0  0  0  0  0  0  0
    2.6839  -52.1549  -19.6140 O   0  0  0  0  0  0  0  0  0  0  0  0
    1.3866  -50.2147  -21.8813 H   0  0  0  0  0  0  0  0  0  0  0  0
    2.2690  -49.9260  -19.3274 C   0  0  0  0  0  0  0  0  0  0  0  0
    3.1573  -48.9964  -19.8985 N   0  0  0  0  0  0  0  0  0  0  0  0
    3.0004  -48.1173  -20.9670 C   0  0  0  0  0  0  0  0  0  0  0  0
    1.9790  -48.0163  -21.6423 O   0  0  0  0  0  0  0  0  0  0  0  0
    4.1400  -48.9573  -19.4350 H   0  0  0  0  0  0  0  0  0  0  0  0
    4.1628  -47.1889  -21.3444 C   0  0  0  0  0  0  0  0  0  0  0  0
    5.3889  -47.9058  -21.3744 N   0  0  0  0  0  0  0  0  0  0  0  0
    5.5834  -49.2237  -21.9230 C   0  0  0  0  0  0  0  0  0  0  0  0
    6.9128  -49.8649  -21.8630 C   0  0  0  0  0  0  0  0  0  0  0  0
    4.6181  -49.8225  -22.4455 O   0  0  0  0  0  0  0  0  0  0  0  0
    6.2546  -47.4615  -20.9496 H   0  0  0  0  0  0  0  0  0  0  0  0
    3.8327  -46.8345  -22.8078 C   0  0  0  0  0  0  0  0  0  0  0  0
    4.8953  -45.9857  -23.4427 C   0  0  0  0  0  0  0  0  0  0  0  0
    4.3254  -45.2804  -24.6132 C   0  0  0  0  0  0  0  0  0  0  0  0
    3.4039  -45.8219  -25.5197 N   0  0  0  0  0  0  0  0  0  0  0  0
    4.6930  -44.0801  -24.8205 O   0  0  0  0  0  0  0  0  0  0  0  0
    2.6365  -46.4440  -25.1797 H   0  0  0  0  0  0  0  0  0  0  0  0
    3.4804  -45.6070  -26.5590 H   0  0  0  0  0  0  0  0  0  0  0  0
    1.0018  -49.4747  -18.7514 C   0  0  0  0  0  0  0  0  0  0  0  0
    0.6315  -50.0995  -17.4320 C   0  0  0  0  0  0  0  0  0  0  0  0
    1.2729  -49.4175  -16.2893 C   0  0  0  0  0  0  0  0  0  0  0  0
    1.3912  -47.9861  -16.2998 N   0  0  0  0  0  0  0  0  0  0  0  0
    1.7221  -50.0362  -15.3050 O   0  0  0  0  0  0  0  0  0  0  0  0
    1.0583  -47.4585  -17.1421 H   0  0  0  0  0  0  0  0  0  0  0  0
    1.8080  -47.4635  -15.4762 H   0  0  0  0  0  0  0  0  0  0  0  0
    0.0755  -52.4537  -22.8505 C   0  0  0  0  0  0  0  0  0  0  0  0
   -0.2248  -53.5941  -23.7451 C   0  0  0  0  0  0  0  0  0  0  0  0
   -0.9940  -54.7042  -23.2148 C   0  0  0  0  0  0  0  0  0  0  0  0
   -1.3929  -55.8821  -23.9513 N   0  0  0  0  0  0  0  0  0  0  0  0
   -1.4025  -54.7125  -22.0064 O   0  0  0  0  0  0  0  0  0  0  0  0
   -0.6842  -56.6456  -24.1366 H   0  0  0  0  0  0  0  0  0  0  0  0
   -2.3511  -56.0322  -24.3078 H   0  0  0  0  0  0  0  0  0  0  0  0
    3.8520  -49.7429  -25.8794 C   0  0  0  0  0  0  0  0  0  0  0  0
    3.3265  -48.6169  -25.7516 O   0  0  0  0  0  0  0  0  0  0  0  0
    5.2779  -49.6671  -26.1464 N   0  0  0  0  0  0  0  0  0  0  0  0
    5.7870  -50.5602  -26.2230 H   0  0  0  0  0  0  0  0  0  0  0  0
    5.9557  -48.3590  -26.2455 C   0  0  0  0  0  0  0  0  0  0  0  0
    6.1799  -47.9815  -27.6199 C   0  0  0  0  0  0  0  0  0  0  0  0
    6.1470  -46.7132  -27.8536 O   0  0  0  0  0  0  0  0  0  0  0  0
    6.4365  -48.7674  -28.7561 N   0  0  0  0  0  0  0  0  0  0  0  0
    6.4450  -49.7870  -28.7051 H   0  0  0  0  0  0  0  0  0  0  0  0
    6.6873  -48.1211  -30.0543 C   0  0  0  0  0  0  0  0  0  0  0  0
    5.3967  -48.0604  -30.7971 C   0  0  0  0  0  0  0  0  0  0  0  0
    4.4992  -48.9123  -30.3951 O   0  0  0  0  0  0  0  0  0  0  0  0
    5.0456  -47.2311  -31.8465 N   0  0  0  0  0  0  0  0  0  0  0  0
    5.7226  -46.5324  -32.2241 H   0  0  0  0  0  0  0  0  0  0  0  0
    3.7408  -47.3283  -32.4305 C   0  0  0  0  0  0  0  0  0  0  0  0
    3.7551  -47.4882  -33.9169 C   0  0  0  0  0  0  0  0  0  0  0  0
    4.4153  -48.6459  -34.4713 N   0  0  0  0  0  0  0  0  0  0  0  0
    3.2384  -46.6965  -34.7243 O   0  0  0  0  0  0  0  0  0  0  0  0
    5.3971  -48.5611  -34.8607 H   0  0  0  0  0  0  0  0  0  0  0  0
    3.9912  -49.5800  -34.5195 H   0  0  0  0  0  0  0  0  0  0  0  0
    2.8706  -46.1305  -32.1355 C   0  0  0  0  0  0  0  0  0  0  0  0
    2.0466  -46.3450  -30.8821 C   0  0  0  0  0  0  0  0  0  0  0  0
    2.7421  -45.6136  -29.7617 C   0  0  0  0  0  0  0  0  0  0  0  0
    3.4832  -44.4442  -30.0268 N   0  0  0  0  0  0  0  0  0  0  0  0
    2.6709  -46.0378  -28.5879 O   0  0  0  0  0  0  0  0  0  0  0  0
    4.5137  -44.4564  -29.8309 H   0  0  0  0  0  0  0  0  0  0  0  0
    3.0530  -43.5525  -30.4078 H   0  0  0  0  0  0  0  0  0  0  0  0
    7.7188  -48.7816  -30.8667 C   0  0  0  0  0  0  0  0  0  0  0  0
    8.5910  -47.8626  -31.6859 C   0  0  0  0  0  0  0  0  0  0  0  0
    8.4340  -48.0148  -33.1431 C   0  0  0  0  0  0  0  0  0  0  0  0
    9.5432  -47.9739  -34.0092 N   0  0  0  0  0  0  0  0  0  0  0  0
    7.2678  -48.1925  -33.6511 O   0  0  0  0  0  0  0  0  0  0  0  0
   10.0802  -47.0642  -34.1923 H   0  0  0  0  0  0  0  0  0  0  0  0
    9.9292  -48.7978  -34.5221 H   0  0  0  0  0  0  0  0  0  0  0  0
    7.0288  -48.2809  -25.2514 C   0  0  0  0  0  0  0  0  0  0  0  0
    7.7807  -49.6282  -25.3238 C   0  0  0  0  0  0  0  0  0  0  0  0
    9.0604  -49.4988  -26.0574 C   0  0  0  0  0  0  0  0  0  0  0  0
    9.2717  -50.2114  -27.2382 N   0  0  0  0  0  0  0  0  0  0  0  0
    9.9398  -48.7422  -25.5984 O   0  0  0  0  0  0  0  0  0  0  0  0
    9.3979  -51.2700  -27.2264 H   0  0  0  0  0  0  0  0  0  0  0  0
    9.3086  -49.7168  -28.1484 H   0  0  0  0  0  0  0  0  0  0  0  0
    2.2467  -51.2899  -26.9127 C   0  0  0  0  0  0  0  0  0  0  0  0
   -0.0501  -52.2708  -27.1802 C   0  0  0  0  0  0  0  0  0  0  0  0
    1.4289  -52.5149  -26.9130 C   0  0  0  0  0  0  0  0  0  0  0  0
    1.8955  -53.3393  -28.1460 C   0  0  0  0  0  0  0  0  0  0  0  0
 85 86  1  0  0  0
 86 87  1  0  0  0
 86 84  1  0  0  0
 84  1  1  0  0  0
  1  2  1  0  0  0
  2  3  1  0  0  0
  3  4  2  0  0  0
  3  6  1  0  0  0
  6 36  1  0  0  0
 36 37  1  0  0  0
 37 38  1  0  0  0
 38 39  1  0  0  0
 38 40  2  0  0  0
  6  7  1  0  0  0
  7  8  1  0  0  0
  8  9  2  0  0  0
  8 11  1  0  0  0
 11 29  1  0  0  0
 29 30  1  0  0  0
 30 31  1  0  0  0
 31 32  1  0  0  0
 31 33  2  0  0  0
 11 12  1  0  0  0
 12 13  1  0  0  0
 13 14  2  0  0  0
 13 16  1  0  0  0
 16 22  1  0  0  0
 22 23  1  0  0  0
 23 24  1  0  0  0
 24 25  1  0  0  0
 24 26  2  0  0  0
 16 17  1  0  0  0
 17 18  1  0  0  0
 18 19  1  0  0  0
 18 20  2  0  0  0
  1 43  1  0  0  0
 43 44  2  0  0  0
 43 45  1  0  0  0
 45 47  1  0  0  0
 47 77  1  0  0  0
 77 78  1  0  0  0
 78 79  1  0  0  0
 79 80  1  0  0  0
 79 81  2  0  0  0
 47 48  1  0  0  0
 48 49  2  0  0  0
 48 50  1  0  0  0
 50 52  1  0  0  0
 52 70  1  0  0  0
 70 71  1  0  0  0
 71 72  1  0  0  0
 72 73  1  0  0  0
 72 74  2  0  0  0
 52 53  1  0  0  0
 53 54  2  0  0  0
 53 55  1  0  0  0
 55 57  1  0  0  0
 57 63  1  0  0  0
 63 64  1  0  0  0
 64 65  1  0  0  0
 65 66  1  0  0  0
 65 67  2  0  0  0
 57 58  1  0  0  0
 58 59  1  0  0  0
 58 60  2  0  0  0
  2  5  1  0  0  0
 39 41  1  0  0  0
 39 42  1  0  0  0
  7 10  1  0  0  0
 32 34  1  0  0  0
 32 35  1  0  0  0
 12 15  1  0  0  0
 25 27  1  0  0  0
 25 28  1  0  0  0
 17 21  1  0  0  0
 45 46  1  0  0  0
 80 82  1  0  0  0
 80 83  1  0  0  0
 50 51  1  0  0  0
 73 75  1  0  0  0
 73 76  1  0  0  0
 55 56  1  0  0  0
 66 68  1  0  0  0
 66 69  1  0  0  0
 59 61  1  0  0  0
 59 62  1  0  0  0
M  END
> <minimizedAffinity>
-6.76991

> <CNNscore>
0.2306621820

> <CNNaffinity>
7.5757651329

> <CNN_VS>
1.7474424839

> <CNNaffinity_variance>
0.5135341287

$$$$
[H]N([H])C(=O)C([H])([H])C([H])([H])[C@@]([H])(C(=O)N([H])[H])N([H])C(=O)[C@@]([H])(N([H])C(=O)[C@@]([H])(N([H])C(=O)[C@@]([H])(N([H])C(=O)[C@@]([H])(N([H])C(=O)[C@@]([H])(N([H])C(=O)[C@@]([H])(N([H])C(=O)C([H])([H])[H])C([H])([H])C([H])([H])C(=O)N([H])[H])C([H])([H])C([H])([H])C(=O)N([H])[H])C([H])([H])C([H])([H])C(=O)N([H])[H])C([H])([H])C([H])(C([H])([H])[H])C([H])([H])[H])C([H])([H])C([H])([H])C(=O)N([H])[H])C([H])([H])C([H])([H])C(=O)N([H])[H]


 87 86  0  0  0  0  0  0  0  0999 V2000
    2.4590  -51.0769  -26.4900 C   0  0  0  0  0  0  0  0  0  0  0  0
    3.6646  -50.4695  -27.1596 N   0  0  0  0  0  0  0  0  0  0  0  0
    3.7564  -49.0146  -27.0690 C   0  0  0  0  0  0  0  0  0  0  0  0
    2.8552  -48.5040  -26.4091 O   0  0  0  0  0  0  0  0  0  0  0  0
    4.3116  -51.0615  -27.6169 H   0  0  0  0  0  0  0  0  0  0  0  0
    4.8262  -48.2532  -27.7305 C   0  0  0  0  0  0  0  0  0  0  0  0
    5.8519  -47.8341  -26.8437 N   0  0  0  0  0  0  0  0  0  0  0  0
    6.7646  -46.8100  -26.8145 C   0  0  0  0  0  0  0  0  0  0  0  0
    6.8220  -45.8906  -27.6868 O   0  0  0  0  0  0  0  0  0  0  0  0
    5.9127  -48.4974  -25.9645 H   0  0  0  0  0  0  0  0  0  0  0  0
    7.8393  -46.5914  -25.7642 C   0  0  0  0  0  0  0  0  0  0  0  0
    7.2606  -46.7201  -24.4883 N   0  0  0  0  0  0  0  0  0  0  0  0
    7.1741  -45.8222  -23.4274 C   0  0  0  0  0  0  0  0  0  0  0  0
    7.6395  -44.6852  -23.4368 O   0  0  0  0  0  0  0  0  0  0  0  0
    6.8069  -47.6873  -24.2864 H   0  0  0  0  0  0  0  0  0  0  0  0
    6.4423  -46.2496  -22.1478 C   0  0  0  0  0  0  0  0  0  0  0  0
    5.2245  -46.9101  -22.4623 N   0  0  0  0  0  0  0  0  0  0  0  0
    3.8998  -46.3839  -22.2525 C   0  0  0  0  0  0  0  0  0  0  0  0
    2.7147  -47.1933  -22.6021 C   0  0  0  0  0  0  0  0  0  0  0  0
    3.7606  -45.2397  -21.7678 O   0  0  0  0  0  0  0  0  0  0  0  0
    5.2617  -47.8863  -22.8780 H   0  0  0  0  0  0  0  0  0  0  0  0
    7.3856  -47.3284  -21.5798 C   0  0  0  0  0  0  0  0  0  0  0  0
    6.7432  -48.1281  -20.4842 C   0  0  0  0  0  0  0  0  0  0  0  0
    7.7624  -48.9911  -19.8447 C   0  0  0  0  0  0  0  0  0  0  0  0
    8.3007  -48.8024  -18.5646 N   0  0  0  0  0  0  0  0  0  0  0  0
    8.1892  -49.9935  -20.5020 O   0  0  0  0  0  0  0  0  0  0  0  0
    7.6902  -48.4797  -17.7806 H   0  0  0  0  0  0  0  0  0  0  0  0
    9.3334  -48.9825  -18.3823 H   0  0  0  0  0  0  0  0  0  0  0  0
    9.1457  -47.1884  -26.0431 C   0  0  0  0  0  0  0  0  0  0  0  0
    9.3116  -48.6186  -25.6010 C   0  0  0  0  0  0  0  0  0  0  0  0
    9.9997  -49.4427  -26.6157 C   0  0  0  0  0  0  0  0  0  0  0  0
    9.2496  -50.4169  -27.3582 N   0  0  0  0  0  0  0  0  0  0  0  0
   11.2168  -49.3296  -26.8586 O   0  0  0  0  0  0  0  0  0  0  0  0
    8.2353  -50.5528  -27.1312 H   0  0  0  0  0  0  0  0  0  0  0  0
    9.7046  -50.9943  -28.1227 H   0  0  0  0  0  0  0  0  0  0  0  0
    5.2880  -48.9353  -28.9668 C   0  0  0  0  0  0  0  0  0  0  0  0
    5.6053  -48.1024  -30.1486 C   0  0  0  0  0  0  0  0  0  0  0  0
    4.5832  -47.9244  -31.1628 C   0  0  0  0  0  0  0  0  0  0  0  0
    4.7108  -48.2744  -32.5593 N   0  0  0  0  0  0  0  0  0  0  0  0
    3.4504  -47.4098  -30.8816 O   0  0  0  0  0  0  0  0  0  0  0  0
    4.6254  -49.2874  -32.8525 H   0  0  0  0  0  0  0  0  0  0  0  0
    4.8744  -47.5798  -33.3068 H   0  0  0  0  0  0  0  0  0  0  0  0
    2.8332  -51.4935  -25.1608 C   0  0  0  0  0  0  0  0  0  0  0  0
    3.2949  -52.6172  -24.8704 O   0  0  0  0  0  0  0  0  0  0  0  0
    2.7190  -50.6205  -24.0054 N   0  0  0  0  0  0  0  0  0  0  0  0
    2.3832  -49.6609  -24.1761 H   0  0  0  0  0  0  0  0  0  0  0  0
    3.1230  -51.0906  -22.6652 C   0  0  0  0  0  0  0  0  0  0  0  0
    1.9832  -51.2551  -21.7959 C   0  0  0  0  0  0  0  0  0  0  0  0
    0.8853  -50.7306  -22.2245 O   0  0  0  0  0  0  0  0  0  0  0  0
    1.8635  -51.9008  -20.5538 N   0  0  0  0  0  0  0  0  0  0  0  0
    2.6731  -52.3175  -20.0922 H   0  0  0  0  0  0  0  0  0  0  0  0
    0.5530  -51.9744  -19.8879 C   0  0  0  0  0  0  0  0  0  0  0  0
    0.7075  -51.4430  -18.5042 C   0  0  0  0  0  0  0  0  0  0  0  0
   -0.3562  -51.5457  -17.7620 O   0  0  0  0  0  0  0  0  0  0  0  0
    1.8190  -50.8579  -17.9258 N   0  0  0  0  0  0  0  0  0  0  0  0
    2.7014  -50.7355  -18.4694 H   0  0  0  0  0  0  0  0  0  0  0  0
    1.7659  -50.4081  -16.5665 C   0  0  0  0  0  0  0  0  0  0  0  0
    1.3759  -48.9722  -16.4205 C   0  0  0  0  0  0  0  0  0  0  0  0
   -0.0299  -48.6511  -16.3575 N   0  0  0  0  0  0  0  0  0  0  0  0
    2.1727  -48.0207  -16.3477 O   0  0  0  0  0  0  0  0  0  0  0  0
   -0.5324  -48.2964  -17.2203 H   0  0  0  0  0  0  0  0  0  0  0  0
   -0.6020  -48.7429  -15.5095 H   0  0  0  0  0  0  0  0  0  0  0  0
    3.0776  -50.5733  -15.8377 C   0  0  0  0  0  0  0  0  0  0  0  0
    2.8566  -50.9453  -14.3856 C   0  0  0  0  0  0  0  0  0  0  0  0
    3.8420  -52.0365  -14.0507 C   0  0  0  0  0  0  0  0  0  0  0  0
    4.2123  -52.2751  -12.7116 N   0  0  0  0  0  0  0  0  0  0  0  0
    4.3421  -52.7383  -14.9562 O   0  0  0  0  0  0  0  0  0  0  0  0
    5.2168  -52.1353  -12.4436 H   0  0  0  0  0  0  0  0  0  0  0  0
    3.5306  -52.5933  -11.9637 H   0  0  0  0  0  0  0  0  0  0  0  0
   -0.0336  -53.3218  -19.8599 C   0  0  0  0  0  0  0  0  0  0  0  0
   -1.3157  -53.4909  -20.6372 C   0  0  0  0  0  0  0  0  0  0  0  0
   -1.1471  -54.1230  -21.9575 C   0  0  0  0  0  0  0  0  0  0  0  0
   -0.3075  -53.5617  -22.9383 N   0  0  0  0  0  0  0  0  0  0  0  0
   -1.7694  -55.2116  -22.2355 O   0  0  0  0  0  0  0  0  0  0  0  0
   -0.5619  -52.6496  -23.4409 H   0  0  0  0  0  0  0  0  0  0  0  0
    0.6059  -53.9664  -23.2431 H   0  0  0  0  0  0  0  0  0  0  0  0
    4.3160  -50.3637  -22.2244 C   0  0  0  0  0  0  0  0  0  0  0  0
    5.5243  -51.2403  -22.6205 C   0  0  0  0  0  0  0  0  0  0  0  0
    6.4974  -50.4864  -23.4436 C   0  0  0  0  0  0  0  0  0  0  0  0
    7.8381  -50.8708  -23.4797 N   0  0  0  0  0  0  0  0  0  0  0  0
    6.0931  -49.5057  -24.1003 O   0  0  0  0  0  0  0  0  0  0  0  0
    8.4706  -50.7400  -22.6315 H   0  0  0  0  0  0  0  0  0  0  0  0
    8.2388  -51.2918  -24.3380 H   0  0  0  0  0  0  0  0  0  0  0  0
    2.0354  -52.1933  -27.3770 C   0  0  0  0  0  0  0  0  0  0  0  0
    0.1546  -52.8574  -28.9036 C   0  0  0  0  0  0  0  0  0  0  0  0
    0.6104  -52.5502  -27.4837 C   0  0  0  0  0  0  0  0  0  0  0  0
    0.4541  -53.9088  -26.7439 C   0  0  0  0  0  0  0  0  0  0  0  0
 85 86  1  0  0  0
 86 87  1  0  0  0
 86 84  1  0  0  0
 84  1  1  0  0  0
  1  2  1  0  0  0
  2  3  1  0  0  0
  3  4  2  0  0  0
  3  6  1  0  0  0
  6 36  1  0  0  0
 36 37  1  0  0  0
 37 38  1  0  0  0
 38 39  1  0  0  0
 38 40  2  0  0  0
  6  7  1  0  0  0
  7  8  1  0  0  0
  8  9  2  0  0  0
  8 11  1  0  0  0
 11 29  1  0  0  0
 29 30  1  0  0  0
 30 31  1  0  0  0
 31 32  1  0  0  0
 31 33  2  0  0  0
 11 12  1  0  0  0
 12 13  1  0  0  0
 13 14  2  0  0  0
 13 16  1  0  0  0
 16 22  1  0  0  0
 22 23  1  0  0  0
 23 24  1  0  0  0
 24 25  1  0  0  0
 24 26  2  0  0  0
 16 17  1  0  0  0
 17 18  1  0  0  0
 18 19  1  0  0  0
 18 20  2  0  0  0
  1 43  1  0  0  0
 43 44  2  0  0  0
 43 45  1  0  0  0
 45 47  1  0  0  0
 47 77  1  0  0  0
 77 78  1  0  0  0
 78 79  1  0  0  0
 79 80  1  0  0  0
 79 81  2  0  0  0
 47 48  1  0  0  0
 48 49  2  0  0  0
 48 50  1  0  0  0
 50 52  1  0  0  0
 52 70  1  0  0  0
 70 71  1  0  0  0
 71 72  1  0  0  0
 72 73  1  0  0  0
 72 74  2  0  0  0
 52 53  1  0  0  0
 53 54  2  0  0  0
 53 55  1  0  0  0
 55 57  1  0  0  0
 57 63  1  0  0  0
 63 64  1  0  0  0
 64 65  1  0  0  0
 65 66  1  0  0  0
 65 67  2  0  0  0
 57 58  1  0  0  0
 58 59  1  0  0  0
 58 60  2  0  0  0
  2  5  1  0  0  0
 39 41  1  0  0  0
 39 42  1  0  0  0
  7 10  1  0  0  0
 32 34  1  0  0  0
 32 35  1  0  0  0
 12 15  1  0  0  0
 25 27  1  0  0  0
 25 28  1  0  0  0
 17 21  1  0  0  0
 45 46  1  0  0  0
 80 82  1  0  0  0
 80 83  1  0  0  0
 50 51  1  0  0  0
 73 75  1  0  0  0
 73 76  1  0  0  0
 55 56  1  0  0  0
 66 68  1  0  0  0
 66 69  1  0  0  0
 59 61  1  0  0  0
 59 62  1  0  0  0
M  END
> <minimizedAffinity>
-6.62852

> <CNNscore>
0.1806314439

> <CNNaffinity>
7.4360466003

> <CNN_VS>
1.3431838751

> <CNNaffinity_variance>
0.5573107600

$$$$
[H]N([H])C(=O)C([H])([H])C([H])([H])[C@@]([H])(C(=O)N([H])[H])N([H])C(=O)[C@@]([H])(N([H])C(=O)[C@@]([H])(N([H])C(=O)[C@@]([H])(N([H])C(=O)[C@@]([H])(N([H])C(=O)[C@@]([H])(N([H])C(=O)[C@@]([H])(N([H])C(=O)C([H])([H])[H])C([H])([H])C([H])([H])C(=O)N([H])[H])C([H])([H])C([H])([H])C(=O)N([H])[H])C([H])([H])C([H])([H])C(=O)N([H])[H])C([H])([H])C([H])(C([H])([H])[H])C([H])([H])[H])C([H])([H])C([H])([H])C(=O)N([H])[H])C([H])([H])C([H])([H])C(=O)N([H])[H]


 87 86  0  0  0  0  0  0  0  0999 V2000
    2.1050  -51.5434  -25.9981 C   0  0  0  0  0  0  0  0  0  0  0  0
    1.5195  -51.3555  -24.6223 N   0  0  0  0  0  0  0  0  0  0  0  0
    2.0310  -52.2666  -23.6015 C   0  0  0  0  0  0  0  0  0  0  0  0
    2.9084  -53.0223  -24.0104 O   0  0  0  0  0  0  0  0  0  0  0  0
    0.8377  -50.6533  -24.4801 H   0  0  0  0  0  0  0  0  0  0  0  0
    1.5142  -52.2723  -22.2251 C   0  0  0  0  0  0  0  0  0  0  0  0
    2.0332  -51.2227  -21.4230 N   0  0  0  0  0  0  0  0  0  0  0  0
    2.8098  -51.1433  -20.2947 C   0  0  0  0  0  0  0  0  0  0  0  0
    3.3174  -52.1512  -19.7149 O   0  0  0  0  0  0  0  0  0  0  0  0
    1.7398  -50.2365  -21.8206 H   0  0  0  0  0  0  0  0  0  0  0  0
    3.1969  -49.8746  -19.5555 C   0  0  0  0  0  0  0  0  0  0  0  0
    2.4156  -49.7713  -18.3901 N   0  0  0  0  0  0  0  0  0  0  0  0
    2.2886  -48.7416  -17.4614 C   0  0  0  0  0  0  0  0  0  0  0  0
    2.8998  -47.6770  -17.5129 O   0  0  0  0  0  0  0  0  0  0  0  0
    1.8092  -50.6455  -18.1661 H   0  0  0  0  0  0  0  0  0  0  0  0
    1.3164  -48.9142  -16.2863 C   0  0  0  0  0  0  0  0  0  0  0  0
    0.8506  -47.6520  -15.8301 N   0  0  0  0  0  0  0  0  0  0  0  0
    0.3338  -47.3673  -14.5157 C   0  0  0  0  0  0  0  0  0  0  0  0
   -0.1436  -46.0097  -14.1829 C   0  0  0  0  0  0  0  0  0  0  0  0
    0.2877  -48.2785  -13.6608 O   0  0  0  0  0  0  0  0  0  0  0  0
    0.8591  -46.8283  -16.4999 H   0  0  0  0  0  0  0  0  0  0  0  0
    0.1126  -49.6021  -16.9598 C   0  0  0  0  0  0  0  0  0  0  0  0
   -0.2578  -50.8913  -16.2865 C   0  0  0  0  0  0  0  0  0  0  0  0
   -0.5204  -51.9239  -17.3146 C   0  0  0  0  0  0  0  0  0  0  0  0
   -1.2800  -53.0863  -17.1245 N   0  0  0  0  0  0  0  0  0  0  0  0
   -0.0231  -51.7494  -18.4727 O   0  0  0  0  0  0  0  0  0  0  0  0
   -2.1478  -53.0573  -16.5435 H   0  0  0  0  0  0  0  0  0  0  0  0
   -0.9777  -54.0059  -17.5664 H   0  0  0  0  0  0  0  0  0  0  0  0
    4.6258  -49.5623  -19.5135 C   0  0  0  0  0  0  0  0  0  0  0  0
    5.1935  -48.9571  -20.7704 C   0  0  0  0  0  0  0  0  0  0  0  0
    5.5865  -47.5453  -20.5849 C   0  0  0  0  0  0  0  0  0  0  0  0
    4.9736  -46.7756  -19.5384 N   0  0  0  0  0  0  0  0  0  0  0  0
    6.4357  -46.9852  -21.3048 O   0  0  0  0  0  0  0  0  0  0  0  0
    4.2254  -47.2221  -18.9556 H   0  0  0  0  0  0  0  0  0  0  0  0
    5.2643  -45.7728  -19.3520 H   0  0  0  0  0  0  0  0  0  0  0  0
    0.0364  -52.4228  -22.2047 C   0  0  0  0  0  0  0  0  0  0  0  0
   -0.5832  -53.3737  -23.1549 C   0  0  0  0  0  0  0  0  0  0  0  0
   -1.2130  -54.5684  -22.6248 C   0  0  0  0  0  0  0  0  0  0  0  0
   -1.5860  -55.7360  -23.3908 N   0  0  0  0  0  0  0  0  0  0  0  0
   -1.5075  -54.6714  -21.3880 O   0  0  0  0  0  0  0  0  0  0  0  0
   -0.8407  -56.4286  -23.6810 H   0  0  0  0  0  0  0  0  0  0  0  0
   -2.5585  -55.9455  -23.6705 H   0  0  0  0  0  0  0  0  0  0  0  0
    2.9780  -50.4307  -26.2815 C   0  0  0  0  0  0  0  0  0  0  0  0
    3.5855  -50.2590  -27.3593 O   0  0  0  0  0  0  0  0  0  0  0  0
    3.2305  -49.3695  -25.3223 N   0  0  0  0  0  0  0  0  0  0  0  0
    2.7291  -49.4232  -24.4232 H   0  0  0  0  0  0  0  0  0  0  0  0
    4.1266  -48.2463  -25.6625 C   0  0  0  0  0  0  0  0  0  0  0  0
    3.8935  -47.7706  -27.0046 C   0  0  0  0  0  0  0  0  0  0  0  0
    2.7498  -47.2054  -27.1961 O   0  0  0  0  0  0  0  0  0  0  0  0
    4.7104  -47.8133  -28.1470 N   0  0  0  0  0  0  0  0  0  0  0  0
    5.6217  -48.2732  -28.1307 H   0  0  0  0  0  0  0  0  0  0  0  0
    4.2501  -47.1976  -29.4020 C   0  0  0  0  0  0  0  0  0  0  0  0
    4.9129  -47.9053  -30.5339 C   0  0  0  0  0  0  0  0  0  0  0  0
    4.5792  -49.1564  -30.6610 O   0  0  0  0  0  0  0  0  0  0  0  0
    5.8278  -47.4070  -31.4432 N   0  0  0  0  0  0  0  0  0  0  0  0
    6.1460  -46.4144  -31.3907 H   0  0  0  0  0  0  0  0  0  0  0  0
    6.3529  -48.2573  -32.4699 C   0  0  0  0  0  0  0  0  0  0  0  0
    7.8230  -48.5042  -32.3560 C   0  0  0  0  0  0  0  0  0  0  0  0
    8.6449  -48.2736  -33.5199 N   0  0  0  0  0  0  0  0  0  0  0  0
    8.4027  -48.8962  -31.3284 O   0  0  0  0  0  0  0  0  0  0  0  0
    8.9489  -49.0888  -34.1248 H   0  0  0  0  0  0  0  0  0  0  0  0
    8.9700  -47.3462  -33.8181 H   0  0  0  0  0  0  0  0  0  0  0  0
    6.1138  -47.7213  -33.8608 C   0  0  0  0  0  0  0  0  0  0  0  0
    4.9766  -48.4533  -34.5440 C   0  0  0  0  0  0  0  0  0  0  0  0
    3.7072  -47.7081  -34.2168 C   0  0  0  0  0  0  0  0  0  0  0  0
    2.8089  -48.2184  -33.2578 N   0  0  0  0  0  0  0  0  0  0  0  0
    3.4373  -46.6325  -34.7938 O   0  0  0  0  0  0  0  0  0  0  0  0
    1.8435  -48.4800  -33.5740 H   0  0  0  0  0  0  0  0  0  0  0  0
    3.0561  -48.3463  -32.2341 H   0  0  0  0  0  0  0  0  0  0  0  0
    4.4917  -45.7503  -29.4870 C   0  0  0  0  0  0  0  0  0  0  0  0
    3.4416  -44.9563  -30.2242 C   0  0  0  0  0  0  0  0  0  0  0  0
    2.1197  -45.6046  -30.2833 C   0  0  0  0  0  0  0  0  0  0  0  0
    1.2453  -45.5906  -29.1800 N   0  0  0  0  0  0  0  0  0  0  0  0
    1.7394  -46.1970  -31.3575 O   0  0  0  0  0  0  0  0  0  0  0  0
    1.4501  -46.1572  -28.2932 H   0  0  0  0  0  0  0  0  0  0  0  0
    0.3589  -45.0405  -29.1294 H   0  0  0  0  0  0  0  0  0  0  0  0
    5.4808  -48.5303  -25.1816 C   0  0  0  0  0  0  0  0  0  0  0  0
    5.3631  -49.7763  -24.2764 C   0  0  0  0  0  0  0  0  0  0  0  0
    6.6091  -50.5763  -24.2866 C   0  0  0  0  0  0  0  0  0  0  0  0
    6.5778  -51.9347  -23.9696 N   0  0  0  0  0  0  0  0  0  0  0  0
    7.6810  -50.0112  -24.5835 O   0  0  0  0  0  0  0  0  0  0  0  0
    6.3881  -52.2626  -22.9731 H   0  0  0  0  0  0  0  0  0  0  0  0
    6.7394  -52.6474  -24.7049 H   0  0  0  0  0  0  0  0  0  0  0  0
    0.9371  -51.6445  -26.9136 C   0  0  0  0  0  0  0  0  0  0  0  0
   -1.4728  -52.3215  -27.1219 C   0  0  0  0  0  0  0  0  0  0  0  0
   -0.0563  -52.7156  -26.7259 C   0  0  0  0  0  0  0  0  0  0  0  0
    0.3165  -53.8273  -27.7471 C   0  0  0  0  0  0  0  0  0  0  0  0
 85 86  1  0  0  0
 86 87  1  0  0  0
 86 84  1  0  0  0
 84  1  1  0  0  0
  1  2  1  0  0  0
  2  3  1  0  0  0
  3  4  2  0  0  0
  3  6  1  0  0  0
  6 36  1  0  0  0
 36 37  1  0  0  0
 37 38  1  0  0  0
 38 39  1  0  0  0
 38 40  2  0  0  0
  6  7  1  0  0  0
  7  8  1  0  0  0
  8  9  2  0  0  0
  8 11  1  0  0  0
 11 29  1  0  0  0
 29 30  1  0  0  0
 30 31  1  0  0  0
 31 32  1  0  0  0
 31 33  2  0  0  0
 11 12  1  0  0  0
 12 13  1  0  0  0
 13 14  2  0  0  0
 13 16  1  0  0  0
 16 22  1  0  0  0
 22 23  1  0  0  0
 23 24  1  0  0  0
 24 25  1  0  0  0
 24 26  2  0  0  0
 16 17  1  0  0  0
 17 18  1  0  0  0
 18 19  1  0  0  0
 18 20  2  0  0  0
  1 43  1  0  0  0
 43 44  2  0  0  0
 43 45  1  0  0  0
 45 47  1  0  0  0
 47 77  1  0  0  0
 77 78  1  0  0  0
 78 79  1  0  0  0
 79 80  1  0  0  0
 79 81  2  0  0  0
 47 48  1  0  0  0
 48 49  2  0  0  0
 48 50  1  0  0  0
 50 52  1  0  0  0
 52 70  1  0  0  0
 70 71  1  0  0  0
 71 72  1  0  0  0
 72 73  1  0  0  0
 72 74  2  0  0  0
 52 53  1  0  0  0
 53 54  2  0  0  0
 53 55  1  0  0  0
 55 57  1  0  0  0
 57 63  1  0  0  0
 63 64  1  0  0  0
 64 65  1  0  0  0
 65 66  1  0  0  0
 65 67  2  0  0  0
 57 58  1  0  0  0
 58 59  1  0  0  0
 58 60  2  0  0  0
  2  5  1  0  0  0
 39 41  1  0  0  0
 39 42  1  0  0  0
  7 10  1  0  0  0
 32 34  1  0  0  0
 32 35  1  0  0  0
 12 15  1  0  0  0
 25 27  1  0  0  0
 25 28  1  0  0  0
 17 21  1  0  0  0
 45 46  1  0  0  0
 80 82  1  0  0  0
 80 83  1  0  0  0
 50 51  1  0  0  0
 73 75  1  0  0  0
 73 76  1  0  0  0
 55 56  1  0  0  0
 66 68  1  0  0  0
 66 69  1  0  0  0
 59 61  1  0  0  0
 59 62  1  0  0  0
M  END
> <minimizedAffinity>
-6.98417

> <CNNscore>
0.1783379167

> <CNNaffinity>
7.2916975021

> <CNN_VS>
1.3003861904

> <CNNaffinity_variance>
0.6951019764

$$$$
[H]N([H])C(=O)C([H])([H])C([H])([H])[C@@]([H])(C(=O)N([H])[H])N([H])C(=O)[C@@]([H])(N([H])C(=O)[C@@]([H])(N([H])C(=O)[C@@]([H])(N([H])C(=O)[C@@]([H])(N([H])C(=O)[C@@]([H])(N([H])C(=O)[C@@]([H])(N([H])C(=O)C([H])([H])[H])C([H])([H])C([H])([H])C(=O)N([H])[H])C([H])([H])C([H])([H])C(=O)N([H])[H])C([H])([H])C([H])([H])C(=O)N([H])[H])C([H])([H])C([H])(C([H])([H])[H])C([H])([H])[H])C([H])([H])C([H])([H])C(=O)N([H])[H])C([H])([H])C([H])([H])C(=O)N([H])[H]


 87 86  0  0  0  0  0  0  0  0999 V2000
    1.1951  -51.9399  -24.1753 C   0  0  0  0  0  0  0  0  0  0  0  0
    2.6787  -51.7059  -24.2976 N   0  0  0  0  0  0  0  0  0  0  0  0
    3.0649  -50.6533  -25.2338 C   0  0  0  0  0  0  0  0  0  0  0  0
    2.1103  -50.0757  -25.7471 O   0  0  0  0  0  0  0  0  0  0  0  0
    3.2999  -52.2585  -23.7620 H   0  0  0  0  0  0  0  0  0  0  0  0
    4.4714  -50.3455  -25.5317 C   0  0  0  0  0  0  0  0  0  0  0  0
    4.6579  -49.0639  -26.1122 N   0  0  0  0  0  0  0  0  0  0  0  0
    4.5156  -48.5255  -27.3661 C   0  0  0  0  0  0  0  0  0  0  0  0
    4.0756  -49.1712  -28.3657 O   0  0  0  0  0  0  0  0  0  0  0  0
    4.9898  -48.3306  -25.3580 H   0  0  0  0  0  0  0  0  0  0  0  0
    4.8443  -47.1011  -27.7771 C   0  0  0  0  0  0  0  0  0  0  0  0
    4.8052  -47.0125  -29.1806 N   0  0  0  0  0  0  0  0  0  0  0  0
    5.7637  -46.5905  -30.0983 C   0  0  0  0  0  0  0  0  0  0  0  0
    6.8839  -46.1841  -29.7992 O   0  0  0  0  0  0  0  0  0  0  0  0
    3.8650  -47.3182  -29.6330 H   0  0  0  0  0  0  0  0  0  0  0  0
    5.4313  -46.6353  -31.5961 C   0  0  0  0  0  0  0  0  0  0  0  0
    6.5019  -47.2112  -32.3312 N   0  0  0  0  0  0  0  0  0  0  0  0
    7.0994  -46.6634  -33.5223 C   0  0  0  0  0  0  0  0  0  0  0  0
    8.1935  -47.3846  -34.2041 C   0  0  0  0  0  0  0  0  0  0  0  0
    6.6818  -45.5763  -33.9774 O   0  0  0  0  0  0  0  0  0  0  0  0
    6.9103  -48.1355  -32.0056 H   0  0  0  0  0  0  0  0  0  0  0  0
    4.2768  -47.6557  -31.6416 C   0  0  0  0  0  0  0  0  0  0  0  0
    3.1250  -47.1768  -32.4762 C   0  0  0  0  0  0  0  0  0  0  0  0
    3.4223  -47.4171  -33.9066 C   0  0  0  0  0  0  0  0  0  0  0  0
    3.9611  -48.5966  -34.4383 N   0  0  0  0  0  0  0  0  0  0  0  0
    3.1671  -46.4828  -34.7317 O   0  0  0  0  0  0  0  0  0  0  0  0
    3.6619  -49.5254  -34.0652 H   0  0  0  0  0  0  0  0  0  0  0  0
    4.6800  -48.5553  -35.2218 H   0  0  0  0  0  0  0  0  0  0  0  0
    4.2584  -46.0407  -26.9564 C   0  0  0  0  0  0  0  0  0  0  0  0
    5.0974  -44.7989  -26.8077 C   0  0  0  0  0  0  0  0  0  0  0  0
    4.5956  -43.6813  -27.6331 C   0  0  0  0  0  0  0  0  0  0  0  0
    4.6162  -42.3477  -27.1000 N   0  0  0  0  0  0  0  0  0  0  0  0
    4.1490  -43.8459  -28.7849 O   0  0  0  0  0  0  0  0  0  0  0  0
    4.9472  -42.2027  -26.1160 H   0  0  0  0  0  0  0  0  0  0  0  0
    4.3028  -41.5185  -27.6824 H   0  0  0  0  0  0  0  0  0  0  0  0
    5.3483  -50.6577  -24.3739 C   0  0  0  0  0  0  0  0  0  0  0  0
    5.6291  -49.5805  -23.3983 C   0  0  0  0  0  0  0  0  0  0  0  0
    6.1363  -49.9485  -22.0898 C   0  0  0  0  0  0  0  0  0  0  0  0
    5.3892  -50.6289  -21.0564 N   0  0  0  0  0  0  0  0  0  0  0  0
    7.3311  -49.6725  -21.7384 O   0  0  0  0  0  0  0  0  0  0  0  0
    5.2278  -51.6719  -21.1311 H   0  0  0  0  0  0  0  0  0  0  0  0
    5.0026  -50.1507  -20.2259 H   0  0  0  0  0  0  0  0  0  0  0  0
    0.8254  -51.8264  -22.7857 C   0  0  0  0  0  0  0  0  0  0  0  0
   -0.1015  -51.1103  -22.3518 O   0  0  0  0  0  0  0  0  0  0  0  0
    1.5031  -52.5624  -21.7325 N   0  0  0  0  0  0  0  0  0  0  0  0
    2.2539  -53.2069  -22.0215 H   0  0  0  0  0  0  0  0  0  0  0  0
    1.0823  -52.4187  -20.3245 C   0  0  0  0  0  0  0  0  0  0  0  0
    2.0716  -51.7143  -19.5454 C   0  0  0  0  0  0  0  0  0  0  0  0
    3.2727  -52.1762  -19.6357 O   0  0  0  0  0  0  0  0  0  0  0  0
    1.9489  -50.5969  -18.7024 N   0  0  0  0  0  0  0  0  0  0  0  0
    1.0408  -50.1685  -18.5180 H   0  0  0  0  0  0  0  0  0  0  0  0
    3.1436  -50.0301  -18.0562 C   0  0  0  0  0  0  0  0  0  0  0  0
    2.9077  -50.0112  -16.5848 C   0  0  0  0  0  0  0  0  0  0  0  0
    1.6875  -50.2874  -16.2277 O   0  0  0  0  0  0  0  0  0  0  0  0
    3.8075  -49.7332  -15.5722 N   0  0  0  0  0  0  0  0  0  0  0  0
    4.7995  -49.4936  -15.7906 H   0  0  0  0  0  0  0  0  0  0  0  0
    3.3805  -49.7686  -14.2050 C   0  0  0  0  0  0  0  0  0  0  0  0
    3.4185  -48.4371  -13.5261 C   0  0  0  0  0  0  0  0  0  0  0  0
    4.0000  -47.3250  -14.2393 N   0  0  0  0  0  0  0  0  0  0  0  0
    2.9848  -48.2063  -12.3840 O   0  0  0  0  0  0  0  0  0  0  0  0
    4.9947  -47.0238  -14.0325 H   0  0  0  0  0  0  0  0  0  0  0  0
    3.5059  -46.7829  -14.9580 H   0  0  0  0  0  0  0  0  0  0  0  0
    4.1999  -50.7084  -13.3540 C   0  0  0  0  0  0  0  0  0  0  0  0
    3.3435  -51.8195  -12.7813 C   0  0  0  0  0  0  0  0  0  0  0  0
    4.2179  -53.0430  -12.6699 C   0  0  0  0  0  0  0  0  0  0  0  0
    4.3502  -53.7137  -11.4371 N   0  0  0  0  0  0  0  0  0  0  0  0
    4.8357  -53.4732  -13.6678 O   0  0  0  0  0  0  0  0  0  0  0  0
    5.3004  -53.7521  -10.9942 H   0  0  0  0  0  0  0  0  0  0  0  0
    3.5419  -54.1854  -10.9377 H   0  0  0  0  0  0  0  0  0  0  0  0
    3.5099  -48.6902  -18.5366 C   0  0  0  0  0  0  0  0  0  0  0  0
    2.5260  -48.0446  -19.4808 C   0  0  0  0  0  0  0  0  0  0  0  0
    2.9366  -48.0679  -20.8957 C   0  0  0  0  0  0  0  0  0  0  0  0
    3.6442  -46.9962  -21.4725 N   0  0  0  0  0  0  0  0  0  0  0  0
    2.6540  -49.0811  -21.6327 O   0  0  0  0  0  0  0  0  0  0  0  0
    3.1782  -46.0480  -21.6545 H   0  0  0  0  0  0  0  0  0  0  0  0
    4.6494  -47.0290  -21.7543 H   0  0  0  0  0  0  0  0  0  0  0  0
    0.4971  -53.6757  -19.8520 C   0  0  0  0  0  0  0  0  0  0  0  0
    0.0695  -54.4529  -21.1163 C   0  0  0  0  0  0  0  0  0  0  0  0
   -1.3739  -54.2810  -21.3989 C   0  0  0  0  0  0  0  0  0  0  0  0
   -2.0854  -53.2291  -20.8210 N   0  0  0  0  0  0  0  0  0  0  0  0
   -1.9355  -55.0933  -22.1613 O   0  0  0  0  0  0  0  0  0  0  0  0
   -2.2996  -53.2185  -19.7767 H   0  0  0  0  0  0  0  0  0  0  0  0
   -2.4168  -52.4389  -21.4043 H   0  0  0  0  0  0  0  0  0  0  0  0
    0.9591  -53.2888  -24.7559 C   0  0  0  0  0  0  0  0  0  0  0  0
   -0.4129  -52.5647  -26.7314 C   0  0  0  0  0  0  0  0  0  0  0  0
   -0.2392  -53.5396  -25.5748 C   0  0  0  0  0  0  0  0  0  0  0  0
    0.0019  -54.9058  -26.2769 C   0  0  0  0  0  0  0  0  0  0  0  0
 85 86  1  0  0  0
 86 87  1  0  0  0
 86 84  1  0  0  0
 84  1  1  0  0  0
  1  2  1  0  0  0
  2  3  1  0  0  0
  3  4  2  0  0  0
  3  6  1  0  0  0
  6 36  1  0  0  0
 36 37  1  0  0  0
 37 38  1  0  0  0
 38 39  1  0  0  0
 38 40  2  0  0  0
  6  7  1  0  0  0
  7  8  1  0  0  0
  8  9  2  0  0  0
  8 11  1  0  0  0
 11 29  1  0  0  0
 29 30  1  0  0  0
 30 31  1  0  0  0
 31 32  1  0  0  0
 31 33  2  0  0  0
 11 12  1  0  0  0
 12 13  1  0  0  0
 13 14  2  0  0  0
 13 16  1  0  0  0
 16 22  1  0  0  0
 22 23  1  0  0  0
 23 24  1  0  0  0
 24 25  1  0  0  0
 24 26  2  0  0  0
 16 17  1  0  0  0
 17 18  1  0  0  0
 18 19  1  0  0  0
 18 20  2  0  0  0
  1 43  1  0  0  0
 43 44  2  0  0  0
 43 45  1  0  0  0
 45 47  1  0  0  0
 47 77  1  0  0  0
 77 78  1  0  0  0
 78 79  1  0  0  0
 79 80  1  0  0  0
 79 81  2  0  0  0
 47 48  1  0  0  0
 48 49  2  0  0  0
 48 50  1  0  0  0
 50 52  1  0  0  0
 52 70  1  0  0  0
 70 71  1  0  0  0
 71 72  1  0  0  0
 72 73  1  0  0  0
 72 74  2  0  0  0
 52 53  1  0  0  0
 53 54  2  0  0  0
 53 55  1  0  0  0
 55 57  1  0  0  0
 57 63  1  0  0  0
 63 64  1  0  0  0
 64 65  1  0  0  0
 65 66  1  0  0  0
 65 67  2  0  0  0
 57 58  1  0  0  0
 58 59  1  0  0  0
 58 60  2  0  0  0
  2  5  1  0  0  0
 39 41  1  0  0  0
 39 42  1  0  0  0
  7 10  1  0  0  0
 32 34  1  0  0  0
 32 35  1  0  0  0
 12 15  1  0  0  0
 25 27  1  0  0  0
 25 28  1  0  0  0
 17 21  1  0  0  0
 45 46  1  0  0  0
 80 82  1  0  0  0
 80 83  1  0  0  0
 50 51  1  0  0  0
 73 75  1  0  0  0
 73 76  1  0  0  0
 55 56  1  0  0  0
 66 68  1  0  0  0
 66 69  1  0  0  0
 59 61  1  0  0  0
 59 62  1  0  0  0
M  END
> <minimizedAffinity>
-6.35374

> <CNNscore>
0.1779384315

> <CNNaffinity>
7.0264329910

> <CNN_VS>
1.2502725124

> <CNNaffinity_variance>
0.4356771410

$$$$
[H]c1c([H])c([C@]2([H])[C@@]3([H])C([H])([H])C([H])([H])[C@]2([H])C([H])([H])[C@]([H])(n2c(N([H])C(=O)C([H])([H])[H])nc4c([H])c([H])c([H])c([H])c42)C3([H])[H])c([H])c([H])c1OC([H])([H])[H]


 30 34  0  0  0  0  0  0  0  0999 V2000
    2.7233  -49.9885  -22.2777 C   0  0  0  0  0  0  0  0  0  0  0  0
    3.4221  -50.3447  -21.0151 C   0  0  0  0  0  0  0  0  0  0  0  0
    3.5953  -48.9669  -20.4020 C   0  0  0  0  0  0  0  0  0  0  0  0
    2.4063  -48.1550  -20.9109 C   0  0  0  0  0  0  0  0  0  0  0  0
    1.5891  -49.1625  -21.7413 C   0  0  0  0  0  0  0  0  0  0  0  0
    0.6126  -49.9224  -20.9016 C   0  0  0  0  0  0  0  0  0  0  0  0
    1.1702  -51.1827  -20.2892 C   0  0  0  0  0  0  0  0  0  0  0  0
    2.6389  -51.1706  -20.0461 C   0  0  0  0  0  0  0  0  0  0  0  0
    0.4275  -51.6777  -19.1619 N   0  0  0  0  0  0  0  0  0  0  0  0
   -0.1432  -52.9051  -18.9983 C   0  0  0  0  0  0  0  0  0  0  0  0
   -0.7503  -52.9605  -17.7874 N   0  0  0  0  0  0  0  0  0  0  0  0
   -0.5841  -51.7852  -17.1567 C   0  0  0  0  0  0  0  0  0  0  0  0
   -0.9956  -51.3139  -15.9131 C   0  0  0  0  0  0  0  0  0  0  0  0
   -0.6495  -50.0307  -15.5645 C   0  0  0  0  0  0  0  0  0  0  0  0
    0.0821  -49.2370  -16.4206 C   0  0  0  0  0  0  0  0  0  0  0  0
    0.4916  -49.7080  -17.6601 C   0  0  0  0  0  0  0  0  0  0  0  0
    0.1448  -50.9976  -18.0126 C   0  0  0  0  0  0  0  0  0  0  0  0
   -0.1144  -53.9701  -19.9399 N   0  0  0  0  0  0  0  0  0  0  0  0
   -0.9455  -53.9878  -21.0816 C   0  0  0  0  0  0  0  0  0  0  0  0
   -1.9153  -52.9159  -21.4072 C   0  0  0  0  0  0  0  0  0  0  0  0
   -0.8515  -54.9867  -21.8744 O   0  0  0  0  0  0  0  0  0  0  0  0
    0.5405  -54.7575  -19.7783 H   0  0  0  0  0  0  0  0  0  0  0  0
    1.7874  -53.0439  -25.0857 C   0  0  0  0  0  0  0  0  0  0  0  0
    0.8613  -52.0676  -24.7653 C   0  0  0  0  0  0  0  0  0  0  0  0
    1.1781  -51.0778  -23.8474 C   0  0  0  0  0  0  0  0  0  0  0  0
    2.4122  -51.0212  -23.2202 C   0  0  0  0  0  0  0  0  0  0  0  0
    3.3372  -51.9932  -23.5376 C   0  0  0  0  0  0  0  0  0  0  0  0
    3.0092  -52.9818  -24.4600 C   0  0  0  0  0  0  0  0  0  0  0  0
    0.1370  -54.4541  -26.1461 C   0  0  0  0  0  0  0  0  0  0  0  0
    1.4812  -54.0384  -26.0024 O   0  0  0  0  0  0  0  0  0  0  0  0
 29 30  1  0  0  0
 30 23  1  0  0  0
 23 24  2  0  0  0
 24 25  1  0  0  0
 25 26  2  0  0  0
 26 27  1  0  0  0
 27 28  2  0  0  0
 26  1  1  0  0  0
  1  2  1  0  0  0
  2  3  1  0  0  0
  3  4  1  0  0  0
  4  5  1  0  0  0
  5  6  1  0  0  0
  6  7  1  0  0  0
  7  8  1  0  0  0
  7  9  1  0  0  0
  9 10  1  0  0  0
 10 18  1  0  0  0
 18 19  1  0  0  0
 19 20  1  0  0  0
 19 21  2  0  0  0
 10 11  2  0  0  0
 11 12  1  0  0  0
 12 13  2  0  0  0
 13 14  1  0  0  0
 14 15  2  0  0  0
 15 16  1  0  0  0
 16 17  2  0  0  0
 28 23  1  0  0  0
  5  1  1  0  0  0
 17  9  1  0  0  0
  8  2  1  0  0  0
 17 12  1  0  0  0
 18 22  1  0  0  0
M  END
> <minimizedAffinity>
-8.61667

> <CNNscore>
0.6500148773

> <CNNaffinity>
6.7569298744

> <CNN_VS>
4.3921051025

> <CNNaffinity_variance>
0.1109020710

$$$$
[H]c1c([H])c([C@]2([H])[C@@]3([H])C([H])([H])C([H])([H])[C@]2([H])C([H])([H])[C@]([H])(n2c(N([H])C(=O)C([H])([H])[H])nc4c([H])c([H])c([H])c([H])c42)C3([H])[H])c([H])c([H])c1OC([H])([H])[H]


 30 34  0  0  0  0  0  0  0  0999 V2000
    3.5434  -50.9469  -24.9333 C   0  0  0  0  0  0  0  0  0  0  0  0
    4.1530  -51.7813  -23.8649 C   0  0  0  0  0  0  0  0  0  0  0  0
    4.9443  -50.7260  -23.1137 C   0  0  0  0  0  0  0  0  0  0  0  0
    4.1566  -49.4315  -23.3031 C   0  0  0  0  0  0  0  0  0  0  0  0
    2.9157  -49.8593  -24.1090 C   0  0  0  0  0  0  0  0  0  0  0  0
    1.8010  -50.3179  -23.2240 C   0  0  0  0  0  0  0  0  0  0  0  0
    1.8418  -51.7871  -22.8861 C   0  0  0  0  0  0  0  0  0  0  0  0
    3.1985  -52.3998  -22.8950 C   0  0  0  0  0  0  0  0  0  0  0  0
    1.0773  -52.1539  -21.7249 N   0  0  0  0  0  0  0  0  0  0  0  0
    0.2667  -53.2367  -21.5533 C   0  0  0  0  0  0  0  0  0  0  0  0
   -0.2661  -53.2062  -20.3072 N   0  0  0  0  0  0  0  0  0  0  0  0
    0.1854  -52.1174  -19.6611 C   0  0  0  0  0  0  0  0  0  0  0  0
   -0.0416  -51.6156  -18.3826 C   0  0  0  0  0  0  0  0  0  0  0  0
    0.5920  -50.4493  -18.0271 C   0  0  0  0  0  0  0  0  0  0  0  0
    1.4257  -49.7986  -18.9101 C   0  0  0  0  0  0  0  0  0  0  0  0
    1.6511  -50.2999  -20.1845 C   0  0  0  0  0  0  0  0  0  0  0  0
    1.0153  -51.4721  -20.5439 C   0  0  0  0  0  0  0  0  0  0  0  0
    0.0108  -54.2479  -22.5197 N   0  0  0  0  0  0  0  0  0  0  0  0
   -0.6431  -53.9734  -23.7409 C   0  0  0  0  0  0  0  0  0  0  0  0
   -1.1207  -52.6261  -24.1312 C   0  0  0  0  0  0  0  0  0  0  0  0
   -0.8308  -54.9453  -24.5506 O   0  0  0  0  0  0  0  0  0  0  0  0
    0.3167  -55.2174  -22.3161 H   0  0  0  0  0  0  0  0  0  0  0  0
    1.1612  -52.8294  -27.9128 C   0  0  0  0  0  0  0  0  0  0  0  0
    2.4512  -53.2600  -27.6600 C   0  0  0  0  0  0  0  0  0  0  0  0
    3.2181  -52.6371  -26.6871 C   0  0  0  0  0  0  0  0  0  0  0  0
    2.7382  -51.5752  -25.9375 C   0  0  0  0  0  0  0  0  0  0  0  0
    1.4527  -51.1440  -26.1875 C   0  0  0  0  0  0  0  0  0  0  0  0
    0.6917  -51.7760  -27.1658 C   0  0  0  0  0  0  0  0  0  0  0  0
   -0.8636  -52.8793  -29.2300 C   0  0  0  0  0  0  0  0  0  0  0  0
    0.3854  -53.4452  -28.8834 O   0  0  0  0  0  0  0  0  0  0  0  0
 29 30  1  0  0  0
 30 23  1  0  0  0
 23 24  2  0  0  0
 24 25  1  0  0  0
 25 26  2  0  0  0
 26 27  1  0  0  0
 27 28  2  0  0  0
 26  1  1  0  0  0
  1  2  1  0  0  0
  2  3  1  0  0  0
  3  4  1  0  0  0
  4  5  1  0  0  0
  5  6  1  0  0  0
  6  7  1  0  0  0
  7  8  1  0  0  0
  7  9  1  0  0  0
  9 10  1  0  0  0
 10 18  1  0  0  0
 18 19  1  0  0  0
 19 20  1  0  0  0
 19 21  2  0  0  0
 10 11  2  0  0  0
 11 12  1  0  0  0
 12 13  2  0  0  0
 13 14  1  0  0  0
 14 15  2  0  0  0
 15 16  1  0  0  0
 16 17  2  0  0  0
 28 23  1  0  0  0
  5  1  1  0  0  0
 17  9  1  0  0  0
  8  2  1  0  0  0
 17 12  1  0  0  0
 18 22  1  0  0  0
M  END
> <minimizedAffinity>
-7.70773

> <CNNscore>
0.3126100302

> <CNNaffinity>
6.7330446243

> <CNN_VS>
2.1048173904

> <CNNaffinity_variance>
0.4681344032

$$$$
[H]c1c([H])c([C@]2([H])[C@@]3([H])C([H])([H])C([H])([H])[C@]2([H])C([H])([H])[C@]([H])(n2c(N([H])C(=O)C([H])([H])[H])nc4c([H])c([H])c([H])c([H])c42)C3([H])[H])c([H])c([H])c1OC([H])([H])[H]


 30 34  0  0  0  0  0  0  0  0999 V2000
    4.3226  -49.8965  -23.3785 C   0  0  0  0  0  0  0  0  0  0  0  0
    4.6478  -51.3394  -23.5254 C   0  0  0  0  0  0  0  0  0  0  0  0
    4.9766  -51.6921  -22.0860 C   0  0  0  0  0  0  0  0  0  0  0  0
    4.1215  -50.7491  -21.2424 C   0  0  0  0  0  0  0  0  0  0  0  0
    3.3027  -49.9547  -22.2772 C   0  0  0  0  0  0  0  0  0  0  0  0
    2.0327  -50.6529  -22.6455 C   0  0  0  0  0  0  0  0  0  0  0  0
    2.1682  -51.6227  -23.7925 C   0  0  0  0  0  0  0  0  0  0  0  0
    3.5210  -52.2220  -23.9564 C   0  0  0  0  0  0  0  0  0  0  0  0
    1.1169  -52.6001  -23.8750 N   0  0  0  0  0  0  0  0  0  0  0  0
    0.6351  -53.2324  -24.9827 C   0  0  0  0  0  0  0  0  0  0  0  0
   -0.3586  -54.0802  -24.6196 N   0  0  0  0  0  0  0  0  0  0  0  0
   -0.5330  -54.0107  -23.2887 C   0  0  0  0  0  0  0  0  0  0  0  0
   -1.4026  -54.6574  -22.4148 C   0  0  0  0  0  0  0  0  0  0  0  0
   -1.3182  -54.3502  -21.0783 C   0  0  0  0  0  0  0  0  0  0  0  0
   -0.4005  -53.4307  -20.6194 C   0  0  0  0  0  0  0  0  0  0  0  0
    0.4658  -52.7867  -21.4916 C   0  0  0  0  0  0  0  0  0  0  0  0
    0.3826  -53.0939  -22.8355 C   0  0  0  0  0  0  0  0  0  0  0  0
    1.0927  -53.0435  -26.3156 N   0  0  0  0  0  0  0  0  0  0  0  0
    0.2294  -52.6388  -27.3574 C   0  0  0  0  0  0  0  0  0  0  0  0
   -1.2165  -52.3749  -27.1689 C   0  0  0  0  0  0  0  0  0  0  0  0
    0.7287  -52.4937  -28.5257 O   0  0  0  0  0  0  0  0  0  0  0  0
    2.0946  -53.2098  -26.5243 H   0  0  0  0  0  0  0  0  0  0  0  0
    3.3825  -47.6008  -26.8343 C   0  0  0  0  0  0  0  0  0  0  0  0
    3.1661  -47.0935  -25.5657 C   0  0  0  0  0  0  0  0  0  0  0  0
    3.4754  -47.8523  -24.4471 C   0  0  0  0  0  0  0  0  0  0  0  0
    4.0050  -49.1289  -24.5453 C   0  0  0  0  0  0  0  0  0  0  0  0
    4.2216  -49.6371  -25.8086 C   0  0  0  0  0  0  0  0  0  0  0  0
    3.9079  -48.8673  -26.9243 C   0  0  0  0  0  0  0  0  0  0  0  0
    2.0576  -45.8731  -27.8815 C   0  0  0  0  0  0  0  0  0  0  0  0
    3.0769  -46.8505  -27.9598 O   0  0  0  0  0  0  0  0  0  0  0  0
 29 30  1  0  0  0
 30 23  1  0  0  0
 23 24  2  0  0  0
 24 25  1  0  0  0
 25 26  2  0  0  0
 26 27  1  0  0  0
 27 28  2  0  0  0
 26  1  1  0  0  0
  1  2  1  0  0  0
  2  3  1  0  0  0
  3  4  1  0  0  0
  4  5  1  0  0  0
  5  6  1  0  0  0
  6  7  1  0  0  0
  7  8  1  0  0  0
  7  9  1  0  0  0
  9 10  1  0  0  0
 10 18  1  0  0  0
 18 19  1  0  0  0
 19 20  1  0  0  0
 19 21  2  0  0  0
 10 11  2  0  0  0
 11 12  1  0  0  0
 12 13  2  0  0  0
 13 14  1  0  0  0
 14 15  2  0  0  0
 15 16  1  0  0  0
 16 17  2  0  0  0
 28 23  1  0  0  0
  5  1  1  0  0  0
 17  9  1  0  0  0
  8  2  1  0  0  0
 17 12  1  0  0  0
 18 22  1  0  0  0
M  END
> <minimizedAffinity>
-8.41803

> <CNNscore>
0.2830016315

> <CNNaffinity>
6.7768125534

> <CNN_VS>
1.9178490639

> <CNNaffinity_variance>
0.1641729623

$$$$
[H]c1c([H])c([C@]2([H])[C@@]3([H])C([H])([H])C([H])([H])[C@]2([H])C([H])([H])[C@]([H])(n2c(N([H])C(=O)C([H])([H])[H])nc4c([H])c([H])c([H])c([H])c42)C3([H])[H])c([H])c([H])c1OC([H])([H])[H]


 30 34  0  0  0  0  0  0  0  0999 V2000
    3.6713  -49.4545  -21.0296 C   0  0  0  0  0  0  0  0  0  0  0  0
    2.7985  -48.8683  -22.0803 C   0  0  0  0  0  0  0  0  0  0  0  0
    3.7950  -48.7325  -23.2173 C   0  0  0  0  0  0  0  0  0  0  0  0
    4.7960  -49.8658  -23.0035 C   0  0  0  0  0  0  0  0  0  0  0  0
    4.2545  -50.6210  -21.7752 C   0  0  0  0  0  0  0  0  0  0  0  0
    3.2614  -51.6727  -22.1544 C   0  0  0  0  0  0  0  0  0  0  0  0
    1.8374  -51.1820  -22.2318 C   0  0  0  0  0  0  0  0  0  0  0  0
    1.6837  -49.7390  -22.5637 C   0  0  0  0  0  0  0  0  0  0  0  0
    0.9575  -52.0222  -22.9981 N   0  0  0  0  0  0  0  0  0  0  0  0
   -0.2297  -52.5739  -22.6169 C   0  0  0  0  0  0  0  0  0  0  0  0
   -0.7381  -53.2993  -23.6431 N   0  0  0  0  0  0  0  0  0  0  0  0
    0.1010  -53.2293  -24.6908 C   0  0  0  0  0  0  0  0  0  0  0  0
    0.0631  -53.7775  -25.9699 C   0  0  0  0  0  0  0  0  0  0  0  0
    1.1077  -53.5028  -26.8190 C   0  0  0  0  0  0  0  0  0  0  0  0
    2.1590  -52.7091  -26.4151 C   0  0  0  0  0  0  0  0  0  0  0  0
    2.1957  -52.1633  -25.1396 C   0  0  0  0  0  0  0  0  0  0  0  0
    1.1466  -52.4382  -24.2845 C   0  0  0  0  0  0  0  0  0  0  0  0
   -0.8502  -52.4212  -21.3467 N   0  0  0  0  0  0  0  0  0  0  0  0
   -0.4799  -53.2020  -20.2297 C   0  0  0  0  0  0  0  0  0  0  0  0
    0.5750  -54.2418  -20.2688 C   0  0  0  0  0  0  0  0  0  0  0  0
   -1.0924  -52.9957  -19.1262 O   0  0  0  0  0  0  0  0  0  0  0  0
   -1.5988  -51.7116  -21.2425 H   0  0  0  0  0  0  0  0  0  0  0  0
    2.0814  -50.1779  -17.1508 C   0  0  0  0  0  0  0  0  0  0  0  0
    3.1670  -50.8970  -17.6174 C   0  0  0  0  0  0  0  0  0  0  0  0
    3.6751  -50.6527  -18.8843 C   0  0  0  0  0  0  0  0  0  0  0  0
    3.1302  -49.6963  -19.7257 C   0  0  0  0  0  0  0  0  0  0  0  0
    2.0479  -48.9781  -19.2631 C   0  0  0  0  0  0  0  0  0  0  0  0
    1.5460  -49.2311  -17.9904 C   0  0  0  0  0  0  0  0  0  0  0  0
    1.5124  -49.3521  -14.9528 C   0  0  0  0  0  0  0  0  0  0  0  0
    1.5653  -50.4140  -15.8856 O   0  0  0  0  0  0  0  0  0  0  0  0
 29 30  1  0  0  0
 30 23  1  0  0  0
 23 24  2  0  0  0
 24 25  1  0  0  0
 25 26  2  0  0  0
 26 27  1  0  0  0
 27 28  2  0  0  0
 26  1  1  0  0  0
  1  2  1  0  0  0
  2  3  1  0  0  0
  3  4  1  0  0  0
  4  5  1  0  0  0
  5  6  1  0  0  0
  6  7  1  0  0  0
  7  8  1  0  0  0
  7  9  1  0  0  0
  9 10  1  0  0  0
 10 18  1  0  0  0
 18 19  1  0  0  0
 19 20  1  0  0  0
 19 21  2  0  0  0
 10 11  2  0  0  0
 11 12  1  0  0  0
 12 13  2  0  0  0
 13 14  1  0  0  0
 14 15  2  0  0  0
 15 16  1  0  0  0
 16 17  2  0  0  0
 28 23  1  0  0  0
  5  1  1  0  0  0
 17  9  1  0  0  0
  8  2  1  0  0  0
 17 12  1  0  0  0
 18 22  1  0  0  0
M  END
> <minimizedAffinity>
-6.92517

> <CNNscore>
0.2615735829

> <CNNaffinity>
6.4340462685

> <CNN_VS>
1.6829764843

> <CNNaffinity_variance>
0.3025472760

$$$$
[H]c1c([H])c([C@]2([H])[C@@]3([H])C([H])([H])C([H])([H])[C@]2([H])C([H])([H])[C@]([H])(n2c(N([H])C(=O)C([H])([H])[H])nc4c([H])c([H])c([H])c([H])c42)C3([H])[H])c([H])c([H])c1OC([H])([H])[H]


 30 34  0  0  0  0  0  0  0  0999 V2000
    1.7228  -52.0558  -25.7155 C   0  0  0  0  0  0  0  0  0  0  0  0
    3.1839  -52.1006  -25.4458 C   0  0  0  0  0  0  0  0  0  0  0  0
    3.6089  -50.7642  -26.0269 C   0  0  0  0  0  0  0  0  0  0  0  0
    2.3975  -49.8518  -25.8481 C   0  0  0  0  0  0  0  0  0  0  0  0
    1.3709  -50.7285  -25.1064 C   0  0  0  0  0  0  0  0  0  0  0  0
    1.5431  -50.6628  -23.6224 C   0  0  0  0  0  0  0  0  0  0  0  0
    2.5124  -51.6748  -23.0652 C   0  0  0  0  0  0  0  0  0  0  0  0
    3.5820  -52.1092  -24.0050 C   0  0  0  0  0  0  0  0  0  0  0  0
    3.0206  -51.3576  -21.7580 N   0  0  0  0  0  0  0  0  0  0  0  0
    2.5649  -51.7861  -20.5466 C   0  0  0  0  0  0  0  0  0  0  0  0
    3.3290  -51.2496  -19.5637 N   0  0  0  0  0  0  0  0  0  0  0  0
    4.2789  -50.4758  -20.1164 C   0  0  0  0  0  0  0  0  0  0  0  0
    5.3060  -49.7083  -19.5742 C   0  0  0  0  0  0  0  0  0  0  0  0
    6.1216  -49.0207  -20.4401 C   0  0  0  0  0  0  0  0  0  0  0  0
    5.9272  -49.0902  -21.8023 C   0  0  0  0  0  0  0  0  0  0  0  0
    4.9028  -49.8556  -22.3416 C   0  0  0  0  0  0  0  0  0  0  0  0
    4.0818  -50.5476  -21.4730 C   0  0  0  0  0  0  0  0  0  0  0  0
    1.4630  -52.6587  -20.3315 N   0  0  0  0  0  0  0  0  0  0  0  0
    0.3976  -52.3264  -19.4661 C   0  0  0  0  0  0  0  0  0  0  0  0
    0.3225  -51.0557  -18.7076 C   0  0  0  0  0  0  0  0  0  0  0  0
   -0.5518  -53.1727  -19.3339 O   0  0  0  0  0  0  0  0  0  0  0  0
    1.4460  -53.5681  -20.8292 H   0  0  0  0  0  0  0  0  0  0  0  0
   -0.6939  -55.4013  -24.6841 C   0  0  0  0  0  0  0  0  0  0  0  0
   -0.6592  -54.2767  -23.8793 C   0  0  0  0  0  0  0  0  0  0  0  0
    0.1337  -53.1933  -24.2258 C   0  0  0  0  0  0  0  0  0  0  0  0
    0.9132  -53.1861  -25.3712 C   0  0  0  0  0  0  0  0  0  0  0  0
    0.8807  -54.3058  -26.1752 C   0  0  0  0  0  0  0  0  0  0  0  0
    0.0816  -55.3874  -25.8184 C   0  0  0  0  0  0  0  0  0  0  0  0
   -1.4051  -57.6672  -25.1279 C   0  0  0  0  0  0  0  0  0  0  0  0
   -1.4834  -56.4904  -24.3472 O   0  0  0  0  0  0  0  0  0  0  0  0
 29 30  1  0  0  0
 30 23  1  0  0  0
 23 24  2  0  0  0
 24 25  1  0  0  0
 25 26  2  0  0  0
 26 27  1  0  0  0
 27 28  2  0  0  0
 26  1  1  0  0  0
  1  2  1  0  0  0
  2  3  1  0  0  0
  3  4  1  0  0  0
  4  5  1  0  0  0
  5  6  1  0  0  0
  6  7  1  0  0  0
  7  8  1  0  0  0
  7  9  1  0  0  0
  9 10  1  0  0  0
 10 18  1  0  0  0
 18 19  1  0  0  0
 19 20  1  0  0  0
 19 21  2  0  0  0
 10 11  2  0  0  0
 11 12  1  0  0  0
 12 13  2  0  0  0
 13 14  1  0  0  0
 14 15  2  0  0  0
 15 16  1  0  0  0
 16 17  2  0  0  0
 28 23  1  0  0  0
  5  1  1  0  0  0
 17  9  1  0  0  0
  8  2  1  0  0  0
 17 12  1  0  0  0
 18 22  1  0  0  0
M  END
> <minimizedAffinity>
-5.42799

> <CNNscore>
0.2411046028

> <CNNaffinity>
6.4410276413

> <CNN_VS>
1.5529614687

> <CNNaffinity_variance>
0.8232032061

$$$$
[H]c1c([H])c([C@]2([H])[C@@]3([H])C([H])([H])C([H])([H])[C@]2([H])C([H])([H])[C@]([H])(n2c(N([H])C(=O)C([H])([H])[H])nc4c([H])c([H])c([H])c([H])c42)C3([H])[H])c([H])c([H])c1OC([H])([H])[H]


 30 34  0  0  0  0  0  0  0  0999 V2000
    3.1082  -51.3731  -24.6930 C   0  0  0  0  0  0  0  0  0  0  0  0
    3.6847  -52.1163  -23.5420 C   0  0  0  0  0  0  0  0  0  0  0  0
    4.9271  -51.2855  -23.2765 C   0  0  0  0  0  0  0  0  0  0  0  0
    4.5545  -49.8683  -23.7062 C   0  0  0  0  0  0  0  0  0  0  0  0
    3.0791  -49.9791  -24.1340 C   0  0  0  0  0  0  0  0  0  0  0  0
    2.1440  -49.7932  -22.9820 C   0  0  0  0  0  0  0  0  0  0  0  0
    1.8166  -51.0633  -22.2378 C   0  0  0  0  0  0  0  0  0  0  0  0
    2.8691  -52.1149  -22.2894 C   0  0  0  0  0  0  0  0  0  0  0  0
    1.3016  -50.8615  -20.9105 N   0  0  0  0  0  0  0  0  0  0  0  0
    0.1962  -51.4182  -20.3386 C   0  0  0  0  0  0  0  0  0  0  0  0
    0.0679  -50.9598  -19.0692 N   0  0  0  0  0  0  0  0  0  0  0  0
    1.0751  -50.1104  -18.8033 C   0  0  0  0  0  0  0  0  0  0  0  0
    1.4147  -49.3720  -17.6731 C   0  0  0  0  0  0  0  0  0  0  0  0
    2.5369  -48.5815  -17.7341 C   0  0  0  0  0  0  0  0  0  0  0  0
    3.3008  -48.5231  -18.8792 C   0  0  0  0  0  0  0  0  0  0  0  0
    2.9610  -49.2596  -20.0053 C   0  0  0  0  0  0  0  0  0  0  0  0
    1.8334  -50.0549  -19.9462 C   0  0  0  0  0  0  0  0  0  0  0  0
   -0.6919  -52.3371  -20.9622 N   0  0  0  0  0  0  0  0  0  0  0  0
   -0.5205  -53.7353  -20.8620 C   0  0  0  0  0  0  0  0  0  0  0  0
    0.5843  -54.3746  -20.1094 C   0  0  0  0  0  0  0  0  0  0  0  0
   -1.3686  -54.4859  -21.4557 O   0  0  0  0  0  0  0  0  0  0  0  0
   -1.4904  -51.9628  -21.5073 H   0  0  0  0  0  0  0  0  0  0  0  0
   -0.4248  -52.8261  -26.5647 C   0  0  0  0  0  0  0  0  0  0  0  0
   -0.2631  -51.4769  -26.3060 C   0  0  0  0  0  0  0  0  0  0  0  0
    0.8926  -51.0160  -25.6940 C   0  0  0  0  0  0  0  0  0  0  0  0
    1.9194  -51.8679  -25.3202 C   0  0  0  0  0  0  0  0  0  0  0  0
    1.7608  -53.2133  -25.5768 C   0  0  0  0  0  0  0  0  0  0  0  0
    0.5973  -53.6653  -26.1914 C   0  0  0  0  0  0  0  0  0  0  0  0
   -2.1390  -52.5648  -28.2470 C   0  0  0  0  0  0  0  0  0  0  0  0
   -1.5764  -53.2979  -27.1763 O   0  0  0  0  0  0  0  0  0  0  0  0
 29 30  1  0  0  0
 30 23  1  0  0  0
 23 24  2  0  0  0
 24 25  1  0  0  0
 25 26  2  0  0  0
 26 27  1  0  0  0
 27 28  2  0  0  0
 26  1  1  0  0  0
  1  2  1  0  0  0
  2  3  1  0  0  0
  3  4  1  0  0  0
  4  5  1  0  0  0
  5  6  1  0  0  0
  6  7  1  0  0  0
  7  8  1  0  0  0
  7  9  1  0  0  0
  9 10  1  0  0  0
 10 18  1  0  0  0
 18 19  1  0  0  0
 19 20  1  0  0  0
 19 21  2  0  0  0
 10 11  2  0  0  0
 11 12  1  0  0  0
 12 13  2  0  0  0
 13 14  1  0  0  0
 14 15  2  0  0  0
 15 16  1  0  0  0
 16 17  2  0  0  0
 28 23  1  0  0  0
  5  1  1  0  0  0
 17  9  1  0  0  0
  8  2  1  0  0  0
 17 12  1  0  0  0
 18 22  1  0  0  0
M  END
> <minimizedAffinity>
-7.54282

> <CNNscore>
0.2361476719

> <CNNaffinity>
6.6487264633

> <CNN_VS>
1.5700812340

> <CNNaffinity_variance>
0.5473664403

$$$$
[H]c1c([H])c([C@]2([H])[C@@]3([H])C([H])([H])C([H])([H])[C@]2([H])C([H])([H])[C@]([H])(n2c(N([H])C(=O)C([H])([H])[H])nc4c([H])c([H])c([H])c([H])c42)C3([H])[H])c([H])c([H])c1OC([H])([H])[H]


 30 34  0  0  0  0  0  0  0  0999 V2000
    3.2021  -49.8370  -21.2053 C   0  0  0  0  0  0  0  0  0  0  0  0
    3.3865  -51.3120  -21.2036 C   0  0  0  0  0  0  0  0  0  0  0  0
    2.6803  -51.6729  -19.9093 C   0  0  0  0  0  0  0  0  0  0  0  0
    1.5931  -50.6136  -19.7431 C   0  0  0  0  0  0  0  0  0  0  0  0
    1.7156  -49.7450  -21.0091 C   0  0  0  0  0  0  0  0  0  0  0  0
    0.9064  -50.2873  -22.1437 C   0  0  0  0  0  0  0  0  0  0  0  0
    1.6359  -51.2899  -23.0022 C   0  0  0  0  0  0  0  0  0  0  0  0
    2.7064  -52.0563  -22.3072 C   0  0  0  0  0  0  0  0  0  0  0  0
    0.7807  -52.1305  -23.7956 N   0  0  0  0  0  0  0  0  0  0  0  0
   -0.4146  -52.6876  -23.4497 C   0  0  0  0  0  0  0  0  0  0  0  0
   -0.8916  -53.4112  -24.4922 N   0  0  0  0  0  0  0  0  0  0  0  0
   -0.0238  -53.3347  -25.5157 C   0  0  0  0  0  0  0  0  0  0  0  0
   -0.0240  -53.8785  -26.7972 C   0  0  0  0  0  0  0  0  0  0  0  0
    1.0430  -53.5972  -27.6159 C   0  0  0  0  0  0  0  0  0  0  0  0
    2.0797  -52.8014  -27.1800 C   0  0  0  0  0  0  0  0  0  0  0  0
    2.0788  -52.2599  -25.9022 C   0  0  0  0  0  0  0  0  0  0  0  0
    1.0072  -52.5413  -25.0776 C   0  0  0  0  0  0  0  0  0  0  0  0
   -1.0710  -52.5415  -22.1968 N   0  0  0  0  0  0  0  0  0  0  0  0
   -0.8322  -53.4179  -21.1155 C   0  0  0  0  0  0  0  0  0  0  0  0
    0.1108  -54.5593  -21.1773 C   0  0  0  0  0  0  0  0  0  0  0  0
   -1.4677  -53.2101  -20.0255 O   0  0  0  0  0  0  0  0  0  0  0  0
   -1.7464  -51.7638  -22.0784 H   0  0  0  0  0  0  0  0  0  0  0  0
    4.9349  -47.5143  -24.3196 C   0  0  0  0  0  0  0  0  0  0  0  0
    3.7632  -47.1128  -23.7037 C   0  0  0  0  0  0  0  0  0  0  0  0
    3.2076  -47.8795  -22.6907 C   0  0  0  0  0  0  0  0  0  0  0  0
    3.7880  -49.0603  -22.2564 C   0  0  0  0  0  0  0  0  0  0  0  0
    4.9560  -49.4629  -22.8687 C   0  0  0  0  0  0  0  0  0  0  0  0
    5.5051  -48.6861  -23.8840 C   0  0  0  0  0  0  0  0  0  0  0  0
    4.6841  -45.8516  -26.0544 C   0  0  0  0  0  0  0  0  0  0  0  0
    5.4992  -46.7551  -25.3336 O   0  0  0  0  0  0  0  0  0  0  0  0
 29 30  1  0  0  0
 30 23  1  0  0  0
 23 24  2  0  0  0
 24 25  1  0  0  0
 25 26  2  0  0  0
 26 27  1  0  0  0
 27 28  2  0  0  0
 26  1  1  0  0  0
  1  2  1  0  0  0
  2  3  1  0  0  0
  3  4  1  0  0  0
  4  5  1  0  0  0
  5  6  1  0  0  0
  6  7  1  0  0  0
  7  8  1  0  0  0
  7  9  1  0  0  0
  9 10  1  0  0  0
 10 18  1  0  0  0
 18 19  1  0  0  0
 19 20  1  0  0  0
 19 21  2  0  0  0
 10 11  2  0  0  0
 11 12  1  0  0  0
 12 13  2  0  0  0
 13 14  1  0  0  0
 14 15  2  0  0  0
 15 16  1  0  0  0
 16 17  2  0  0  0
 28 23  1  0  0  0
  5  1  1  0  0  0
 17  9  1  0  0  0
  8  2  1  0  0  0
 17 12  1  0  0  0
 18 22  1  0  0  0
M  END
> <minimizedAffinity>
-6.94221

> <CNNscore>
0.1722556204

> <CNNaffinity>
6.3959970474

> <CNN_VS>
1.1017464399

> <CNNaffinity_variance>
0.3627561927

$$$$
[H]c1c([H])c([C@]2([H])[C@@]3([H])C([H])([H])C([H])([H])[C@]2([H])C([H])([H])[C@]([H])(n2c(N([H])C(=O)C([H])([H])[H])nc4c([H])c([H])c([H])c([H])c42)C3([H])[H])c([H])c([H])c1OC([H])([H])[H]


 30 34  0  0  0  0  0  0  0  0999 V2000
    4.2470  -50.7058  -23.2736 C   0  0  0  0  0  0  0  0  0  0  0  0
    4.7105  -51.4946  -22.1021 C   0  0  0  0  0  0  0  0  0  0  0  0
    5.7388  -50.5408  -21.5215 C   0  0  0  0  0  0  0  0  0  0  0  0
    5.2363  -49.1462  -21.8883 C   0  0  0  0  0  0  0  0  0  0  0  0
    3.8999  -49.4040  -22.6093 C   0  0  0  0  0  0  0  0  0  0  0  0
    2.7518  -49.4828  -21.6543 C   0  0  0  0  0  0  0  0  0  0  0  0
    2.4943  -50.8642  -21.1067 C   0  0  0  0  0  0  0  0  0  0  0  0
    3.6885  -51.7506  -21.0418 C   0  0  0  0  0  0  0  0  0  0  0  0
    1.7193  -50.8913  -19.8959 N   0  0  0  0  0  0  0  0  0  0  0  0
    0.4348  -51.3143  -19.7232 C   0  0  0  0  0  0  0  0  0  0  0  0
    0.0855  -51.1705  -18.4212 N   0  0  0  0  0  0  0  0  0  0  0  0
    1.1250  -50.6590  -17.7398 C   0  0  0  0  0  0  0  0  0  0  0  0
    1.3024  -50.3202  -16.4012 C   0  0  0  0  0  0  0  0  0  0  0  0
    2.5200  -49.8080  -16.0229 C   0  0  0  0  0  0  0  0  0  0  0  0
    3.5324  -49.6360  -16.9414 C   0  0  0  0  0  0  0  0  0  0  0  0
    3.3542  -49.9742  -18.2756 C   0  0  0  0  0  0  0  0  0  0  0  0
    2.1312  -50.4892  -18.6580 C   0  0  0  0  0  0  0  0  0  0  0  0
   -0.4173  -51.8283  -20.7389 N   0  0  0  0  0  0  0  0  0  0  0  0
   -0.4520  -53.2012  -21.0684 C   0  0  0  0  0  0  0  0  0  0  0  0
    0.3827  -54.2268  -20.3998 C   0  0  0  0  0  0  0  0  0  0  0  0
   -1.2496  -53.5737  -21.9959 O   0  0  0  0  0  0  0  0  0  0  0  0
   -1.0316  -51.1691  -21.2516 H   0  0  0  0  0  0  0  0  0  0  0  0
    1.3887  -52.4244  -25.9142 C   0  0  0  0  0  0  0  0  0  0  0  0
    2.2322  -53.2244  -25.1646 C   0  0  0  0  0  0  0  0  0  0  0  0
    3.1607  -52.6519  -24.3084 C   0  0  0  0  0  0  0  0  0  0  0  0
    3.2850  -51.2793  -24.1664 C   0  0  0  0  0  0  0  0  0  0  0  0
    2.4454  -50.4795  -24.9126 C   0  0  0  0  0  0  0  0  0  0  0  0
    1.5173  -51.0641  -25.7685 C   0  0  0  0  0  0  0  0  0  0  0  0
    0.1552  -54.3635  -26.6594 C   0  0  0  0  0  0  0  0  0  0  0  0
    0.4564  -52.9863  -26.7733 O   0  0  0  0  0  0  0  0  0  0  0  0
 29 30  1  0  0  0
 30 23  1  0  0  0
 23 24  2  0  0  0
 24 25  1  0  0  0
 25 26  2  0  0  0
 26 27  1  0  0  0
 27 28  2  0  0  0
 26  1  1  0  0  0
  1  2  1  0  0  0
  2  3  1  0  0  0
  3  4  1  0  0  0
  4  5  1  0  0  0
  5  6  1  0  0  0
  6  7  1  0  0  0
  7  8  1  0  0  0
  7  9  1  0  0  0
  9 10  1  0  0  0
 10 18  1  0  0  0
 18 19  1  0  0  0
 19 20  1  0  0  0
 19 21  2  0  0  0
 10 11  2  0  0  0
 11 12  1  0  0  0
 12 13  2  0  0  0
 13 14  1  0  0  0
 14 15  2  0  0  0
 15 16  1  0  0  0
 16 17  2  0  0  0
 28 23  1  0  0  0
  5  1  1  0  0  0
 17  9  1  0  0  0
  8  2  1  0  0  0
 17 12  1  0  0  0
 18 22  1  0  0  0
M  END
> <minimizedAffinity>
-6.99302

> <CNNscore>
0.1684923172

> <CNNaffinity>
6.2248730659

> <CNN_VS>
1.0488432646

> <CNNaffinity_variance>
0.3101126552

$$$$
[H]c1c([H])c([C@]2([H])[C@@]3([H])C([H])([H])C([H])([H])[C@]2([H])C([H])([H])[C@]([H])(n2c(N([H])C(=O)C([H])([H])[H])nc4c([H])c([H])c([H])c([H])c42)C3([H])[H])c([H])c([H])c1OC([H])([H])[H]


 30 34  0  0  0  0  0  0  0  0999 V2000
    3.9562  -50.3169  -22.4134 C   0  0  0  0  0  0  0  0  0  0  0  0
    3.4035  -49.6460  -23.6192 C   0  0  0  0  0  0  0  0  0  0  0  0
    4.5433  -49.8634  -24.5979 C   0  0  0  0  0  0  0  0  0  0  0  0
    5.1927  -51.1756  -24.1638 C   0  0  0  0  0  0  0  0  0  0  0  0
    4.3228  -51.6560  -22.9870 C   0  0  0  0  0  0  0  0  0  0  0  0
    3.1577  -52.4734  -23.4457 C   0  0  0  0  0  0  0  0  0  0  0  0
    1.9242  -51.6682  -23.7691 C   0  0  0  0  0  0  0  0  0  0  0  0
    2.1806  -50.2698  -24.2106 C   0  0  0  0  0  0  0  0  0  0  0  0
    0.9714  -52.3460  -24.6059 N   0  0  0  0  0  0  0  0  0  0  0  0
   -0.3091  -52.7074  -24.3083 C   0  0  0  0  0  0  0  0  0  0  0  0
   -0.8617  -53.3272  -25.3798 N   0  0  0  0  0  0  0  0  0  0  0  0
    0.0408  -53.3760  -26.3747 C   0  0  0  0  0  0  0  0  0  0  0  0
   -0.0046  -53.8919  -27.6669 C   0  0  0  0  0  0  0  0  0  0  0  0
    1.1205  -53.7743  -28.4467 C   0  0  0  0  0  0  0  0  0  0  0  0
    2.2571  -53.1642  -27.9628 C   0  0  0  0  0  0  0  0  0  0  0  0
    2.3011  -52.6504  -26.6744 C   0  0  0  0  0  0  0  0  0  0  0  0
    1.1712  -52.7675  -25.8888 C   0  0  0  0  0  0  0  0  0  0  0  0
   -0.9746  -52.4769  -23.0730 N   0  0  0  0  0  0  0  0  0  0  0  0
   -0.9557  -53.4188  -22.0209 C   0  0  0  0  0  0  0  0  0  0  0  0
   -0.2521  -54.7206  -22.0976 C   0  0  0  0  0  0  0  0  0  0  0  0
   -1.5822  -53.1265  -20.9451 O   0  0  0  0  0  0  0  0  0  0  0  0
   -1.4894  -51.5860  -22.9456 H   0  0  0  0  0  0  0  0  0  0  0  0
    1.7105  -50.2395  -18.8013 C   0  0  0  0  0  0  0  0  0  0  0  0
    1.5332  -49.2654  -19.7673 C   0  0  0  0  0  0  0  0  0  0  0  0
    2.2724  -49.3010  -20.9399 C   0  0  0  0  0  0  0  0  0  0  0  0
    3.2049  -50.2938  -21.1942 C   0  0  0  0  0  0  0  0  0  0  0  0
    3.3837  -51.2659  -20.2329 C   0  0  0  0  0  0  0  0  0  0  0  0
    2.6368  -51.2210  -19.0600 C   0  0  0  0  0  0  0  0  0  0  0  0
   -0.1160  -51.0990  -17.4738 C   0  0  0  0  0  0  0  0  0  0  0  0
    0.9766  -50.2137  -17.6250 O   0  0  0  0  0  0  0  0  0  0  0  0
 29 30  1  0  0  0
 30 23  1  0  0  0
 23 24  2  0  0  0
 24 25  1  0  0  0
 25 26  2  0  0  0
 26 27  1  0  0  0
 27 28  2  0  0  0
 26  1  1  0  0  0
  1  2  1  0  0  0
  2  3  1  0  0  0
  3  4  1  0  0  0
  4  5  1  0  0  0
  5  6  1  0  0  0
  6  7  1  0  0  0
  7  8  1  0  0  0
  7  9  1  0  0  0
  9 10  1  0  0  0
 10 18  1  0  0  0
 18 19  1  0  0  0
 19 20  1  0  0  0
 19 21  2  0  0  0
 10 11  2  0  0  0
 11 12  1  0  0  0
 12 13  2  0  0  0
 13 14  1  0  0  0
 14 15  2  0  0  0
 15 16  1  0  0  0
 16 17  2  0  0  0
 28 23  1  0  0  0
  5  1  1  0  0  0
 17  9  1  0  0  0
  8  2  1  0  0  0
 17 12  1  0  0  0
 18 22  1  0  0  0
M  END
> <minimizedAffinity>
-7.75083

> <CNNscore>
0.1683219969

> <CNNaffinity>
6.4328789711

> <CNN_VS>
1.0827950239

> <CNNaffinity_variance>
0.1938893646

$$$$
[H]C(=O)[C@@]([H])(N([H])C(=O)[C@@]1([H])N(C(=O)[C@]([H])(N([H])C(=O)OC([H])([H])c2c([H])c([H])c([H])c([H])c2[H])C([H])([H])c2c([H])c([H])c([H])c([H])c2[H])C([H])([H])C([H])([H])C1([H])[H])C([H])([H])C([H])([H])C([H])([H])N=C(N([H])[H])N([H])[H]


 45 47  0  0  0  0  0  0  0  0999 V2000
    0.1251  -53.8869  -22.6884 C   0  0  0  0  0  0  0  0  0  0  0  0
   -1.1805  -54.5927  -22.3837 C   0  0  0  0  0  0  0  0  0  0  0  0
   -1.7846  -53.9168  -21.1739 C   0  0  0  0  0  0  0  0  0  0  0  0
   -0.5633  -53.2869  -20.5546 C   0  0  0  0  0  0  0  0  0  0  0  0
    0.2677  -52.9061  -21.6741 N   0  0  0  0  0  0  0  0  0  0  0  0
    1.0671  -51.7084  -21.6210 C   0  0  0  0  0  0  0  0  0  0  0  0
    1.7653  -51.4739  -22.6488 O   0  0  0  0  0  0  0  0  0  0  0  0
    1.0796  -53.5201  -24.9472 N   0  0  0  0  0  0  0  0  0  0  0  0
   -0.0215  -53.3861  -24.0790 C   0  0  0  0  0  0  0  0  0  0  0  0
   -1.0795  -52.8524  -24.4983 O   0  0  0  0  0  0  0  0  0  0  0  0
    1.9508  -53.9612  -24.5947 H   0  0  0  0  0  0  0  0  0  0  0  0
    1.1039  -53.0854  -26.3181 C   0  0  0  0  0  0  0  0  0  0  0  0
    0.5911  -54.0659  -27.2713 C   0  0  0  0  0  0  0  0  0  0  0  0
    0.4208  -55.2277  -26.8795 O   0  0  0  0  0  0  0  0  0  0  0  0
    2.4803  -52.5296  -26.6833 C   0  0  0  0  0  0  0  0  0  0  0  0
    2.5641  -51.0711  -26.3840 C   0  0  0  0  0  0  0  0  0  0  0  0
    3.8315  -50.7938  -25.5948 C   0  0  0  0  0  0  0  0  0  0  0  0
    5.6376  -53.1524  -23.4224 N   0  0  0  0  0  0  0  0  0  0  0  0
    5.3626  -52.0561  -24.2998 C   0  0  0  0  0  0  0  0  0  0  0  0
    6.4118  -51.1855  -24.6963 N   0  0  0  0  0  0  0  0  0  0  0  0
    4.1554  -51.8888  -24.7075 N   0  0  0  0  0  0  0  0  0  0  0  0
    4.8802  -53.5943  -22.8605 H   0  0  0  0  0  0  0  0  0  0  0  0
    6.5948  -53.5339  -23.3263 H   0  0  0  0  0  0  0  0  0  0  0  0
    7.2342  -51.5711  -25.1988 H   0  0  0  0  0  0  0  0  0  0  0  0
    6.3087  -50.1568  -24.4579 H   0  0  0  0  0  0  0  0  0  0  0  0
    1.1322  -50.7711  -20.5118 C   0  0  0  0  0  0  0  0  0  0  0  0
    2.2970  -49.8934  -20.7670 N   0  0  0  0  0  0  0  0  0  0  0  0
    2.1308  -48.5251  -21.0611 C   0  0  0  0  0  0  0  0  0  0  0  0
    0.9562  -48.0641  -21.1031 O   0  0  0  0  0  0  0  0  0  0  0  0
    3.2315  -50.3387  -20.7130 H   0  0  0  0  0  0  0  0  0  0  0  0
    3.1780  -47.6770  -21.3016 O   0  0  0  0  0  0  0  0  0  0  0  0
    3.0735  -46.3928  -21.8556 C   0  0  0  0  0  0  0  0  0  0  0  0
    3.0398  -46.3730  -23.3262 C   0  0  0  0  0  0  0  0  0  0  0  0
    3.6371  -47.3202  -24.1168 C   0  0  0  0  0  0  0  0  0  0  0  0
    3.5567  -47.2341  -25.4876 C   0  0  0  0  0  0  0  0  0  0  0  0
    2.8778  -46.1981  -26.0605 C   0  0  0  0  0  0  0  0  0  0  0  0
    2.2569  -45.2149  -25.2951 C   0  0  0  0  0  0  0  0  0  0  0  0
    2.3595  -45.3356  -23.9204 C   0  0  0  0  0  0  0  0  0  0  0  0
    1.4375  -51.3759  -19.1665 C   0  0  0  0  0  0  0  0  0  0  0  0
    0.6440  -50.9322  -18.0400 C   0  0  0  0  0  0  0  0  0  0  0  0
   -0.3252  -51.6801  -17.4028 C   0  0  0  0  0  0  0  0  0  0  0  0
   -1.0422  -51.1722  -16.3405 C   0  0  0  0  0  0  0  0  0  0  0  0
   -0.8086  -49.8967  -15.8846 C   0  0  0  0  0  0  0  0  0  0  0  0
    0.1469  -49.1174  -16.4904 C   0  0  0  0  0  0  0  0  0  0  0  0
    0.8501  -49.6478  -17.5488 C   0  0  0  0  0  0  0  0  0  0  0  0
 18 19  1  0  0  0
 19 20  1  0  0  0
 19 21  2  0  0  0
 21 17  1  0  0  0
 17 16  1  0  0  0
 16 15  1  0  0  0
 15 12  1  0  0  0
 12  8  1  0  0  0
  8  9  1  0  0  0
  9 10  2  0  0  0
  9  1  1  0  0  0
  1  2  1  0  0  0
  2  3  1  0  0  0
  3  4  1  0  0  0
  4  5  1  0  0  0
  5  6  1  0  0  0
  6  7  2  0  0  0
  6 26  1  0  0  0
 26 39  1  0  0  0
 39 40  1  0  0  0
 40 41  2  0  0  0
 41 42  1  0  0  0
 42 43  2  0  0  0
 43 44  1  0  0  0
 44 45  2  0  0  0
 26 27  1  0  0  0
 27 28  1  0  0  0
 28 29  2  0  0  0
 28 31  1  0  0  0
 31 32  1  0  0  0
 32 33  1  0  0  0
 33 34  2  0  0  0
 34 35  1  0  0  0
 35 36  2  0  0  0
 36 37  1  0  0  0
 37 38  2  0  0  0
 12 13  1  0  0  0
 13 14  2  0  0  0
  5  1  1  0  0  0
 45 40  1  0  0  0
 38 33  1  0  0  0
 18 22  1  0  0  0
 18 23  1  0  0  0
 20 24  1  0  0  0
 20 25  1  0  0  0
  8 11  1  0  0  0
 27 30  1  0  0  0
M  END
> <minimizedAffinity>
-7.46291

> <CNNscore>
0.2971942127

> <CNNaffinity>
6.7974572182

> <CNN_VS>
2.0201649666

> <CNNaffinity_variance>
0.2897917330

$$$$
[H]C(=O)[C@@]([H])(N([H])C(=O)[C@@]1([H])N(C(=O)[C@]([H])(N([H])C(=O)OC([H])([H])c2c([H])c([H])c([H])c([H])c2[H])C([H])([H])c2c([H])c([H])c([H])c([H])c2[H])C([H])([H])C([H])([H])C1([H])[H])C([H])([H])C([H])([H])C([H])([H])N=C(N([H])[H])N([H])[H]


 45 47  0  0  0  0  0  0  0  0999 V2000
    4.3731  -50.3742  -24.1308 C   0  0  0  0  0  0  0  0  0  0  0  0
    4.4192  -49.1728  -25.0528 C   0  0  0  0  0  0  0  0  0  0  0  0
    3.0583  -49.0508  -25.6997 C   0  0  0  0  0  0  0  0  0  0  0  0
    2.5413  -50.4591  -25.5538 C   0  0  0  0  0  0  0  0  0  0  0  0
    3.0757  -50.9233  -24.2936 N   0  0  0  0  0  0  0  0  0  0  0  0
    2.3093  -51.8070  -23.4523 C   0  0  0  0  0  0  0  0  0  0  0  0
    2.8739  -52.1613  -22.3779 O   0  0  0  0  0  0  0  0  0  0  0  0
    3.7509  -49.0209  -22.1487 N   0  0  0  0  0  0  0  0  0  0  0  0
    4.7033  -49.8412  -22.7844 C   0  0  0  0  0  0  0  0  0  0  0  0
    5.7897  -50.0928  -22.2045 O   0  0  0  0  0  0  0  0  0  0  0  0
    2.8558  -48.8162  -22.6332 H   0  0  0  0  0  0  0  0  0  0  0  0
    3.9153  -48.4233  -20.8507 C   0  0  0  0  0  0  0  0  0  0  0  0
    5.1178  -47.6066  -20.7102 C   0  0  0  0  0  0  0  0  0  0  0  0
    5.9469  -47.9309  -19.8501 O   0  0  0  0  0  0  0  0  0  0  0  0
    3.7471  -49.4704  -19.7497 C   0  0  0  0  0  0  0  0  0  0  0  0
    2.8453  -48.9721  -18.6717 C   0  0  0  0  0  0  0  0  0  0  0  0
    3.6500  -48.7673  -17.4003 C   0  0  0  0  0  0  0  0  0  0  0  0
    2.4038  -50.6405  -14.4879 N   0  0  0  0  0  0  0  0  0  0  0  0
    3.1667  -50.2833  -15.6444 C   0  0  0  0  0  0  0  0  0  0  0  0
    4.1858  -51.1516  -16.1171 N   0  0  0  0  0  0  0  0  0  0  0  0
    2.9039  -49.1691  -16.2286 N   0  0  0  0  0  0  0  0  0  0  0  0
    1.9024  -49.9179  -13.9303 H   0  0  0  0  0  0  0  0  0  0  0  0
    2.3302  -51.6255  -14.1786 H   0  0  0  0  0  0  0  0  0  0  0  0
    3.9425  -52.1211  -16.3973 H   0  0  0  0  0  0  0  0  0  0  0  0
    5.1727  -50.7651  -16.1654 H   0  0  0  0  0  0  0  0  0  0  0  0
    0.9736  -52.3090  -23.7301 C   0  0  0  0  0  0  0  0  0  0  0  0
    0.5162  -52.9978  -22.5018 N   0  0  0  0  0  0  0  0  0  0  0  0
   -0.3064  -52.3458  -21.5613 C   0  0  0  0  0  0  0  0  0  0  0  0
   -0.6444  -51.1517  -21.7933 O   0  0  0  0  0  0  0  0  0  0  0  0
    0.8297  -53.9781  -22.3781 H   0  0  0  0  0  0  0  0  0  0  0  0
   -0.7540  -52.9439  -20.4143 O   0  0  0  0  0  0  0  0  0  0  0  0
   -0.0257  -53.0626  -19.2216 C   0  0  0  0  0  0  0  0  0  0  0  0
   -0.6492  -52.3974  -18.0672 C   0  0  0  0  0  0  0  0  0  0  0  0
   -1.7998  -52.8340  -17.4636 C   0  0  0  0  0  0  0  0  0  0  0  0
   -2.3189  -52.1583  -16.3834 C   0  0  0  0  0  0  0  0  0  0  0  0
   -1.6821  -51.0469  -15.9126 C   0  0  0  0  0  0  0  0  0  0  0  0
   -0.5117  -50.5692  -16.4957 C   0  0  0  0  0  0  0  0  0  0  0  0
   -0.0204  -51.2753  -17.5796 C   0  0  0  0  0  0  0  0  0  0  0  0
    0.8882  -53.3808  -24.7851 C   0  0  0  0  0  0  0  0  0  0  0  0
    0.0415  -53.1232  -25.9307 C   0  0  0  0  0  0  0  0  0  0  0  0
    0.3189  -53.5007  -27.2288 C   0  0  0  0  0  0  0  0  0  0  0  0
   -0.5425  -53.2036  -28.2633 C   0  0  0  0  0  0  0  0  0  0  0  0
   -1.7099  -52.5176  -28.0268 C   0  0  0  0  0  0  0  0  0  0  0  0
   -2.0248  -52.1223  -26.7494 C   0  0  0  0  0  0  0  0  0  0  0  0
   -1.1486  -52.4318  -25.7332 C   0  0  0  0  0  0  0  0  0  0  0  0
 18 19  1  0  0  0
 19 20  1  0  0  0
 19 21  2  0  0  0
 21 17  1  0  0  0
 17 16  1  0  0  0
 16 15  1  0  0  0
 15 12  1  0  0  0
 12  8  1  0  0  0
  8  9  1  0  0  0
  9 10  2  0  0  0
  9  1  1  0  0  0
  1  2  1  0  0  0
  2  3  1  0  0  0
  3  4  1  0  0  0
  4  5  1  0  0  0
  5  6  1  0  0  0
  6  7  2  0  0  0
  6 26  1  0  0  0
 26 39  1  0  0  0
 39 40  1  0  0  0
 40 41  2  0  0  0
 41 42  1  0  0  0
 42 43  2  0  0  0
 43 44  1  0  0  0
 44 45  2  0  0  0
 26 27  1  0  0  0
 27 28  1  0  0  0
 28 29  2  0  0  0
 28 31  1  0  0  0
 31 32  1  0  0  0
 32 33  1  0  0  0
 33 34  2  0  0  0
 34 35  1  0  0  0
 35 36  2  0  0  0
 36 37  1  0  0  0
 37 38  2  0  0  0
 12 13  1  0  0  0
 13 14  2  0  0  0
  5  1  1  0  0  0
 45 40  1  0  0  0
 38 33  1  0  0  0
 18 22  1  0  0  0
 18 23  1  0  0  0
 20 24  1  0  0  0
 20 25  1  0  0  0
  8 11  1  0  0  0
 27 30  1  0  0  0
M  END
> <minimizedAffinity>
-6.65200

> <CNNscore>
0.2404733747

> <CNNaffinity>
6.5858640671

> <CNN_VS>
1.5837249756

> <CNNaffinity_variance>
0.1927620620

$$$$
[H]C(=O)[C@@]([H])(N([H])C(=O)[C@@]1([H])N(C(=O)[C@]([H])(N([H])C(=O)OC([H])([H])c2c([H])c([H])c([H])c([H])c2[H])C([H])([H])c2c([H])c([H])c([H])c([H])c2[H])C([H])([H])C([H])([H])C1([H])[H])C([H])([H])C([H])([H])C([H])([H])N=C(N([H])[H])N([H])[H]


 45 47  0  0  0  0  0  0  0  0999 V2000
   -0.3653  -51.9857  -21.1612 C   0  0  0  0  0  0  0  0  0  0  0  0
   -1.1795  -53.2311  -21.4468 C   0  0  0  0  0  0  0  0  0  0  0  0
   -0.5012  -53.9599  -22.5845 C   0  0  0  0  0  0  0  0  0  0  0  0
    0.2803  -52.8392  -23.2209 C   0  0  0  0  0  0  0  0  0  0  0  0
    0.6794  -51.9916  -22.1203 N   0  0  0  0  0  0  0  0  0  0  0  0
    1.9518  -51.3156  -22.1384 C   0  0  0  0  0  0  0  0  0  0  0  0
    2.1974  -50.5907  -21.1319 O   0  0  0  0  0  0  0  0  0  0  0  0
    0.2679  -50.9207  -19.0136 N   0  0  0  0  0  0  0  0  0  0  0  0
    0.0408  -52.1074  -19.7377 C   0  0  0  0  0  0  0  0  0  0  0  0
    0.1886  -53.2182  -19.1685 O   0  0  0  0  0  0  0  0  0  0  0  0
    0.1448  -50.0064  -19.4895 H   0  0  0  0  0  0  0  0  0  0  0  0
    0.6685  -50.8632  -17.6333 C   0  0  0  0  0  0  0  0  0  0  0  0
   -0.4230  -50.6035  -16.6984 C   0  0  0  0  0  0  0  0  0  0  0  0
   -1.2424  -51.5080  -16.4914 O   0  0  0  0  0  0  0  0  0  0  0  0
    1.8674  -49.9312  -17.4580 C   0  0  0  0  0  0  0  0  0  0  0  0
    3.0826  -50.6943  -17.0524 C   0  0  0  0  0  0  0  0  0  0  0  0
    3.0326  -50.9582  -15.5577 C   0  0  0  0  0  0  0  0  0  0  0  0
    4.6567  -53.7028  -13.7210 N   0  0  0  0  0  0  0  0  0  0  0  0
    4.0386  -52.4455  -14.0116 C   0  0  0  0  0  0  0  0  0  0  0  0
    3.8532  -51.4911  -12.9768 N   0  0  0  0  0  0  0  0  0  0  0  0
    3.6623  -52.2150  -15.2186 N   0  0  0  0  0  0  0  0  0  0  0  0
    4.5146  -54.5276  -14.3406 H   0  0  0  0  0  0  0  0  0  0  0  0
    5.2612  -53.8225  -12.8896 H   0  0  0  0  0  0  0  0  0  0  0  0
    4.6778  -51.1314  -12.4589 H   0  0  0  0  0  0  0  0  0  0  0  0
    2.8598  -51.1793  -12.7728 H   0  0  0  0  0  0  0  0  0  0  0  0
    2.9508  -51.3992  -23.1910 C   0  0  0  0  0  0  0  0  0  0  0  0
    2.5474  -52.5208  -24.0694 N   0  0  0  0  0  0  0  0  0  0  0  0
    2.6777  -52.4356  -25.4702 C   0  0  0  0  0  0  0  0  0  0  0  0
    3.1486  -51.3716  -25.9602 O   0  0  0  0  0  0  0  0  0  0  0  0
    2.1719  -53.3643  -23.5984 H   0  0  0  0  0  0  0  0  0  0  0  0
    2.3198  -53.4475  -26.3197 O   0  0  0  0  0  0  0  0  0  0  0  0
    2.0089  -53.2963  -27.6790 C   0  0  0  0  0  0  0  0  0  0  0  0
    0.5895  -53.0149  -27.9438 C   0  0  0  0  0  0  0  0  0  0  0  0
    0.0364  -52.9909  -29.1977 C   0  0  0  0  0  0  0  0  0  0  0  0
   -1.3030  -52.7237  -29.3627 C   0  0  0  0  0  0  0  0  0  0  0  0
   -2.0830  -52.4814  -28.2694 C   0  0  0  0  0  0  0  0  0  0  0  0
   -1.5622  -52.4958  -26.9785 C   0  0  0  0  0  0  0  0  0  0  0  0
   -0.2113  -52.7684  -26.8528 C   0  0  0  0  0  0  0  0  0  0  0  0
    4.3362  -51.7857  -22.7435 C   0  0  0  0  0  0  0  0  0  0  0  0
    5.2866  -50.7174  -22.5176 C   0  0  0  0  0  0  0  0  0  0  0  0
    6.0248  -50.5365  -21.3656 C   0  0  0  0  0  0  0  0  0  0  0  0
    6.9022  -49.4816  -21.2325 C   0  0  0  0  0  0  0  0  0  0  0  0
    7.0658  -48.5745  -22.2522 C   0  0  0  0  0  0  0  0  0  0  0  0
    6.3502  -48.7166  -23.4162 C   0  0  0  0  0  0  0  0  0  0  0  0
    5.4809  -49.7790  -23.5251 C   0  0  0  0  0  0  0  0  0  0  0  0
 18 19  1  0  0  0
 19 20  1  0  0  0
 19 21  2  0  0  0
 21 17  1  0  0  0
 17 16  1  0  0  0
 16 15  1  0  0  0
 15 12  1  0  0  0
 12  8  1  0  0  0
  8  9  1  0  0  0
  9 10  2  0  0  0
  9  1  1  0  0  0
  1  2  1  0  0  0
  2  3  1  0  0  0
  3  4  1  0  0  0
  4  5  1  0  0  0
  5  6  1  0  0  0
  6  7  2  0  0  0
  6 26  1  0  0  0
 26 39  1  0  0  0
 39 40  1  0  0  0
 40 41  2  0  0  0
 41 42  1  0  0  0
 42 43  2  0  0  0
 43 44  1  0  0  0
 44 45  2  0  0  0
 26 27  1  0  0  0
 27 28  1  0  0  0
 28 29  2  0  0  0
 28 31  1  0  0  0
 31 32  1  0  0  0
 32 33  1  0  0  0
 33 34  2  0  0  0
 34 35  1  0  0  0
 35 36  2  0  0  0
 36 37  1  0  0  0
 37 38  2  0  0  0
 12 13  1  0  0  0
 13 14  2  0  0  0
  5  1  1  0  0  0
 45 40  1  0  0  0
 38 33  1  0  0  0
 18 22  1  0  0  0
 18 23  1  0  0  0
 20 24  1  0  0  0
 20 25  1  0  0  0
  8 11  1  0  0  0
 27 30  1  0  0  0
M  END
> <minimizedAffinity>
-7.76277

> <CNNscore>
0.2327931374

> <CNNaffinity>
6.7601356506

> <CNN_VS>
1.5737131834

> <CNNaffinity_variance>
0.0787967443

$$$$
[H]C(=O)[C@@]([H])(N([H])C(=O)[C@@]1([H])N(C(=O)[C@]([H])(N([H])C(=O)OC([H])([H])c2c([H])c([H])c([H])c([H])c2[H])C([H])([H])c2c([H])c([H])c([H])c([H])c2[H])C([H])([H])C([H])([H])C1([H])[H])C([H])([H])C([H])([H])C([H])([H])N=C(N([H])[H])N([H])[H]


 45 47  0  0  0  0  0  0  0  0999 V2000
    0.6994  -52.8438  -20.5885 C   0  0  0  0  0  0  0  0  0  0  0  0
   -0.5468  -53.4632  -19.9895 C   0  0  0  0  0  0  0  0  0  0  0  0
   -0.9153  -52.6441  -18.7734 C   0  0  0  0  0  0  0  0  0  0  0  0
    0.4083  -52.0023  -18.4450 C   0  0  0  0  0  0  0  0  0  0  0  0
    1.0378  -51.7707  -19.7253 N   0  0  0  0  0  0  0  0  0  0  0  0
    1.8586  -50.6059  -19.9396 C   0  0  0  0  0  0  0  0  0  0  0  0
    2.3704  -50.5051  -21.0914 O   0  0  0  0  0  0  0  0  0  0  0  0
    1.2316  -52.7879  -23.0095 N   0  0  0  0  0  0  0  0  0  0  0  0
    0.3215  -52.4824  -21.9787 C   0  0  0  0  0  0  0  0  0  0  0  0
   -0.7664  -51.9190  -22.2598 O   0  0  0  0  0  0  0  0  0  0  0  0
    2.1287  -53.2526  -22.7708 H   0  0  0  0  0  0  0  0  0  0  0  0
    1.0216  -52.5026  -24.4036 C   0  0  0  0  0  0  0  0  0  0  0  0
    1.4029  -51.1519  -24.8073 C   0  0  0  0  0  0  0  0  0  0  0  0
    2.0438  -50.4613  -24.0044 O   0  0  0  0  0  0  0  0  0  0  0  0
   -0.3924  -52.8987  -24.8281 C   0  0  0  0  0  0  0  0  0  0  0  0
   -0.4620  -54.3492  -25.1671 C   0  0  0  0  0  0  0  0  0  0  0  0
    0.3304  -54.6054  -26.4370 C   0  0  0  0  0  0  0  0  0  0  0  0
    0.0512  -52.7624  -29.6102 N   0  0  0  0  0  0  0  0  0  0  0  0
    0.5923  -53.5368  -28.5356 C   0  0  0  0  0  0  0  0  0  0  0  0
    1.9441  -53.9684  -28.5838 N   0  0  0  0  0  0  0  0  0  0  0  0
   -0.1738  -53.8245  -27.5447 N   0  0  0  0  0  0  0  0  0  0  0  0
   -0.9762  -52.7134  -29.7735 H   0  0  0  0  0  0  0  0  0  0  0  0
    0.6672  -52.2308  -30.2498 H   0  0  0  0  0  0  0  0  0  0  0  0
    2.7038  -53.2642  -28.6523 H   0  0  0  0  0  0  0  0  0  0  0  0
    2.1244  -55.0132  -28.5465 H   0  0  0  0  0  0  0  0  0  0  0  0
    2.1365  -49.5634  -18.9654 C   0  0  0  0  0  0  0  0  0  0  0  0
    0.8597  -49.2820  -18.2704 N   0  0  0  0  0  0  0  0  0  0  0  0
    0.8270  -48.9877  -16.8925 C   0  0  0  0  0  0  0  0  0  0  0  0
    1.9204  -48.9712  -16.2616 O   0  0  0  0  0  0  0  0  0  0  0  0
    0.0017  -49.3099  -18.8513 H   0  0  0  0  0  0  0  0  0  0  0  0
   -0.3290  -48.7198  -16.2100 O   0  0  0  0  0  0  0  0  0  0  0  0
   -0.7931  -49.4233  -15.0890 C   0  0  0  0  0  0  0  0  0  0  0  0
   -2.1222  -50.0282  -15.2664 C   0  0  0  0  0  0  0  0  0  0  0  0
   -2.3259  -51.3058  -15.7194 C   0  0  0  0  0  0  0  0  0  0  0  0
   -3.6022  -51.8014  -15.8542 C   0  0  0  0  0  0  0  0  0  0  0  0
   -4.6698  -51.0138  -15.5343 C   0  0  0  0  0  0  0  0  0  0  0  0
   -4.5081  -49.7111  -15.0709 C   0  0  0  0  0  0  0  0  0  0  0  0
   -3.2098  -49.2482  -14.9485 C   0  0  0  0  0  0  0  0  0  0  0  0
    2.5257  -48.2256  -19.5379 C   0  0  0  0  0  0  0  0  0  0  0  0
    3.9272  -47.8652  -19.4984 C   0  0  0  0  0  0  0  0  0  0  0  0
    4.9800  -48.7573  -19.4736 C   0  0  0  0  0  0  0  0  0  0  0  0
    6.2879  -48.3242  -19.4258 C   0  0  0  0  0  0  0  0  0  0  0  0
    6.5799  -46.9812  -19.4010 C   0  0  0  0  0  0  0  0  0  0  0  0
    5.5621  -46.0588  -19.4237 C   0  0  0  0  0  0  0  0  0  0  0  0
    4.2643  -46.5165  -19.4724 C   0  0  0  0  0  0  0  0  0  0  0  0
 18 19  1  0  0  0
 19 20  1  0  0  0
 19 21  2  0  0  0
 21 17  1  0  0  0
 17 16  1  0  0  0
 16 15  1  0  0  0
 15 12  1  0  0  0
 12  8  1  0  0  0
  8  9  1  0  0  0
  9 10  2  0  0  0
  9  1  1  0  0  0
  1  2  1  0  0  0
  2  3  1  0  0  0
  3  4  1  0  0  0
  4  5  1  0  0  0
  5  6  1  0  0  0
  6  7  2  0  0  0
  6 26  1  0  0  0
 26 39  1  0  0  0
 39 40  1  0  0  0
 40 41  2  0  0  0
 41 42  1  0  0  0
 42 43  2  0  0  0
 43 44  1  0  0  0
 44 45  2  0  0  0
 26 27  1  0  0  0
 27 28  1  0  0  0
 28 29  2  0  0  0
 28 31  1  0  0  0
 31 32  1  0  0  0
 32 33  1  0  0  0
 33 34  2  0  0  0
 34 35  1  0  0  0
 35 36  2  0  0  0
 36 37  1  0  0  0
 37 38  2  0  0  0
 12 13  1  0  0  0
 13 14  2  0  0  0
  5  1  1  0  0  0
 45 40  1  0  0  0
 38 33  1  0  0  0
 18 22  1  0  0  0
 18 23  1  0  0  0
 20 24  1  0  0  0
 20 25  1  0  0  0
  8 11  1  0  0  0
 27 30  1  0  0  0
M  END
> <minimizedAffinity>
-6.99051

> <CNNscore>
0.2082939148

> <CNNaffinity>
6.6524667740

> <CNN_VS>
1.3856683969

> <CNNaffinity_variance>
0.1069749743

$$$$
[H]C(=O)[C@@]([H])(N([H])C(=O)[C@@]1([H])N(C(=O)[C@]([H])(N([H])C(=O)OC([H])([H])c2c([H])c([H])c([H])c([H])c2[H])C([H])([H])c2c([H])c([H])c([H])c([H])c2[H])C([H])([H])C([H])([H])C1([H])[H])C([H])([H])C([H])([H])C([H])([H])N=C(N([H])[H])N([H])[H]


 45 47  0  0  0  0  0  0  0  0999 V2000
    0.4813  -52.0221  -20.7809 C   0  0  0  0  0  0  0  0  0  0  0  0
    0.1923  -53.3616  -20.1347 C   0  0  0  0  0  0  0  0  0  0  0  0
   -0.0003  -54.3653  -21.2486 C   0  0  0  0  0  0  0  0  0  0  0  0
   -0.3665  -53.4582  -22.3952 C   0  0  0  0  0  0  0  0  0  0  0  0
    0.4026  -52.2539  -22.1778 N   0  0  0  0  0  0  0  0  0  0  0  0
    0.9276  -51.5070  -23.2926 C   0  0  0  0  0  0  0  0  0  0  0  0
    1.5761  -50.4640  -22.9919 O   0  0  0  0  0  0  0  0  0  0  0  0
    2.1239  -50.2423  -20.2500 N   0  0  0  0  0  0  0  0  0  0  0  0
    1.8075  -51.6148  -20.2502 C   0  0  0  0  0  0  0  0  0  0  0  0
    2.6442  -52.4435  -19.8107 O   0  0  0  0  0  0  0  0  0  0  0  0
    1.4289  -49.5630  -20.6150 H   0  0  0  0  0  0  0  0  0  0  0  0
    3.3619  -49.6836  -19.7765 C   0  0  0  0  0  0  0  0  0  0  0  0
    3.3173  -49.1980  -18.3999 C   0  0  0  0  0  0  0  0  0  0  0  0
    2.9092  -48.0466  -18.1996 O   0  0  0  0  0  0  0  0  0  0  0  0
    3.9099  -48.6635  -20.7743 C   0  0  0  0  0  0  0  0  0  0  0  0
    5.3783  -48.8390  -20.9660 C   0  0  0  0  0  0  0  0  0  0  0  0
    5.6879  -50.3156  -21.1392 C   0  0  0  0  0  0  0  0  0  0  0  0
    6.1800  -51.5946  -24.5547 N   0  0  0  0  0  0  0  0  0  0  0  0
    5.5995  -51.3471  -23.2706 C   0  0  0  0  0  0  0  0  0  0  0  0
    4.3480  -51.9277  -22.9348 N   0  0  0  0  0  0  0  0  0  0  0  0
    6.2371  -50.5935  -22.4477 N   0  0  0  0  0  0  0  0  0  0  0  0
    6.8945  -50.9512  -24.9547 H   0  0  0  0  0  0  0  0  0  0  0  0
    5.9056  -52.4197  -25.1160 H   0  0  0  0  0  0  0  0  0  0  0  0
    4.2443  -52.9606  -22.9445 H   0  0  0  0  0  0  0  0  0  0  0  0
    3.5561  -51.2683  -22.6827 H   0  0  0  0  0  0  0  0  0  0  0  0
    0.7783  -51.8477  -24.6978 C   0  0  0  0  0  0  0  0  0  0  0  0
    1.3908  -50.7422  -25.4690 N   0  0  0  0  0  0  0  0  0  0  0  0
    2.6877  -50.8581  -26.0085 C   0  0  0  0  0  0  0  0  0  0  0  0
    3.3184  -51.9346  -25.8152 O   0  0  0  0  0  0  0  0  0  0  0  0
    0.8145  -49.8893  -25.5909 H   0  0  0  0  0  0  0  0  0  0  0  0
    3.2921  -49.8634  -26.7289 O   0  0  0  0  0  0  0  0  0  0  0  0
    4.2012  -48.9261  -26.2170 C   0  0  0  0  0  0  0  0  0  0  0  0
    3.5755  -47.6922  -25.7170 C   0  0  0  0  0  0  0  0  0  0  0  0
    3.0164  -46.7371  -26.5258 C   0  0  0  0  0  0  0  0  0  0  0  0
    2.4454  -45.6104  -25.9804 C   0  0  0  0  0  0  0  0  0  0  0  0
    2.4374  -45.4456  -24.6258 C   0  0  0  0  0  0  0  0  0  0  0  0
    2.9941  -46.3903  -23.7681 C   0  0  0  0  0  0  0  0  0  0  0  0
    3.5587  -47.5098  -24.3536 C   0  0  0  0  0  0  0  0  0  0  0  0
   -0.6377  -51.8894  -25.2099 C   0  0  0  0  0  0  0  0  0  0  0  0
   -0.8360  -52.2654  -26.5937 C   0  0  0  0  0  0  0  0  0  0  0  0
   -2.0230  -52.1533  -27.2888 C   0  0  0  0  0  0  0  0  0  0  0  0
   -2.1243  -52.5469  -28.6061 C   0  0  0  0  0  0  0  0  0  0  0  0
   -1.0365  -53.0660  -29.2670 C   0  0  0  0  0  0  0  0  0  0  0  0
    0.1643  -53.1957  -28.6125 C   0  0  0  0  0  0  0  0  0  0  0  0
    0.2402  -52.7946  -27.2974 C   0  0  0  0  0  0  0  0  0  0  0  0
 18 19  1  0  0  0
 19 20  1  0  0  0
 19 21  2  0  0  0
 21 17  1  0  0  0
 17 16  1  0  0  0
 16 15  1  0  0  0
 15 12  1  0  0  0
 12  8  1  0  0  0
  8  9  1  0  0  0
  9 10  2  0  0  0
  9  1  1  0  0  0
  1  2  1  0  0  0
  2  3  1  0  0  0
  3  4  1  0  0  0
  4  5  1  0  0  0
  5  6  1  0  0  0
  6  7  2  0  0  0
  6 26  1  0  0  0
 26 39  1  0  0  0
 39 40  1  0  0  0
 40 41  2  0  0  0
 41 42  1  0  0  0
 42 43  2  0  0  0
 43 44  1  0  0  0
 44 45  2  0  0  0
 26 27  1  0  0  0
 27 28  1  0  0  0
 28 29  2  0  0  0
 28 31  1  0  0  0
 31 32  1  0  0  0
 32 33  1  0  0  0
 33 34  2  0  0  0
 34 35  1  0  0  0
 35 36  2  0  0  0
 36 37  1  0  0  0
 37 38  2  0  0  0
 12 13  1  0  0  0
 13 14  2  0  0  0
  5  1  1  0  0  0
 45 40  1  0  0  0
 38 33  1  0  0  0
 18 22  1  0  0  0
 18 23  1  0  0  0
 20 24  1  0  0  0
 20 25  1  0  0  0
  8 11  1  0  0  0
 27 30  1  0  0  0
M  END
> <minimizedAffinity>
-7.56560

> <CNNscore>
0.2030025870

> <CNNaffinity>
6.6186919212

> <CNN_VS>
1.3436115980

> <CNNaffinity_variance>
0.4289127886

$$$$
[H]C(=O)[C@@]([H])(N([H])C(=O)[C@@]1([H])N(C(=O)[C@]([H])(N([H])C(=O)OC([H])([H])c2c([H])c([H])c([H])c([H])c2[H])C([H])([H])c2c([H])c([H])c([H])c([H])c2[H])C([H])([H])C([H])([H])C1([H])[H])C([H])([H])C([H])([H])C([H])([H])N=C(N([H])[H])N([H])[H]


 45 47  0  0  0  0  0  0  0  0999 V2000
    0.7777  -53.2393  -22.4397 C   0  0  0  0  0  0  0  0  0  0  0  0
   -0.6475  -53.5346  -22.8605 C   0  0  0  0  0  0  0  0  0  0  0  0
   -1.5489  -52.6126  -22.0714 C   0  0  0  0  0  0  0  0  0  0  0  0
   -0.6665  -52.2824  -20.8950 C   0  0  0  0  0  0  0  0  0  0  0  0
    0.6741  -52.2449  -21.4338 N   0  0  0  0  0  0  0  0  0  0  0  0
    1.6438  -51.3084  -20.9250 C   0  0  0  0  0  0  0  0  0  0  0  0
    2.7888  -51.3668  -21.4582 O   0  0  0  0  0  0  0  0  0  0  0  0
    1.2394  -51.5561  -24.2006 N   0  0  0  0  0  0  0  0  0  0  0  0
    1.4767  -52.8472  -23.6901 C   0  0  0  0  0  0  0  0  0  0  0  0
    2.2589  -53.6200  -24.2992 O   0  0  0  0  0  0  0  0  0  0  0  0
    0.5918  -50.9228  -23.6933 H   0  0  0  0  0  0  0  0  0  0  0  0
    1.8315  -51.0234  -25.3984 C   0  0  0  0  0  0  0  0  0  0  0  0
    2.6337  -49.8207  -25.1917 C   0  0  0  0  0  0  0  0  0  0  0  0
    3.5978  -49.8874  -24.4181 O   0  0  0  0  0  0  0  0  0  0  0  0
    0.7835  -50.8852  -26.5026 C   0  0  0  0  0  0  0  0  0  0  0  0
   -0.5184  -51.4774  -26.0808 C   0  0  0  0  0  0  0  0  0  0  0  0
   -0.8880  -52.6029  -27.0309 C   0  0  0  0  0  0  0  0  0  0  0  0
    1.9430  -54.1698  -28.7843 N   0  0  0  0  0  0  0  0  0  0  0  0
    0.8990  -53.9355  -27.8344 C   0  0  0  0  0  0  0  0  0  0  0  0
    0.6800  -54.8605  -26.7797 N   0  0  0  0  0  0  0  0  0  0  0  0
    0.1786  -52.8796  -27.9674 N   0  0  0  0  0  0  0  0  0  0  0  0
    1.9254  -53.7213  -29.7241 H   0  0  0  0  0  0  0  0  0  0  0  0
    2.7417  -54.7887  -28.5600 H   0  0  0  0  0  0  0  0  0  0  0  0
    1.4455  -55.0609  -26.1078 H   0  0  0  0  0  0  0  0  0  0  0  0
   -0.2761  -55.3166  -26.7213 H   0  0  0  0  0  0  0  0  0  0  0  0
    1.4177  -50.3261  -19.8776 C   0  0  0  0  0  0  0  0  0  0  0  0
    2.4209  -49.2556  -20.0774 N   0  0  0  0  0  0  0  0  0  0  0  0
    2.1121  -48.0918  -20.8100 C   0  0  0  0  0  0  0  0  0  0  0  0
    0.9516  -47.9851  -21.2957 O   0  0  0  0  0  0  0  0  0  0  0  0
    3.3518  -49.4090  -19.6480 H   0  0  0  0  0  0  0  0  0  0  0  0
    3.0068  -47.0769  -21.0178 O   0  0  0  0  0  0  0  0  0  0  0  0
    4.0499  -47.0918  -21.9552 C   0  0  0  0  0  0  0  0  0  0  0  0
    3.7603  -46.3453  -23.1893 C   0  0  0  0  0  0  0  0  0  0  0  0
    2.5755  -45.7000  -23.4316 C   0  0  0  0  0  0  0  0  0  0  0  0
    2.3827  -45.0182  -24.6109 C   0  0  0  0  0  0  0  0  0  0  0  0
    3.3789  -44.9862  -25.5431 C   0  0  0  0  0  0  0  0  0  0  0  0
    4.5971  -45.6277  -25.3377 C   0  0  0  0  0  0  0  0  0  0  0  0
    4.7537  -46.3027  -24.1399 C   0  0  0  0  0  0  0  0  0  0  0  0
    1.6858  -50.7996  -18.4731 C   0  0  0  0  0  0  0  0  0  0  0  0
    0.6070  -50.6887  -17.5142 C   0  0  0  0  0  0  0  0  0  0  0  0
    0.3575  -49.5897  -16.7176 C   0  0  0  0  0  0  0  0  0  0  0  0
   -0.6900  -49.5747  -15.8214 C   0  0  0  0  0  0  0  0  0  0  0  0
   -1.5199  -50.6634  -15.6967 C   0  0  0  0  0  0  0  0  0  0  0  0
   -1.3070  -51.7786  -16.4700 C   0  0  0  0  0  0  0  0  0  0  0  0
   -0.2548  -51.7687  -17.3582 C   0  0  0  0  0  0  0  0  0  0  0  0
 18 19  1  0  0  0
 19 20  1  0  0  0
 19 21  2  0  0  0
 21 17  1  0  0  0
 17 16  1  0  0  0
 16 15  1  0  0  0
 15 12  1  0  0  0
 12  8  1  0  0  0
  8  9  1  0  0  0
  9 10  2  0  0  0
  9  1  1  0  0  0
  1  2  1  0  0  0
  2  3  1  0  0  0
  3  4  1  0  0  0
  4  5  1  0  0  0
  5  6  1  0  0  0
  6  7  2  0  0  0
  6 26  1  0  0  0
 26 39  1  0  0  0
 39 40  1  0  0  0
 40 41  2  0  0  0
 41 42  1  0  0  0
 42 43  2  0  0  0
 43 44  1  0  0  0
 44 45  2  0  0  0
 26 27  1  0  0  0
 27 28  1  0  0  0
 28 29  2  0  0  0
 28 31  1  0  0  0
 31 32  1  0  0  0
 32 33  1  0  0  0
 33 34  2  0  0  0
 34 35  1  0  0  0
 35 36  2  0  0  0
 36 37  1  0  0  0
 37 38  2  0  0  0
 12 13  1  0  0  0
 13 14  2  0  0  0
  5  1  1  0  0  0
 45 40  1  0  0  0
 38 33  1  0  0  0
 18 22  1  0  0  0
 18 23  1  0  0  0
 20 24  1  0  0  0
 20 25  1  0  0  0
  8 11  1  0  0  0
 27 30  1  0  0  0
M  END
> <minimizedAffinity>
-6.41098

> <CNNscore>
0.2016275972

> <CNNaffinity>
6.7632737160

> <CNN_VS>
1.3636626005

> <CNNaffinity_variance>
0.0592926331

$$$$
[H]C(=O)[C@@]([H])(N([H])C(=O)[C@@]1([H])N(C(=O)[C@]([H])(N([H])C(=O)OC([H])([H])c2c([H])c([H])c([H])c([H])c2[H])C([H])([H])c2c([H])c([H])c([H])c([H])c2[H])C([H])([H])C([H])([H])C1([H])[H])C([H])([H])C([H])([H])C([H])([H])N=C(N([H])[H])N([H])[H]


 45 47  0  0  0  0  0  0  0  0999 V2000
    2.7938  -49.9082  -20.3280 C   0  0  0  0  0  0  0  0  0  0  0  0
    1.6547  -48.9839  -19.9490 C   0  0  0  0  0  0  0  0  0  0  0  0
    1.1321  -48.3680  -21.2269 C   0  0  0  0  0  0  0  0  0  0  0  0
    2.3251  -48.5276  -22.1340 C   0  0  0  0  0  0  0  0  0  0  0  0
    2.9337  -49.7758  -21.7330 N   0  0  0  0  0  0  0  0  0  0  0  0
    3.5557  -50.6355  -22.7078 C   0  0  0  0  0  0  0  0  0  0  0  0
    4.0671  -51.6972  -22.2496 O   0  0  0  0  0  0  0  0  0  0  0  0
    1.1071  -51.7181  -20.1654 N   0  0  0  0  0  0  0  0  0  0  0  0
    2.3898  -51.2461  -19.8251 C   0  0  0  0  0  0  0  0  0  0  0  0
    3.1434  -51.9580  -19.1144 O   0  0  0  0  0  0  0  0  0  0  0  0
    0.4891  -51.1252  -20.7521 H   0  0  0  0  0  0  0  0  0  0  0  0
    0.5621  -52.9855  -19.7582 C   0  0  0  0  0  0  0  0  0  0  0  0
    0.0373  -53.7967  -20.8533 C   0  0  0  0  0  0  0  0  0  0  0  0
    0.2219  -53.4029  -22.0123 O   0  0  0  0  0  0  0  0  0  0  0  0
   -0.4176  -52.8038  -18.5990 C   0  0  0  0  0  0  0  0  0  0  0  0
   -0.2699  -51.4548  -17.9809 C   0  0  0  0  0  0  0  0  0  0  0  0
   -1.0042  -51.4295  -16.6520 C   0  0  0  0  0  0  0  0  0  0  0  0
   -4.1667  -53.1949  -15.9990 N   0  0  0  0  0  0  0  0  0  0  0  0
   -3.1649  -52.1736  -16.0255 C   0  0  0  0  0  0  0  0  0  0  0  0
   -3.4230  -50.9122  -15.4269 N   0  0  0  0  0  0  0  0  0  0  0  0
   -2.0452  -52.4320  -16.6008 N   0  0  0  0  0  0  0  0  0  0  0  0
   -4.1541  -53.9782  -16.6851 H   0  0  0  0  0  0  0  0  0  0  0  0
   -4.9266  -53.1810  -15.2965 H   0  0  0  0  0  0  0  0  0  0  0  0
   -3.6536  -50.8633  -14.4159 H   0  0  0  0  0  0  0  0  0  0  0  0
   -3.3676  -50.0556  -16.0504 H   0  0  0  0  0  0  0  0  0  0  0  0
    3.6386  -50.3889  -24.1380 C   0  0  0  0  0  0  0  0  0  0  0  0
    3.4688  -51.7002  -24.8043 N   0  0  0  0  0  0  0  0  0  0  0  0
    2.1879  -52.2285  -25.0624 C   0  0  0  0  0  0  0  0  0  0  0  0
    1.1828  -51.5519  -24.7078 O   0  0  0  0  0  0  0  0  0  0  0  0
    4.3376  -52.1991  -25.0704 H   0  0  0  0  0  0  0  0  0  0  0  0
    1.9839  -53.4345  -25.6770 O   0  0  0  0  0  0  0  0  0  0  0  0
    0.7331  -54.0129  -25.9377 C   0  0  0  0  0  0  0  0  0  0  0  0
    0.0636  -53.4837  -27.1360 C   0  0  0  0  0  0  0  0  0  0  0  0
    0.6203  -53.4918  -28.3885 C   0  0  0  0  0  0  0  0  0  0  0  0
   -0.0727  -52.9811  -29.4617 C   0  0  0  0  0  0  0  0  0  0  0  0
   -1.3217  -52.4639  -29.2747 C   0  0  0  0  0  0  0  0  0  0  0  0
   -1.9241  -52.4358  -28.0200 C   0  0  0  0  0  0  0  0  0  0  0  0
   -1.1963  -52.9585  -26.9656 C   0  0  0  0  0  0  0  0  0  0  0  0
    4.9767  -49.9122  -24.6391 C   0  0  0  0  0  0  0  0  0  0  0  0
    4.9861  -48.7844  -25.5467 C   0  0  0  0  0  0  0  0  0  0  0  0
    3.9174  -47.9448  -25.7870 C   0  0  0  0  0  0  0  0  0  0  0  0
    4.0125  -46.8978  -26.6787 C   0  0  0  0  0  0  0  0  0  0  0  0
    5.1840  -46.6610  -27.3577 C   0  0  0  0  0  0  0  0  0  0  0  0
    6.2723  -47.4730  -27.1490 C   0  0  0  0  0  0  0  0  0  0  0  0
    6.1524  -48.5114  -26.2527 C   0  0  0  0  0  0  0  0  0  0  0  0
 18 19  1  0  0  0
 19 20  1  0  0  0
 19 21  2  0  0  0
 21 17  1  0  0  0
 17 16  1  0  0  0
 16 15  1  0  0  0
 15 12  1  0  0  0
 12  8  1  0  0  0
  8  9  1  0  0  0
  9 10  2  0  0  0
  9  1  1  0  0  0
  1  2  1  0  0  0
  2  3  1  0  0  0
  3  4  1  0  0  0
  4  5  1  0  0  0
  5  6  1  0  0  0
  6  7  2  0  0  0
  6 26  1  0  0  0
 26 39  1  0  0  0
 39 40  1  0  0  0
 40 41  2  0  0  0
 41 42  1  0  0  0
 42 43  2  0  0  0
 43 44  1  0  0  0
 44 45  2  0  0  0
 26 27  1  0  0  0
 27 28  1  0  0  0
 28 29  2  0  0  0
 28 31  1  0  0  0
 31 32  1  0  0  0
 32 33  1  0  0  0
 33 34  2  0  0  0
 34 35  1  0  0  0
 35 36  2  0  0  0
 36 37  1  0  0  0
 37 38  2  0  0  0
 12 13  1  0  0  0
 13 14  2  0  0  0
  5  1  1  0  0  0
 45 40  1  0  0  0
 38 33  1  0  0  0
 18 22  1  0  0  0
 18 23  1  0  0  0
 20 24  1  0  0  0
 20 25  1  0  0  0
  8 11  1  0  0  0
 27 30  1  0  0  0
M  END
> <minimizedAffinity>
-7.20308

> <CNNscore>
0.1905244291

> <CNNaffinity>
6.7665205002

> <CNN_VS>
1.2891874313

> <CNNaffinity_variance>
0.0311410483

$$$$
[H]C(=O)[C@@]([H])(N([H])C(=O)[C@@]1([H])N(C(=O)[C@]([H])(N([H])C(=O)OC([H])([H])c2c([H])c([H])c([H])c([H])c2[H])C([H])([H])c2c([H])c([H])c([H])c([H])c2[H])C([H])([H])C([H])([H])C1([H])[H])C([H])([H])C([H])([H])C([H])([H])N=C(N([H])[H])N([H])[H]


 45 47  0  0  0  0  0  0  0  0999 V2000
    5.6694  -50.0185  -23.1860 C   0  0  0  0  0  0  0  0  0  0  0  0
    6.3358  -51.0765  -24.0416 C   0  0  0  0  0  0  0  0  0  0  0  0
    5.3991  -52.2617  -24.1007 C   0  0  0  0  0  0  0  0  0  0  0  0
    4.5693  -52.0366  -22.8628 C   0  0  0  0  0  0  0  0  0  0  0  0
    4.4523  -50.6005  -22.7488 N   0  0  0  0  0  0  0  0  0  0  0  0
    3.2437  -50.0003  -22.2435 C   0  0  0  0  0  0  0  0  0  0  0  0
    3.2505  -48.7378  -22.1746 O   0  0  0  0  0  0  0  0  0  0  0  0
    4.4997  -48.7910  -24.9950 N   0  0  0  0  0  0  0  0  0  0  0  0
    5.5563  -48.8260  -24.0642 C   0  0  0  0  0  0  0  0  0  0  0  0
    6.3625  -47.8634  -24.0058 O   0  0  0  0  0  0  0  0  0  0  0  0
    3.8376  -49.5894  -25.0388 H   0  0  0  0  0  0  0  0  0  0  0  0
    4.2516  -47.7159  -25.9178 C   0  0  0  0  0  0  0  0  0  0  0  0
    3.2332  -46.7660  -25.4780 C   0  0  0  0  0  0  0  0  0  0  0  0
    3.5438  -45.9345  -24.6152 O   0  0  0  0  0  0  0  0  0  0  0  0
    4.0230  -48.2581  -27.3286 C   0  0  0  0  0  0  0  0  0  0  0  0
    3.5067  -47.1915  -28.2338 C   0  0  0  0  0  0  0  0  0  0  0  0
    4.3591  -47.1443  -29.4897 C   0  0  0  0  0  0  0  0  0  0  0  0
    5.6869  -50.1601  -31.1285 N   0  0  0  0  0  0  0  0  0  0  0  0
    5.0336  -48.9032  -30.9270 C   0  0  0  0  0  0  0  0  0  0  0  0
    4.4366  -48.2307  -32.0258 N   0  0  0  0  0  0  0  0  0  0  0  0
    5.0078  -48.4123  -29.7396 N   0  0  0  0  0  0  0  0  0  0  0  0
    6.3982  -50.5106  -30.4534 H   0  0  0  0  0  0  0  0  0  0  0  0
    5.4672  -50.7521  -31.9484 H   0  0  0  0  0  0  0  0  0  0  0  0
    3.6847  -48.7005  -32.5658 H   0  0  0  0  0  0  0  0  0  0  0  0
    4.7910  -47.2569  -32.2529 H   0  0  0  0  0  0  0  0  0  0  0  0
    2.0477  -50.7098  -21.8201 C   0  0  0  0  0  0  0  0  0  0  0  0
    1.0948  -50.6463  -22.9515 N   0  0  0  0  0  0  0  0  0  0  0  0
    0.7134  -51.8082  -23.6522 C   0  0  0  0  0  0  0  0  0  0  0  0
    1.2089  -52.9112  -23.2893 O   0  0  0  0  0  0  0  0  0  0  0  0
    0.7257  -49.7081  -23.1924 H   0  0  0  0  0  0  0  0  0  0  0  0
   -0.1650  -51.7966  -24.7020 O   0  0  0  0  0  0  0  0  0  0  0  0
   -0.6938  -52.9325  -25.3323 C   0  0  0  0  0  0  0  0  0  0  0  0
   -0.5578  -52.9257  -26.7970 C   0  0  0  0  0  0  0  0  0  0  0  0
   -1.5765  -52.6082  -27.6574 C   0  0  0  0  0  0  0  0  0  0  0  0
   -1.3685  -52.6205  -29.0173 C   0  0  0  0  0  0  0  0  0  0  0  0
   -0.1394  -52.9514  -29.5095 C   0  0  0  0  0  0  0  0  0  0  0  0
    0.9224  -53.2805  -28.6716 C   0  0  0  0  0  0  0  0  0  0  0  0
    0.6747  -53.2569  -27.3104 C   0  0  0  0  0  0  0  0  0  0  0  0
    1.2853  -50.0791  -20.6843 C   0  0  0  0  0  0  0  0  0  0  0  0
    0.6047  -50.9655  -19.7642 C   0  0  0  0  0  0  0  0  0  0  0  0
   -0.0140  -52.1503  -20.1078 C   0  0  0  0  0  0  0  0  0  0  0  0
   -0.6494  -52.9293  -19.1644 C   0  0  0  0  0  0  0  0  0  0  0  0
   -0.6838  -52.5426  -17.8458 C   0  0  0  0  0  0  0  0  0  0  0  0
   -0.0811  -51.3699  -17.4603 C   0  0  0  0  0  0  0  0  0  0  0  0
    0.5478  -50.6100  -18.4211 C   0  0  0  0  0  0  0  0  0  0  0  0
 18 19  1  0  0  0
 19 20  1  0  0  0
 19 21  2  0  0  0
 21 17  1  0  0  0
 17 16  1  0  0  0
 16 15  1  0  0  0
 15 12  1  0  0  0
 12  8  1  0  0  0
  8  9  1  0  0  0
  9 10  2  0  0  0
  9  1  1  0  0  0
  1  2  1  0  0  0
  2  3  1  0  0  0
  3  4  1  0  0  0
  4  5  1  0  0  0
  5  6  1  0  0  0
  6  7  2  0  0  0
  6 26  1  0  0  0
 26 39  1  0  0  0
 39 40  1  0  0  0
 40 41  2  0  0  0
 41 42  1  0  0  0
 42 43  2  0  0  0
 43 44  1  0  0  0
 44 45  2  0  0  0
 26 27  1  0  0  0
 27 28  1  0  0  0
 28 29  2  0  0  0
 28 31  1  0  0  0
 31 32  1  0  0  0
 32 33  1  0  0  0
 33 34  2  0  0  0
 34 35  1  0  0  0
 35 36  2  0  0  0
 36 37  1  0  0  0
 37 38  2  0  0  0
 12 13  1  0  0  0
 13 14  2  0  0  0
  5  1  1  0  0  0
 45 40  1  0  0  0
 38 33  1  0  0  0
 18 22  1  0  0  0
 18 23  1  0  0  0
 20 24  1  0  0  0
 20 25  1  0  0  0
  8 11  1  0  0  0
 27 30  1  0  0  0
M  END
> <minimizedAffinity>
-7.61031

> <CNNscore>
0.1649238765

> <CNNaffinity>
6.2446622849

> <CNN_VS>
1.0298938751

> <CNNaffinity_variance>
0.6981473565

$$$$
[H]C(=O)[C@@]([H])(N([H])C(=O)[C@@]1([H])N(C(=O)[C@]([H])(N([H])C(=O)OC([H])([H])c2c([H])c([H])c([H])c([H])c2[H])C([H])([H])c2c([H])c([H])c([H])c([H])c2[H])C([H])([H])C([H])([H])C1([H])[H])C([H])([H])C([H])([H])C([H])([H])N=C(N([H])[H])N([H])[H]


 45 47  0  0  0  0  0  0  0  0999 V2000
    0.2603  -51.9894  -20.5887 C   0  0  0  0  0  0  0  0  0  0  0  0
   -0.0514  -53.2873  -19.8720 C   0  0  0  0  0  0  0  0  0  0  0  0
   -0.1492  -54.3688  -20.9238 C   0  0  0  0  0  0  0  0  0  0  0  0
   -0.4490  -53.5502  -22.1533 C   0  0  0  0  0  0  0  0  0  0  0  0
    0.2833  -52.3179  -21.9681 N   0  0  0  0  0  0  0  0  0  0  0  0
    0.8728  -51.6382  -23.0936 C   0  0  0  0  0  0  0  0  0  0  0  0
    1.4815  -50.5636  -22.8226 O   0  0  0  0  0  0  0  0  0  0  0  0
    1.6734  -50.1430  -19.7275 N   0  0  0  0  0  0  0  0  0  0  0  0
    1.5392  -51.5189  -19.9979 C   0  0  0  0  0  0  0  0  0  0  0  0
    2.4916  -52.2969  -19.7381 O   0  0  0  0  0  0  0  0  0  0  0  0
    0.8835  -49.5055  -19.9450 H   0  0  0  0  0  0  0  0  0  0  0  0
    2.8432  -49.5261  -19.1619 C   0  0  0  0  0  0  0  0  0  0  0  0
    4.0122  -49.5333  -20.0372 C   0  0  0  0  0  0  0  0  0  0  0  0
    5.1316  -49.6200  -19.5159 O   0  0  0  0  0  0  0  0  0  0  0  0
    3.1168  -50.0721  -17.7606 C   0  0  0  0  0  0  0  0  0  0  0  0
    2.0762  -49.6137  -16.7959 C   0  0  0  0  0  0  0  0  0  0  0  0
    2.5584  -49.8711  -15.3792 C   0  0  0  0  0  0  0  0  0  0  0  0
   -0.0845  -50.5933  -12.9220 N   0  0  0  0  0  0  0  0  0  0  0  0
    0.9749  -50.7758  -13.8662 C   0  0  0  0  0  0  0  0  0  0  0  0
    1.4371  -52.0838  -14.1686 N   0  0  0  0  0  0  0  0  0  0  0  0
    1.4854  -49.7342  -14.4195 N   0  0  0  0  0  0  0  0  0  0  0  0
   -0.2215  -49.6819  -12.4372 H   0  0  0  0  0  0  0  0  0  0  0  0
   -0.7413  -51.3616  -12.6994 H   0  0  0  0  0  0  0  0  0  0  0  0
    0.7752  -52.7835  -14.5558 H   0  0  0  0  0  0  0  0  0  0  0  0
    2.4601  -52.2950  -13.9827 H   0  0  0  0  0  0  0  0  0  0  0  0
    0.8277  -52.0774  -24.4786 C   0  0  0  0  0  0  0  0  0  0  0  0
    1.4246  -50.9902  -25.2872 N   0  0  0  0  0  0  0  0  0  0  0  0
    2.7172  -51.1122  -25.8356 C   0  0  0  0  0  0  0  0  0  0  0  0
    3.3577  -52.1780  -25.6175 O   0  0  0  0  0  0  0  0  0  0  0  0
    0.8407  -50.1454  -25.4280 H   0  0  0  0  0  0  0  0  0  0  0  0
    3.3071  -50.1343  -26.5903 O   0  0  0  0  0  0  0  0  0  0  0  0
    3.7325  -48.8855  -26.1143 C   0  0  0  0  0  0  0  0  0  0  0  0
    3.3814  -47.7567  -26.9898 C   0  0  0  0  0  0  0  0  0  0  0  0
    2.5842  -46.7103  -26.6045 C   0  0  0  0  0  0  0  0  0  0  0  0
    2.3051  -45.6879  -27.4819 C   0  0  0  0  0  0  0  0  0  0  0  0
    2.8265  -45.7188  -28.7426 C   0  0  0  0  0  0  0  0  0  0  0  0
    3.6405  -46.7622  -29.1749 C   0  0  0  0  0  0  0  0  0  0  0  0
    3.8986  -47.7717  -28.2644 C   0  0  0  0  0  0  0  0  0  0  0  0
   -0.5502  -52.2349  -25.0663 C   0  0  0  0  0  0  0  0  0  0  0  0
   -0.6419  -52.5632  -26.4732 C   0  0  0  0  0  0  0  0  0  0  0  0
    0.3238  -53.2268  -27.2023 C   0  0  0  0  0  0  0  0  0  0  0  0
    0.1566  -53.4892  -28.5453 C   0  0  0  0  0  0  0  0  0  0  0  0
   -0.9860  -53.0930  -29.1988 C   0  0  0  0  0  0  0  0  0  0  0  0
   -1.9726  -52.4290  -28.5111 C   0  0  0  0  0  0  0  0  0  0  0  0
   -1.7823  -52.1796  -27.1703 C   0  0  0  0  0  0  0  0  0  0  0  0
 18 19  1  0  0  0
 19 20  1  0  0  0
 19 21  2  0  0  0
 21 17  1  0  0  0
 17 16  1  0  0  0
 16 15  1  0  0  0
 15 12  1  0  0  0
 12  8  1  0  0  0
  8  9  1  0  0  0
  9 10  2  0  0  0
  9  1  1  0  0  0
  1  2  1  0  0  0
  2  3  1  0  0  0
  3  4  1  0  0  0
  4  5  1  0  0  0
  5  6  1  0  0  0
  6  7  2  0  0  0
  6 26  1  0  0  0
 26 39  1  0  0  0
 39 40  1  0  0  0
 40 41  2  0  0  0
 41 42  1  0  0  0
 42 43  2  0  0  0
 43 44  1  0  0  0
 44 45  2  0  0  0
 26 27  1  0  0  0
 27 28  1  0  0  0
 28 29  2  0  0  0
 28 31  1  0  0  0
 31 32  1  0  0  0
 32 33  1  0  0  0
 33 34  2  0  0  0
 34 35  1  0  0  0
 35 36  2  0  0  0
 36 37  1  0  0  0
 37 38  2  0  0  0
 12 13  1  0  0  0
 13 14  2  0  0  0
  5  1  1  0  0  0
 45 40  1  0  0  0
 38 33  1  0  0  0
 18 22  1  0  0  0
 18 23  1  0  0  0
 20 24  1  0  0  0
 20 25  1  0  0  0
  8 11  1  0  0  0
 27 30  1  0  0  0
M  END
> <minimizedAffinity>
-7.33304

> <CNNscore>
0.1607355773

> <CNNaffinity>
6.3567667007

> <CNN_VS>
1.0217585564

> <CNNaffinity_variance>
0.0921893790

$$$$
[H]C(=O)[C@@]([H])(N([H])C(=O)[C@@]1([H])N(C(=O)[C@]([H])(N([H])C(=O)OC([H])([H])c2c([H])c([H])c([H])c([H])c2[H])C([H])([H])c2c([H])c([H])c([H])c([H])c2[H])C([H])([H])C([H])([H])C1([H])[H])C([H])([H])C([H])([H])C([H])([H])N=C(N([H])[H])N([H])[H]


 45 47  0  0  0  0  0  0  0  0999 V2000
    0.1251  -53.8869  -22.6884 C   0  0  0  0  0  0  0  0  0  0  0  0
   -1.1805  -54.5927  -22.3837 C   0  0  0  0  0  0  0  0  0  0  0  0
   -1.7846  -53.9168  -21.1739 C   0  0  0  0  0  0  0  0  0  0  0  0
   -0.5633  -53.2869  -20.5546 C   0  0  0  0  0  0  0  0  0  0  0  0
    0.2677  -52.9061  -21.6741 N   0  0  0  0  0  0  0  0  0  0  0  0
    1.0671  -51.7084  -21.6210 C   0  0  0  0  0  0  0  0  0  0  0  0
    1.7653  -51.4739  -22.6488 O   0  0  0  0  0  0  0  0  0  0  0  0
    1.0796  -53.5201  -24.9472 N   0  0  0  0  0  0  0  0  0  0  0  0
   -0.0215  -53.3861  -24.0790 C   0  0  0  0  0  0  0  0  0  0  0  0
   -1.0795  -52.8524  -24.4983 O   0  0  0  0  0  0  0  0  0  0  0  0
    1.9508  -53.9612  -24.5947 H   0  0  0  0  0  0  0  0  0  0  0  0
    1.1039  -53.0854  -26.3181 C   0  0  0  0  0  0  0  0  0  0  0  0
    0.5911  -54.0659  -27.2713 C   0  0  0  0  0  0  0  0  0  0  0  0
    0.4208  -55.2277  -26.8795 O   0  0  0  0  0  0  0  0  0  0  0  0
    2.4803  -52.5296  -26.6833 C   0  0  0  0  0  0  0  0  0  0  0  0
    2.5641  -51.0711  -26.3840 C   0  0  0  0  0  0  0  0  0  0  0  0
    3.8315  -50.7938  -25.5948 C   0  0  0  0  0  0  0  0  0  0  0  0
    5.6376  -53.1524  -23.4224 N   0  0  0  0  0  0  0  0  0  0  0  0
    5.3626  -52.0561  -24.2998 C   0  0  0  0  0  0  0  0  0  0  0  0
    6.4118  -51.1855  -24.6963 N   0  0  0  0  0  0  0  0  0  0  0  0
    4.1554  -51.8888  -24.7075 N   0  0  0  0  0  0  0  0  0  0  0  0
    4.8802  -53.5943  -22.8605 H   0  0  0  0  0  0  0  0  0  0  0  0
    6.5948  -53.5339  -23.3263 H   0  0  0  0  0  0  0  0  0  0  0  0
    7.2342  -51.5711  -25.1988 H   0  0  0  0  0  0  0  0  0  0  0  0
    6.3087  -50.1568  -24.4579 H   0  0  0  0  0  0  0  0  0  0  0  0
    1.1322  -50.7711  -20.5118 C   0  0  0  0  0  0  0  0  0  0  0  0
    2.2970  -49.8934  -20.7670 N   0  0  0  0  0  0  0  0  0  0  0  0
    2.1308  -48.5251  -21.0611 C   0  0  0  0  0  0  0  0  0  0  0  0
    0.9562  -48.0641  -21.1031 O   0  0  0  0  0  0  0  0  0  0  0  0
    3.2315  -50.3387  -20.7130 H   0  0  0  0  0  0  0  0  0  0  0  0
    3.1780  -47.6770  -21.3016 O   0  0  0  0  0  0  0  0  0  0  0  0
    3.0735  -46.3928  -21.8556 C   0  0  0  0  0  0  0  0  0  0  0  0
    3.0398  -46.3730  -23.3262 C   0  0  0  0  0  0  0  0  0  0  0  0
    3.6371  -47.3202  -24.1168 C   0  0  0  0  0  0  0  0  0  0  0  0
    3.5567  -47.2341  -25.4876 C   0  0  0  0  0  0  0  0  0  0  0  0
    2.8778  -46.1981  -26.0605 C   0  0  0  0  0  0  0  0  0  0  0  0
    2.2569  -45.2149  -25.2951 C   0  0  0  0  0  0  0  0  0  0  0  0
    2.3595  -45.3356  -23.9204 C   0  0  0  0  0  0  0  0  0  0  0  0
    1.4375  -51.3759  -19.1665 C   0  0  0  0  0  0  0  0  0  0  0  0
    0.6440  -50.9322  -18.0400 C   0  0  0  0  0  0  0  0  0  0  0  0
   -0.3252  -51.6801  -17.4028 C   0  0  0  0  0  0  0  0  0  0  0  0
   -1.0422  -51.1722  -16.3405 C   0  0  0  0  0  0  0  0  0  0  0  0
   -0.8086  -49.8967  -15.8846 C   0  0  0  0  0  0  0  0  0  0  0  0
    0.1469  -49.1174  -16.4904 C   0  0  0  0  0  0  0  0  0  0  0  0
    0.8501  -49.6478  -17.5488 C   0  0  0  0  0  0  0  0  0  0  0  0
 18 19  1  0  0  0
 19 20  1  0  0  0
 19 21  2  0  0  0
 21 17  1  0  0  0
 17 16  1  0  0  0
 16 15  1  0  0  0
 15 12  1  0  0  0
 12  8  1  0  0  0
  8  9  1  0  0  0
  9 10  2  0  0  0
  9  1  1  0  0  0
  1  2  1  0  0  0
  2  3  1  0  0  0
  3  4  1  0  0  0
  4  5  1  0  0  0
  5  6  1  0  0  0
  6  7  2  0  0  0
  6 26  1  0  0  0
 26 39  1  0  0  0
 39 40  1  0  0  0
 40 41  2  0  0  0
 41 42  1  0  0  0
 42 43  2  0  0  0
 43 44  1  0  0  0
 44 45  2  0  0  0
 26 27  1  0  0  0
 27 28  1  0  0  0
 28 29  2  0  0  0
 28 31  1  0  0  0
 31 32  1  0  0  0
 32 33  1  0  0  0
 33 34  2  0  0  0
 34 35  1  0  0  0
 35 36  2  0  0  0
 36 37  1  0  0  0
 37 38  2  0  0  0
 12 13  1  0  0  0
 13 14  2  0  0  0
  5  1  1  0  0  0
 45 40  1  0  0  0
 38 33  1  0  0  0
 18 22  1  0  0  0
 18 23  1  0  0  0
 20 24  1  0  0  0
 20 25  1  0  0  0
  8 11  1  0  0  0
 27 30  1  0  0  0
M  END
> <minimizedAffinity>
-7.46291

> <CNNscore>
0.2971942127

> <CNNaffinity>
6.7974572182

> <CNN_VS>
2.0201649666

> <CNNaffinity_variance>
0.2897917330

$$$$
[H]C(=O)[C@@]([H])(N([H])C(=O)[C@@]1([H])N(C(=O)[C@]([H])(N([H])C(=O)OC([H])([H])c2c([H])c([H])c([H])c([H])c2[H])C([H])([H])c2c([H])c([H])c([H])c([H])c2[H])C([H])([H])C([H])([H])C1([H])[H])C([H])([H])C([H])([H])C([H])([H])N=C(N([H])[H])N([H])[H]


 45 47  0  0  0  0  0  0  0  0999 V2000
    4.3731  -50.3742  -24.1308 C   0  0  0  0  0  0  0  0  0  0  0  0
    4.4192  -49.1728  -25.0528 C   0  0  0  0  0  0  0  0  0  0  0  0
    3.0583  -49.0508  -25.6997 C   0  0  0  0  0  0  0  0  0  0  0  0
    2.5413  -50.4591  -25.5538 C   0  0  0  0  0  0  0  0  0  0  0  0
    3.0757  -50.9233  -24.2936 N   0  0  0  0  0  0  0  0  0  0  0  0
    2.3093  -51.8070  -23.4523 C   0  0  0  0  0  0  0  0  0  0  0  0
    2.8739  -52.1613  -22.3779 O   0  0  0  0  0  0  0  0  0  0  0  0
    3.7509  -49.0209  -22.1487 N   0  0  0  0  0  0  0  0  0  0  0  0
    4.7033  -49.8412  -22.7844 C   0  0  0  0  0  0  0  0  0  0  0  0
    5.7897  -50.0928  -22.2045 O   0  0  0  0  0  0  0  0  0  0  0  0
    2.8558  -48.8162  -22.6332 H   0  0  0  0  0  0  0  0  0  0  0  0
    3.9153  -48.4233  -20.8507 C   0  0  0  0  0  0  0  0  0  0  0  0
    5.1178  -47.6066  -20.7102 C   0  0  0  0  0  0  0  0  0  0  0  0
    5.9469  -47.9309  -19.8501 O   0  0  0  0  0  0  0  0  0  0  0  0
    3.7471  -49.4704  -19.7497 C   0  0  0  0  0  0  0  0  0  0  0  0
    2.8453  -48.9721  -18.6717 C   0  0  0  0  0  0  0  0  0  0  0  0
    3.6500  -48.7673  -17.4003 C   0  0  0  0  0  0  0  0  0  0  0  0
    2.4038  -50.6405  -14.4879 N   0  0  0  0  0  0  0  0  0  0  0  0
    3.1667  -50.2833  -15.6444 C   0  0  0  0  0  0  0  0  0  0  0  0
    4.1858  -51.1516  -16.1171 N   0  0  0  0  0  0  0  0  0  0  0  0
    2.9039  -49.1691  -16.2286 N   0  0  0  0  0  0  0  0  0  0  0  0
    1.9024  -49.9179  -13.9303 H   0  0  0  0  0  0  0  0  0  0  0  0
    2.3302  -51.6255  -14.1786 H   0  0  0  0  0  0  0  0  0  0  0  0
    3.9425  -52.1211  -16.3973 H   0  0  0  0  0  0  0  0  0  0  0  0
    5.1727  -50.7651  -16.1654 H   0  0  0  0  0  0  0  0  0  0  0  0
    0.9736  -52.3090  -23.7301 C   0  0  0  0  0  0  0  0  0  0  0  0
    0.5162  -52.9978  -22.5018 N   0  0  0  0  0  0  0  0  0  0  0  0
   -0.3064  -52.3458  -21.5613 C   0  0  0  0  0  0  0  0  0  0  0  0
   -0.6444  -51.1517  -21.7933 O   0  0  0  0  0  0  0  0  0  0  0  0
    0.8297  -53.9781  -22.3781 H   0  0  0  0  0  0  0  0  0  0  0  0
   -0.7540  -52.9439  -20.4143 O   0  0  0  0  0  0  0  0  0  0  0  0
   -0.0257  -53.0626  -19.2216 C   0  0  0  0  0  0  0  0  0  0  0  0
   -0.6492  -52.3974  -18.0672 C   0  0  0  0  0  0  0  0  0  0  0  0
   -1.7998  -52.8340  -17.4636 C   0  0  0  0  0  0  0  0  0  0  0  0
   -2.3189  -52.1583  -16.3834 C   0  0  0  0  0  0  0  0  0  0  0  0
   -1.6821  -51.0469  -15.9126 C   0  0  0  0  0  0  0  0  0  0  0  0
   -0.5117  -50.5692  -16.4957 C   0  0  0  0  0  0  0  0  0  0  0  0
   -0.0204  -51.2753  -17.5796 C   0  0  0  0  0  0  0  0  0  0  0  0
    0.8882  -53.3808  -24.7851 C   0  0  0  0  0  0  0  0  0  0  0  0
    0.0415  -53.1232  -25.9307 C   0  0  0  0  0  0  0  0  0  0  0  0
    0.3189  -53.5007  -27.2288 C   0  0  0  0  0  0  0  0  0  0  0  0
   -0.5425  -53.2036  -28.2633 C   0  0  0  0  0  0  0  0  0  0  0  0
   -1.7099  -52.5176  -28.0268 C   0  0  0  0  0  0  0  0  0  0  0  0
   -2.0248  -52.1223  -26.7494 C   0  0  0  0  0  0  0  0  0  0  0  0
   -1.1486  -52.4318  -25.7332 C   0  0  0  0  0  0  0  0  0  0  0  0
 18 19  1  0  0  0
 19 20  1  0  0  0
 19 21  2  0  0  0
 21 17  1  0  0  0
 17 16  1  0  0  0
 16 15  1  0  0  0
 15 12  1  0  0  0
 12  8  1  0  0  0
  8  9  1  0  0  0
  9 10  2  0  0  0
  9  1  1  0  0  0
  1  2  1  0  0  0
  2  3  1  0  0  0
  3  4  1  0  0  0
  4  5  1  0  0  0
  5  6  1  0  0  0
  6  7  2  0  0  0
  6 26  1  0  0  0
 26 39  1  0  0  0
 39 40  1  0  0  0
 40 41  2  0  0  0
 41 42  1  0  0  0
 42 43  2  0  0  0
 43 44  1  0  0  0
 44 45  2  0  0  0
 26 27  1  0  0  0
 27 28  1  0  0  0
 28 29  2  0  0  0
 28 31  1  0  0  0
 31 32  1  0  0  0
 32 33  1  0  0  0
 33 34  2  0  0  0
 34 35  1  0  0  0
 35 36  2  0  0  0
 36 37  1  0  0  0
 37 38  2  0  0  0
 12 13  1  0  0  0
 13 14  2  0  0  0
  5  1  1  0  0  0
 45 40  1  0  0  0
 38 33  1  0  0  0
 18 22  1  0  0  0
 18 23  1  0  0  0
 20 24  1  0  0  0
 20 25  1  0  0  0
  8 11  1  0  0  0
 27 30  1  0  0  0
M  END
> <minimizedAffinity>
-6.65200

> <CNNscore>
0.2404733747

> <CNNaffinity>
6.5858640671

> <CNN_VS>
1.5837249756

> <CNNaffinity_variance>
0.1927620620

$$$$
[H]C(=O)[C@@]([H])(N([H])C(=O)[C@@]1([H])N(C(=O)[C@]([H])(N([H])C(=O)OC([H])([H])c2c([H])c([H])c([H])c([H])c2[H])C([H])([H])c2c([H])c([H])c([H])c([H])c2[H])C([H])([H])C([H])([H])C1([H])[H])C([H])([H])C([H])([H])C([H])([H])N=C(N([H])[H])N([H])[H]


 45 47  0  0  0  0  0  0  0  0999 V2000
   -0.3653  -51.9857  -21.1612 C   0  0  0  0  0  0  0  0  0  0  0  0
   -1.1795  -53.2311  -21.4468 C   0  0  0  0  0  0  0  0  0  0  0  0
   -0.5012  -53.9599  -22.5845 C   0  0  0  0  0  0  0  0  0  0  0  0
    0.2803  -52.8392  -23.2209 C   0  0  0  0  0  0  0  0  0  0  0  0
    0.6794  -51.9916  -22.1203 N   0  0  0  0  0  0  0  0  0  0  0  0
    1.9518  -51.3156  -22.1384 C   0  0  0  0  0  0  0  0  0  0  0  0
    2.1974  -50.5907  -21.1319 O   0  0  0  0  0  0  0  0  0  0  0  0
    0.2679  -50.9207  -19.0136 N   0  0  0  0  0  0  0  0  0  0  0  0
    0.0408  -52.1074  -19.7377 C   0  0  0  0  0  0  0  0  0  0  0  0
    0.1886  -53.2182  -19.1685 O   0  0  0  0  0  0  0  0  0  0  0  0
    0.1448  -50.0064  -19.4895 H   0  0  0  0  0  0  0  0  0  0  0  0
    0.6685  -50.8632  -17.6333 C   0  0  0  0  0  0  0  0  0  0  0  0
   -0.4230  -50.6035  -16.6984 C   0  0  0  0  0  0  0  0  0  0  0  0
   -1.2424  -51.5080  -16.4914 O   0  0  0  0  0  0  0  0  0  0  0  0
    1.8674  -49.9312  -17.4580 C   0  0  0  0  0  0  0  0  0  0  0  0
    3.0826  -50.6943  -17.0524 C   0  0  0  0  0  0  0  0  0  0  0  0
    3.0326  -50.9582  -15.5577 C   0  0  0  0  0  0  0  0  0  0  0  0
    4.6567  -53.7028  -13.7210 N   0  0  0  0  0  0  0  0  0  0  0  0
    4.0386  -52.4455  -14.0116 C   0  0  0  0  0  0  0  0  0  0  0  0
    3.8532  -51.4911  -12.9768 N   0  0  0  0  0  0  0  0  0  0  0  0
    3.6623  -52.2150  -15.2186 N   0  0  0  0  0  0  0  0  0  0  0  0
    4.5146  -54.5276  -14.3406 H   0  0  0  0  0  0  0  0  0  0  0  0
    5.2612  -53.8225  -12.8896 H   0  0  0  0  0  0  0  0  0  0  0  0
    4.6778  -51.1314  -12.4589 H   0  0  0  0  0  0  0  0  0  0  0  0
    2.8598  -51.1793  -12.7728 H   0  0  0  0  0  0  0  0  0  0  0  0
    2.9508  -51.3992  -23.1910 C   0  0  0  0  0  0  0  0  0  0  0  0
    2.5474  -52.5208  -24.0694 N   0  0  0  0  0  0  0  0  0  0  0  0
    2.6777  -52.4356  -25.4702 C   0  0  0  0  0  0  0  0  0  0  0  0
    3.1486  -51.3716  -25.9602 O   0  0  0  0  0  0  0  0  0  0  0  0
    2.1719  -53.3643  -23.5984 H   0  0  0  0  0  0  0  0  0  0  0  0
    2.3198  -53.4475  -26.3197 O   0  0  0  0  0  0  0  0  0  0  0  0
    2.0089  -53.2963  -27.6790 C   0  0  0  0  0  0  0  0  0  0  0  0
    0.5895  -53.0149  -27.9438 C   0  0  0  0  0  0  0  0  0  0  0  0
    0.0364  -52.9909  -29.1977 C   0  0  0  0  0  0  0  0  0  0  0  0
   -1.3030  -52.7237  -29.3627 C   0  0  0  0  0  0  0  0  0  0  0  0
   -2.0830  -52.4814  -28.2694 C   0  0  0  0  0  0  0  0  0  0  0  0
   -1.5622  -52.4958  -26.9785 C   0  0  0  0  0  0  0  0  0  0  0  0
   -0.2113  -52.7684  -26.8528 C   0  0  0  0  0  0  0  0  0  0  0  0
    4.3362  -51.7857  -22.7435 C   0  0  0  0  0  0  0  0  0  0  0  0
    5.2866  -50.7174  -22.5176 C   0  0  0  0  0  0  0  0  0  0  0  0
    6.0248  -50.5365  -21.3656 C   0  0  0  0  0  0  0  0  0  0  0  0
    6.9022  -49.4816  -21.2325 C   0  0  0  0  0  0  0  0  0  0  0  0
    7.0658  -48.5745  -22.2522 C   0  0  0  0  0  0  0  0  0  0  0  0
    6.3502  -48.7166  -23.4162 C   0  0  0  0  0  0  0  0  0  0  0  0
    5.4809  -49.7790  -23.5251 C   0  0  0  0  0  0  0  0  0  0  0  0
 18 19  1  0  0  0
 19 20  1  0  0  0
 19 21  2  0  0  0
 21 17  1  0  0  0
 17 16  1  0  0  0
 16 15  1  0  0  0
 15 12  1  0  0  0
 12  8  1  0  0  0
  8  9  1  0  0  0
  9 10  2  0  0  0
  9  1  1  0  0  0
  1  2  1  0  0  0
  2  3  1  0  0  0
  3  4  1  0  0  0
  4  5  1  0  0  0
  5  6  1  0  0  0
  6  7  2  0  0  0
  6 26  1  0  0  0
 26 39  1  0  0  0
 39 40  1  0  0  0
 40 41  2  0  0  0
 41 42  1  0  0  0
 42 43  2  0  0  0
 43 44  1  0  0  0
 44 45  2  0  0  0
 26 27  1  0  0  0
 27 28  1  0  0  0
 28 29  2  0  0  0
 28 31  1  0  0  0
 31 32  1  0  0  0
 32 33  1  0  0  0
 33 34  2  0  0  0
 34 35  1  0  0  0
 35 36  2  0  0  0
 36 37  1  0  0  0
 37 38  2  0  0  0
 12 13  1  0  0  0
 13 14  2  0  0  0
  5  1  1  0  0  0
 45 40  1  0  0  0
 38 33  1  0  0  0
 18 22  1  0  0  0
 18 23  1  0  0  0
 20 24  1  0  0  0
 20 25  1  0  0  0
  8 11  1  0  0  0
 27 30  1  0  0  0
M  END
> <minimizedAffinity>
-7.76277

> <CNNscore>
0.2327931374

> <CNNaffinity>
6.7601356506

> <CNN_VS>
1.5737131834

> <CNNaffinity_variance>
0.0787967443

$$$$
[H]C(=O)[C@@]([H])(N([H])C(=O)[C@@]1([H])N(C(=O)[C@]([H])(N([H])C(=O)OC([H])([H])c2c([H])c([H])c([H])c([H])c2[H])C([H])([H])c2c([H])c([H])c([H])c([H])c2[H])C([H])([H])C([H])([H])C1([H])[H])C([H])([H])C([H])([H])C([H])([H])N=C(N([H])[H])N([H])[H]


 45 47  0  0  0  0  0  0  0  0999 V2000
    0.6994  -52.8438  -20.5885 C   0  0  0  0  0  0  0  0  0  0  0  0
   -0.5468  -53.4632  -19.9895 C   0  0  0  0  0  0  0  0  0  0  0  0
   -0.9153  -52.6441  -18.7734 C   0  0  0  0  0  0  0  0  0  0  0  0
    0.4083  -52.0023  -18.4450 C   0  0  0  0  0  0  0  0  0  0  0  0
    1.0378  -51.7707  -19.7253 N   0  0  0  0  0  0  0  0  0  0  0  0
    1.8586  -50.6059  -19.9396 C   0  0  0  0  0  0  0  0  0  0  0  0
    2.3704  -50.5051  -21.0914 O   0  0  0  0  0  0  0  0  0  0  0  0
    1.2316  -52.7879  -23.0095 N   0  0  0  0  0  0  0  0  0  0  0  0
    0.3215  -52.4824  -21.9787 C   0  0  0  0  0  0  0  0  0  0  0  0
   -0.7664  -51.9190  -22.2598 O   0  0  0  0  0  0  0  0  0  0  0  0
    2.1287  -53.2526  -22.7708 H   0  0  0  0  0  0  0  0  0  0  0  0
    1.0216  -52.5026  -24.4036 C   0  0  0  0  0  0  0  0  0  0  0  0
    1.4029  -51.1519  -24.8073 C   0  0  0  0  0  0  0  0  0  0  0  0
    2.0438  -50.4613  -24.0044 O   0  0  0  0  0  0  0  0  0  0  0  0
   -0.3924  -52.8987  -24.8281 C   0  0  0  0  0  0  0  0  0  0  0  0
   -0.4620  -54.3492  -25.1671 C   0  0  0  0  0  0  0  0  0  0  0  0
    0.3304  -54.6054  -26.4370 C   0  0  0  0  0  0  0  0  0  0  0  0
    0.0512  -52.7624  -29.6102 N   0  0  0  0  0  0  0  0  0  0  0  0
    0.5923  -53.5368  -28.5356 C   0  0  0  0  0  0  0  0  0  0  0  0
    1.9441  -53.9684  -28.5838 N   0  0  0  0  0  0  0  0  0  0  0  0
   -0.1738  -53.8245  -27.5447 N   0  0  0  0  0  0  0  0  0  0  0  0
   -0.9762  -52.7134  -29.7735 H   0  0  0  0  0  0  0  0  0  0  0  0
    0.6672  -52.2308  -30.2498 H   0  0  0  0  0  0  0  0  0  0  0  0
    2.7038  -53.2642  -28.6523 H   0  0  0  0  0  0  0  0  0  0  0  0
    2.1244  -55.0132  -28.5465 H   0  0  0  0  0  0  0  0  0  0  0  0
    2.1365  -49.5634  -18.9654 C   0  0  0  0  0  0  0  0  0  0  0  0
    0.8597  -49.2820  -18.2704 N   0  0  0  0  0  0  0  0  0  0  0  0
    0.8270  -48.9877  -16.8925 C   0  0  0  0  0  0  0  0  0  0  0  0
    1.9204  -48.9712  -16.2616 O   0  0  0  0  0  0  0  0  0  0  0  0
    0.0017  -49.3099  -18.8513 H   0  0  0  0  0  0  0  0  0  0  0  0
   -0.3290  -48.7198  -16.2100 O   0  0  0  0  0  0  0  0  0  0  0  0
   -0.7931  -49.4233  -15.0890 C   0  0  0  0  0  0  0  0  0  0  0  0
   -2.1222  -50.0282  -15.2664 C   0  0  0  0  0  0  0  0  0  0  0  0
   -2.3259  -51.3058  -15.7194 C   0  0  0  0  0  0  0  0  0  0  0  0
   -3.6022  -51.8014  -15.8542 C   0  0  0  0  0  0  0  0  0  0  0  0
   -4.6698  -51.0138  -15.5343 C   0  0  0  0  0  0  0  0  0  0  0  0
   -4.5081  -49.7111  -15.0709 C   0  0  0  0  0  0  0  0  0  0  0  0
   -3.2098  -49.2482  -14.9485 C   0  0  0  0  0  0  0  0  0  0  0  0
    2.5257  -48.2256  -19.5379 C   0  0  0  0  0  0  0  0  0  0  0  0
    3.9272  -47.8652  -19.4984 C   0  0  0  0  0  0  0  0  0  0  0  0
    4.9800  -48.7573  -19.4736 C   0  0  0  0  0  0  0  0  0  0  0  0
    6.2879  -48.3242  -19.4258 C   0  0  0  0  0  0  0  0  0  0  0  0
    6.5799  -46.9812  -19.4010 C   0  0  0  0  0  0  0  0  0  0  0  0
    5.5621  -46.0588  -19.4237 C   0  0  0  0  0  0  0  0  0  0  0  0
    4.2643  -46.5165  -19.4724 C   0  0  0  0  0  0  0  0  0  0  0  0
 18 19  1  0  0  0
 19 20  1  0  0  0
 19 21  2  0  0  0
 21 17  1  0  0  0
 17 16  1  0  0  0
 16 15  1  0  0  0
 15 12  1  0  0  0
 12  8  1  0  0  0
  8  9  1  0  0  0
  9 10  2  0  0  0
  9  1  1  0  0  0
  1  2  1  0  0  0
  2  3  1  0  0  0
  3  4  1  0  0  0
  4  5  1  0  0  0
  5  6  1  0  0  0
  6  7  2  0  0  0
  6 26  1  0  0  0
 26 39  1  0  0  0
 39 40  1  0  0  0
 40 41  2  0  0  0
 41 42  1  0  0  0
 42 43  2  0  0  0
 43 44  1  0  0  0
 44 45  2  0  0  0
 26 27  1  0  0  0
 27 28  1  0  0  0
 28 29  2  0  0  0
 28 31  1  0  0  0
 31 32  1  0  0  0
 32 33  1  0  0  0
 33 34  2  0  0  0
 34 35  1  0  0  0
 35 36  2  0  0  0
 36 37  1  0  0  0
 37 38  2  0  0  0
 12 13  1  0  0  0
 13 14  2  0  0  0
  5  1  1  0  0  0
 45 40  1  0  0  0
 38 33  1  0  0  0
 18 22  1  0  0  0
 18 23  1  0  0  0
 20 24  1  0  0  0
 20 25  1  0  0  0
  8 11  1  0  0  0
 27 30  1  0  0  0
M  END
> <minimizedAffinity>
-6.99051

> <CNNscore>
0.2082939148

> <CNNaffinity>
6.6524667740

> <CNN_VS>
1.3856683969

> <CNNaffinity_variance>
0.1069749743

$$$$
[H]C(=O)[C@@]([H])(N([H])C(=O)[C@@]1([H])N(C(=O)[C@]([H])(N([H])C(=O)OC([H])([H])c2c([H])c([H])c([H])c([H])c2[H])C([H])([H])c2c([H])c([H])c([H])c([H])c2[H])C([H])([H])C([H])([H])C1([H])[H])C([H])([H])C([H])([H])C([H])([H])N=C(N([H])[H])N([H])[H]


 45 47  0  0  0  0  0  0  0  0999 V2000
    0.4813  -52.0221  -20.7809 C   0  0  0  0  0  0  0  0  0  0  0  0
    0.1923  -53.3616  -20.1347 C   0  0  0  0  0  0  0  0  0  0  0  0
   -0.0003  -54.3653  -21.2486 C   0  0  0  0  0  0  0  0  0  0  0  0
   -0.3665  -53.4582  -22.3952 C   0  0  0  0  0  0  0  0  0  0  0  0
    0.4026  -52.2539  -22.1778 N   0  0  0  0  0  0  0  0  0  0  0  0
    0.9276  -51.5070  -23.2926 C   0  0  0  0  0  0  0  0  0  0  0  0
    1.5761  -50.4640  -22.9919 O   0  0  0  0  0  0  0  0  0  0  0  0
    2.1239  -50.2423  -20.2500 N   0  0  0  0  0  0  0  0  0  0  0  0
    1.8075  -51.6148  -20.2502 C   0  0  0  0  0  0  0  0  0  0  0  0
    2.6442  -52.4435  -19.8107 O   0  0  0  0  0  0  0  0  0  0  0  0
    1.4289  -49.5630  -20.6150 H   0  0  0  0  0  0  0  0  0  0  0  0
    3.3619  -49.6836  -19.7765 C   0  0  0  0  0  0  0  0  0  0  0  0
    3.3173  -49.1980  -18.3999 C   0  0  0  0  0  0  0  0  0  0  0  0
    2.9092  -48.0466  -18.1996 O   0  0  0  0  0  0  0  0  0  0  0  0
    3.9099  -48.6635  -20.7743 C   0  0  0  0  0  0  0  0  0  0  0  0
    5.3783  -48.8390  -20.9660 C   0  0  0  0  0  0  0  0  0  0  0  0
    5.6879  -50.3156  -21.1392 C   0  0  0  0  0  0  0  0  0  0  0  0
    6.1800  -51.5946  -24.5547 N   0  0  0  0  0  0  0  0  0  0  0  0
    5.5995  -51.3471  -23.2706 C   0  0  0  0  0  0  0  0  0  0  0  0
    4.3480  -51.9277  -22.9348 N   0  0  0  0  0  0  0  0  0  0  0  0
    6.2371  -50.5935  -22.4477 N   0  0  0  0  0  0  0  0  0  0  0  0
    6.8945  -50.9512  -24.9547 H   0  0  0  0  0  0  0  0  0  0  0  0
    5.9056  -52.4197  -25.1160 H   0  0  0  0  0  0  0  0  0  0  0  0
    4.2443  -52.9606  -22.9445 H   0  0  0  0  0  0  0  0  0  0  0  0
    3.5561  -51.2683  -22.6827 H   0  0  0  0  0  0  0  0  0  0  0  0
    0.7783  -51.8477  -24.6978 C   0  0  0  0  0  0  0  0  0  0  0  0
    1.3908  -50.7422  -25.4690 N   0  0  0  0  0  0  0  0  0  0  0  0
    2.6877  -50.8581  -26.0085 C   0  0  0  0  0  0  0  0  0  0  0  0
    3.3184  -51.9346  -25.8152 O   0  0  0  0  0  0  0  0  0  0  0  0
    0.8145  -49.8893  -25.5909 H   0  0  0  0  0  0  0  0  0  0  0  0
    3.2921  -49.8634  -26.7289 O   0  0  0  0  0  0  0  0  0  0  0  0
    4.2012  -48.9261  -26.2170 C   0  0  0  0  0  0  0  0  0  0  0  0
    3.5755  -47.6922  -25.7170 C   0  0  0  0  0  0  0  0  0  0  0  0
    3.0164  -46.7371  -26.5258 C   0  0  0  0  0  0  0  0  0  0  0  0
    2.4454  -45.6104  -25.9804 C   0  0  0  0  0  0  0  0  0  0  0  0
    2.4374  -45.4456  -24.6258 C   0  0  0  0  0  0  0  0  0  0  0  0
    2.9941  -46.3903  -23.7681 C   0  0  0  0  0  0  0  0  0  0  0  0
    3.5587  -47.5098  -24.3536 C   0  0  0  0  0  0  0  0  0  0  0  0
   -0.6377  -51.8894  -25.2099 C   0  0  0  0  0  0  0  0  0  0  0  0
   -0.8360  -52.2654  -26.5937 C   0  0  0  0  0  0  0  0  0  0  0  0
   -2.0230  -52.1533  -27.2888 C   0  0  0  0  0  0  0  0  0  0  0  0
   -2.1243  -52.5469  -28.6061 C   0  0  0  0  0  0  0  0  0  0  0  0
   -1.0365  -53.0660  -29.2670 C   0  0  0  0  0  0  0  0  0  0  0  0
    0.1643  -53.1957  -28.6125 C   0  0  0  0  0  0  0  0  0  0  0  0
    0.2402  -52.7946  -27.2974 C   0  0  0  0  0  0  0  0  0  0  0  0
 18 19  1  0  0  0
 19 20  1  0  0  0
 19 21  2  0  0  0
 21 17  1  0  0  0
 17 16  1  0  0  0
 16 15  1  0  0  0
 15 12  1  0  0  0
 12  8  1  0  0  0
  8  9  1  0  0  0
  9 10  2  0  0  0
  9  1  1  0  0  0
  1  2  1  0  0  0
  2  3  1  0  0  0
  3  4  1  0  0  0
  4  5  1  0  0  0
  5  6  1  0  0  0
  6  7  2  0  0  0
  6 26  1  0  0  0
 26 39  1  0  0  0
 39 40  1  0  0  0
 40 41  2  0  0  0
 41 42  1  0  0  0
 42 43  2  0  0  0
 43 44  1  0  0  0
 44 45  2  0  0  0
 26 27  1  0  0  0
 27 28  1  0  0  0
 28 29  2  0  0  0
 28 31  1  0  0  0
 31 32  1  0  0  0
 32 33  1  0  0  0
 33 34  2  0  0  0
 34 35  1  0  0  0
 35 36  2  0  0  0
 36 37  1  0  0  0
 37 38  2  0  0  0
 12 13  1  0  0  0
 13 14  2  0  0  0
  5  1  1  0  0  0
 45 40  1  0  0  0
 38 33  1  0  0  0
 18 22  1  0  0  0
 18 23  1  0  0  0
 20 24  1  0  0  0
 20 25  1  0  0  0
  8 11  1  0  0  0
 27 30  1  0  0  0
M  END
> <minimizedAffinity>
-7.56560

> <CNNscore>
0.2030025870

> <CNNaffinity>
6.6186919212

> <CNN_VS>
1.3436115980

> <CNNaffinity_variance>
0.4289127886

$$$$
[H]C(=O)[C@@]([H])(N([H])C(=O)[C@@]1([H])N(C(=O)[C@]([H])(N([H])C(=O)OC([H])([H])c2c([H])c([H])c([H])c([H])c2[H])C([H])([H])c2c([H])c([H])c([H])c([H])c2[H])C([H])([H])C([H])([H])C1([H])[H])C([H])([H])C([H])([H])C([H])([H])N=C(N([H])[H])N([H])[H]


 45 47  0  0  0  0  0  0  0  0999 V2000
    0.7777  -53.2393  -22.4397 C   0  0  0  0  0  0  0  0  0  0  0  0
   -0.6475  -53.5346  -22.8605 C   0  0  0  0  0  0  0  0  0  0  0  0
   -1.5489  -52.6126  -22.0714 C   0  0  0  0  0  0  0  0  0  0  0  0
   -0.6665  -52.2824  -20.8950 C   0  0  0  0  0  0  0  0  0  0  0  0
    0.6741  -52.2449  -21.4338 N   0  0  0  0  0  0  0  0  0  0  0  0
    1.6438  -51.3084  -20.9250 C   0  0  0  0  0  0  0  0  0  0  0  0
    2.7888  -51.3668  -21.4582 O   0  0  0  0  0  0  0  0  0  0  0  0
    1.2394  -51.5561  -24.2006 N   0  0  0  0  0  0  0  0  0  0  0  0
    1.4767  -52.8472  -23.6901 C   0  0  0  0  0  0  0  0  0  0  0  0
    2.2589  -53.6200  -24.2992 O   0  0  0  0  0  0  0  0  0  0  0  0
    0.5918  -50.9228  -23.6933 H   0  0  0  0  0  0  0  0  0  0  0  0
    1.8315  -51.0234  -25.3984 C   0  0  0  0  0  0  0  0  0  0  0  0
    2.6337  -49.8207  -25.1917 C   0  0  0  0  0  0  0  0  0  0  0  0
    3.5978  -49.8874  -24.4181 O   0  0  0  0  0  0  0  0  0  0  0  0
    0.7835  -50.8852  -26.5026 C   0  0  0  0  0  0  0  0  0  0  0  0
   -0.5184  -51.4774  -26.0808 C   0  0  0  0  0  0  0  0  0  0  0  0
   -0.8880  -52.6029  -27.0309 C   0  0  0  0  0  0  0  0  0  0  0  0
    1.9430  -54.1698  -28.7843 N   0  0  0  0  0  0  0  0  0  0  0  0
    0.8990  -53.9355  -27.8344 C   0  0  0  0  0  0  0  0  0  0  0  0
    0.6800  -54.8605  -26.7797 N   0  0  0  0  0  0  0  0  0  0  0  0
    0.1786  -52.8796  -27.9674 N   0  0  0  0  0  0  0  0  0  0  0  0
    1.9254  -53.7213  -29.7241 H   0  0  0  0  0  0  0  0  0  0  0  0
    2.7417  -54.7887  -28.5600 H   0  0  0  0  0  0  0  0  0  0  0  0
    1.4455  -55.0609  -26.1078 H   0  0  0  0  0  0  0  0  0  0  0  0
   -0.2761  -55.3166  -26.7213 H   0  0  0  0  0  0  0  0  0  0  0  0
    1.4177  -50.3261  -19.8776 C   0  0  0  0  0  0  0  0  0  0  0  0
    2.4209  -49.2556  -20.0774 N   0  0  0  0  0  0  0  0  0  0  0  0
    2.1121  -48.0918  -20.8100 C   0  0  0  0  0  0  0  0  0  0  0  0
    0.9516  -47.9851  -21.2957 O   0  0  0  0  0  0  0  0  0  0  0  0
    3.3518  -49.4090  -19.6480 H   0  0  0  0  0  0  0  0  0  0  0  0
    3.0068  -47.0769  -21.0178 O   0  0  0  0  0  0  0  0  0  0  0  0
    4.0499  -47.0918  -21.9552 C   0  0  0  0  0  0  0  0  0  0  0  0
    3.7603  -46.3453  -23.1893 C   0  0  0  0  0  0  0  0  0  0  0  0
    2.5755  -45.7000  -23.4316 C   0  0  0  0  0  0  0  0  0  0  0  0
    2.3827  -45.0182  -24.6109 C   0  0  0  0  0  0  0  0  0  0  0  0
    3.3789  -44.9862  -25.5431 C   0  0  0  0  0  0  0  0  0  0  0  0
    4.5971  -45.6277  -25.3377 C   0  0  0  0  0  0  0  0  0  0  0  0
    4.7537  -46.3027  -24.1399 C   0  0  0  0  0  0  0  0  0  0  0  0
    1.6858  -50.7996  -18.4731 C   0  0  0  0  0  0  0  0  0  0  0  0
    0.6070  -50.6887  -17.5142 C   0  0  0  0  0  0  0  0  0  0  0  0
    0.3575  -49.5897  -16.7176 C   0  0  0  0  0  0  0  0  0  0  0  0
   -0.6900  -49.5747  -15.8214 C   0  0  0  0  0  0  0  0  0  0  0  0
   -1.5199  -50.6634  -15.6967 C   0  0  0  0  0  0  0  0  0  0  0  0
   -1.3070  -51.7786  -16.4700 C   0  0  0  0  0  0  0  0  0  0  0  0
   -0.2548  -51.7687  -17.3582 C   0  0  0  0  0  0  0  0  0  0  0  0
 18 19  1  0  0  0
 19 20  1  0  0  0
 19 21  2  0  0  0
 21 17  1  0  0  0
 17 16  1  0  0  0
 16 15  1  0  0  0
 15 12  1  0  0  0
 12  8  1  0  0  0
  8  9  1  0  0  0
  9 10  2  0  0  0
  9  1  1  0  0  0
  1  2  1  0  0  0
  2  3  1  0  0  0
  3  4  1  0  0  0
  4  5  1  0  0  0
  5  6  1  0  0  0
  6  7  2  0  0  0
  6 26  1  0  0  0
 26 39  1  0  0  0
 39 40  1  0  0  0
 40 41  2  0  0  0
 41 42  1  0  0  0
 42 43  2  0  0  0
 43 44  1  0  0  0
 44 45  2  0  0  0
 26 27  1  0  0  0
 27 28  1  0  0  0
 28 29  2  0  0  0
 28 31  1  0  0  0
 31 32  1  0  0  0
 32 33  1  0  0  0
 33 34  2  0  0  0
 34 35  1  0  0  0
 35 36  2  0  0  0
 36 37  1  0  0  0
 37 38  2  0  0  0
 12 13  1  0  0  0
 13 14  2  0  0  0
  5  1  1  0  0  0
 45 40  1  0  0  0
 38 33  1  0  0  0
 18 22  1  0  0  0
 18 23  1  0  0  0
 20 24  1  0  0  0
 20 25  1  0  0  0
  8 11  1  0  0  0
 27 30  1  0  0  0
M  END
> <minimizedAffinity>
-6.41098

> <CNNscore>
0.2016275972

> <CNNaffinity>
6.7632737160

> <CNN_VS>
1.3636626005

> <CNNaffinity_variance>
0.0592926331

$$$$
[H]C(=O)[C@@]([H])(N([H])C(=O)[C@@]1([H])N(C(=O)[C@]([H])(N([H])C(=O)OC([H])([H])c2c([H])c([H])c([H])c([H])c2[H])C([H])([H])c2c([H])c([H])c([H])c([H])c2[H])C([H])([H])C([H])([H])C1([H])[H])C([H])([H])C([H])([H])C([H])([H])N=C(N([H])[H])N([H])[H]


 45 47  0  0  0  0  0  0  0  0999 V2000
    2.7938  -49.9082  -20.3280 C   0  0  0  0  0  0  0  0  0  0  0  0
    1.6547  -48.9839  -19.9490 C   0  0  0  0  0  0  0  0  0  0  0  0
    1.1321  -48.3680  -21.2269 C   0  0  0  0  0  0  0  0  0  0  0  0
    2.3251  -48.5276  -22.1340 C   0  0  0  0  0  0  0  0  0  0  0  0
    2.9337  -49.7758  -21.7330 N   0  0  0  0  0  0  0  0  0  0  0  0
    3.5557  -50.6355  -22.7078 C   0  0  0  0  0  0  0  0  0  0  0  0
    4.0671  -51.6972  -22.2496 O   0  0  0  0  0  0  0  0  0  0  0  0
    1.1071  -51.7181  -20.1654 N   0  0  0  0  0  0  0  0  0  0  0  0
    2.3898  -51.2461  -19.8251 C   0  0  0  0  0  0  0  0  0  0  0  0
    3.1434  -51.9580  -19.1144 O   0  0  0  0  0  0  0  0  0  0  0  0
    0.4891  -51.1252  -20.7521 H   0  0  0  0  0  0  0  0  0  0  0  0
    0.5621  -52.9855  -19.7582 C   0  0  0  0  0  0  0  0  0  0  0  0
    0.0373  -53.7967  -20.8533 C   0  0  0  0  0  0  0  0  0  0  0  0
    0.2219  -53.4029  -22.0123 O   0  0  0  0  0  0  0  0  0  0  0  0
   -0.4176  -52.8038  -18.5990 C   0  0  0  0  0  0  0  0  0  0  0  0
   -0.2699  -51.4548  -17.9809 C   0  0  0  0  0  0  0  0  0  0  0  0
   -1.0042  -51.4295  -16.6520 C   0  0  0  0  0  0  0  0  0  0  0  0
   -4.1667  -53.1949  -15.9990 N   0  0  0  0  0  0  0  0  0  0  0  0
   -3.1649  -52.1736  -16.0255 C   0  0  0  0  0  0  0  0  0  0  0  0
   -3.4230  -50.9122  -15.4269 N   0  0  0  0  0  0  0  0  0  0  0  0
   -2.0452  -52.4320  -16.6008 N   0  0  0  0  0  0  0  0  0  0  0  0
   -4.1541  -53.9782  -16.6851 H   0  0  0  0  0  0  0  0  0  0  0  0
   -4.9266  -53.1810  -15.2965 H   0  0  0  0  0  0  0  0  0  0  0  0
   -3.6536  -50.8633  -14.4159 H   0  0  0  0  0  0  0  0  0  0  0  0
   -3.3676  -50.0556  -16.0504 H   0  0  0  0  0  0  0  0  0  0  0  0
    3.6386  -50.3889  -24.1380 C   0  0  0  0  0  0  0  0  0  0  0  0
    3.4688  -51.7002  -24.8043 N   0  0  0  0  0  0  0  0  0  0  0  0
    2.1879  -52.2285  -25.0624 C   0  0  0  0  0  0  0  0  0  0  0  0
    1.1828  -51.5519  -24.7078 O   0  0  0  0  0  0  0  0  0  0  0  0
    4.3376  -52.1991  -25.0704 H   0  0  0  0  0  0  0  0  0  0  0  0
    1.9839  -53.4345  -25.6770 O   0  0  0  0  0  0  0  0  0  0  0  0
    0.7331  -54.0129  -25.9377 C   0  0  0  0  0  0  0  0  0  0  0  0
    0.0636  -53.4837  -27.1360 C   0  0  0  0  0  0  0  0  0  0  0  0
    0.6203  -53.4918  -28.3885 C   0  0  0  0  0  0  0  0  0  0  0  0
   -0.0727  -52.9811  -29.4617 C   0  0  0  0  0  0  0  0  0  0  0  0
   -1.3217  -52.4639  -29.2747 C   0  0  0  0  0  0  0  0  0  0  0  0
   -1.9241  -52.4358  -28.0200 C   0  0  0  0  0  0  0  0  0  0  0  0
   -1.1963  -52.9585  -26.9656 C   0  0  0  0  0  0  0  0  0  0  0  0
    4.9767  -49.9122  -24.6391 C   0  0  0  0  0  0  0  0  0  0  0  0
    4.9861  -48.7844  -25.5467 C   0  0  0  0  0  0  0  0  0  0  0  0
    3.9174  -47.9448  -25.7870 C   0  0  0  0  0  0  0  0  0  0  0  0
    4.0125  -46.8978  -26.6787 C   0  0  0  0  0  0  0  0  0  0  0  0
    5.1840  -46.6610  -27.3577 C   0  0  0  0  0  0  0  0  0  0  0  0
    6.2723  -47.4730  -27.1490 C   0  0  0  0  0  0  0  0  0  0  0  0
    6.1524  -48.5114  -26.2527 C   0  0  0  0  0  0  0  0  0  0  0  0
 18 19  1  0  0  0
 19 20  1  0  0  0
 19 21  2  0  0  0
 21 17  1  0  0  0
 17 16  1  0  0  0
 16 15  1  0  0  0
 15 12  1  0  0  0
 12  8  1  0  0  0
  8  9  1  0  0  0
  9 10  2  0  0  0
  9  1  1  0  0  0
  1  2  1  0  0  0
  2  3  1  0  0  0
  3  4  1  0  0  0
  4  5  1  0  0  0
  5  6  1  0  0  0
  6  7  2  0  0  0
  6 26  1  0  0  0
 26 39  1  0  0  0
 39 40  1  0  0  0
 40 41  2  0  0  0
 41 42  1  0  0  0
 42 43  2  0  0  0
 43 44  1  0  0  0
 44 45  2  0  0  0
 26 27  1  0  0  0
 27 28  1  0  0  0
 28 29  2  0  0  0
 28 31  1  0  0  0
 31 32  1  0  0  0
 32 33  1  0  0  0
 33 34  2  0  0  0
 34 35  1  0  0  0
 35 36  2  0  0  0
 36 37  1  0  0  0
 37 38  2  0  0  0
 12 13  1  0  0  0
 13 14  2  0  0  0
  5  1  1  0  0  0
 45 40  1  0  0  0
 38 33  1  0  0  0
 18 22  1  0  0  0
 18 23  1  0  0  0
 20 24  1  0  0  0
 20 25  1  0  0  0
  8 11  1  0  0  0
 27 30  1  0  0  0
M  END
> <minimizedAffinity>
-7.20308

> <CNNscore>
0.1905244291

> <CNNaffinity>
6.7665205002

> <CNN_VS>
1.2891874313

> <CNNaffinity_variance>
0.0311410483

$$$$
[H]C(=O)[C@@]([H])(N([H])C(=O)[C@@]1([H])N(C(=O)[C@]([H])(N([H])C(=O)OC([H])([H])c2c([H])c([H])c([H])c([H])c2[H])C([H])([H])c2c([H])c([H])c([H])c([H])c2[H])C([H])([H])C([H])([H])C1([H])[H])C([H])([H])C([H])([H])C([H])([H])N=C(N([H])[H])N([H])[H]


 45 47  0  0  0  0  0  0  0  0999 V2000
    5.6694  -50.0185  -23.1860 C   0  0  0  0  0  0  0  0  0  0  0  0
    6.3358  -51.0765  -24.0416 C   0  0  0  0  0  0  0  0  0  0  0  0
    5.3991  -52.2617  -24.1007 C   0  0  0  0  0  0  0  0  0  0  0  0
    4.5693  -52.0366  -22.8628 C   0  0  0  0  0  0  0  0  0  0  0  0
    4.4523  -50.6005  -22.7488 N   0  0  0  0  0  0  0  0  0  0  0  0
    3.2437  -50.0003  -22.2435 C   0  0  0  0  0  0  0  0  0  0  0  0
    3.2505  -48.7378  -22.1746 O   0  0  0  0  0  0  0  0  0  0  0  0
    4.4997  -48.7910  -24.9950 N   0  0  0  0  0  0  0  0  0  0  0  0
    5.5563  -48.8260  -24.0642 C   0  0  0  0  0  0  0  0  0  0  0  0
    6.3625  -47.8634  -24.0058 O   0  0  0  0  0  0  0  0  0  0  0  0
    3.8376  -49.5894  -25.0388 H   0  0  0  0  0  0  0  0  0  0  0  0
    4.2516  -47.7159  -25.9178 C   0  0  0  0  0  0  0  0  0  0  0  0
    3.2332  -46.7660  -25.4780 C   0  0  0  0  0  0  0  0  0  0  0  0
    3.5438  -45.9345  -24.6152 O   0  0  0  0  0  0  0  0  0  0  0  0
    4.0230  -48.2581  -27.3286 C   0  0  0  0  0  0  0  0  0  0  0  0
    3.5067  -47.1915  -28.2338 C   0  0  0  0  0  0  0  0  0  0  0  0
    4.3591  -47.1443  -29.4897 C   0  0  0  0  0  0  0  0  0  0  0  0
    5.6869  -50.1601  -31.1285 N   0  0  0  0  0  0  0  0  0  0  0  0
    5.0336  -48.9032  -30.9270 C   0  0  0  0  0  0  0  0  0  0  0  0
    4.4366  -48.2307  -32.0258 N   0  0  0  0  0  0  0  0  0  0  0  0
    5.0078  -48.4123  -29.7396 N   0  0  0  0  0  0  0  0  0  0  0  0
    6.3982  -50.5106  -30.4534 H   0  0  0  0  0  0  0  0  0  0  0  0
    5.4672  -50.7521  -31.9484 H   0  0  0  0  0  0  0  0  0  0  0  0
    3.6847  -48.7005  -32.5658 H   0  0  0  0  0  0  0  0  0  0  0  0
    4.7910  -47.2569  -32.2529 H   0  0  0  0  0  0  0  0  0  0  0  0
    2.0477  -50.7098  -21.8201 C   0  0  0  0  0  0  0  0  0  0  0  0
    1.0948  -50.6463  -22.9515 N   0  0  0  0  0  0  0  0  0  0  0  0
    0.7134  -51.8082  -23.6522 C   0  0  0  0  0  0  0  0  0  0  0  0
    1.2089  -52.9112  -23.2893 O   0  0  0  0  0  0  0  0  0  0  0  0
    0.7257  -49.7081  -23.1924 H   0  0  0  0  0  0  0  0  0  0  0  0
   -0.1650  -51.7966  -24.7020 O   0  0  0  0  0  0  0  0  0  0  0  0
   -0.6938  -52.9325  -25.3323 C   0  0  0  0  0  0  0  0  0  0  0  0
   -0.5578  -52.9257  -26.7970 C   0  0  0  0  0  0  0  0  0  0  0  0
   -1.5765  -52.6082  -27.6574 C   0  0  0  0  0  0  0  0  0  0  0  0
   -1.3685  -52.6205  -29.0173 C   0  0  0  0  0  0  0  0  0  0  0  0
   -0.1394  -52.9514  -29.5095 C   0  0  0  0  0  0  0  0  0  0  0  0
    0.9224  -53.2805  -28.6716 C   0  0  0  0  0  0  0  0  0  0  0  0
    0.6747  -53.2569  -27.3104 C   0  0  0  0  0  0  0  0  0  0  0  0
    1.2853  -50.0791  -20.6843 C   0  0  0  0  0  0  0  0  0  0  0  0
    0.6047  -50.9655  -19.7642 C   0  0  0  0  0  0  0  0  0  0  0  0
   -0.0140  -52.1503  -20.1078 C   0  0  0  0  0  0  0  0  0  0  0  0
   -0.6494  -52.9293  -19.1644 C   0  0  0  0  0  0  0  0  0  0  0  0
   -0.6838  -52.5426  -17.8458 C   0  0  0  0  0  0  0  0  0  0  0  0
   -0.0811  -51.3699  -17.4603 C   0  0  0  0  0  0  0  0  0  0  0  0
    0.5478  -50.6100  -18.4211 C   0  0  0  0  0  0  0  0  0  0  0  0
 18 19  1  0  0  0
 19 20  1  0  0  0
 19 21  2  0  0  0
 21 17  1  0  0  0
 17 16  1  0  0  0
 16 15  1  0  0  0
 15 12  1  0  0  0
 12  8  1  0  0  0
  8  9  1  0  0  0
  9 10  2  0  0  0
  9  1  1  0  0  0
  1  2  1  0  0  0
  2  3  1  0  0  0
  3  4  1  0  0  0
  4  5  1  0  0  0
  5  6  1  0  0  0
  6  7  2  0  0  0
  6 26  1  0  0  0
 26 39  1  0  0  0
 39 40  1  0  0  0
 40 41  2  0  0  0
 41 42  1  0  0  0
 42 43  2  0  0  0
 43 44  1  0  0  0
 44 45  2  0  0  0
 26 27  1  0  0  0
 27 28  1  0  0  0
 28 29  2  0  0  0
 28 31  1  0  0  0
 31 32  1  0  0  0
 32 33  1  0  0  0
 33 34  2  0  0  0
 34 35  1  0  0  0
 35 36  2  0  0  0
 36 37  1  0  0  0
 37 38  2  0  0  0
 12 13  1  0  0  0
 13 14  2  0  0  0
  5  1  1  0  0  0
 45 40  1  0  0  0
 38 33  1  0  0  0
 18 22  1  0  0  0
 18 23  1  0  0  0
 20 24  1  0  0  0
 20 25  1  0  0  0
  8 11  1  0  0  0
 27 30  1  0  0  0
M  END
> <minimizedAffinity>
-7.61031

> <CNNscore>
0.1649238765

> <CNNaffinity>
6.2446622849

> <CNN_VS>
1.0298938751

> <CNNaffinity_variance>
0.6981473565

$$$$
[H]C(=O)[C@@]([H])(N([H])C(=O)[C@@]1([H])N(C(=O)[C@]([H])(N([H])C(=O)OC([H])([H])c2c([H])c([H])c([H])c([H])c2[H])C([H])([H])c2c([H])c([H])c([H])c([H])c2[H])C([H])([H])C([H])([H])C1([H])[H])C([H])([H])C([H])([H])C([H])([H])N=C(N([H])[H])N([H])[H]


 45 47  0  0  0  0  0  0  0  0999 V2000
    0.2603  -51.9894  -20.5887 C   0  0  0  0  0  0  0  0  0  0  0  0
   -0.0514  -53.2873  -19.8720 C   0  0  0  0  0  0  0  0  0  0  0  0
   -0.1492  -54.3688  -20.9238 C   0  0  0  0  0  0  0  0  0  0  0  0
   -0.4490  -53.5502  -22.1533 C   0  0  0  0  0  0  0  0  0  0  0  0
    0.2833  -52.3179  -21.9681 N   0  0  0  0  0  0  0  0  0  0  0  0
    0.8728  -51.6382  -23.0936 C   0  0  0  0  0  0  0  0  0  0  0  0
    1.4815  -50.5636  -22.8226 O   0  0  0  0  0  0  0  0  0  0  0  0
    1.6734  -50.1430  -19.7275 N   0  0  0  0  0  0  0  0  0  0  0  0
    1.5392  -51.5189  -19.9979 C   0  0  0  0  0  0  0  0  0  0  0  0
    2.4916  -52.2969  -19.7381 O   0  0  0  0  0  0  0  0  0  0  0  0
    0.8835  -49.5055  -19.9450 H   0  0  0  0  0  0  0  0  0  0  0  0
    2.8432  -49.5261  -19.1619 C   0  0  0  0  0  0  0  0  0  0  0  0
    4.0122  -49.5333  -20.0372 C   0  0  0  0  0  0  0  0  0  0  0  0
    5.1316  -49.6200  -19.5159 O   0  0  0  0  0  0  0  0  0  0  0  0
    3.1168  -50.0721  -17.7606 C   0  0  0  0  0  0  0  0  0  0  0  0
    2.0762  -49.6137  -16.7959 C   0  0  0  0  0  0  0  0  0  0  0  0
    2.5584  -49.8711  -15.3792 C   0  0  0  0  0  0  0  0  0  0  0  0
   -0.0845  -50.5933  -12.9220 N   0  0  0  0  0  0  0  0  0  0  0  0
    0.9749  -50.7758  -13.8662 C   0  0  0  0  0  0  0  0  0  0  0  0
    1.4371  -52.0838  -14.1686 N   0  0  0  0  0  0  0  0  0  0  0  0
    1.4854  -49.7342  -14.4195 N   0  0  0  0  0  0  0  0  0  0  0  0
   -0.2215  -49.6819  -12.4372 H   0  0  0  0  0  0  0  0  0  0  0  0
   -0.7413  -51.3616  -12.6994 H   0  0  0  0  0  0  0  0  0  0  0  0
    0.7752  -52.7835  -14.5558 H   0  0  0  0  0  0  0  0  0  0  0  0
    2.4601  -52.2950  -13.9827 H   0  0  0  0  0  0  0  0  0  0  0  0
    0.8277  -52.0774  -24.4786 C   0  0  0  0  0  0  0  0  0  0  0  0
    1.4246  -50.9902  -25.2872 N   0  0  0  0  0  0  0  0  0  0  0  0
    2.7172  -51.1122  -25.8356 C   0  0  0  0  0  0  0  0  0  0  0  0
    3.3577  -52.1780  -25.6175 O   0  0  0  0  0  0  0  0  0  0  0  0
    0.8407  -50.1454  -25.4280 H   0  0  0  0  0  0  0  0  0  0  0  0
    3.3071  -50.1343  -26.5903 O   0  0  0  0  0  0  0  0  0  0  0  0
    3.7325  -48.8855  -26.1143 C   0  0  0  0  0  0  0  0  0  0  0  0
    3.3814  -47.7567  -26.9898 C   0  0  0  0  0  0  0  0  0  0  0  0
    2.5842  -46.7103  -26.6045 C   0  0  0  0  0  0  0  0  0  0  0  0
    2.3051  -45.6879  -27.4819 C   0  0  0  0  0  0  0  0  0  0  0  0
    2.8265  -45.7188  -28.7426 C   0  0  0  0  0  0  0  0  0  0  0  0
    3.6405  -46.7622  -29.1749 C   0  0  0  0  0  0  0  0  0  0  0  0
    3.8986  -47.7717  -28.2644 C   0  0  0  0  0  0  0  0  0  0  0  0
   -0.5502  -52.2349  -25.0663 C   0  0  0  0  0  0  0  0  0  0  0  0
   -0.6419  -52.5632  -26.4732 C   0  0  0  0  0  0  0  0  0  0  0  0
    0.3238  -53.2268  -27.2023 C   0  0  0  0  0  0  0  0  0  0  0  0
    0.1566  -53.4892  -28.5453 C   0  0  0  0  0  0  0  0  0  0  0  0
   -0.9860  -53.0930  -29.1988 C   0  0  0  0  0  0  0  0  0  0  0  0
   -1.9726  -52.4290  -28.5111 C   0  0  0  0  0  0  0  0  0  0  0  0
   -1.7823  -52.1796  -27.1703 C   0  0  0  0  0  0  0  0  0  0  0  0
 18 19  1  0  0  0
 19 20  1  0  0  0
 19 21  2  0  0  0
 21 17  1  0  0  0
 17 16  1  0  0  0
 16 15  1  0  0  0
 15 12  1  0  0  0
 12  8  1  0  0  0
  8  9  1  0  0  0
  9 10  2  0  0  0
  9  1  1  0  0  0
  1  2  1  0  0  0
  2  3  1  0  0  0
  3  4  1  0  0  0
  4  5  1  0  0  0
  5  6  1  0  0  0
  6  7  2  0  0  0
  6 26  1  0  0  0
 26 39  1  0  0  0
 39 40  1  0  0  0
 40 41  2  0  0  0
 41 42  1  0  0  0
 42 43  2  0  0  0
 43 44  1  0  0  0
 44 45  2  0  0  0
 26 27  1  0  0  0
 27 28  1  0  0  0
 28 29  2  0  0  0
 28 31  1  0  0  0
 31 32  1  0  0  0
 32 33  1  0  0  0
 33 34  2  0  0  0
 34 35  1  0  0  0
 35 36  2  0  0  0
 36 37  1  0  0  0
 37 38  2  0  0  0
 12 13  1  0  0  0
 13 14  2  0  0  0
  5  1  1  0  0  0
 45 40  1  0  0  0
 38 33  1  0  0  0
 18 22  1  0  0  0
 18 23  1  0  0  0
 20 24  1  0  0  0
 20 25  1  0  0  0
  8 11  1  0  0  0
 27 30  1  0  0  0
M  END
> <minimizedAffinity>
-7.33304

> <CNNscore>
0.1607355773

> <CNNaffinity>
6.3567667007

> <CNN_VS>
1.0217585564

> <CNNaffinity_variance>
0.0921893790

$$$$
[H]c1c([H])c([H])c(S(=O)(=O)N2C([H])([H])C([H])([H])N(C(=O)N([H])c3c([H])c([H])c([N+](=O)[O-])c([H])c3[H])C([H])([H])C2([H])[H])c([H])c1[H]


 28 30  0  0  0  0  0  0  0  0999 V2000
    0.4031  -52.3631  -20.7825 N   0  0  0  0  0  0  0  0  0  0  0  0
   -0.4902  -52.8145  -19.8115 C   0  0  0  0  0  0  0  0  0  0  0  0
   -1.5858  -53.4127  -20.1109 O   0  0  0  0  0  0  0  0  0  0  0  0
   -0.2005  -52.6167  -18.4271 N   0  0  0  0  0  0  0  0  0  0  0  0
    0.9643  -51.9951  -17.8832 C   0  0  0  0  0  0  0  0  0  0  0  0
    0.5286  -50.6654  -17.3093 C   0  0  0  0  0  0  0  0  0  0  0  0
   -0.8361  -50.6776  -16.8546 N   0  0  0  0  0  0  0  0  0  0  0  0
   -1.2874  -51.9691  -16.3927 C   0  0  0  0  0  0  0  0  0  0  0  0
   -1.1750  -53.0663  -17.4201 C   0  0  0  0  0  0  0  0  0  0  0  0
    1.2792  -51.8784  -20.4326 H   0  0  0  0  0  0  0  0  0  0  0  0
   -0.0701  -52.5519  -25.0074 C   0  0  0  0  0  0  0  0  0  0  0  0
    0.6044  -51.5200  -24.3940 C   0  0  0  0  0  0  0  0  0  0  0  0
    0.7432  -51.4964  -23.0339 C   0  0  0  0  0  0  0  0  0  0  0  0
    0.2212  -52.4968  -22.1895 C   0  0  0  0  0  0  0  0  0  0  0  0
   -0.4451  -53.5138  -22.8013 C   0  0  0  0  0  0  0  0  0  0  0  0
   -0.5842  -53.5325  -24.2015 C   0  0  0  0  0  0  0  0  0  0  0  0
    0.7579  -52.2925  -27.2734 O   0  0  0  0  0  0  0  0  0  0  0  0
   -0.2360  -52.6145  -26.4132 N   0  0  0  0  0  0  0  0  0  0  0  0
   -1.3354  -52.9785  -26.8641 O   0  0  0  0  0  0  0  0  0  0  0  0
   -0.9534  -49.5885  -15.5175 S   0  0  0  0  0  0  0  0  0  0  0  0
   -0.9279  -48.1517  -15.9872 O   0  0  0  0  0  0  0  0  0  0  0  0
    0.2204  -49.7447  -14.5841 O   0  0  0  0  0  0  0  0  0  0  0  0
   -2.4647  -49.8232  -14.6816 C   0  0  0  0  0  0  0  0  0  0  0  0
   -2.4741  -50.4915  -13.4835 C   0  0  0  0  0  0  0  0  0  0  0  0
   -3.6633  -50.7034  -12.7768 C   0  0  0  0  0  0  0  0  0  0  0  0
   -4.8385  -50.2219  -13.3146 C   0  0  0  0  0  0  0  0  0  0  0  0
   -4.8016  -49.5552  -14.5173 C   0  0  0  0  0  0  0  0  0  0  0  0
   -3.6386  -49.3422  -15.2187 C   0  0  0  0  0  0  0  0  0  0  0  0
 17 18  1  0  0  0
 18 19  2  0  0  0
 18 11  1  0  0  0
 11 12  2  0  0  0
 12 13  1  0  0  0
 13 14  2  0  0  0
 14  1  1  0  0  0
  1  2  1  0  0  0
  2  3  2  0  0  0
  2  4  1  0  0  0
  4  5  1  0  0  0
  5  6  1  0  0  0
  6  7  1  0  0  0
  7  8  1  0  0  0
  8  9  1  0  0  0
  7 20  1  0  0  0
 20 21  2  0  0  0
 20 22  2  0  0  0
 20 23  1  0  0  0
 23 24  2  0  0  0
 24 25  1  0  0  0
 25 26  2  0  0  0
 26 27  1  0  0  0
 27 28  2  0  0  0
 14 15  1  0  0  0
 15 16  2  0  0  0
 16 11  1  0  0  0
  9  4  1  0  0  0
 28 23  1  0  0  0
  1 10  1  0  0  0
M  CHG 1  17  -1
M  CHG 1  18   1
M  END
> <minimizedAffinity>
-6.43611

> <CNNscore>
0.4665040970

> <CNNaffinity>
5.6370987892

> <CNN_VS>
2.6297297478

> <CNNaffinity_variance>
0.1975347847

$$$$
[H]c1c([H])c([H])c(S(=O)(=O)N2C([H])([H])C([H])([H])N(C(=O)N([H])c3c([H])c([H])c([N+](=O)[O-])c([H])c3[H])C([H])([H])C2([H])[H])c([H])c1[H]


 28 30  0  0  0  0  0  0  0  0999 V2000
    0.8082  -52.5676  -22.5168 N   0  0  0  0  0  0  0  0  0  0  0  0
   -0.1089  -52.7990  -21.4921 C   0  0  0  0  0  0  0  0  0  0  0  0
   -1.3605  -52.9745  -21.7169 O   0  0  0  0  0  0  0  0  0  0  0  0
    0.3333  -52.8470  -20.1350 N   0  0  0  0  0  0  0  0  0  0  0  0
    1.6761  -52.6968  -19.6731 C   0  0  0  0  0  0  0  0  0  0  0  0
    1.7532  -51.3626  -18.9648 C   0  0  0  0  0  0  0  0  0  0  0  0
    0.5008  -50.9756  -18.3723 N   0  0  0  0  0  0  0  0  0  0  0  0
   -0.3194  -52.0894  -17.9579 C   0  0  0  0  0  0  0  0  0  0  0  0
   -0.6569  -53.0539  -19.0659 C   0  0  0  0  0  0  0  0  0  0  0  0
    1.8195  -52.4325  -22.2269 H   0  0  0  0  0  0  0  0  0  0  0  0
   -0.1560  -52.5651  -26.6616 C   0  0  0  0  0  0  0  0  0  0  0  0
   -0.2484  -53.7028  -25.8915 C   0  0  0  0  0  0  0  0  0  0  0  0
    0.0625  -53.6642  -24.5606 C   0  0  0  0  0  0  0  0  0  0  0  0
    0.4870  -52.4921  -23.9030 C   0  0  0  0  0  0  0  0  0  0  0  0
    0.5772  -51.3709  -24.6693 C   0  0  0  0  0  0  0  0  0  0  0  0
    0.2554  -51.4171  -26.0385 C   0  0  0  0  0  0  0  0  0  0  0  0
   -1.7445  -52.5797  -28.4957 O   0  0  0  0  0  0  0  0  0  0  0  0
   -0.4691  -52.5620  -28.0434 N   0  0  0  0  0  0  0  0  0  0  0  0
    0.4655  -52.5423  -28.8624 O   0  0  0  0  0  0  0  0  0  0  0  0
    0.8543  -50.0484  -16.9570 S   0  0  0  0  0  0  0  0  0  0  0  0
    1.5245  -48.7428  -17.3201 O   0  0  0  0  0  0  0  0  0  0  0  0
    1.8184  -50.7776  -16.0557 O   0  0  0  0  0  0  0  0  0  0  0  0
   -0.6196  -49.6469  -16.1176 C   0  0  0  0  0  0  0  0  0  0  0  0
   -0.8741  -48.3384  -15.7935 C   0  0  0  0  0  0  0  0  0  0  0  0
   -2.0438  -47.9689  -15.1200 C   0  0  0  0  0  0  0  0  0  0  0  0
   -2.9457  -48.9571  -14.7850 C   0  0  0  0  0  0  0  0  0  0  0  0
   -2.6665  -50.2614  -15.1216 C   0  0  0  0  0  0  0  0  0  0  0  0
   -1.5204  -50.6340  -15.7829 C   0  0  0  0  0  0  0  0  0  0  0  0
 17 18  1  0  0  0
 18 19  2  0  0  0
 18 11  1  0  0  0
 11 12  2  0  0  0
 12 13  1  0  0  0
 13 14  2  0  0  0
 14  1  1  0  0  0
  1  2  1  0  0  0
  2  3  2  0  0  0
  2  4  1  0  0  0
  4  5  1  0  0  0
  5  6  1  0  0  0
  6  7  1  0  0  0
  7  8  1  0  0  0
  8  9  1  0  0  0
  7 20  1  0  0  0
 20 21  2  0  0  0
 20 22  2  0  0  0
 20 23  1  0  0  0
 23 24  2  0  0  0
 24 25  1  0  0  0
 25 26  2  0  0  0
 26 27  1  0  0  0
 27 28  2  0  0  0
 14 15  1  0  0  0
 15 16  2  0  0  0
 16 11  1  0  0  0
  9  4  1  0  0  0
 28 23  1  0  0  0
  1 10  1  0  0  0
M  CHG 1  17  -1
M  CHG 1  18   1
M  END
> <minimizedAffinity>
-7.70586

> <CNNscore>
0.3981144428

> <CNNaffinity>
5.7308855057

> <CNN_VS>
2.2815482616

> <CNNaffinity_variance>
0.2043676674

$$$$
[H]c1c([H])c([H])c(S(=O)(=O)N2C([H])([H])C([H])([H])N(C(=O)N([H])c3c([H])c([H])c([N+](=O)[O-])c([H])c3[H])C([H])([H])C2([H])[H])c([H])c1[H]


 28 30  0  0  0  0  0  0  0  0999 V2000
    1.9551  -51.3718  -18.5488 N   0  0  0  0  0  0  0  0  0  0  0  0
    3.1134  -50.5967  -18.5002 C   0  0  0  0  0  0  0  0  0  0  0  0
    3.2807  -49.6651  -17.6332 O   0  0  0  0  0  0  0  0  0  0  0  0
    4.1664  -50.8264  -19.4373 N   0  0  0  0  0  0  0  0  0  0  0  0
    4.1889  -51.8188  -20.4637 C   0  0  0  0  0  0  0  0  0  0  0  0
    4.0571  -51.0924  -21.7837 C   0  0  0  0  0  0  0  0  0  0  0  0
    4.6040  -49.7625  -21.7424 N   0  0  0  0  0  0  0  0  0  0  0  0
    5.7015  -49.6097  -20.8167 C   0  0  0  0  0  0  0  0  0  0  0  0
    5.3636  -49.9715  -19.3929 C   0  0  0  0  0  0  0  0  0  0  0  0
    1.9127  -52.1148  -19.3046 H   0  0  0  0  0  0  0  0  0  0  0  0
   -1.3306  -50.7406  -15.9192 C   0  0  0  0  0  0  0  0  0  0  0  0
   -0.6362  -49.6941  -16.4837 C   0  0  0  0  0  0  0  0  0  0  0  0
    0.4100  -49.9352  -17.3305 C   0  0  0  0  0  0  0  0  0  0  0  0
    0.8384  -51.2330  -17.6746 C   0  0  0  0  0  0  0  0  0  0  0  0
    0.1488  -52.2634  -17.1131 C   0  0  0  0  0  0  0  0  0  0  0  0
   -0.9272  -52.0087  -16.2427 C   0  0  0  0  0  0  0  0  0  0  0  0
   -3.5053  -51.3434  -15.0277 O   0  0  0  0  0  0  0  0  0  0  0  0
   -2.4204  -50.5344  -15.0375 N   0  0  0  0  0  0  0  0  0  0  0  0
   -2.3709  -49.5752  -14.2489 O   0  0  0  0  0  0  0  0  0  0  0  0
    5.2117  -49.3959  -23.3185 S   0  0  0  0  0  0  0  0  0  0  0  0
    6.1266  -50.4930  -23.8133 O   0  0  0  0  0  0  0  0  0  0  0  0
    6.0393  -48.1356  -23.3028 O   0  0  0  0  0  0  0  0  0  0  0  0
    3.8973  -49.2781  -24.4573 C   0  0  0  0  0  0  0  0  0  0  0  0
    3.8762  -48.2411  -25.3553 C   0  0  0  0  0  0  0  0  0  0  0  0
    2.8416  -48.1060  -26.2878 C   0  0  0  0  0  0  0  0  0  0  0  0
    1.8325  -49.0462  -26.2862 C   0  0  0  0  0  0  0  0  0  0  0  0
    1.8775  -50.0761  -25.3754 C   0  0  0  0  0  0  0  0  0  0  0  0
    2.8894  -50.2172  -24.4557 C   0  0  0  0  0  0  0  0  0  0  0  0
 17 18  1  0  0  0
 18 19  2  0  0  0
 18 11  1  0  0  0
 11 12  2  0  0  0
 12 13  1  0  0  0
 13 14  2  0  0  0
 14  1  1  0  0  0
  1  2  1  0  0  0
  2  3  2  0  0  0
  2  4  1  0  0  0
  4  5  1  0  0  0
  5  6  1  0  0  0
  6  7  1  0  0  0
  7  8  1  0  0  0
  8  9  1  0  0  0
  7 20  1  0  0  0
 20 21  2  0  0  0
 20 22  2  0  0  0
 20 23  1  0  0  0
 23 24  2  0  0  0
 24 25  1  0  0  0
 25 26  2  0  0  0
 26 27  1  0  0  0
 27 28  2  0  0  0
 14 15  1  0  0  0
 15 16  2  0  0  0
 16 11  1  0  0  0
  9  4  1  0  0  0
 28 23  1  0  0  0
  1 10  1  0  0  0
M  CHG 1  17  -1
M  CHG 1  18   1
M  END
> <minimizedAffinity>
-2.41728

> <CNNscore>
0.3606510460

> <CNNaffinity>
5.4373483658

> <CNN_VS>
1.9609854221

> <CNNaffinity_variance>
1.6936047077

$$$$
[H]c1c([H])c([H])c(S(=O)(=O)N2C([H])([H])C([H])([H])N(C(=O)N([H])c3c([H])c([H])c([N+](=O)[O-])c([H])c3[H])C([H])([H])C2([H])[H])c([H])c1[H]


 28 30  0  0  0  0  0  0  0  0999 V2000
    1.1860  -51.6487  -23.8235 N   0  0  0  0  0  0  0  0  0  0  0  0
    2.5452  -51.3534  -23.7238 C   0  0  0  0  0  0  0  0  0  0  0  0
    3.4565  -52.2335  -23.9304 O   0  0  0  0  0  0  0  0  0  0  0  0
    2.9659  -50.0325  -23.3805 N   0  0  0  0  0  0  0  0  0  0  0  0
    2.1201  -48.9095  -23.1303 C   0  0  0  0  0  0  0  0  0  0  0  0
    2.2022  -48.6156  -21.6490 C   0  0  0  0  0  0  0  0  0  0  0  0
    3.4679  -48.9916  -21.0779 N   0  0  0  0  0  0  0  0  0  0  0  0
    4.5739  -48.9118  -22.0028 C   0  0  0  0  0  0  0  0  0  0  0  0
    4.4041  -49.7519  -23.2427 C   0  0  0  0  0  0  0  0  0  0  0  0
    0.5121  -50.8526  -23.6311 H   0  0  0  0  0  0  0  0  0  0  0  0
   -0.3443  -55.4382  -25.0098 C   0  0  0  0  0  0  0  0  0  0  0  0
    0.5530  -54.7384  -25.7851 C   0  0  0  0  0  0  0  0  0  0  0  0
    1.0293  -53.5264  -25.3680 C   0  0  0  0  0  0  0  0  0  0  0  0
    0.6465  -52.9262  -24.1517 C   0  0  0  0  0  0  0  0  0  0  0  0
   -0.2412  -53.6221  -23.3899 C   0  0  0  0  0  0  0  0  0  0  0  0
   -0.7274  -54.8691  -23.8246 C   0  0  0  0  0  0  0  0  0  0  0  0
   -1.0716  -57.7012  -24.5225 O   0  0  0  0  0  0  0  0  0  0  0  0
   -0.8616  -56.6967  -25.4048 N   0  0  0  0  0  0  0  0  0  0  0  0
   -1.1293  -56.8767  -26.6051 O   0  0  0  0  0  0  0  0  0  0  0  0
    3.8055  -47.8967  -19.7837 S   0  0  0  0  0  0  0  0  0  0  0  0
    2.8299  -46.7418  -19.7848 O   0  0  0  0  0  0  0  0  0  0  0  0
    5.1766  -47.2868  -19.9309 O   0  0  0  0  0  0  0  0  0  0  0  0
    3.6324  -48.7069  -18.2502 C   0  0  0  0  0  0  0  0  0  0  0  0
    3.1982  -47.9969  -17.1595 C   0  0  0  0  0  0  0  0  0  0  0  0
    3.0442  -48.6050  -15.9086 C   0  0  0  0  0  0  0  0  0  0  0  0
    3.3407  -49.9469  -15.7926 C   0  0  0  0  0  0  0  0  0  0  0  0
    3.7741  -50.6358  -16.9016 C   0  0  0  0  0  0  0  0  0  0  0  0
    3.9286  -50.0473  -18.1343 C   0  0  0  0  0  0  0  0  0  0  0  0
 17 18  1  0  0  0
 18 19  2  0  0  0
 18 11  1  0  0  0
 11 12  2  0  0  0
 12 13  1  0  0  0
 13 14  2  0  0  0
 14  1  1  0  0  0
  1  2  1  0  0  0
  2  3  2  0  0  0
  2  4  1  0  0  0
  4  5  1  0  0  0
  5  6  1  0  0  0
  6  7  1  0  0  0
  7  8  1  0  0  0
  8  9  1  0  0  0
  7 20  1  0  0  0
 20 21  2  0  0  0
 20 22  2  0  0  0
 20 23  1  0  0  0
 23 24  2  0  0  0
 24 25  1  0  0  0
 25 26  2  0  0  0
 26 27  1  0  0  0
 27 28  2  0  0  0
 14 15  1  0  0  0
 15 16  2  0  0  0
 16 11  1  0  0  0
  9  4  1  0  0  0
 28 23  1  0  0  0
  1 10  1  0  0  0
M  CHG 1  17  -1
M  CHG 1  18   1
M  END
> <minimizedAffinity>
-2.31697

> <CNNscore>
0.3372452557

> <CNNaffinity>
5.5367212296

> <CNN_VS>
1.8672329187

> <CNNaffinity_variance>
0.6789911985

$$$$
[H]c1c([H])c([H])c(S(=O)(=O)N2C([H])([H])C([H])([H])N(C(=O)N([H])c3c([H])c([H])c([N+](=O)[O-])c([H])c3[H])C([H])([H])C2([H])[H])c([H])c1[H]


 28 30  0  0  0  0  0  0  0  0999 V2000
    0.8323  -52.7282  -22.6939 N   0  0  0  0  0  0  0  0  0  0  0  0
   -0.0477  -52.8293  -21.6169 C   0  0  0  0  0  0  0  0  0  0  0  0
   -1.3134  -52.9734  -21.7751 O   0  0  0  0  0  0  0  0  0  0  0  0
    0.4505  -52.7731  -20.2796 N   0  0  0  0  0  0  0  0  0  0  0  0
    1.8165  -52.6365  -19.8869 C   0  0  0  0  0  0  0  0  0  0  0  0
    1.9731  -51.2484  -19.3071 C   0  0  0  0  0  0  0  0  0  0  0  0
    0.7625  -50.7594  -18.7034 N   0  0  0  0  0  0  0  0  0  0  0  0
   -0.0795  -51.7973  -18.1568 C   0  0  0  0  0  0  0  0  0  0  0  0
   -0.4997  -52.8430  -19.1578 C   0  0  0  0  0  0  0  0  0  0  0  0
    1.8595  -52.6087  -22.4578 H   0  0  0  0  0  0  0  0  0  0  0  0
   -0.3196  -52.6153  -26.7890 C   0  0  0  0  0  0  0  0  0  0  0  0
   -0.0034  -51.4730  -26.0881 C   0  0  0  0  0  0  0  0  0  0  0  0
    0.3700  -51.5486  -24.7749 C   0  0  0  0  0  0  0  0  0  0  0  0
    0.4547  -52.7646  -24.0675 C   0  0  0  0  0  0  0  0  0  0  0  0
    0.1403  -53.8902  -24.7651 C   0  0  0  0  0  0  0  0  0  0  0  0
   -0.2429  -53.8058  -26.1165 C   0  0  0  0  0  0  0  0  0  0  0  0
    0.1895  -52.5482  -29.1604 O   0  0  0  0  0  0  0  0  0  0  0  0
   -0.7106  -52.5811  -28.1504 N   0  0  0  0  0  0  0  0  0  0  0  0
   -1.9243  -52.5814  -28.4182 O   0  0  0  0  0  0  0  0  0  0  0  0
    1.2104  -49.7239  -17.3938 S   0  0  0  0  0  0  0  0  0  0  0  0
   -0.0105  -49.1014  -16.7554 O   0  0  0  0  0  0  0  0  0  0  0  0
    2.0626  -48.5767  -17.8745 O   0  0  0  0  0  0  0  0  0  0  0  0
    2.0213  -50.6406  -16.1528 C   0  0  0  0  0  0  0  0  0  0  0  0
    1.3015  -51.1064  -15.0818 C   0  0  0  0  0  0  0  0  0  0  0  0
    1.9099  -51.8466  -14.0617 C   0  0  0  0  0  0  0  0  0  0  0  0
    3.2621  -52.1013  -14.1555 C   0  0  0  0  0  0  0  0  0  0  0  0
    3.9606  -51.6229  -15.2397 C   0  0  0  0  0  0  0  0  0  0  0  0
    3.3720  -50.8951  -16.2464 C   0  0  0  0  0  0  0  0  0  0  0  0
 17 18  1  0  0  0
 18 19  2  0  0  0
 18 11  1  0  0  0
 11 12  2  0  0  0
 12 13  1  0  0  0
 13 14  2  0  0  0
 14  1  1  0  0  0
  1  2  1  0  0  0
  2  3  2  0  0  0
  2  4  1  0  0  0
  4  5  1  0  0  0
  5  6  1  0  0  0
  6  7  1  0  0  0
  7  8  1  0  0  0
  8  9  1  0  0  0
  7 20  1  0  0  0
 20 21  2  0  0  0
 20 22  2  0  0  0
 20 23  1  0  0  0
 23 24  2  0  0  0
 24 25  1  0  0  0
 25 26  2  0  0  0
 26 27  1  0  0  0
 27 28  2  0  0  0
 14 15  1  0  0  0
 15 16  2  0  0  0
 16 11  1  0  0  0
  9  4  1  0  0  0
 28 23  1  0  0  0
  1 10  1  0  0  0
M  CHG 1  17  -1
M  CHG 1  18   1
M  END
> <minimizedAffinity>
-7.79219

> <CNNscore>
0.3206994236

> <CNNaffinity>
5.7088727951

> <CNN_VS>
1.8308322430

> <CNNaffinity_variance>
0.0681237876

$$$$
[H]c1c([H])c([H])c(S(=O)(=O)N2C([H])([H])C([H])([H])N(C(=O)N([H])c3c([H])c([H])c([N+](=O)[O-])c([H])c3[H])C([H])([H])C2([H])[H])c([H])c1[H]


 28 30  0  0  0  0  0  0  0  0999 V2000
    3.3224  -49.9372  -23.0435 N   0  0  0  0  0  0  0  0  0  0  0  0
    2.4288  -49.2561  -22.2176 C   0  0  0  0  0  0  0  0  0  0  0  0
    2.0737  -48.0432  -22.4420 O   0  0  0  0  0  0  0  0  0  0  0  0
    1.8743  -49.9078  -21.0741 N   0  0  0  0  0  0  0  0  0  0  0  0
    2.1216  -51.2514  -20.6587 C   0  0  0  0  0  0  0  0  0  0  0  0
    2.9547  -51.1782  -19.3986 C   0  0  0  0  0  0  0  0  0  0  0  0
    2.7047  -49.9840  -18.6365 N   0  0  0  0  0  0  0  0  0  0  0  0
    1.3617  -49.4722  -18.7747 C   0  0  0  0  0  0  0  0  0  0  0  0
    0.9633  -49.1582  -20.1942 C   0  0  0  0  0  0  0  0  0  0  0  0
    3.5540  -50.9357  -22.7708 H   0  0  0  0  0  0  0  0  0  0  0  0
    5.0100  -48.3947  -26.6327 C   0  0  0  0  0  0  0  0  0  0  0  0
    3.7256  -48.8886  -26.5836 C   0  0  0  0  0  0  0  0  0  0  0  0
    3.2140  -49.3694  -25.4103 C   0  0  0  0  0  0  0  0  0  0  0  0
    3.9436  -49.3928  -24.2047 C   0  0  0  0  0  0  0  0  0  0  0  0
    5.2127  -48.9040  -24.2594 C   0  0  0  0  0  0  0  0  0  0  0  0
    5.7333  -48.4102  -25.4700 C   0  0  0  0  0  0  0  0  0  0  0  0
    6.0778  -46.6324  -27.9139 O   0  0  0  0  0  0  0  0  0  0  0  0
    5.5778  -47.8870  -27.8274 N   0  0  0  0  0  0  0  0  0  0  0  0
    5.6143  -48.6256  -28.8263 O   0  0  0  0  0  0  0  0  0  0  0  0
    2.9343  -50.3692  -16.9672 S   0  0  0  0  0  0  0  0  0  0  0  0
    3.9539  -51.4732  -16.8028 O   0  0  0  0  0  0  0  0  0  0  0  0
    1.6590  -50.8811  -16.3467 O   0  0  0  0  0  0  0  0  0  0  0  0
    3.5454  -48.9810  -16.1084 C   0  0  0  0  0  0  0  0  0  0  0  0
    3.9444  -47.8748  -16.8150 C   0  0  0  0  0  0  0  0  0  0  0  0
    4.4413  -46.7375  -16.1684 C   0  0  0  0  0  0  0  0  0  0  0  0
    4.5230  -46.7509  -14.7917 C   0  0  0  0  0  0  0  0  0  0  0  0
    4.1164  -47.8727  -14.1071 C   0  0  0  0  0  0  0  0  0  0  0  0
    3.6270  -48.9943  -14.7332 C   0  0  0  0  0  0  0  0  0  0  0  0
 17 18  1  0  0  0
 18 19  2  0  0  0
 18 11  1  0  0  0
 11 12  2  0  0  0
 12 13  1  0  0  0
 13 14  2  0  0  0
 14  1  1  0  0  0
  1  2  1  0  0  0
  2  3  2  0  0  0
  2  4  1  0  0  0
  4  5  1  0  0  0
  5  6  1  0  0  0
  6  7  1  0  0  0
  7  8  1  0  0  0
  8  9  1  0  0  0
  7 20  1  0  0  0
 20 21  2  0  0  0
 20 22  2  0  0  0
 20 23  1  0  0  0
 23 24  2  0  0  0
 24 25  1  0  0  0
 25 26  2  0  0  0
 26 27  1  0  0  0
 27 28  2  0  0  0
 14 15  1  0  0  0
 15 16  2  0  0  0
 16 11  1  0  0  0
  9  4  1  0  0  0
 28 23  1  0  0  0
  1 10  1  0  0  0
M  CHG 1  17  -1
M  CHG 1  18   1
M  END
> <minimizedAffinity>
-4.49026

> <CNNscore>
0.3068622351

> <CNNaffinity>
5.1872467995

> <CNN_VS>
1.5917701721

> <CNNaffinity_variance>
0.4956807196

$$$$
[H]c1c([H])c([H])c(S(=O)(=O)N2C([H])([H])C([H])([H])N(C(=O)N([H])c3c([H])c([H])c([N+](=O)[O-])c([H])c3[H])C([H])([H])C2([H])[H])c([H])c1[H]


 28 30  0  0  0  0  0  0  0  0999 V2000
    0.4041  -52.4817  -20.8697 N   0  0  0  0  0  0  0  0  0  0  0  0
   -0.5341  -52.8404  -19.9023 C   0  0  0  0  0  0  0  0  0  0  0  0
   -1.6834  -53.3245  -20.2063 O   0  0  0  0  0  0  0  0  0  0  0  0
   -0.2313  -52.6730  -18.5167 N   0  0  0  0  0  0  0  0  0  0  0  0
    0.9884  -52.1727  -17.9680 C   0  0  0  0  0  0  0  0  0  0  0  0
    0.6873  -50.8057  -17.3952 C   0  0  0  0  0  0  0  0  0  0  0  0
   -0.6734  -50.6796  -16.9457 N   0  0  0  0  0  0  0  0  0  0  0  0
   -1.2550  -51.9188  -16.4863 C   0  0  0  0  0  0  0  0  0  0  0  0
   -1.2503  -53.0217  -17.5137 C   0  0  0  0  0  0  0  0  0  0  0  0
    1.3235  -52.0882  -20.5161 H   0  0  0  0  0  0  0  0  0  0  0  0
   -0.1060  -52.6080  -25.0926 C   0  0  0  0  0  0  0  0  0  0  0  0
    0.4988  -51.5437  -24.4621 C   0  0  0  0  0  0  0  0  0  0  0  0
    0.6523  -51.5411  -23.1034 C   0  0  0  0  0  0  0  0  0  0  0  0
    0.2152  -52.5961  -22.2774 C   0  0  0  0  0  0  0  0  0  0  0  0
   -0.3825  -53.6450  -22.9060 C   0  0  0  0  0  0  0  0  0  0  0  0
   -0.5372  -53.6418  -24.3047 C   0  0  0  0  0  0  0  0  0  0  0  0
    0.7131  -52.3513  -27.3621 O   0  0  0  0  0  0  0  0  0  0  0  0
   -0.2842  -52.6504  -26.4976 N   0  0  0  0  0  0  0  0  0  0  0  0
   -1.3980  -52.9743  -26.9437 O   0  0  0  0  0  0  0  0  0  0  0  0
   -0.6849  -49.5844  -15.6086 S   0  0  0  0  0  0  0  0  0  0  0  0
   -1.9533  -49.7332  -14.7994 O   0  0  0  0  0  0  0  0  0  0  0  0
   -0.6535  -48.1520  -16.0784 O   0  0  0  0  0  0  0  0  0  0  0  0
    0.6453  -49.9302  -14.5366 C   0  0  0  0  0  0  0  0  0  0  0  0
    1.7461  -49.1116  -14.5448 C   0  0  0  0  0  0  0  0  0  0  0  0
    2.8375  -49.3500  -13.7019 C   0  0  0  0  0  0  0  0  0  0  0  0
    2.7839  -50.4361  -12.8536 C   0  0  0  0  0  0  0  0  0  0  0  0
    1.6685  -51.2410  -12.8650 C   0  0  0  0  0  0  0  0  0  0  0  0
    0.5917  -51.0150  -13.6892 C   0  0  0  0  0  0  0  0  0  0  0  0
 17 18  1  0  0  0
 18 19  2  0  0  0
 18 11  1  0  0  0
 11 12  2  0  0  0
 12 13  1  0  0  0
 13 14  2  0  0  0
 14  1  1  0  0  0
  1  2  1  0  0  0
  2  3  2  0  0  0
  2  4  1  0  0  0
  4  5  1  0  0  0
  5  6  1  0  0  0
  6  7  1  0  0  0
  7  8  1  0  0  0
  8  9  1  0  0  0
  7 20  1  0  0  0
 20 21  2  0  0  0
 20 22  2  0  0  0
 20 23  1  0  0  0
 23 24  2  0  0  0
 24 25  1  0  0  0
 25 26  2  0  0  0
 26 27  1  0  0  0
 27 28  2  0  0  0
 14 15  1  0  0  0
 15 16  2  0  0  0
 16 11  1  0  0  0
  9  4  1  0  0  0
 28 23  1  0  0  0
  1 10  1  0  0  0
M  CHG 1  17  -1
M  CHG 1  18   1
M  END
> <minimizedAffinity>
-5.95354

> <CNNscore>
0.2838664055

> <CNNaffinity>
5.5067300797

> <CNN_VS>
1.5631756783

> <CNNaffinity_variance>
0.1435106248

$$$$
[H]c1c([H])c([H])c(S(=O)(=O)N2C([H])([H])C([H])([H])N(C(=O)N([H])c3c([H])c([H])c([N+](=O)[O-])c([H])c3[H])C([H])([H])C2([H])[H])c([H])c1[H]


 28 30  0  0  0  0  0  0  0  0999 V2000
    0.9275  -52.4472  -22.6656 N   0  0  0  0  0  0  0  0  0  0  0  0
    0.0452  -52.6067  -21.5975 C   0  0  0  0  0  0  0  0  0  0  0  0
   -1.2178  -52.7610  -21.7668 O   0  0  0  0  0  0  0  0  0  0  0  0
    0.5380  -52.6014  -20.2570 N   0  0  0  0  0  0  0  0  0  0  0  0
    1.9007  -52.4634  -19.8533 C   0  0  0  0  0  0  0  0  0  0  0  0
    2.0361  -51.0996  -19.2136 C   0  0  0  0  0  0  0  0  0  0  0  0
    0.8168  -50.6535  -18.5942 N   0  0  0  0  0  0  0  0  0  0  0  0
   -0.0126  -51.7254  -18.0963 C   0  0  0  0  0  0  0  0  0  0  0  0
   -0.4149  -52.7325  -19.1431 C   0  0  0  0  0  0  0  0  0  0  0  0
    1.9520  -52.3240  -22.4205 H   0  0  0  0  0  0  0  0  0  0  0  0
   -0.1846  -52.6170  -26.7697 C   0  0  0  0  0  0  0  0  0  0  0  0
   -0.2230  -53.7276  -25.9566 C   0  0  0  0  0  0  0  0  0  0  0  0
    0.1345  -53.6336  -24.6402 C   0  0  0  0  0  0  0  0  0  0  0  0
    0.5551  -52.4294  -24.0410 C   0  0  0  0  0  0  0  0  0  0  0  0
    0.5918  -51.3351  -24.8496 C   0  0  0  0  0  0  0  0  0  0  0  0
    0.2223  -51.4384  -26.2035 C   0  0  0  0  0  0  0  0  0  0  0  0
    0.3733  -52.6702  -29.1305 O   0  0  0  0  0  0  0  0  0  0  0  0
   -0.5471  -52.6711  -28.1384 N   0  0  0  0  0  0  0  0  0  0  0  0
   -1.7543  -52.7208  -28.4298 O   0  0  0  0  0  0  0  0  0  0  0  0
    1.2460  -49.6695  -17.2395 S   0  0  0  0  0  0  0  0  0  0  0  0
    0.0204  -49.0323  -16.6249 O   0  0  0  0  0  0  0  0  0  0  0  0
    2.1448  -48.5328  -17.6558 O   0  0  0  0  0  0  0  0  0  0  0  0
    1.9881  -50.6442  -15.9996 C   0  0  0  0  0  0  0  0  0  0  0  0
    3.3264  -50.9339  -16.0827 C   0  0  0  0  0  0  0  0  0  0  0  0
    3.9650  -51.7124  -15.1108 C   0  0  0  0  0  0  0  0  0  0  0  0
    3.2140  -52.1876  -14.0561 C   0  0  0  0  0  0  0  0  0  0  0  0
    1.8740  -51.8826  -13.9963 C   0  0  0  0  0  0  0  0  0  0  0  0
    1.2380  -51.1189  -14.9461 C   0  0  0  0  0  0  0  0  0  0  0  0
 17 18  1  0  0  0
 18 19  2  0  0  0
 18 11  1  0  0  0
 11 12  2  0  0  0
 12 13  1  0  0  0
 13 14  2  0  0  0
 14  1  1  0  0  0
  1  2  1  0  0  0
  2  3  2  0  0  0
  2  4  1  0  0  0
  4  5  1  0  0  0
  5  6  1  0  0  0
  6  7  1  0  0  0
  7  8  1  0  0  0
  8  9  1  0  0  0
  7 20  1  0  0  0
 20 21  2  0  0  0
 20 22  2  0  0  0
 20 23  1  0  0  0
 23 24  2  0  0  0
 24 25  1  0  0  0
 25 26  2  0  0  0
 26 27  1  0  0  0
 27 28  2  0  0  0
 14 15  1  0  0  0
 15 16  2  0  0  0
 16 11  1  0  0  0
  9  4  1  0  0  0
 28 23  1  0  0  0
  1 10  1  0  0  0
M  CHG 1  17  -1
M  CHG 1  18   1
M  END
> <minimizedAffinity>
-7.77343

> <CNNscore>
0.2833194733

> <CNNaffinity>
5.6019902229

> <CNN_VS>
1.5871529579

> <CNNaffinity_variance>
0.0855651721

$$$$
[H]c1c([H])c([H])c(S(=O)(=O)N2C([H])([H])C([H])([H])N(C(=O)N([H])c3c([H])c([H])c([N+](=O)[O-])c([H])c3[H])C([H])([H])C2([H])[H])c([H])c1[H]


 28 30  0  0  0  0  0  0  0  0999 V2000
    0.8128  -52.8885  -22.9522 N   0  0  0  0  0  0  0  0  0  0  0  0
   -0.0713  -52.8506  -21.8743 C   0  0  0  0  0  0  0  0  0  0  0  0
   -1.3452  -52.8359  -22.0310 O   0  0  0  0  0  0  0  0  0  0  0  0
    0.4321  -52.8260  -20.5381 N   0  0  0  0  0  0  0  0  0  0  0  0
    1.8050  -52.8553  -20.1467 C   0  0  0  0  0  0  0  0  0  0  0  0
    2.1382  -51.4849  -19.6003 C   0  0  0  0  0  0  0  0  0  0  0  0
    1.0007  -50.8311  -19.0104 N   0  0  0  0  0  0  0  0  0  0  0  0
    0.0342  -51.7397  -18.4402 C   0  0  0  0  0  0  0  0  0  0  0  0
   -0.5175  -52.7471  -19.4164 C   0  0  0  0  0  0  0  0  0  0  0  0
    1.8471  -52.8952  -22.7174 H   0  0  0  0  0  0  0  0  0  0  0  0
   -0.3830  -52.7367  -27.0334 C   0  0  0  0  0  0  0  0  0  0  0  0
   -0.2345  -51.5980  -26.2736 C   0  0  0  0  0  0  0  0  0  0  0  0
    0.1588  -51.6849  -24.9669 C   0  0  0  0  0  0  0  0  0  0  0  0
    0.4315  -52.9095  -24.3250 C   0  0  0  0  0  0  0  0  0  0  0  0
    0.2824  -54.0318  -25.0807 C   0  0  0  0  0  0  0  0  0  0  0  0
   -0.1223  -53.9356  -26.4250 C   0  0  0  0  0  0  0  0  0  0  0  0
    0.1017  -52.6697  -29.4100 O   0  0  0  0  0  0  0  0  0  0  0  0
   -0.7879  -52.6907  -28.3904 N   0  0  0  0  0  0  0  0  0  0  0  0
   -2.0042  -52.6691  -28.6450 O   0  0  0  0  0  0  0  0  0  0  0  0
    1.5790  -49.8298  -17.7256 S   0  0  0  0  0  0  0  0  0  0  0  0
    2.2834  -50.6552  -16.6728 O   0  0  0  0  0  0  0  0  0  0  0  0
    0.4403  -49.1365  -17.0214 O   0  0  0  0  0  0  0  0  0  0  0  0
    2.7417  -48.6827  -18.3340 C   0  0  0  0  0  0  0  0  0  0  0  0
    3.9220  -48.4989  -17.6592 C   0  0  0  0  0  0  0  0  0  0  0  0
    4.8849  -47.5890  -18.1102 C   0  0  0  0  0  0  0  0  0  0  0  0
    4.6211  -46.8730  -19.2590 C   0  0  0  0  0  0  0  0  0  0  0  0
    3.4301  -47.0762  -19.9167 C   0  0  0  0  0  0  0  0  0  0  0  0
    2.4782  -47.9674  -19.4816 C   0  0  0  0  0  0  0  0  0  0  0  0
 17 18  1  0  0  0
 18 19  2  0  0  0
 18 11  1  0  0  0
 11 12  2  0  0  0
 12 13  1  0  0  0
 13 14  2  0  0  0
 14  1  1  0  0  0
  1  2  1  0  0  0
  2  3  2  0  0  0
  2  4  1  0  0  0
  4  5  1  0  0  0
  5  6  1  0  0  0
  6  7  1  0  0  0
  7  8  1  0  0  0
  8  9  1  0  0  0
  7 20  1  0  0  0
 20 21  2  0  0  0
 20 22  2  0  0  0
 20 23  1  0  0  0
 23 24  2  0  0  0
 24 25  1  0  0  0
 25 26  2  0  0  0
 26 27  1  0  0  0
 27 28  2  0  0  0
 14 15  1  0  0  0
 15 16  2  0  0  0
 16 11  1  0  0  0
  9  4  1  0  0  0
 28 23  1  0  0  0
  1 10  1  0  0  0
M  CHG 1  17  -1
M  CHG 1  18   1
M  END
> <minimizedAffinity>
-7.01780

> <CNNscore>
0.2808842659

> <CNNaffinity>
5.7493834496

> <CNN_VS>
1.6149113178

> <CNNaffinity_variance>
0.1168991104

$$$$
[H]c1c([H])c([H])c(C([H])([H])N([H])C(=O)C(=O)[C@@]([H])(N([H])C(=O)[C@@]2([H])N(C(=O)C3(c4c([H])c([H])c(Cl)c([H])c4[H])C([H])([H])C3([H])[H])C([H])([H])[C@]([H])(S(=O)(=O)c3c([H])c([H])c([H])c([H])c3Cl)C2([H])[H])C([H])([H])[H])c([H])c1[H]


 46 50  0  0  0  0  0  0  0  0999 V2000
    2.5368  -50.7380  -22.3048 C   0  0  0  0  0  0  0  0  0  0  0  0
    2.8826  -51.2394  -20.8973 C   0  0  0  0  0  0  0  0  0  0  0  0
    2.0357  -50.3572  -19.9887 C   0  0  0  0  0  0  0  0  0  0  0  0
    1.5074  -49.2770  -20.9124 C   0  0  0  0  0  0  0  0  0  0  0  0
    2.4905  -49.3223  -22.0521 N   0  0  0  0  0  0  0  0  0  0  0  0
    3.0877  -48.1709  -22.5090 C   0  0  0  0  0  0  0  0  0  0  0  0
    2.7283  -47.0809  -21.8729 O   0  0  0  0  0  0  0  0  0  0  0  0
    0.7266  -52.4340  -22.0081 N   0  0  0  0  0  0  0  0  0  0  0  0
    1.3074  -51.3717  -22.7500 C   0  0  0  0  0  0  0  0  0  0  0  0
    0.6617  -51.0400  -23.8049 O   0  0  0  0  0  0  0  0  0  0  0  0
    1.2329  -52.7370  -21.1384 H   0  0  0  0  0  0  0  0  0  0  0  0
   -0.3340  -54.0322  -23.5544 C   0  0  0  0  0  0  0  0  0  0  0  0
   -0.5087  -53.1140  -22.3937 C   0  0  0  0  0  0  0  0  0  0  0  0
   -1.0534  -53.8625  -21.2092 C   0  0  0  0  0  0  0  0  0  0  0  0
   -1.9431  -54.7135  -21.4053 O   0  0  0  0  0  0  0  0  0  0  0  0
   -0.5674  -53.6090  -19.8857 C   0  0  0  0  0  0  0  0  0  0  0  0
    0.6319  -53.7700  -19.6291 O   0  0  0  0  0  0  0  0  0  0  0  0
   -1.4569  -53.1781  -18.8675 N   0  0  0  0  0  0  0  0  0  0  0  0
   -2.4782  -53.0800  -19.1454 H   0  0  0  0  0  0  0  0  0  0  0  0
   -1.1531  -52.8636  -17.5125 C   0  0  0  0  0  0  0  0  0  0  0  0
   -2.2927  -52.3716  -16.7375 C   0  0  0  0  0  0  0  0  0  0  0  0
   -2.0829  -51.3040  -15.8969 C   0  0  0  0  0  0  0  0  0  0  0  0
   -3.1298  -50.8356  -15.1365 C   0  0  0  0  0  0  0  0  0  0  0  0
   -4.3703  -51.4105  -15.2011 C   0  0  0  0  0  0  0  0  0  0  0  0
   -4.5574  -52.4842  -16.0548 C   0  0  0  0  0  0  0  0  0  0  0  0
   -3.5317  -52.9640  -16.8186 C   0  0  0  0  0  0  0  0  0  0  0  0
    4.0739  -47.8656  -23.5582 C   0  0  0  0  0  0  0  0  0  0  0  0
    5.2348  -48.8458  -23.6437 C   0  0  0  0  0  0  0  0  0  0  0  0
    5.4280  -47.4968  -23.0387 C   0  0  0  0  0  0  0  0  0  0  0  0
    3.6201  -47.4707  -24.9053 C   0  0  0  0  0  0  0  0  0  0  0  0
    3.0350  -46.1844  -25.0200 C   0  0  0  0  0  0  0  0  0  0  0  0
    2.5773  -45.6989  -26.2207 C   0  0  0  0  0  0  0  0  0  0  0  0
    2.6616  -46.4342  -27.3800 C   0  0  0  0  0  0  0  0  0  0  0  0
    2.0642  -45.7889  -28.9118 Cl  0  0  0  0  0  0  0  0  0  0  0  0
    3.2241  -47.6750  -27.2820 C   0  0  0  0  0  0  0  0  0  0  0  0
    3.6958  -48.1778  -26.0509 C   0  0  0  0  0  0  0  0  0  0  0  0
    3.1122  -49.6677  -18.7744 S   0  0  0  0  0  0  0  0  0  0  0  0
    2.9251  -48.1760  -18.6913 O   0  0  0  0  0  0  0  0  0  0  0  0
    4.5480  -49.9167  -19.2244 O   0  0  0  0  0  0  0  0  0  0  0  0
    2.9510  -50.3991  -17.2093 C   0  0  0  0  0  0  0  0  0  0  0  0
    3.9226  -51.0902  -16.5466 C   0  0  0  0  0  0  0  0  0  0  0  0
    3.6823  -51.6165  -15.2915 C   0  0  0  0  0  0  0  0  0  0  0  0
    2.4498  -51.4611  -14.6661 C   0  0  0  0  0  0  0  0  0  0  0  0
    1.4638  -50.7686  -15.3219 C   0  0  0  0  0  0  0  0  0  0  0  0
    1.7226  -50.2515  -16.5722 C   0  0  0  0  0  0  0  0  0  0  0  0
    0.4189  -49.3795  -17.3632 Cl  0  0  0  0  0  0  0  0  0  0  0  0
 12 13  1  0  0  0
 13  8  1  0  0  0
  8  9  1  0  0  0
  9 10  2  0  0  0
  9  1  1  0  0  0
  1  2  1  0  0  0
  2  3  1  0  0  0
  3  4  1  0  0  0
  4  5  1  0  0  0
  5  6  1  0  0  0
  6  7  2  0  0  0
  6 27  1  0  0  0
 27 28  1  0  0  0
 28 29  1  0  0  0
 27 30  1  0  0  0
 30 31  2  0  0  0
 31 32  1  0  0  0
 32 33  2  0  0  0
 33 34  1  0  0  0
 33 35  1  0  0  0
 35 36  2  0  0  0
  3 37  1  0  0  0
 37 38  2  0  0  0
 37 39  2  0  0  0
 37 40  1  0  0  0
 40 41  2  0  0  0
 41 42  1  0  0  0
 42 43  2  0  0  0
 43 44  1  0  0  0
 44 45  2  0  0  0
 45 46  1  0  0  0
 13 14  1  0  0  0
 14 15  2  0  0  0
 14 16  1  0  0  0
 16 17  2  0  0  0
 16 18  1  0  0  0
 18 20  1  0  0  0
 20 21  1  0  0  0
 21 22  2  0  0  0
 22 23  1  0  0  0
 23 24  2  0  0  0
 24 25  1  0  0  0
 25 26  2  0  0  0
  5  1  1  0  0  0
 29 27  1  0  0  0
 36 30  1  0  0  0
 45 40  1  0  0  0
 26 21  1  0  0  0
  8 11  1  0  0  0
 18 19  1  0  0  0
M  END
> <minimizedAffinity>
-8.49065

> <CNNscore>
0.6711046100

> <CNNaffinity>
7.6253595352

> <CNN_VS>
5.1174139977

> <CNNaffinity_variance>
0.0473177023

$$$$
[H]c1c([H])c([H])c(C([H])([H])N([H])C(=O)C(=O)[C@@]([H])(N([H])C(=O)[C@@]2([H])N(C(=O)C3(c4c([H])c([H])c(Cl)c([H])c4[H])C([H])([H])C3([H])[H])C([H])([H])[C@]([H])(S(=O)(=O)c3c([H])c([H])c([H])c([H])c3Cl)C2([H])[H])C([H])([H])[H])c([H])c1[H]


 46 50  0  0  0  0  0  0  0  0999 V2000
    2.3425  -51.7971  -22.5951 C   0  0  0  0  0  0  0  0  0  0  0  0
    2.4963  -52.6194  -23.8806 C   0  0  0  0  0  0  0  0  0  0  0  0
    1.4361  -52.0338  -24.8049 C   0  0  0  0  0  0  0  0  0  0  0  0
    0.6087  -51.1432  -23.8986 C   0  0  0  0  0  0  0  0  0  0  0  0
    0.9076  -51.7086  -22.5354 N   0  0  0  0  0  0  0  0  0  0  0  0
   -0.1119  -52.0227  -21.6676 C   0  0  0  0  0  0  0  0  0  0  0  0
   -1.3161  -51.7910  -22.1345 O   0  0  0  0  0  0  0  0  0  0  0  0
    4.3179  -50.5112  -23.4230 N   0  0  0  0  0  0  0  0  0  0  0  0
    3.0776  -50.5513  -22.7330 C   0  0  0  0  0  0  0  0  0  0  0  0
    2.6870  -49.4239  -22.2681 O   0  0  0  0  0  0  0  0  0  0  0  0
    4.6727  -51.4202  -23.8135 H   0  0  0  0  0  0  0  0  0  0  0  0
    6.4991  -49.4174  -23.0819 C   0  0  0  0  0  0  0  0  0  0  0  0
    5.1084  -49.2949  -23.6033 C   0  0  0  0  0  0  0  0  0  0  0  0
    5.1246  -48.9252  -25.0604 C   0  0  0  0  0  0  0  0  0  0  0  0
    6.1927  -49.0508  -25.6908 O   0  0  0  0  0  0  0  0  0  0  0  0
    3.9460  -48.4397  -25.7142 C   0  0  0  0  0  0  0  0  0  0  0  0
    2.9604  -49.1775  -25.8340 O   0  0  0  0  0  0  0  0  0  0  0  0
    3.9065  -47.1177  -26.2284 N   0  0  0  0  0  0  0  0  0  0  0  0
    4.7923  -46.5416  -26.1138 H   0  0  0  0  0  0  0  0  0  0  0  0
    2.8260  -46.4641  -26.8861 C   0  0  0  0  0  0  0  0  0  0  0  0
    2.9267  -46.4530  -28.3459 C   0  0  0  0  0  0  0  0  0  0  0  0
    1.9475  -45.7937  -29.0507 C   0  0  0  0  0  0  0  0  0  0  0  0
    2.0020  -45.7880  -30.4257 C   0  0  0  0  0  0  0  0  0  0  0  0
    3.0081  -46.4240  -31.1015 C   0  0  0  0  0  0  0  0  0  0  0  0
    3.9828  -47.0811  -30.3702 C   0  0  0  0  0  0  0  0  0  0  0  0
    3.9475  -47.0982  -29.0049 C   0  0  0  0  0  0  0  0  0  0  0  0
   -0.1749  -52.5889  -20.3104 C   0  0  0  0  0  0  0  0  0  0  0  0
    0.5415  -53.9212  -20.1437 C   0  0  0  0  0  0  0  0  0  0  0  0
   -0.9469  -53.8673  -20.2142 C   0  0  0  0  0  0  0  0  0  0  0  0
    0.0495  -51.7220  -19.1379 C   0  0  0  0  0  0  0  0  0  0  0  0
    0.8089  -50.5460  -19.3612 C   0  0  0  0  0  0  0  0  0  0  0  0
    1.0829  -49.6554  -18.3519 C   0  0  0  0  0  0  0  0  0  0  0  0
    0.6350  -49.8551  -17.0669 C   0  0  0  0  0  0  0  0  0  0  0  0
    1.0020  -48.6965  -15.7853 Cl  0  0  0  0  0  0  0  0  0  0  0  0
   -0.0984  -50.9848  -16.8396 C   0  0  0  0  0  0  0  0  0  0  0  0
   -0.3826  -51.9022  -17.8733 C   0  0  0  0  0  0  0  0  0  0  0  0
    0.4686  -53.3771  -25.4116 S   0  0  0  0  0  0  0  0  0  0  0  0
   -0.4785  -53.8662  -24.3480 O   0  0  0  0  0  0  0  0  0  0  0  0
    1.4149  -54.5285  -25.7354 O   0  0  0  0  0  0  0  0  0  0  0  0
   -0.3841  -53.0110  -26.8776 C   0  0  0  0  0  0  0  0  0  0  0  0
   -1.7114  -52.7121  -26.9764 C   0  0  0  0  0  0  0  0  0  0  0  0
   -2.2793  -52.4204  -28.2022 C   0  0  0  0  0  0  0  0  0  0  0  0
   -1.5219  -52.4224  -29.3688 C   0  0  0  0  0  0  0  0  0  0  0  0
   -0.1859  -52.7219  -29.2834 C   0  0  0  0  0  0  0  0  0  0  0  0
    0.3616  -53.0098  -28.0525 C   0  0  0  0  0  0  0  0  0  0  0  0
    2.0760  -53.3905  -28.0085 Cl  0  0  0  0  0  0  0  0  0  0  0  0
 12 13  1  0  0  0
 13  8  1  0  0  0
  8  9  1  0  0  0
  9 10  2  0  0  0
  9  1  1  0  0  0
  1  2  1  0  0  0
  2  3  1  0  0  0
  3  4  1  0  0  0
  4  5  1  0  0  0
  5  6  1  0  0  0
  6  7  2  0  0  0
  6 27  1  0  0  0
 27 28  1  0  0  0
 28 29  1  0  0  0
 27 30  1  0  0  0
 30 31  2  0  0  0
 31 32  1  0  0  0
 32 33  2  0  0  0
 33 34  1  0  0  0
 33 35  1  0  0  0
 35 36  2  0  0  0
  3 37  1  0  0  0
 37 38  2  0  0  0
 37 39  2  0  0  0
 37 40  1  0  0  0
 40 41  2  0  0  0
 41 42  1  0  0  0
 42 43  2  0  0  0
 43 44  1  0  0  0
 44 45  2  0  0  0
 45 46  1  0  0  0
 13 14  1  0  0  0
 14 15  2  0  0  0
 14 16  1  0  0  0
 16 17  2  0  0  0
 16 18  1  0  0  0
 18 20  1  0  0  0
 20 21  1  0  0  0
 21 22  2  0  0  0
 22 23  1  0  0  0
 23 24  2  0  0  0
 24 25  1  0  0  0
 25 26  2  0  0  0
  5  1  1  0  0  0
 29 27  1  0  0  0
 36 30  1  0  0  0
 45 40  1  0  0  0
 26 21  1  0  0  0
  8 11  1  0  0  0
 18 19  1  0  0  0
M  END
> <minimizedAffinity>
-9.14765

> <CNNscore>
0.2025671899

> <CNNaffinity>
7.1978149414

> <CNN_VS>
1.4580411911

> <CNNaffinity_variance>
0.1643552631

$$$$
[H]c1c([H])c([H])c(C([H])([H])N([H])C(=O)C(=O)[C@@]([H])(N([H])C(=O)[C@@]2([H])N(C(=O)C3(c4c([H])c([H])c(Cl)c([H])c4[H])C([H])([H])C3([H])[H])C([H])([H])[C@]([H])(S(=O)(=O)c3c([H])c([H])c([H])c([H])c3Cl)C2([H])[H])C([H])([H])[H])c([H])c1[H]


 46 50  0  0  0  0  0  0  0  0999 V2000
    1.1476  -50.2837  -21.0341 C   0  0  0  0  0  0  0  0  0  0  0  0
    1.0061  -49.3655  -19.8138 C   0  0  0  0  0  0  0  0  0  0  0  0
    1.9523  -49.9847  -18.7928 C   0  0  0  0  0  0  0  0  0  0  0  0
    2.3297  -51.3205  -19.4031 C   0  0  0  0  0  0  0  0  0  0  0  0
    1.2015  -51.5596  -20.3713 N   0  0  0  0  0  0  0  0  0  0  0  0
    0.5263  -52.7575  -20.3792 C   0  0  0  0  0  0  0  0  0  0  0  0
    0.9486  -53.6272  -19.4919 O   0  0  0  0  0  0  0  0  0  0  0  0
    2.8836  -50.7561  -22.7674 N   0  0  0  0  0  0  0  0  0  0  0  0
    2.3164  -49.8853  -21.7999 C   0  0  0  0  0  0  0  0  0  0  0  0
    2.9125  -48.7584  -21.6793 O   0  0  0  0  0  0  0  0  0  0  0  0
    2.4234  -51.6931  -22.8894 H   0  0  0  0  0  0  0  0  0  0  0  0
    5.1935  -51.3602  -23.3753 C   0  0  0  0  0  0  0  0  0  0  0  0
    4.0544  -50.4204  -23.5757 C   0  0  0  0  0  0  0  0  0  0  0  0
    3.6598  -50.3751  -25.0257 C   0  0  0  0  0  0  0  0  0  0  0  0
    3.6845  -49.2749  -25.6114 O   0  0  0  0  0  0  0  0  0  0  0  0
    3.2639  -51.5624  -25.7227 C   0  0  0  0  0  0  0  0  0  0  0  0
    3.5793  -52.6721  -25.2764 O   0  0  0  0  0  0  0  0  0  0  0  0
    2.5153  -51.4701  -26.9247 N   0  0  0  0  0  0  0  0  0  0  0  0
    2.2951  -50.4884  -27.2676 H   0  0  0  0  0  0  0  0  0  0  0  0
    2.0238  -52.5320  -27.7358 C   0  0  0  0  0  0  0  0  0  0  0  0
    0.5701  -52.5397  -27.9033 C   0  0  0  0  0  0  0  0  0  0  0  0
    0.0640  -53.0208  -29.0877 C   0  0  0  0  0  0  0  0  0  0  0  0
   -1.2980  -53.0169  -29.2837 C   0  0  0  0  0  0  0  0  0  0  0  0
   -2.1543  -52.5446  -28.3259 C   0  0  0  0  0  0  0  0  0  0  0  0
   -1.6214  -52.0654  -27.1415 C   0  0  0  0  0  0  0  0  0  0  0  0
   -0.2724  -52.0611  -26.9267 C   0  0  0  0  0  0  0  0  0  0  0  0
   -0.5991  -53.3034  -21.1551 C   0  0  0  0  0  0  0  0  0  0  0  0
   -1.8710  -52.4693  -21.1026 C   0  0  0  0  0  0  0  0  0  0  0  0
   -1.7653  -53.7360  -20.3230 C   0  0  0  0  0  0  0  0  0  0  0  0
   -0.3720  -53.8292  -22.5147 C   0  0  0  0  0  0  0  0  0  0  0  0
   -1.0981  -54.9945  -22.8678 C   0  0  0  0  0  0  0  0  0  0  0  0
   -0.9778  -55.5783  -24.1054 C   0  0  0  0  0  0  0  0  0  0  0  0
   -0.1456  -55.0641  -25.0722 C   0  0  0  0  0  0  0  0  0  0  0  0
   -0.0063  -55.8339  -26.6558 Cl  0  0  0  0  0  0  0  0  0  0  0  0
    0.5589  -53.9408  -24.7437 C   0  0  0  0  0  0  0  0  0  0  0  0
    0.4383  -53.3376  -23.4739 C   0  0  0  0  0  0  0  0  0  0  0  0
    1.0386  -50.2156  -17.3027 S   0  0  0  0  0  0  0  0  0  0  0  0
   -0.2196  -50.9975  -17.5725 O   0  0  0  0  0  0  0  0  0  0  0  0
    0.6142  -48.8416  -16.7945 O   0  0  0  0  0  0  0  0  0  0  0  0
    1.9616  -50.9497  -16.0300 C   0  0  0  0  0  0  0  0  0  0  0  0
    3.3152  -51.1181  -16.0198 C   0  0  0  0  0  0  0  0  0  0  0  0
    3.9448  -51.7047  -14.9383 C   0  0  0  0  0  0  0  0  0  0  0  0
    3.2243  -52.1409  -13.8314 C   0  0  0  0  0  0  0  0  0  0  0  0
    1.8622  -51.9780  -13.8293 C   0  0  0  0  0  0  0  0  0  0  0  0
    1.2531  -51.3909  -14.9165 C   0  0  0  0  0  0  0  0  0  0  0  0
   -0.4937  -51.2146  -14.8568 Cl  0  0  0  0  0  0  0  0  0  0  0  0
 12 13  1  0  0  0
 13  8  1  0  0  0
  8  9  1  0  0  0
  9 10  2  0  0  0
  9  1  1  0  0  0
  1  2  1  0  0  0
  2  3  1  0  0  0
  3  4  1  0  0  0
  4  5  1  0  0  0
  5  6  1  0  0  0
  6  7  2  0  0  0
  6 27  1  0  0  0
 27 28  1  0  0  0
 28 29  1  0  0  0
 27 30  1  0  0  0
 30 31  2  0  0  0
 31 32  1  0  0  0
 32 33  2  0  0  0
 33 34  1  0  0  0
 33 35  1  0  0  0
 35 36  2  0  0  0
  3 37  1  0  0  0
 37 38  2  0  0  0
 37 39  2  0  0  0
 37 40  1  0  0  0
 40 41  2  0  0  0
 41 42  1  0  0  0
 42 43  2  0  0  0
 43 44  1  0  0  0
 44 45  2  0  0  0
 45 46  1  0  0  0
 13 14  1  0  0  0
 14 15  2  0  0  0
 14 16  1  0  0  0
 16 17  2  0  0  0
 16 18  1  0  0  0
 18 20  1  0  0  0
 20 21  1  0  0  0
 21 22  2  0  0  0
 22 23  1  0  0  0
 23 24  2  0  0  0
 24 25  1  0  0  0
 25 26  2  0  0  0
  5  1  1  0  0  0
 29 27  1  0  0  0
 36 30  1  0  0  0
 45 40  1  0  0  0
 26 21  1  0  0  0
  8 11  1  0  0  0
 18 19  1  0  0  0
M  END
> <minimizedAffinity>
-8.99450

> <CNNscore>
0.1658515036

> <CNNaffinity>
7.4157433510

> <CNN_VS>
1.2299121618

> <CNNaffinity_variance>
0.3553212285

$$$$
[H]c1c([H])c([H])c(C([H])([H])N([H])C(=O)C(=O)[C@@]([H])(N([H])C(=O)[C@@]2([H])N(C(=O)C3(c4c([H])c([H])c(Cl)c([H])c4[H])C([H])([H])C3([H])[H])C([H])([H])[C@]([H])(S(=O)(=O)c3c([H])c([H])c([H])c([H])c3Cl)C2([H])[H])C([H])([H])[H])c([H])c1[H]


 46 50  0  0  0  0  0  0  0  0999 V2000
    3.9049  -50.9557  -23.4883 C   0  0  0  0  0  0  0  0  0  0  0  0
    3.5803  -51.9450  -24.6144 C   0  0  0  0  0  0  0  0  0  0  0  0
    2.3084  -51.3759  -25.2306 C   0  0  0  0  0  0  0  0  0  0  0  0
    1.8768  -50.2984  -24.2549 C   0  0  0  0  0  0  0  0  0  0  0  0
    2.5773  -50.7147  -22.9886 N   0  0  0  0  0  0  0  0  0  0  0  0
    1.8857  -50.8114  -21.8040 C   0  0  0  0  0  0  0  0  0  0  0  0
    0.6095  -50.5191  -21.8923 O   0  0  0  0  0  0  0  0  0  0  0  0
    4.7204  -48.6004  -23.3192 N   0  0  0  0  0  0  0  0  0  0  0  0
    4.6207  -49.8187  -24.0416 C   0  0  0  0  0  0  0  0  0  0  0  0
    5.2053  -49.8148  -25.1809 O   0  0  0  0  0  0  0  0  0  0  0  0
    4.2470  -48.5653  -22.3814 H   0  0  0  0  0  0  0  0  0  0  0  0
    6.7729  -47.7323  -24.3698 C   0  0  0  0  0  0  0  0  0  0  0  0
    5.4271  -47.4193  -23.8115 C   0  0  0  0  0  0  0  0  0  0  0  0
    4.5790  -46.7274  -24.8421 C   0  0  0  0  0  0  0  0  0  0  0  0
    3.4646  -46.2901  -24.4945 O   0  0  0  0  0  0  0  0  0  0  0  0
    5.0337  -46.5716  -26.1917 C   0  0  0  0  0  0  0  0  0  0  0  0
    5.7089  -45.5831  -26.5034 O   0  0  0  0  0  0  0  0  0  0  0  0
    4.7090  -47.5443  -27.1725 N   0  0  0  0  0  0  0  0  0  0  0  0
    4.1079  -48.3582  -26.8472 H   0  0  0  0  0  0  0  0  0  0  0  0
    5.0849  -47.5649  -28.5457 C   0  0  0  0  0  0  0  0  0  0  0  0
    4.0491  -47.0857  -29.4617 C   0  0  0  0  0  0  0  0  0  0  0  0
    4.1833  -47.3892  -30.7959 C   0  0  0  0  0  0  0  0  0  0  0  0
    3.2381  -46.9305  -31.6845 C   0  0  0  0  0  0  0  0  0  0  0  0
    2.1719  -46.1807  -31.2666 C   0  0  0  0  0  0  0  0  0  0  0  0
    2.0580  -45.8879  -29.9183 C   0  0  0  0  0  0  0  0  0  0  0  0
    2.9849  -46.3342  -29.0197 C   0  0  0  0  0  0  0  0  0  0  0  0
    2.2430  -51.1924  -20.4279 C   0  0  0  0  0  0  0  0  0  0  0  0
    3.3522  -50.3571  -19.8049 C   0  0  0  0  0  0  0  0  0  0  0  0
    3.6273  -51.7423  -20.2833 C   0  0  0  0  0  0  0  0  0  0  0  0
    1.1831  -51.4765  -19.4418 C   0  0  0  0  0  0  0  0  0  0  0  0
    0.9838  -50.4999  -18.4336 C   0  0  0  0  0  0  0  0  0  0  0  0
    0.0252  -50.6454  -17.4606 C   0  0  0  0  0  0  0  0  0  0  0  0
   -0.7960  -51.7476  -17.4103 C   0  0  0  0  0  0  0  0  0  0  0  0
   -2.0202  -51.9131  -16.1479 Cl  0  0  0  0  0  0  0  0  0  0  0  0
   -0.6137  -52.6952  -18.3770 C   0  0  0  0  0  0  0  0  0  0  0  0
    0.3695  -52.5499  -19.3785 C   0  0  0  0  0  0  0  0  0  0  0  0
    1.1225  -52.6794  -25.2848 S   0  0  0  0  0  0  0  0  0  0  0  0
    0.2546  -52.6531  -24.0547 O   0  0  0  0  0  0  0  0  0  0  0  0
    1.8795  -54.0035  -25.2730 O   0  0  0  0  0  0  0  0  0  0  0  0
    0.1544  -52.6767  -26.7246 C   0  0  0  0  0  0  0  0  0  0  0  0
   -1.1993  -52.5160  -26.7767 C   0  0  0  0  0  0  0  0  0  0  0  0
   -1.8632  -52.5154  -27.9889 C   0  0  0  0  0  0  0  0  0  0  0  0
   -1.1785  -52.6783  -29.1885 C   0  0  0  0  0  0  0  0  0  0  0  0
    0.1830  -52.8415  -29.1500 C   0  0  0  0  0  0  0  0  0  0  0  0
    0.8268  -52.8391  -27.9321 C   0  0  0  0  0  0  0  0  0  0  0  0
    2.5697  -53.0575  -27.9477 Cl  0  0  0  0  0  0  0  0  0  0  0  0
 12 13  1  0  0  0
 13  8  1  0  0  0
  8  9  1  0  0  0
  9 10  2  0  0  0
  9  1  1  0  0  0
  1  2  1  0  0  0
  2  3  1  0  0  0
  3  4  1  0  0  0
  4  5  1  0  0  0
  5  6  1  0  0  0
  6  7  2  0  0  0
  6 27  1  0  0  0
 27 28  1  0  0  0
 28 29  1  0  0  0
 27 30  1  0  0  0
 30 31  2  0  0  0
 31 32  1  0  0  0
 32 33  2  0  0  0
 33 34  1  0  0  0
 33 35  1  0  0  0
 35 36  2  0  0  0
  3 37  1  0  0  0
 37 38  2  0  0  0
 37 39  2  0  0  0
 37 40  1  0  0  0
 40 41  2  0  0  0
 41 42  1  0  0  0
 42 43  2  0  0  0
 43 44  1  0  0  0
 44 45  2  0  0  0
 45 46  1  0  0  0
 13 14  1  0  0  0
 14 15  2  0  0  0
 14 16  1  0  0  0
 16 17  2  0  0  0
 16 18  1  0  0  0
 18 20  1  0  0  0
 20 21  1  0  0  0
 21 22  2  0  0  0
 22 23  1  0  0  0
 23 24  2  0  0  0
 24 25  1  0  0  0
 25 26  2  0  0  0
  5  1  1  0  0  0
 29 27  1  0  0  0
 36 30  1  0  0  0
 45 40  1  0  0  0
 26 21  1  0  0  0
  8 11  1  0  0  0
 18 19  1  0  0  0
M  END
> <minimizedAffinity>
-8.61507

> <CNNscore>
0.1202222407

> <CNNaffinity>
6.9087095261

> <CNN_VS>
0.8305805326

> <CNNaffinity_variance>
0.4227276444

$$$$
[H]c1c([H])c([H])c(C([H])([H])N([H])C(=O)C(=O)[C@@]([H])(N([H])C(=O)[C@@]2([H])N(C(=O)C3(c4c([H])c([H])c(Cl)c([H])c4[H])C([H])([H])C3([H])[H])C([H])([H])[C@]([H])(S(=O)(=O)c3c([H])c([H])c([H])c([H])c3Cl)C2([H])[H])C([H])([H])[H])c([H])c1[H]


 46 50  0  0  0  0  0  0  0  0999 V2000
    2.4919  -51.4933  -19.6576 C   0  0  0  0  0  0  0  0  0  0  0  0
    2.7147  -51.0640  -18.2022 C   0  0  0  0  0  0  0  0  0  0  0  0
    2.0084  -49.7167  -18.1181 C   0  0  0  0  0  0  0  0  0  0  0  0
    1.6926  -49.3756  -19.5614 C   0  0  0  0  0  0  0  0  0  0  0  0
    2.6802  -50.2271  -20.3144 N   0  0  0  0  0  0  0  0  0  0  0  0
    3.4744  -49.6793  -21.2943 C   0  0  0  0  0  0  0  0  0  0  0  0
    3.2902  -48.3950  -21.4907 O   0  0  0  0  0  0  0  0  0  0  0  0
    0.6250  -52.3906  -21.0544 N   0  0  0  0  0  0  0  0  0  0  0  0
    1.1836  -52.1139  -19.7787 C   0  0  0  0  0  0  0  0  0  0  0  0
    0.4495  -52.4570  -18.7871 O   0  0  0  0  0  0  0  0  0  0  0  0
    1.1978  -52.1169  -21.8921 H   0  0  0  0  0  0  0  0  0  0  0  0
   -1.7836  -52.0275  -21.4244 C   0  0  0  0  0  0  0  0  0  0  0  0
   -0.6816  -53.0157  -21.2511 C   0  0  0  0  0  0  0  0  0  0  0  0
   -0.6158  -53.9416  -22.4336 C   0  0  0  0  0  0  0  0  0  0  0  0
   -1.1222  -55.0756  -22.3260 O   0  0  0  0  0  0  0  0  0  0  0  0
    0.0122  -53.5377  -23.6562 C   0  0  0  0  0  0  0  0  0  0  0  0
    0.6794  -52.4966  -23.6907 O   0  0  0  0  0  0  0  0  0  0  0  0
   -0.1316  -54.3247  -24.8282 N   0  0  0  0  0  0  0  0  0  0  0  0
   -0.7351  -55.1952  -24.7393 H   0  0  0  0  0  0  0  0  0  0  0  0
    0.4294  -54.0915  -26.1159 C   0  0  0  0  0  0  0  0  0  0  0  0
   -0.4898  -53.4715  -27.0708 C   0  0  0  0  0  0  0  0  0  0  0  0
   -0.2027  -53.5955  -28.4096 C   0  0  0  0  0  0  0  0  0  0  0  0
   -1.0353  -53.0013  -29.3301 C   0  0  0  0  0  0  0  0  0  0  0  0
   -2.1387  -52.2919  -28.9391 C   0  0  0  0  0  0  0  0  0  0  0  0
   -2.4074  -52.1808  -27.5856 C   0  0  0  0  0  0  0  0  0  0  0  0
   -1.5941  -52.7636  -26.6558 C   0  0  0  0  0  0  0  0  0  0  0  0
    4.5224  -50.2018  -22.1860 C   0  0  0  0  0  0  0  0  0  0  0  0
    5.6157  -50.9953  -21.4853 C   0  0  0  0  0  0  0  0  0  0  0  0
    5.8758  -49.6052  -21.9579 C   0  0  0  0  0  0  0  0  0  0  0  0
    4.1537  -50.8344  -23.4669 C   0  0  0  0  0  0  0  0  0  0  0  0
    3.7962  -49.9573  -24.5217 C   0  0  0  0  0  0  0  0  0  0  0  0
    3.4378  -50.4225  -25.7635 C   0  0  0  0  0  0  0  0  0  0  0  0
    3.4061  -51.7666  -26.0532 C   0  0  0  0  0  0  0  0  0  0  0  0
    2.9399  -52.3407  -27.6572 Cl  0  0  0  0  0  0  0  0  0  0  0  0
    3.7492  -52.6216  -25.0447 C   0  0  0  0  0  0  0  0  0  0  0  0
    4.1183  -52.1483  -23.7678 C   0  0  0  0  0  0  0  0  0  0  0  0
    3.1575  -48.5630  -17.4417 S   0  0  0  0  0  0  0  0  0  0  0  0
    2.8354  -47.1667  -17.9041 O   0  0  0  0  0  0  0  0  0  0  0  0
    4.5416  -48.9076  -17.9817 O   0  0  0  0  0  0  0  0  0  0  0  0
    3.2711  -48.6305  -15.7118 C   0  0  0  0  0  0  0  0  0  0  0  0
    2.6134  -49.5092  -14.9017 C   0  0  0  0  0  0  0  0  0  0  0  0
    2.7959  -49.4780  -13.5321 C   0  0  0  0  0  0  0  0  0  0  0  0
    3.6500  -48.5555  -12.9372 C   0  0  0  0  0  0  0  0  0  0  0  0
    4.3171  -47.6657  -13.7405 C   0  0  0  0  0  0  0  0  0  0  0  0
    4.1220  -47.7127  -15.1034 C   0  0  0  0  0  0  0  0  0  0  0  0
    5.0001  -46.5446  -16.0783 Cl  0  0  0  0  0  0  0  0  0  0  0  0
 12 13  1  0  0  0
 13  8  1  0  0  0
  8  9  1  0  0  0
  9 10  2  0  0  0
  9  1  1  0  0  0
  1  2  1  0  0  0
  2  3  1  0  0  0
  3  4  1  0  0  0
  4  5  1  0  0  0
  5  6  1  0  0  0
  6  7  2  0  0  0
  6 27  1  0  0  0
 27 28  1  0  0  0
 28 29  1  0  0  0
 27 30  1  0  0  0
 30 31  2  0  0  0
 31 32  1  0  0  0
 32 33  2  0  0  0
 33 34  1  0  0  0
 33 35  1  0  0  0
 35 36  2  0  0  0
  3 37  1  0  0  0
 37 38  2  0  0  0
 37 39  2  0  0  0
 37 40  1  0  0  0
 40 41  2  0  0  0
 41 42  1  0  0  0
 42 43  2  0  0  0
 43 44  1  0  0  0
 44 45  2  0  0  0
 45 46  1  0  0  0
 13 14  1  0  0  0
 14 15  2  0  0  0
 14 16  1  0  0  0
 16 17  2  0  0  0
 16 18  1  0  0  0
 18 20  1  0  0  0
 20 21  1  0  0  0
 21 22  2  0  0  0
 22 23  1  0  0  0
 23 24  2  0  0  0
 24 25  1  0  0  0
 25 26  2  0  0  0
  5  1  1  0  0  0
 29 27  1  0  0  0
 36 30  1  0  0  0
 45 40  1  0  0  0
 26 21  1  0  0  0
  8 11  1  0  0  0
 18 19  1  0  0  0
M  END
> <minimizedAffinity>
-7.56301

> <CNNscore>
0.1094664484

> <CNNaffinity>
7.2216539383

> <CNN_VS>
0.7905288339

> <CNNaffinity_variance>
0.1750227362

$$$$
[H]c1c([H])c([H])c(C([H])([H])N([H])C(=O)C(=O)[C@@]([H])(N([H])C(=O)[C@@]2([H])N(C(=O)C3(c4c([H])c([H])c(Cl)c([H])c4[H])C([H])([H])C3([H])[H])C([H])([H])[C@]([H])(S(=O)(=O)c3c([H])c([H])c([H])c([H])c3Cl)C2([H])[H])C([H])([H])[H])c([H])c1[H]


 46 50  0  0  0  0  0  0  0  0999 V2000
    4.3732  -50.2396  -23.7435 C   0  0  0  0  0  0  0  0  0  0  0  0
    4.1547  -51.3890  -24.7350 C   0  0  0  0  0  0  0  0  0  0  0  0
    2.8271  -51.0396  -25.3957 C   0  0  0  0  0  0  0  0  0  0  0  0
    2.2839  -49.9027  -24.5522 C   0  0  0  0  0  0  0  0  0  0  0  0
    3.0287  -50.0825  -23.2559 N   0  0  0  0  0  0  0  0  0  0  0  0
    2.3547  -50.1060  -22.0575 C   0  0  0  0  0  0  0  0  0  0  0  0
    1.0542  -49.9651  -22.1605 O   0  0  0  0  0  0  0  0  0  0  0  0
    4.3806  -47.8163  -24.3511 N   0  0  0  0  0  0  0  0  0  0  0  0
    4.9603  -49.1093  -24.4429 C   0  0  0  0  0  0  0  0  0  0  0  0
    6.0119  -49.1739  -25.1707 O   0  0  0  0  0  0  0  0  0  0  0  0
    3.5120  -47.7268  -23.7661 H   0  0  0  0  0  0  0  0  0  0  0  0
    6.3479  -46.7859  -25.4179 C   0  0  0  0  0  0  0  0  0  0  0  0
    4.9188  -46.6350  -25.0231 C   0  0  0  0  0  0  0  0  0  0  0  0
    4.0726  -46.3192  -26.2249 C   0  0  0  0  0  0  0  0  0  0  0  0
    3.2735  -45.3653  -26.1515 O   0  0  0  0  0  0  0  0  0  0  0  0
    4.1766  -47.0912  -27.4272 C   0  0  0  0  0  0  0  0  0  0  0  0
    3.8025  -48.2703  -27.4357 O   0  0  0  0  0  0  0  0  0  0  0  0
    4.7105  -46.5100  -28.6064 N   0  0  0  0  0  0  0  0  0  0  0  0
    5.0345  -45.5007  -28.5285 H   0  0  0  0  0  0  0  0  0  0  0  0
    4.8723  -47.1131  -29.8861 C   0  0  0  0  0  0  0  0  0  0  0  0
    3.7139  -46.9735  -30.7693 C   0  0  0  0  0  0  0  0  0  0  0  0
    3.7795  -47.5621  -32.0100 C   0  0  0  0  0  0  0  0  0  0  0  0
    2.7155  -47.4262  -32.8719 C   0  0  0  0  0  0  0  0  0  0  0  0
    1.5983  -46.7187  -32.5185 C   0  0  0  0  0  0  0  0  0  0  0  0
    1.5552  -46.1350  -31.2639 C   0  0  0  0  0  0  0  0  0  0  0  0
    2.6004  -46.2585  -30.3932 C   0  0  0  0  0  0  0  0  0  0  0  0
    2.7548  -50.2741  -20.6510 C   0  0  0  0  0  0  0  0  0  0  0  0
    3.6776  -51.4557  -20.3897 C   0  0  0  0  0  0  0  0  0  0  0  0
    2.2370  -51.5239  -20.0110 C   0  0  0  0  0  0  0  0  0  0  0  0
    3.1652  -49.1016  -19.8552 C   0  0  0  0  0  0  0  0  0  0  0  0
    4.0561  -48.1954  -20.4837 C   0  0  0  0  0  0  0  0  0  0  0  0
    4.5084  -47.0638  -19.8498 C   0  0  0  0  0  0  0  0  0  0  0  0
    4.1214  -46.7461  -18.5688 C   0  0  0  0  0  0  0  0  0  0  0  0
    4.7181  -45.2860  -17.7739 Cl  0  0  0  0  0  0  0  0  0  0  0  0
    3.2626  -47.6116  -17.9531 C   0  0  0  0  0  0  0  0  0  0  0  0
    2.7953  -48.7750  -18.6003 C   0  0  0  0  0  0  0  0  0  0  0  0
    1.7891  -52.4594  -25.2715 S   0  0  0  0  0  0  0  0  0  0  0  0
    1.1599  -52.5336  -23.9055 O   0  0  0  0  0  0  0  0  0  0  0  0
    2.6659  -53.6973  -25.4307 O   0  0  0  0  0  0  0  0  0  0  0  0
    0.5813  -52.5463  -26.5140 C   0  0  0  0  0  0  0  0  0  0  0  0
   -0.7628  -52.3989  -26.3332 C   0  0  0  0  0  0  0  0  0  0  0  0
   -1.6310  -52.4727  -27.4060 C   0  0  0  0  0  0  0  0  0  0  0  0
   -1.1669  -52.6988  -28.6975 C   0  0  0  0  0  0  0  0  0  0  0  0
    0.1825  -52.8494  -28.8930 C   0  0  0  0  0  0  0  0  0  0  0  0
    1.0318  -52.7725  -27.8110 C   0  0  0  0  0  0  0  0  0  0  0  0
    2.7479  -52.9784  -28.1244 Cl  0  0  0  0  0  0  0  0  0  0  0  0
 12 13  1  0  0  0
 13  8  1  0  0  0
  8  9  1  0  0  0
  9 10  2  0  0  0
  9  1  1  0  0  0
  1  2  1  0  0  0
  2  3  1  0  0  0
  3  4  1  0  0  0
  4  5  1  0  0  0
  5  6  1  0  0  0
  6  7  2  0  0  0
  6 27  1  0  0  0
 27 28  1  0  0  0
 28 29  1  0  0  0
 27 30  1  0  0  0
 30 31  2  0  0  0
 31 32  1  0  0  0
 32 33  2  0  0  0
 33 34  1  0  0  0
 33 35  1  0  0  0
 35 36  2  0  0  0
  3 37  1  0  0  0
 37 38  2  0  0  0
 37 39  2  0  0  0
 37 40  1  0  0  0
 40 41  2  0  0  0
 41 42  1  0  0  0
 42 43  2  0  0  0
 43 44  1  0  0  0
 44 45  2  0  0  0
 45 46  1  0  0  0
 13 14  1  0  0  0
 14 15  2  0  0  0
 14 16  1  0  0  0
 16 17  2  0  0  0
 16 18  1  0  0  0
 18 20  1  0  0  0
 20 21  1  0  0  0
 21 22  2  0  0  0
 22 23  1  0  0  0
 23 24  2  0  0  0
 24 25  1  0  0  0
 25 26  2  0  0  0
  5  1  1  0  0  0
 29 27  1  0  0  0
 36 30  1  0  0  0
 45 40  1  0  0  0
 26 21  1  0  0  0
  8 11  1  0  0  0
 18 19  1  0  0  0
M  END
> <minimizedAffinity>
-7.86185

> <CNNscore>
0.1055552810

> <CNNaffinity>
6.4488077164

> <CNN_VS>
0.6807057261

> <CNNaffinity_variance>
0.7956240773

$$$$
[H]c1c([H])c([H])c(C([H])([H])N([H])C(=O)C(=O)[C@@]([H])(N([H])C(=O)[C@@]2([H])N(C(=O)C3(c4c([H])c([H])c(Cl)c([H])c4[H])C([H])([H])C3([H])[H])C([H])([H])[C@]([H])(S(=O)(=O)c3c([H])c([H])c([H])c([H])c3Cl)C2([H])[H])C([H])([H])[H])c([H])c1[H]


 46 50  0  0  0  0  0  0  0  0999 V2000
    4.0533  -51.0158  -23.8735 C   0  0  0  0  0  0  0  0  0  0  0  0
    3.5890  -52.0155  -24.9398 C   0  0  0  0  0  0  0  0  0  0  0  0
    2.3222  -51.3775  -25.4960 C   0  0  0  0  0  0  0  0  0  0  0  0
    2.0301  -50.2409  -24.5358 C   0  0  0  0  0  0  0  0  0  0  0  0
    2.7808  -50.6646  -23.3012 N   0  0  0  0  0  0  0  0  0  0  0  0
    2.1623  -50.6732  -22.0730 C   0  0  0  0  0  0  0  0  0  0  0  0
    0.9063  -50.2937  -22.0923 O   0  0  0  0  0  0  0  0  0  0  0  0
    5.6626  -49.1087  -23.7525 N   0  0  0  0  0  0  0  0  0  0  0  0
    4.8086  -49.9512  -24.5120 C   0  0  0  0  0  0  0  0  0  0  0  0
    4.7767  -49.6910  -25.7654 O   0  0  0  0  0  0  0  0  0  0  0  0
    5.7094  -49.2897  -22.7182 H   0  0  0  0  0  0  0  0  0  0  0  0
    7.0580  -48.3722  -25.6447 C   0  0  0  0  0  0  0  0  0  0  0  0
    6.4540  -48.0227  -24.3279 C   0  0  0  0  0  0  0  0  0  0  0  0
    5.5949  -46.7954  -24.4534 C   0  0  0  0  0  0  0  0  0  0  0  0
    5.7543  -46.0609  -25.4480 O   0  0  0  0  0  0  0  0  0  0  0  0
    4.6162  -46.4718  -23.4586 C   0  0  0  0  0  0  0  0  0  0  0  0
    3.4508  -46.8648  -23.5910 O   0  0  0  0  0  0  0  0  0  0  0  0
    4.9776  -45.6991  -22.3246 N   0  0  0  0  0  0  0  0  0  0  0  0
    5.9883  -45.3731  -22.2799 H   0  0  0  0  0  0  0  0  0  0  0  0
    4.1515  -45.2993  -21.2360 C   0  0  0  0  0  0  0  0  0  0  0  0
    4.3073  -46.1135  -20.0300 C   0  0  0  0  0  0  0  0  0  0  0  0
    5.5804  -46.4858  -19.6684 C   0  0  0  0  0  0  0  0  0  0  0  0
    5.7558  -47.2728  -18.5532 C   0  0  0  0  0  0  0  0  0  0  0  0
    4.6909  -47.6901  -17.8012 C   0  0  0  0  0  0  0  0  0  0  0  0
    3.4185  -47.3024  -18.1850 C   0  0  0  0  0  0  0  0  0  0  0  0
    3.2228  -46.5210  -19.2881 C   0  0  0  0  0  0  0  0  0  0  0  0
    2.5809  -51.0337  -20.7087 C   0  0  0  0  0  0  0  0  0  0  0  0
    3.8399  -50.3298  -20.2233 C   0  0  0  0  0  0  0  0  0  0  0  0
    3.8872  -51.7607  -20.6396 C   0  0  0  0  0  0  0  0  0  0  0  0
    1.5798  -51.1225  -19.6287 C   0  0  0  0  0  0  0  0  0  0  0  0
    0.8032  -52.3079  -19.5868 C   0  0  0  0  0  0  0  0  0  0  0  0
   -0.1582  -52.5131  -18.6275 C   0  0  0  0  0  0  0  0  0  0  0  0
   -0.4212  -51.5791  -17.6527 C   0  0  0  0  0  0  0  0  0  0  0  0
   -1.6642  -51.8649  -16.4307 Cl  0  0  0  0  0  0  0  0  0  0  0  0
    0.3212  -50.4329  -17.6824 C   0  0  0  0  0  0  0  0  0  0  0  0
    1.3100  -50.2180  -18.6658 C   0  0  0  0  0  0  0  0  0  0  0  0
    1.0481  -52.5943  -25.4280 S   0  0  0  0  0  0  0  0  0  0  0  0
    0.2168  -52.4172  -24.1850 O   0  0  0  0  0  0  0  0  0  0  0  0
    1.7119  -53.9643  -25.3338 O   0  0  0  0  0  0  0  0  0  0  0  0
    0.0447  -52.6277  -26.8430 C   0  0  0  0  0  0  0  0  0  0  0  0
   -1.3048  -52.4300  -26.8703 C   0  0  0  0  0  0  0  0  0  0  0  0
   -1.9985  -52.4643  -28.0652 C   0  0  0  0  0  0  0  0  0  0  0  0
   -1.3488  -52.7006  -29.2721 C   0  0  0  0  0  0  0  0  0  0  0  0
    0.0081  -52.9015  -29.2585 C   0  0  0  0  0  0  0  0  0  0  0  0
    0.6819  -52.8634  -28.0575 C   0  0  0  0  0  0  0  0  0  0  0  0
    2.4171  -53.1331  -28.1044 Cl  0  0  0  0  0  0  0  0  0  0  0  0
 12 13  1  0  0  0
 13  8  1  0  0  0
  8  9  1  0  0  0
  9 10  2  0  0  0
  9  1  1  0  0  0
  1  2  1  0  0  0
  2  3  1  0  0  0
  3  4  1  0  0  0
  4  5  1  0  0  0
  5  6  1  0  0  0
  6  7  2  0  0  0
  6 27  1  0  0  0
 27 28  1  0  0  0
 28 29  1  0  0  0
 27 30  1  0  0  0
 30 31  2  0  0  0
 31 32  1  0  0  0
 32 33  2  0  0  0
 33 34  1  0  0  0
 33 35  1  0  0  0
 35 36  2  0  0  0
  3 37  1  0  0  0
 37 38  2  0  0  0
 37 39  2  0  0  0
 37 40  1  0  0  0
 40 41  2  0  0  0
 41 42  1  0  0  0
 42 43  2  0  0  0
 43 44  1  0  0  0
 44 45  2  0  0  0
 45 46  1  0  0  0
 13 14  1  0  0  0
 14 15  2  0  0  0
 14 16  1  0  0  0
 16 17  2  0  0  0
 16 18  1  0  0  0
 18 20  1  0  0  0
 20 21  1  0  0  0
 21 22  2  0  0  0
 22 23  1  0  0  0
 23 24  2  0  0  0
 24 25  1  0  0  0
 25 26  2  0  0  0
  5  1  1  0  0  0
 29 27  1  0  0  0
 36 30  1  0  0  0
 45 40  1  0  0  0
 26 21  1  0  0  0
  8 11  1  0  0  0
 18 19  1  0  0  0
M  END
> <minimizedAffinity>
-7.62860

> <CNNscore>
0.0933420435

> <CNNaffinity>
6.8453512192

> <CNN_VS>
0.6389590502

> <CNNaffinity_variance>
0.3386033773

$$$$
[H]c1c([H])c([H])c(C([H])([H])N([H])C(=O)C(=O)[C@@]([H])(N([H])C(=O)[C@@]2([H])N(C(=O)C3(c4c([H])c([H])c(Cl)c([H])c4[H])C([H])([H])C3([H])[H])C([H])([H])[C@]([H])(S(=O)(=O)c3c([H])c([H])c([H])c([H])c3Cl)C2([H])[H])C([H])([H])[H])c([H])c1[H]


 46 50  0  0  0  0  0  0  0  0999 V2000
    5.1103  -49.7794  -22.9954 C   0  0  0  0  0  0  0  0  0  0  0  0
    6.3102  -49.0184  -23.5727 C   0  0  0  0  0  0  0  0  0  0  0  0
    5.6989  -47.7116  -24.0623 C   0  0  0  0  0  0  0  0  0  0  0  0
    4.2038  -47.9495  -23.9764 C   0  0  0  0  0  0  0  0  0  0  0  0
    4.1184  -49.4528  -23.9852 N   0  0  0  0  0  0  0  0  0  0  0  0
    3.2688  -50.1018  -24.8501 C   0  0  0  0  0  0  0  0  0  0  0  0
    2.5761  -49.3078  -25.6322 O   0  0  0  0  0  0  0  0  0  0  0  0
    3.6269  -49.5924  -20.9939 N   0  0  0  0  0  0  0  0  0  0  0  0
    4.8645  -49.3260  -21.6370 C   0  0  0  0  0  0  0  0  0  0  0  0
    5.7084  -48.6766  -20.9257 O   0  0  0  0  0  0  0  0  0  0  0  0
    2.9073  -50.1189  -21.5504 H   0  0  0  0  0  0  0  0  0  0  0  0
    2.0755  -48.3447  -19.5426 C   0  0  0  0  0  0  0  0  0  0  0  0
    3.3127  -49.1709  -19.6300 C   0  0  0  0  0  0  0  0  0  0  0  0
    3.1971  -50.3842  -18.7499 C   0  0  0  0  0  0  0  0  0  0  0  0
    3.8777  -50.4251  -17.7063 O   0  0  0  0  0  0  0  0  0  0  0  0
    2.3290  -51.4700  -19.0961 C   0  0  0  0  0  0  0  0  0  0  0  0
    2.7655  -52.4205  -19.7566 O   0  0  0  0  0  0  0  0  0  0  0  0
    0.9700  -51.4572  -18.6880 N   0  0  0  0  0  0  0  0  0  0  0  0
    0.6505  -50.6027  -18.1426 H   0  0  0  0  0  0  0  0  0  0  0  0
   -0.0258  -52.4475  -18.9226 C   0  0  0  0  0  0  0  0  0  0  0  0
   -0.2113  -52.7941  -20.3321 C   0  0  0  0  0  0  0  0  0  0  0  0
   -0.2174  -54.1271  -20.6687 C   0  0  0  0  0  0  0  0  0  0  0  0
   -0.3644  -54.4827  -21.9899 C   0  0  0  0  0  0  0  0  0  0  0  0
   -0.5036  -53.5381  -22.9707 C   0  0  0  0  0  0  0  0  0  0  0  0
   -0.4945  -52.2022  -22.6075 C   0  0  0  0  0  0  0  0  0  0  0  0
   -0.3505  -51.8281  -21.3017 C   0  0  0  0  0  0  0  0  0  0  0  0
    2.9572  -51.5135  -25.1264 C   0  0  0  0  0  0  0  0  0  0  0  0
    2.9254  -52.4097  -23.8968 C   0  0  0  0  0  0  0  0  0  0  0  0
    4.0815  -52.4579  -24.8372 C   0  0  0  0  0  0  0  0  0  0  0  0
    1.8659  -51.8601  -26.0568 C   0  0  0  0  0  0  0  0  0  0  0  0
    2.2448  -52.5212  -27.2523 C   0  0  0  0  0  0  0  0  0  0  0  0
    1.3221  -52.9005  -28.1966 C   0  0  0  0  0  0  0  0  0  0  0  0
   -0.0224  -52.6601  -28.0345 C   0  0  0  0  0  0  0  0  0  0  0  0
   -1.1897  -53.1556  -29.2640 Cl  0  0  0  0  0  0  0  0  0  0  0  0
   -0.3996  -52.0241  -26.8861 C   0  0  0  0  0  0  0  0  0  0  0  0
    0.5446  -51.6329  -25.9133 C   0  0  0  0  0  0  0  0  0  0  0  0
    6.2002  -47.4930  -25.7385 S   0  0  0  0  0  0  0  0  0  0  0  0
    6.7078  -48.7905  -26.3096 O   0  0  0  0  0  0  0  0  0  0  0  0
    7.3646  -46.5080  -25.7555 O   0  0  0  0  0  0  0  0  0  0  0  0
    4.9641  -46.8142  -26.7492 C   0  0  0  0  0  0  0  0  0  0  0  0
    4.3593  -47.4389  -27.8003 C   0  0  0  0  0  0  0  0  0  0  0  0
    3.3711  -46.8010  -28.5261 C   0  0  0  0  0  0  0  0  0  0  0  0
    2.9631  -45.5090  -28.2119 C   0  0  0  0  0  0  0  0  0  0  0  0
    3.5637  -44.8693  -27.1574 C   0  0  0  0  0  0  0  0  0  0  0  0
    4.5465  -45.5218  -26.4461 C   0  0  0  0  0  0  0  0  0  0  0  0
    5.2812  -44.6488  -25.1105 Cl  0  0  0  0  0  0  0  0  0  0  0  0
 12 13  1  0  0  0
 13  8  1  0  0  0
  8  9  1  0  0  0
  9 10  2  0  0  0
  9  1  1  0  0  0
  1  2  1  0  0  0
  2  3  1  0  0  0
  3  4  1  0  0  0
  4  5  1  0  0  0
  5  6  1  0  0  0
  6  7  2  0  0  0
  6 27  1  0  0  0
 27 28  1  0  0  0
 28 29  1  0  0  0
 27 30  1  0  0  0
 30 31  2  0  0  0
 31 32  1  0  0  0
 32 33  2  0  0  0
 33 34  1  0  0  0
 33 35  1  0  0  0
 35 36  2  0  0  0
  3 37  1  0  0  0
 37 38  2  0  0  0
 37 39  2  0  0  0
 37 40  1  0  0  0
 40 41  2  0  0  0
 41 42  1  0  0  0
 42 43  2  0  0  0
 43 44  1  0  0  0
 44 45  2  0  0  0
 45 46  1  0  0  0
 13 14  1  0  0  0
 14 15  2  0  0  0
 14 16  1  0  0  0
 16 17  2  0  0  0
 16 18  1  0  0  0
 18 20  1  0  0  0
 20 21  1  0  0  0
 21 22  2  0  0  0
 22 23  1  0  0  0
 23 24  2  0  0  0
 24 25  1  0  0  0
 25 26  2  0  0  0
  5  1  1  0  0  0
 29 27  1  0  0  0
 36 30  1  0  0  0
 45 40  1  0  0  0
 26 21  1  0  0  0
  8 11  1  0  0  0
 18 19  1  0  0  0
M  END
> <minimizedAffinity>
-8.63801

> <CNNscore>
0.0870209932

> <CNNaffinity>
6.7014908791

> <CNN_VS>
0.5831704140

> <CNNaffinity_variance>
0.7263582945

$$$$
[H]c1c([H])c([H])c(C([H])([H])N([H])C(=O)C(=O)[C@@]([H])(N([H])C(=O)[C@@]2([H])N(C(=O)C3(c4c([H])c([H])c(Cl)c([H])c4[H])C([H])([H])C3([H])[H])C([H])([H])[C@]([H])(S(=O)(=O)c3c([H])c([H])c([H])c([H])c3Cl)C2([H])[H])C([H])([H])[H])c([H])c1[H]


 46 50  0  0  0  0  0  0  0  0999 V2000
    2.4427  -52.2853  -22.6726 C   0  0  0  0  0  0  0  0  0  0  0  0
    2.2550  -52.6887  -24.1403 C   0  0  0  0  0  0  0  0  0  0  0  0
    1.5243  -51.4964  -24.7450 C   0  0  0  0  0  0  0  0  0  0  0  0
    1.1244  -50.6618  -23.5438 C   0  0  0  0  0  0  0  0  0  0  0  0
    1.1656  -51.6700  -22.4261 N   0  0  0  0  0  0  0  0  0  0  0  0
    0.1036  -51.8035  -21.5628 C   0  0  0  0  0  0  0  0  0  0  0  0
   -0.9031  -50.9984  -21.8083 O   0  0  0  0  0  0  0  0  0  0  0  0
    3.6785  -50.4082  -21.5817 N   0  0  0  0  0  0  0  0  0  0  0  0
    3.6187  -51.4400  -22.5552 C   0  0  0  0  0  0  0  0  0  0  0  0
    4.6649  -51.5481  -23.2856 O   0  0  0  0  0  0  0  0  0  0  0  0
    2.8344  -50.2864  -20.9675 H   0  0  0  0  0  0  0  0  0  0  0  0
    4.6373  -48.1821  -22.0237 C   0  0  0  0  0  0  0  0  0  0  0  0
    4.8290  -49.5240  -21.4045 C   0  0  0  0  0  0  0  0  0  0  0  0
    5.1286  -49.3875  -19.9376 C   0  0  0  0  0  0  0  0  0  0  0  0
    6.3042  -49.5505  -19.5562 O   0  0  0  0  0  0  0  0  0  0  0  0
    4.0939  -49.0785  -18.9962 C   0  0  0  0  0  0  0  0  0  0  0  0
    2.9702  -48.7562  -19.4005 O   0  0  0  0  0  0  0  0  0  0  0  0
    4.3544  -49.1369  -17.6025 N   0  0  0  0  0  0  0  0  0  0  0  0
    5.3449  -49.3984  -17.3195 H   0  0  0  0  0  0  0  0  0  0  0  0
    3.4527  -48.8831  -16.5302 C   0  0  0  0  0  0  0  0  0  0  0  0
    3.5052  -49.8708  -15.4517 C   0  0  0  0  0  0  0  0  0  0  0  0
    3.7963  -51.1718  -15.7878 C   0  0  0  0  0  0  0  0  0  0  0  0
    3.8277  -52.1273  -14.7981 C   0  0  0  0  0  0  0  0  0  0  0  0
    3.5751  -51.8080  -13.4913 C   0  0  0  0  0  0  0  0  0  0  0  0
    3.2843  -50.4915  -13.1771 C   0  0  0  0  0  0  0  0  0  0  0  0
    3.2489  -49.5276  -14.1443 C   0  0  0  0  0  0  0  0  0  0  0  0
   -0.1866  -52.6705  -20.4093 C   0  0  0  0  0  0  0  0  0  0  0  0
    0.4622  -54.0458  -20.4689 C   0  0  0  0  0  0  0  0  0  0  0  0
   -0.9946  -53.8852  -20.7427 C   0  0  0  0  0  0  0  0  0  0  0  0
   -0.1295  -52.1221  -19.0409 C   0  0  0  0  0  0  0  0  0  0  0  0
   -0.9844  -52.7263  -18.0849 C   0  0  0  0  0  0  0  0  0  0  0  0
   -1.0208  -52.3094  -16.7766 C   0  0  0  0  0  0  0  0  0  0  0  0
   -0.2289  -51.2816  -16.3204 C   0  0  0  0  0  0  0  0  0  0  0  0
   -0.2950  -50.7620  -14.6336 Cl  0  0  0  0  0  0  0  0  0  0  0  0
    0.5996  -50.6919  -17.2324 C   0  0  0  0  0  0  0  0  0  0  0  0
    0.6406  -51.1170  -18.5772 C   0  0  0  0  0  0  0  0  0  0  0  0
    0.0984  -52.1197  -25.5738 S   0  0  0  0  0  0  0  0  0  0  0  0
    0.2166  -51.9038  -27.0593 O   0  0  0  0  0  0  0  0  0  0  0  0
   -1.1090  -51.3187  -25.0975 O   0  0  0  0  0  0  0  0  0  0  0  0
   -0.2399  -53.7833  -25.2159 C   0  0  0  0  0  0  0  0  0  0  0  0
   -0.8187  -54.2529  -24.0734 C   0  0  0  0  0  0  0  0  0  0  0  0
   -1.0544  -55.6045  -23.9064 C   0  0  0  0  0  0  0  0  0  0  0  0
   -0.7111  -56.5255  -24.8905 C   0  0  0  0  0  0  0  0  0  0  0  0
   -0.1278  -56.0664  -26.0441 C   0  0  0  0  0  0  0  0  0  0  0  0
    0.0989  -54.7156  -26.1919 C   0  0  0  0  0  0  0  0  0  0  0  0
    0.8533  -54.1898  -27.6887 Cl  0  0  0  0  0  0  0  0  0  0  0  0
 12 13  1  0  0  0
 13  8  1  0  0  0
  8  9  1  0  0  0
  9 10  2  0  0  0
  9  1  1  0  0  0
  1  2  1  0  0  0
  2  3  1  0  0  0
  3  4  1  0  0  0
  4  5  1  0  0  0
  5  6  1  0  0  0
  6  7  2  0  0  0
  6 27  1  0  0  0
 27 28  1  0  0  0
 28 29  1  0  0  0
 27 30  1  0  0  0
 30 31  2  0  0  0
 31 32  1  0  0  0
 32 33  2  0  0  0
 33 34  1  0  0  0
 33 35  1  0  0  0
 35 36  2  0  0  0
  3 37  1  0  0  0
 37 38  2  0  0  0
 37 39  2  0  0  0
 37 40  1  0  0  0
 40 41  2  0  0  0
 41 42  1  0  0  0
 42 43  2  0  0  0
 43 44  1  0  0  0
 44 45  2  0  0  0
 45 46  1  0  0  0
 13 14  1  0  0  0
 14 15  2  0  0  0
 14 16  1  0  0  0
 16 17  2  0  0  0
 16 18  1  0  0  0
 18 20  1  0  0  0
 20 21  1  0  0  0
 21 22  2  0  0  0
 22 23  1  0  0  0
 23 24  2  0  0  0
 24 25  1  0  0  0
 25 26  2  0  0  0
  5  1  1  0  0  0
 29 27  1  0  0  0
 36 30  1  0  0  0
 45 40  1  0  0  0
 26 21  1  0  0  0
  8 11  1  0  0  0
 18 19  1  0  0  0
M  END
> <minimizedAffinity>
-7.53882

> <CNNscore>
0.0821102932

> <CNNaffinity>
6.7784261703

> <CNN_VS>
0.5565785766

> <CNNaffinity_variance>
0.4287784994

$$$$
[H]OC(=O)c1[se]c(-c2c([H])c([H])c(C([H])([H])[H])c(C#N)c2[H])nc1C([H])([H])[H]


 19 20  0  0  0  0  0  0  0  0999 V2000
   -0.1581  -52.6768  -23.7901 C   0  0  0  0  0  0  0  0  0  0  0  0
   -0.6297  -53.0873  -22.6999 N   0  0  0  0  0  0  0  0  0  0  0  0
   -0.3807  -52.9010  -21.4909 C   0  0  0  0  0  0  0  0  0  0  0  0
   -1.1843  -53.5875  -20.3734 C   0  0  0  0  0  0  0  0  0  0  0  0
    0.5972  -52.0965  -21.0116 C   0  0  0  0  0  0  0  0  0  0  0  0
    1.3326  -51.4539  -22.8573 Se  0  0  0  0  0  0  0  0  0  0  0  0
   -0.7717  -52.7909  -29.4194 C   0  0  0  0  0  0  0  0  0  0  0  0
   -0.5936  -52.7706  -27.9435 C   0  0  0  0  0  0  0  0  0  0  0  0
   -1.5338  -52.1787  -27.1368 C   0  0  0  0  0  0  0  0  0  0  0  0
   -1.3538  -52.1692  -25.7806 C   0  0  0  0  0  0  0  0  0  0  0  0
   -0.2592  -52.7365  -25.2202 C   0  0  0  0  0  0  0  0  0  0  0  0
    0.6770  -53.3271  -26.0352 C   0  0  0  0  0  0  0  0  0  0  0  0
    0.5316  -53.3570  -27.4054 C   0  0  0  0  0  0  0  0  0  0  0  0
    1.5132  -53.9739  -28.2329 C   0  0  0  0  0  0  0  0  0  0  0  0
    2.3131  -54.4855  -28.8949 N   0  0  0  0  0  0  0  0  0  0  0  0
    1.1146  -51.6881  -19.7430 C   0  0  0  0  0  0  0  0  0  0  0  0
    0.4691  -50.7852  -18.8970 O   0  0  0  0  0  0  0  0  0  0  0  0
    2.2060  -52.1490  -19.3404 O   0  0  0  0  0  0  0  0  0  0  0  0
    0.7510  -49.8084  -18.9749 H   0  0  0  0  0  0  0  0  0  0  0  0
  7  8  1  0  0  0
  8  9  2  0  0  0
  9 10  1  0  0  0
 10 11  2  0  0  0
 11 12  1  0  0  0
 12 13  2  0  0  0
 13 14  1  0  0  0
 14 15  3  0  0  0
 11  1  1  0  0  0
  1  2  2  0  0  0
  2  3  1  0  0  0
  3  4  1  0  0  0
  3  5  2  0  0  0
  5  6  1  0  0  0
  5 16  1  0  0  0
 16 17  1  0  0  0
 16 18  2  0  0  0
 13  8  1  0  0  0
  6  1  1  0  0  0
 17 19  1  0  0  0
M  END
> <minimizedAffinity>
-7.23274

> <CNNscore>
0.8527699709

> <CNNaffinity>
5.8177247047

> <CNN_VS>
4.9611811638

> <CNNaffinity_variance>
0.0632631183

$$$$
[H]OC(=O)c1[se]c(-c2c([H])c([H])c(C([H])([H])[H])c(C#N)c2[H])nc1C([H])([H])[H]


 19 20  0  0  0  0  0  0  0  0999 V2000
   -0.2818  -52.4539  -23.9781 C   0  0  0  0  0  0  0  0  0  0  0  0
   -0.0281  -51.6613  -23.0364 N   0  0  0  0  0  0  0  0  0  0  0  0
   -0.0352  -51.7222  -21.7895 C   0  0  0  0  0  0  0  0  0  0  0  0
    0.3447  -50.5203  -20.9081 C   0  0  0  0  0  0  0  0  0  0  0  0
   -0.3664  -52.8167  -21.0645 C   0  0  0  0  0  0  0  0  0  0  0  0
   -0.7724  -54.0820  -22.6754 Se  0  0  0  0  0  0  0  0  0  0  0  0
   -0.7543  -52.9868  -29.5969 C   0  0  0  0  0  0  0  0  0  0  0  0
   -0.6128  -52.8559  -28.1227 C   0  0  0  0  0  0  0  0  0  0  0  0
   -1.5975  -52.2534  -27.3794 C   0  0  0  0  0  0  0  0  0  0  0  0
   -1.4508  -52.1415  -26.0238 C   0  0  0  0  0  0  0  0  0  0  0  0
   -0.3458  -52.6174  -25.4022 C   0  0  0  0  0  0  0  0  0  0  0  0
    0.6352  -53.2192  -26.1539 C   0  0  0  0  0  0  0  0  0  0  0  0
    0.5243  -53.3509  -27.5213 C   0  0  0  0  0  0  0  0  0  0  0  0
    1.5520  -53.9776  -28.2826 C   0  0  0  0  0  0  0  0  0  0  0  0
    2.3777  -54.4889  -28.9125 N   0  0  0  0  0  0  0  0  0  0  0  0
   -0.4694  -53.1925  -19.6890 C   0  0  0  0  0  0  0  0  0  0  0  0
   -1.6593  -53.5995  -19.0839 O   0  0  0  0  0  0  0  0  0  0  0  0
    0.5474  -53.1654  -18.9604 O   0  0  0  0  0  0  0  0  0  0  0  0
   -2.1944  -52.8773  -18.6025 H   0  0  0  0  0  0  0  0  0  0  0  0
  7  8  1  0  0  0
  8  9  2  0  0  0
  9 10  1  0  0  0
 10 11  2  0  0  0
 11 12  1  0  0  0
 12 13  2  0  0  0
 13 14  1  0  0  0
 14 15  3  0  0  0
 11  1  1  0  0  0
  1  2  2  0  0  0
  2  3  1  0  0  0
  3  4  1  0  0  0
  3  5  2  0  0  0
  5  6  1  0  0  0
  5 16  1  0  0  0
 16 17  1  0  0  0
 16 18  2  0  0  0
 13  8  1  0  0  0
  6  1  1  0  0  0
 17 19  1  0  0  0
M  END
> <minimizedAffinity>
-7.01886

> <CNNscore>
0.8145862222

> <CNNaffinity>
5.7755861282

> <CNN_VS>
4.7047128677

> <CNNaffinity_variance>
0.0889181048

$$$$
[H]OC(=O)c1[se]c(-c2c([H])c([H])c(C([H])([H])[H])c(C#N)c2[H])nc1C([H])([H])[H]


 19 20  0  0  0  0  0  0  0  0999 V2000
    0.4497  -52.3326  -23.5809 C   0  0  0  0  0  0  0  0  0  0  0  0
    1.3240  -52.0615  -22.7198 N   0  0  0  0  0  0  0  0  0  0  0  0
    1.3551  -51.9683  -21.4753 C   0  0  0  0  0  0  0  0  0  0  0  0
    2.6404  -51.6048  -20.7126 C   0  0  0  0  0  0  0  0  0  0  0  0
    0.2987  -52.1675  -20.6522 C   0  0  0  0  0  0  0  0  0  0  0  0
   -1.1050  -52.6094  -22.1338 Se  0  0  0  0  0  0  0  0  0  0  0  0
   -0.8404  -52.8593  -29.0706 C   0  0  0  0  0  0  0  0  0  0  0  0
   -0.4846  -52.7301  -27.6328 C   0  0  0  0  0  0  0  0  0  0  0  0
   -1.3474  -52.1234  -26.7539 C   0  0  0  0  0  0  0  0  0  0  0  0
   -1.0038  -52.0131  -25.4341 C   0  0  0  0  0  0  0  0  0  0  0  0
    0.1778  -52.4947  -24.9804 C   0  0  0  0  0  0  0  0  0  0  0  0
    1.0356  -53.1008  -25.8672 C   0  0  0  0  0  0  0  0  0  0  0  0
    0.7256  -53.2310  -27.2038 C   0  0  0  0  0  0  0  0  0  0  0  0
    1.6281  -53.8623  -28.1070 C   0  0  0  0  0  0  0  0  0  0  0  0
    2.3587  -54.3883  -28.8345 N   0  0  0  0  0  0  0  0  0  0  0  0
    0.0199  -52.1385  -19.2503 C   0  0  0  0  0  0  0  0  0  0  0  0
   -0.4662  -53.2331  -18.5340 O   0  0  0  0  0  0  0  0  0  0  0  0
    0.2126  -51.0865  -18.6009 O   0  0  0  0  0  0  0  0  0  0  0  0
   -1.4775  -53.2860  -18.4159 H   0  0  0  0  0  0  0  0  0  0  0  0
  7  8  1  0  0  0
  8  9  2  0  0  0
  9 10  1  0  0  0
 10 11  2  0  0  0
 11 12  1  0  0  0
 12 13  2  0  0  0
 13 14  1  0  0  0
 14 15  3  0  0  0
 11  1  1  0  0  0
  1  2  2  0  0  0
  2  3  1  0  0  0
  3  4  1  0  0  0
  3  5  2  0  0  0
  5  6  1  0  0  0
  5 16  1  0  0  0
 16 17  1  0  0  0
 16 18  2  0  0  0
 13  8  1  0  0  0
  6  1  1  0  0  0
 17 19  1  0  0  0
M  END
> <minimizedAffinity>
-6.70866

> <CNNscore>
0.7020622492

> <CNNaffinity>
5.5483007431

> <CNN_VS>
3.8952524662

> <CNNaffinity_variance>
0.0809332281

$$$$
[H]OC(=O)c1[se]c(-c2c([H])c([H])c(C([H])([H])[H])c(C#N)c2[H])nc1C([H])([H])[H]


 19 20  0  0  0  0  0  0  0  0999 V2000
    0.5643  -52.6264  -23.5466 C   0  0  0  0  0  0  0  0  0  0  0  0
    0.3823  -53.2212  -22.4546 N   0  0  0  0  0  0  0  0  0  0  0  0
    0.6612  -52.9997  -21.2581 C   0  0  0  0  0  0  0  0  0  0  0  0
    0.2751  -53.9744  -20.1326 C   0  0  0  0  0  0  0  0  0  0  0  0
    1.3192  -51.9085  -20.8003 C   0  0  0  0  0  0  0  0  0  0  0  0
    1.5882  -50.9735  -22.6480 Se  0  0  0  0  0  0  0  0  0  0  0  0
   -0.0179  -52.8107  -29.1774 C   0  0  0  0  0  0  0  0  0  0  0  0
    0.1155  -52.7607  -27.6975 C   0  0  0  0  0  0  0  0  0  0  0  0
    1.3525  -52.8376  -27.1068 C   0  0  0  0  0  0  0  0  0  0  0  0
    1.4567  -52.7899  -25.7434 C   0  0  0  0  0  0  0  0  0  0  0  0
    0.3549  -52.6677  -24.9655 C   0  0  0  0  0  0  0  0  0  0  0  0
   -0.8797  -52.5913  -25.5651 C   0  0  0  0  0  0  0  0  0  0  0  0
   -1.0258  -52.6358  -26.9348 C   0  0  0  0  0  0  0  0  0  0  0  0
   -2.3140  -52.5553  -27.5371 C   0  0  0  0  0  0  0  0  0  0  0  0
   -3.3664  -52.4983  -28.0157 N   0  0  0  0  0  0  0  0  0  0  0  0
    1.7713  -51.3838  -19.5497 C   0  0  0  0  0  0  0  0  0  0  0  0
    1.0393  -50.4801  -18.7783 O   0  0  0  0  0  0  0  0  0  0  0  0
    2.8823  -51.7358  -19.0942 O   0  0  0  0  0  0  0  0  0  0  0  0
    1.2511  -49.4919  -18.9129 H   0  0  0  0  0  0  0  0  0  0  0  0
  7  8  1  0  0  0
  8  9  2  0  0  0
  9 10  1  0  0  0
 10 11  2  0  0  0
 11 12  1  0  0  0
 12 13  2  0  0  0
 13 14  1  0  0  0
 14 15  3  0  0  0
 11  1  1  0  0  0
  1  2  2  0  0  0
  2  3  1  0  0  0
  3  4  1  0  0  0
  3  5  2  0  0  0
  5  6  1  0  0  0
  5 16  1  0  0  0
 16 17  1  0  0  0
 16 18  2  0  0  0
 13  8  1  0  0  0
  6  1  1  0  0  0
 17 19  1  0  0  0
M  END
> <minimizedAffinity>
-6.68509

> <CNNscore>
0.5833202600

> <CNNaffinity>
5.4830865860

> <CNN_VS>
3.1983954906

> <CNNaffinity_variance>
0.0959921554

$$$$
[H]OC(=O)c1[se]c(-c2c([H])c([H])c(C([H])([H])[H])c(C#N)c2[H])nc1C([H])([H])[H]


 19 20  0  0  0  0  0  0  0  0999 V2000
    1.7925  -50.8669  -20.3220 C   0  0  0  0  0  0  0  0  0  0  0  0
    2.4476  -51.0235  -19.2611 N   0  0  0  0  0  0  0  0  0  0  0  0
    2.8415  -50.2842  -18.3355 C   0  0  0  0  0  0  0  0  0  0  0  0
    3.6507  -50.8233  -17.1438 C   0  0  0  0  0  0  0  0  0  0  0  0
    2.6187  -48.9511  -18.2544 C   0  0  0  0  0  0  0  0  0  0  0  0
    1.5367  -48.7603  -20.0303 Se  0  0  0  0  0  0  0  0  0  0  0  0
   -0.2505  -53.2563  -25.0332 C   0  0  0  0  0  0  0  0  0  0  0  0
    0.2757  -52.6420  -23.7857 C   0  0  0  0  0  0  0  0  0  0  0  0
    1.1336  -51.5717  -23.8448 C   0  0  0  0  0  0  0  0  0  0  0  0
    1.6081  -51.0188  -22.6868 C   0  0  0  0  0  0  0  0  0  0  0  0
    1.2433  -51.5127  -21.4797 C   0  0  0  0  0  0  0  0  0  0  0  0
    0.3840  -52.5844  -21.4297 C   0  0  0  0  0  0  0  0  0  0  0  0
   -0.1154  -53.1688  -22.5736 C   0  0  0  0  0  0  0  0  0  0  0  0
   -1.0049  -54.2789  -22.5007 C   0  0  0  0  0  0  0  0  0  0  0  0
   -1.7199  -55.1864  -22.4301 N   0  0  0  0  0  0  0  0  0  0  0  0
    2.9215  -47.8723  -17.3666 C   0  0  0  0  0  0  0  0  0  0  0  0
    2.4509  -47.7924  -16.0553 O   0  0  0  0  0  0  0  0  0  0  0  0
    3.6474  -46.9314  -17.7583 O   0  0  0  0  0  0  0  0  0  0  0  0
    1.5951  -47.2572  -15.9114 H   0  0  0  0  0  0  0  0  0  0  0  0
  7  8  1  0  0  0
  8  9  2  0  0  0
  9 10  1  0  0  0
 10 11  2  0  0  0
 11 12  1  0  0  0
 12 13  2  0  0  0
 13 14  1  0  0  0
 14 15  3  0  0  0
 11  1  1  0  0  0
  1  2  2  0  0  0
  2  3  1  0  0  0
  3  4  1  0  0  0
  3  5  2  0  0  0
  5  6  1  0  0  0
  5 16  1  0  0  0
 16 17  1  0  0  0
 16 18  2  0  0  0
 13  8  1  0  0  0
  6  1  1  0  0  0
 17 19  1  0  0  0
M  END
> <minimizedAffinity>
-5.30592

> <CNNscore>
0.5047903061

> <CNNaffinity>
5.0256919861

> <CNN_VS>
2.5369205475

> <CNNaffinity_variance>
0.3749831915

$$$$
[H]OC(=O)c1[se]c(-c2c([H])c([H])c(C([H])([H])[H])c(C#N)c2[H])nc1C([H])([H])[H]


 19 20  0  0  0  0  0  0  0  0999 V2000
    1.6792  -50.3648  -23.2977 C   0  0  0  0  0  0  0  0  0  0  0  0
    1.4834  -49.8601  -22.1636 N   0  0  0  0  0  0  0  0  0  0  0  0
    2.0288  -48.9754  -21.4719 C   0  0  0  0  0  0  0  0  0  0  0  0
    1.5117  -48.5925  -20.0749 C   0  0  0  0  0  0  0  0  0  0  0  0
    3.1135  -48.2548  -21.8423 C   0  0  0  0  0  0  0  0  0  0  0  0
    3.3829  -49.1359  -23.7163 Se  0  0  0  0  0  0  0  0  0  0  0  0
   -0.0148  -54.0344  -27.2654 C   0  0  0  0  0  0  0  0  0  0  0  0
    0.4219  -53.0826  -26.2101 C   0  0  0  0  0  0  0  0  0  0  0  0
    1.1087  -51.9412  -26.5427 C   0  0  0  0  0  0  0  0  0  0  0  0
    1.5029  -51.0764  -25.5586 C   0  0  0  0  0  0  0  0  0  0  0  0
    1.2252  -51.3298  -24.2576 C   0  0  0  0  0  0  0  0  0  0  0  0
    0.5371  -52.4748  -23.9334 C   0  0  0  0  0  0  0  0  0  0  0  0
    0.1231  -53.3704  -24.8957 C   0  0  0  0  0  0  0  0  0  0  0  0
   -0.5888  -54.5515  -24.5394 C   0  0  0  0  0  0  0  0  0  0  0  0
   -1.1800  -55.5047  -24.2537 N   0  0  0  0  0  0  0  0  0  0  0  0
    3.9388  -47.2188  -21.3044 C   0  0  0  0  0  0  0  0  0  0  0  0
    5.0088  -47.4510  -20.4392 O   0  0  0  0  0  0  0  0  0  0  0  0
    3.7143  -46.0259  -21.6081 O   0  0  0  0  0  0  0  0  0  0  0  0
    4.8102  -47.3802  -19.4416 H   0  0  0  0  0  0  0  0  0  0  0  0
  7  8  1  0  0  0
  8  9  2  0  0  0
  9 10  1  0  0  0
 10 11  2  0  0  0
 11 12  1  0  0  0
 12 13  2  0  0  0
 13 14  1  0  0  0
 14 15  3  0  0  0
 11  1  1  0  0  0
  1  2  2  0  0  0
  2  3  1  0  0  0
  3  4  1  0  0  0
  3  5  2  0  0  0
  5  6  1  0  0  0
  5 16  1  0  0  0
 16 17  1  0  0  0
 16 18  2  0  0  0
 13  8  1  0  0  0
  6  1  1  0  0  0
 17 19  1  0  0  0
M  END
> <minimizedAffinity>
-5.27269

> <CNNscore>
0.4479331970

> <CNNaffinity>
5.1547117233

> <CNN_VS>
2.3089663982

> <CNNaffinity_variance>
0.6303661466

$$$$
[H]OC(=O)c1[se]c(-c2c([H])c([H])c(C([H])([H])[H])c(C#N)c2[H])nc1C([H])([H])[H]


 19 20  0  0  0  0  0  0  0  0999 V2000
    1.8797  -50.4434  -22.3959 C   0  0  0  0  0  0  0  0  0  0  0  0
    2.0348  -49.2150  -22.6112 N   0  0  0  0  0  0  0  0  0  0  0  0
    2.8507  -48.3403  -22.2539 C   0  0  0  0  0  0  0  0  0  0  0  0
    2.7430  -46.8791  -22.7219 C   0  0  0  0  0  0  0  0  0  0  0  0
    3.9074  -48.5487  -21.4334 C   0  0  0  0  0  0  0  0  0  0  0  0
    3.5921  -50.5887  -21.1175 Se  0  0  0  0  0  0  0  0  0  0  0  0
   -1.1908  -55.0207  -23.6993 C   0  0  0  0  0  0  0  0  0  0  0  0
   -0.3932  -53.8187  -23.3394 C   0  0  0  0  0  0  0  0  0  0  0  0
    0.4916  -53.2756  -24.2379 C   0  0  0  0  0  0  0  0  0  0  0  0
    1.2174  -52.1693  -23.8899 C   0  0  0  0  0  0  0  0  0  0  0  0
    1.0759  -51.6002  -22.6692 C   0  0  0  0  0  0  0  0  0  0  0  0
    0.1878  -52.1503  -21.7758 C   0  0  0  0  0  0  0  0  0  0  0  0
   -0.5613  -53.2640  -22.0889 C   0  0  0  0  0  0  0  0  0  0  0  0
   -1.4763  -53.8193  -21.1491 C   0  0  0  0  0  0  0  0  0  0  0  0
   -2.2249  -54.2797  -20.3959 N   0  0  0  0  0  0  0  0  0  0  0  0
    4.9770  -47.7927  -20.8607 C   0  0  0  0  0  0  0  0  0  0  0  0
    6.0942  -47.3640  -21.5788 O   0  0  0  0  0  0  0  0  0  0  0  0
    4.9382  -47.4821  -19.6493 O   0  0  0  0  0  0  0  0  0  0  0  0
    6.9165  -47.9657  -21.5417 H   0  0  0  0  0  0  0  0  0  0  0  0
  7  8  1  0  0  0
  8  9  2  0  0  0
  9 10  1  0  0  0
 10 11  2  0  0  0
 11 12  1  0  0  0
 12 13  2  0  0  0
 13 14  1  0  0  0
 14 15  3  0  0  0
 11  1  1  0  0  0
  1  2  2  0  0  0
  2  3  1  0  0  0
  3  4  1  0  0  0
  3  5  2  0  0  0
  5  6  1  0  0  0
  5 16  1  0  0  0
 16 17  1  0  0  0
 16 18  2  0  0  0
 13  8  1  0  0  0
  6  1  1  0  0  0
 17 19  1  0  0  0
M  END
> <minimizedAffinity>
-5.19390

> <CNNscore>
0.4343457818

> <CNNaffinity>
4.9829292297

> <CNN_VS>
2.1643142700

> <CNNaffinity_variance>
0.4330922663

$$$$
[H]OC(=O)c1[se]c(-c2c([H])c([H])c(C([H])([H])[H])c(C#N)c2[H])nc1C([H])([H])[H]


 19 20  0  0  0  0  0  0  0  0999 V2000
    0.9001  -51.4929  -23.9569 C   0  0  0  0  0  0  0  0  0  0  0  0
    1.2997  -50.5802  -23.1910 N   0  0  0  0  0  0  0  0  0  0  0  0
    1.5071  -50.4680  -21.9651 C   0  0  0  0  0  0  0  0  0  0  0  0
    2.0146  -49.1594  -21.3361 C   0  0  0  0  0  0  0  0  0  0  0  0
    1.3210  -51.4487  -21.0502 C   0  0  0  0  0  0  0  0  0  0  0  0
    0.6637  -52.9206  -22.3777 Se  0  0  0  0  0  0  0  0  0  0  0  0
   -0.0591  -52.9110  -29.3557 C   0  0  0  0  0  0  0  0  0  0  0  0
    0.1733  -52.5385  -27.9352 C   0  0  0  0  0  0  0  0  0  0  0  0
    1.4504  -52.3747  -27.4584 C   0  0  0  0  0  0  0  0  0  0  0  0
    1.6458  -52.0318  -26.1484 C   0  0  0  0  0  0  0  0  0  0  0  0
    0.5957  -51.8510  -25.3126 C   0  0  0  0  0  0  0  0  0  0  0  0
   -0.6795  -52.0169  -25.7983 C   0  0  0  0  0  0  0  0  0  0  0  0
   -0.9173  -52.3620  -27.1112 C   0  0  0  0  0  0  0  0  0  0  0  0
   -2.2463  -52.5294  -27.5954 C   0  0  0  0  0  0  0  0  0  0  0  0
   -3.3301  -52.6719  -27.9761 N   0  0  0  0  0  0  0  0  0  0  0  0
    1.4604  -51.6297  -19.6390 C   0  0  0  0  0  0  0  0  0  0  0  0
    2.6887  -51.7866  -18.9954 O   0  0  0  0  0  0  0  0  0  0  0  0
    0.4418  -51.6532  -18.9127 O   0  0  0  0  0  0  0  0  0  0  0  0
    2.9974  -52.7446  -18.8328 H   0  0  0  0  0  0  0  0  0  0  0  0
  7  8  1  0  0  0
  8  9  2  0  0  0
  9 10  1  0  0  0
 10 11  2  0  0  0
 11 12  1  0  0  0
 12 13  2  0  0  0
 13 14  1  0  0  0
 14 15  3  0  0  0
 11  1  1  0  0  0
  1  2  2  0  0  0
  2  3  1  0  0  0
  3  4  1  0  0  0
  3  5  2  0  0  0
  5  6  1  0  0  0
  5 16  1  0  0  0
 16 17  1  0  0  0
 16 18  2  0  0  0
 13  8  1  0  0  0
  6  1  1  0  0  0
 17 19  1  0  0  0
M  END
> <minimizedAffinity>
-6.65715

> <CNNscore>
0.3952615857

> <CNNaffinity>
5.1862230301

> <CNN_VS>
2.0499148369

> <CNNaffinity_variance>
0.0894682184

$$$$
[H]OC(=O)c1[se]c(-c2c([H])c([H])c(C([H])([H])[H])c(C#N)c2[H])nc1C([H])([H])[H]


 19 20  0  0  0  0  0  0  0  0999 V2000
    1.8783  -50.8484  -20.9897 C   0  0  0  0  0  0  0  0  0  0  0  0
    2.9756  -50.5487  -20.4554 N   0  0  0  0  0  0  0  0  0  0  0  0
    3.5235  -49.4964  -20.0670 C   0  0  0  0  0  0  0  0  0  0  0  0
    4.9255  -49.4876  -19.4345 C   0  0  0  0  0  0  0  0  0  0  0  0
    2.9789  -48.2593  -20.1455 C   0  0  0  0  0  0  0  0  0  0  0  0
    1.1756  -48.8255  -21.0335 Se  0  0  0  0  0  0  0  0  0  0  0  0
   -1.3467  -55.1472  -22.7782 C   0  0  0  0  0  0  0  0  0  0  0  0
   -0.5000  -54.0114  -22.3270 C   0  0  0  0  0  0  0  0  0  0  0  0
   -0.1053  -53.9152  -21.0155 C   0  0  0  0  0  0  0  0  0  0  0  0
    0.6738  -52.8633  -20.6176 C   0  0  0  0  0  0  0  0  0  0  0  0
    1.0627  -51.9128  -21.5003 C   0  0  0  0  0  0  0  0  0  0  0  0
    0.6631  -52.0168  -22.8115 C   0  0  0  0  0  0  0  0  0  0  0  0
   -0.1217  -53.0611  -23.2508 C   0  0  0  0  0  0  0  0  0  0  0  0
   -0.5254  -53.1510  -24.6138 C   0  0  0  0  0  0  0  0  0  0  0  0
   -0.8555  -53.2094  -25.7217 N   0  0  0  0  0  0  0  0  0  0  0  0
    3.3317  -46.9162  -19.8057 C   0  0  0  0  0  0  0  0  0  0  0  0
    3.7501  -45.9654  -20.7376 O   0  0  0  0  0  0  0  0  0  0  0  0
    3.2722  -46.5417  -18.6133 O   0  0  0  0  0  0  0  0  0  0  0  0
    4.7569  -45.8658  -20.8644 H   0  0  0  0  0  0  0  0  0  0  0  0
  7  8  1  0  0  0
  8  9  2  0  0  0
  9 10  1  0  0  0
 10 11  2  0  0  0
 11 12  1  0  0  0
 12 13  2  0  0  0
 13 14  1  0  0  0
 14 15  3  0  0  0
 11  1  1  0  0  0
  1  2  2  0  0  0
  2  3  1  0  0  0
  3  4  1  0  0  0
  3  5  2  0  0  0
  5  6  1  0  0  0
  5 16  1  0  0  0
 16 17  1  0  0  0
 16 18  2  0  0  0
 13  8  1  0  0  0
  6  1  1  0  0  0
 17 19  1  0  0  0
M  END
> <minimizedAffinity>
-5.60605

> <CNNscore>
0.3723541200

> <CNNaffinity>
4.8987112045

> <CNN_VS>
1.8240553141

> <CNNaffinity_variance>
0.0737497881

$$$$
[H]c1c([H])c([H])c(C([H])([H])[C@@]2([H])C(=O)N([H])[C@@]([H])([C@@]([H])(C([H])([H])[H])C([H])([H])C([H])([H])[H])C(=O)N([H])[C@]([H])(C([H])([H])C([H])([H])C([H])([H])N=C(N([H])[H])N([H])[H])C(=O)N3C([H])([H])C([H])([H])C([H])([H])[C@@]3([H])C(=O)N2[H])c([H])c1[H]


 44 46  0  0  0  0  0  0  0  0999 V2000
    3.8340  -47.8373  -21.9325 C   0  0  0  0  0  0  0  0  0  0  0  0
    5.1109  -48.3537  -21.4990 N   0  0  0  0  0  0  0  0  0  0  0  0
    5.6468  -48.3232  -20.1929 C   0  0  0  0  0  0  0  0  0  0  0  0
    6.8818  -48.5453  -20.1065 O   0  0  0  0  0  0  0  0  0  0  0  0
    4.9112  -48.0631  -18.9411 C   0  0  0  0  0  0  0  0  0  0  0  0
    4.8528  -49.2743  -18.1488 N   0  0  0  0  0  0  0  0  0  0  0  0
    3.7519  -50.1000  -17.9099 C   0  0  0  0  0  0  0  0  0  0  0  0
    4.0683  -51.3509  -17.9828 O   0  0  0  0  0  0  0  0  0  0  0  0
    2.3937  -49.8105  -17.6110 C   0  0  0  0  0  0  0  0  0  0  0  0
    1.7751  -50.9244  -16.7611 C   0  0  0  0  0  0  0  0  0  0  0  0
    0.3021  -50.7791  -16.8807 C   0  0  0  0  0  0  0  0  0  0  0  0
    0.1889  -49.5517  -17.7485 C   0  0  0  0  0  0  0  0  0  0  0  0
    1.3724  -49.6680  -18.5885 N   0  0  0  0  0  0  0  0  0  0  0  0
    1.4407  -49.6199  -19.9941 C   0  0  0  0  0  0  0  0  0  0  0  0
    0.6707  -48.7269  -20.5329 O   0  0  0  0  0  0  0  0  0  0  0  0
    2.2552  -50.4263  -20.9087 C   0  0  0  0  0  0  0  0  0  0  0  0
    2.2128  -49.8215  -22.2463 N   0  0  0  0  0  0  0  0  0  0  0  0
    3.0734  -48.8380  -22.7401 C   0  0  0  0  0  0  0  0  0  0  0  0
    3.1937  -48.8259  -24.0057 O   0  0  0  0  0  0  0  0  0  0  0  0
    5.6700  -48.8012  -22.2914 H   0  0  0  0  0  0  0  0  0  0  0  0
    5.7600  -49.5472  -17.7080 H   0  0  0  0  0  0  0  0  0  0  0  0
    1.4298  -50.2078  -22.8569 H   0  0  0  0  0  0  0  0  0  0  0  0
    4.1186  -46.6181  -22.7833 C   0  0  0  0  0  0  0  0  0  0  0  0
    2.8931  -45.8536  -23.2011 C   0  0  0  0  0  0  0  0  0  0  0  0
    4.4892  -44.7827  -21.2240 C   0  0  0  0  0  0  0  0  0  0  0  0
    5.1951  -45.7322  -22.2018 C   0  0  0  0  0  0  0  0  0  0  0  0
    5.3715  -46.8727  -18.1833 C   0  0  0  0  0  0  0  0  0  0  0  0
    4.7211  -46.5133  -16.9498 C   0  0  0  0  0  0  0  0  0  0  0  0
    5.3893  -46.4707  -15.7320 C   0  0  0  0  0  0  0  0  0  0  0  0
    4.7428  -46.1465  -14.5575 C   0  0  0  0  0  0  0  0  0  0  0  0
    3.3969  -45.8549  -14.5808 C   0  0  0  0  0  0  0  0  0  0  0  0
    2.7079  -45.8863  -15.7556 C   0  0  0  0  0  0  0  0  0  0  0  0
    3.3774  -46.2127  -16.9117 C   0  0  0  0  0  0  0  0  0  0  0  0
    1.9583  -51.8765  -20.9588 C   0  0  0  0  0  0  0  0  0  0  0  0
    0.6057  -52.3985  -20.7638 C   0  0  0  0  0  0  0  0  0  0  0  0
   -0.3868  -52.2932  -21.8705 C   0  0  0  0  0  0  0  0  0  0  0  0
   -0.9634  -53.6277  -22.0753 N   0  0  0  0  0  0  0  0  0  0  0  0
   -0.8749  -54.1431  -23.2428 C   0  0  0  0  0  0  0  0  0  0  0  0
   -0.2375  -53.4455  -24.3095 N   0  0  0  0  0  0  0  0  0  0  0  0
   -1.4062  -55.4341  -23.5364 N   0  0  0  0  0  0  0  0  0  0  0  0
   -0.7110  -52.7608  -24.9071 H   0  0  0  0  0  0  0  0  0  0  0  0
    0.7791  -53.6258  -24.5174 H   0  0  0  0  0  0  0  0  0  0  0  0
   -1.0076  -56.3186  -23.1799 H   0  0  0  0  0  0  0  0  0  0  0  0
   -2.2588  -55.5068  -24.1546 H   0  0  0  0  0  0  0  0  0  0  0  0
 25 26  1  0  0  0
 26 23  1  0  0  0
 23 24  1  0  0  0
 23  1  1  0  0  0
  1  2  1  0  0  0
  2  3  1  0  0  0
  3  4  2  0  0  0
  3  5  1  0  0  0
  5 27  1  0  0  0
 27 28  1  0  0  0
 28 29  2  0  0  0
 29 30  1  0  0  0
 30 31  2  0  0  0
 31 32  1  0  0  0
 32 33  2  0  0  0
  5  6  1  0  0  0
  6  7  1  0  0  0
  7  8  2  0  0  0
  7  9  1  0  0  0
  9 10  1  0  0  0
 10 11  1  0  0  0
 11 12  1  0  0  0
 12 13  1  0  0  0
 13 14  1  0  0  0
 14 15  2  0  0  0
 14 16  1  0  0  0
 16 34  1  0  0  0
 34 35  1  0  0  0
 35 36  1  0  0  0
 36 37  1  0  0  0
 37 38  2  0  0  0
 38 39  1  0  0  0
 38 40  1  0  0  0
 16 17  1  0  0  0
 17 18  1  0  0  0
 18 19  2  0  0  0
 18  1  1  0  0  0
 33 28  1  0  0  0
 13  9  1  0  0  0
  2 20  1  0  0  0
  6 21  1  0  0  0
 39 41  1  0  0  0
 39 42  1  0  0  0
 40 43  1  0  0  0
 40 44  1  0  0  0
 17 22  1  0  0  0
M  END
> <minimizedAffinity>
-5.45829

> <CNNscore>
0.4573555291

> <CNNaffinity>
6.4911870956

> <CNN_VS>
2.9687802792

> <CNNaffinity_variance>
0.6688970327

$$$$
[H]c1c([H])c([H])c(C([H])([H])[C@@]2([H])C(=O)N([H])[C@@]([H])([C@@]([H])(C([H])([H])[H])C([H])([H])C([H])([H])[H])C(=O)N([H])[C@]([H])(C([H])([H])C([H])([H])C([H])([H])N=C(N([H])[H])N([H])[H])C(=O)N3C([H])([H])C([H])([H])C([H])([H])[C@@]3([H])C(=O)N2[H])c([H])c1[H]


 44 46  0  0  0  0  0  0  0  0999 V2000
    0.2050  -51.5295  -20.9735 C   0  0  0  0  0  0  0  0  0  0  0  0
    0.1602  -50.0883  -21.0522 N   0  0  0  0  0  0  0  0  0  0  0  0
    1.2350  -49.2127  -21.3206 C   0  0  0  0  0  0  0  0  0  0  0  0
    1.0351  -48.0036  -21.0374 O   0  0  0  0  0  0  0  0  0  0  0  0
    2.5460  -49.5715  -21.8933 C   0  0  0  0  0  0  0  0  0  0  0  0
    2.6629  -49.0202  -23.2277 N   0  0  0  0  0  0  0  0  0  0  0  0
    2.6263  -49.6959  -24.4496 C   0  0  0  0  0  0  0  0  0  0  0  0
    1.9222  -49.0591  -25.3265 O   0  0  0  0  0  0  0  0  0  0  0  0
    3.2095  -50.9183  -24.8777 C   0  0  0  0  0  0  0  0  0  0  0  0
    3.4994  -50.8847  -26.3813 C   0  0  0  0  0  0  0  0  0  0  0  0
    3.6663  -52.2962  -26.8114 C   0  0  0  0  0  0  0  0  0  0  0  0
    3.5150  -53.0306  -25.5037 C   0  0  0  0  0  0  0  0  0  0  0  0
    2.5688  -52.1836  -24.7916 N   0  0  0  0  0  0  0  0  0  0  0  0
    1.3627  -52.5670  -24.1745 C   0  0  0  0  0  0  0  0  0  0  0  0
    1.4268  -53.6946  -23.5379 O   0  0  0  0  0  0  0  0  0  0  0  0
    0.0724  -51.8705  -24.1531 C   0  0  0  0  0  0  0  0  0  0  0  0
   -0.7937  -52.4992  -23.1473 N   0  0  0  0  0  0  0  0  0  0  0  0
   -0.8699  -52.1660  -21.7928 C   0  0  0  0  0  0  0  0  0  0  0  0
   -1.9789  -52.4487  -21.2390 O   0  0  0  0  0  0  0  0  0  0  0  0
   -0.8177  -49.6923  -20.8855 H   0  0  0  0  0  0  0  0  0  0  0  0
    2.7912  -47.9836  -23.2579 H   0  0  0  0  0  0  0  0  0  0  0  0
   -1.4012  -53.2789  -23.5451 H   0  0  0  0  0  0  0  0  0  0  0  0
    0.0103  -51.8966  -19.5180 C   0  0  0  0  0  0  0  0  0  0  0  0
    0.7421  -53.1378  -19.0881 C   0  0  0  0  0  0  0  0  0  0  0  0
   -0.1848  -51.2172  -17.1860 C   0  0  0  0  0  0  0  0  0  0  0  0
    0.2283  -50.7311  -18.5821 C   0  0  0  0  0  0  0  0  0  0  0  0
    3.7095  -49.2783  -21.0195 C   0  0  0  0  0  0  0  0  0  0  0  0
    3.6194  -49.5174  -19.6024 C   0  0  0  0  0  0  0  0  0  0  0  0
    3.7132  -50.7877  -19.0466 C   0  0  0  0  0  0  0  0  0  0  0  0
    3.6009  -50.9984  -17.6881 C   0  0  0  0  0  0  0  0  0  0  0  0
    3.3899  -49.9264  -16.8494 C   0  0  0  0  0  0  0  0  0  0  0  0
    3.2925  -48.6662  -17.3572 C   0  0  0  0  0  0  0  0  0  0  0  0
    3.4081  -48.4848  -18.7156 C   0  0  0  0  0  0  0  0  0  0  0  0
   -0.6233  -51.7217  -25.4522 C   0  0  0  0  0  0  0  0  0  0  0  0
    0.1010  -51.7095  -26.7230 C   0  0  0  0  0  0  0  0  0  0  0  0
   -0.4812  -52.4059  -27.9048 C   0  0  0  0  0  0  0  0  0  0  0  0
    0.6346  -52.8643  -28.7416 N   0  0  0  0  0  0  0  0  0  0  0  0
    1.1698  -53.9910  -28.4576 C   0  0  0  0  0  0  0  0  0  0  0  0
    0.6987  -54.7757  -27.3654 N   0  0  0  0  0  0  0  0  0  0  0  0
    2.2590  -54.5172  -29.2138 N   0  0  0  0  0  0  0  0  0  0  0  0
    1.0110  -54.6521  -26.3972 H   0  0  0  0  0  0  0  0  0  0  0  0
   -0.0121  -55.5340  -27.5356 H   0  0  0  0  0  0  0  0  0  0  0  0
    2.1750  -54.8679  -30.1824 H   0  0  0  0  0  0  0  0  0  0  0  0
    3.2161  -54.5577  -28.7702 H   0  0  0  0  0  0  0  0  0  0  0  0
 25 26  1  0  0  0
 26 23  1  0  0  0
 23 24  1  0  0  0
 23  1  1  0  0  0
  1  2  1  0  0  0
  2  3  1  0  0  0
  3  4  2  0  0  0
  3  5  1  0  0  0
  5 27  1  0  0  0
 27 28  1  0  0  0
 28 29  2  0  0  0
 29 30  1  0  0  0
 30 31  2  0  0  0
 31 32  1  0  0  0
 32 33  2  0  0  0
  5  6  1  0  0  0
  6  7  1  0  0  0
  7  8  2  0  0  0
  7  9  1  0  0  0
  9 10  1  0  0  0
 10 11  1  0  0  0
 11 12  1  0  0  0
 12 13  1  0  0  0
 13 14  1  0  0  0
 14 15  2  0  0  0
 14 16  1  0  0  0
 16 34  1  0  0  0
 34 35  1  0  0  0
 35 36  1  0  0  0
 36 37  1  0  0  0
 37 38  2  0  0  0
 38 39  1  0  0  0
 38 40  1  0  0  0
 16 17  1  0  0  0
 17 18  1  0  0  0
 18 19  2  0  0  0
 18  1  1  0  0  0
 33 28  1  0  0  0
 13  9  1  0  0  0
  2 20  1  0  0  0
  6 21  1  0  0  0
 39 41  1  0  0  0
 39 42  1  0  0  0
 40 43  1  0  0  0
 40 44  1  0  0  0
 17 22  1  0  0  0
M  END
> <minimizedAffinity>
-5.89963

> <CNNscore>
0.3722876906

> <CNNaffinity>
6.7018332481

> <CNN_VS>
2.4950101376

> <CNNaffinity_variance>
0.2317304611

$$$$
[H]c1c([H])c([H])c(C([H])([H])[C@@]2([H])C(=O)N([H])[C@@]([H])([C@@]([H])(C([H])([H])[H])C([H])([H])C([H])([H])[H])C(=O)N([H])[C@]([H])(C([H])([H])C([H])([H])C([H])([H])N=C(N([H])[H])N([H])[H])C(=O)N3C([H])([H])C([H])([H])C([H])([H])[C@@]3([H])C(=O)N2[H])c([H])c1[H]


 44 46  0  0  0  0  0  0  0  0999 V2000
    4.0821  -49.1041  -24.5777 C   0  0  0  0  0  0  0  0  0  0  0  0
    5.0955  -50.1134  -24.3791 N   0  0  0  0  0  0  0  0  0  0  0  0
    5.9771  -50.2359  -23.2829 C   0  0  0  0  0  0  0  0  0  0  0  0
    6.9672  -50.9904  -23.4630 O   0  0  0  0  0  0  0  0  0  0  0  0
    5.8506  -49.5783  -21.9687 C   0  0  0  0  0  0  0  0  0  0  0  0
    5.5488  -50.5680  -20.9549 N   0  0  0  0  0  0  0  0  0  0  0  0
    4.3420  -50.7800  -20.2845 C   0  0  0  0  0  0  0  0  0  0  0  0
    4.0715  -52.0390  -20.1747 O   0  0  0  0  0  0  0  0  0  0  0  0
    3.3958  -49.8815  -19.7230 C   0  0  0  0  0  0  0  0  0  0  0  0
    2.6740  -50.5250  -18.5353 C   0  0  0  0  0  0  0  0  0  0  0  0
    1.4384  -49.7323  -18.3115 C   0  0  0  0  0  0  0  0  0  0  0  0
    1.5764  -48.6554  -19.3573 C   0  0  0  0  0  0  0  0  0  0  0  0
    2.2747  -49.3601  -20.4231 N   0  0  0  0  0  0  0  0  0  0  0  0
    1.9104  -49.4509  -21.7801 C   0  0  0  0  0  0  0  0  0  0  0  0
    1.4527  -48.3468  -22.2822 O   0  0  0  0  0  0  0  0  0  0  0  0
    1.9843  -50.6045  -22.6825 C   0  0  0  0  0  0  0  0  0  0  0  0
    1.7773  -50.1462  -24.0623 N   0  0  0  0  0  0  0  0  0  0  0  0
    2.7640  -49.7029  -24.9464 C   0  0  0  0  0  0  0  0  0  0  0  0
    2.4733  -49.8393  -26.1766 O   0  0  0  0  0  0  0  0  0  0  0  0
    5.1383  -50.8231  -25.1761 H   0  0  0  0  0  0  0  0  0  0  0  0
    6.3495  -51.1920  -20.7075 H   0  0  0  0  0  0  0  0  0  0  0  0
    0.7564  -50.1757  -24.3656 H   0  0  0  0  0  0  0  0  0  0  0  0
    4.5620  -48.2149  -25.7048 C   0  0  0  0  0  0  0  0  0  0  0  0
    4.1314  -46.7790  -25.5882 C   0  0  0  0  0  0  0  0  0  0  0  0
    6.6959  -47.0485  -25.5517 C   0  0  0  0  0  0  0  0  0  0  0  0
    6.0384  -48.3656  -25.9863 C   0  0  0  0  0  0  0  0  0  0  0  0
    6.9751  -48.6777  -21.6112 C   0  0  0  0  0  0  0  0  0  0  0  0
    6.8075  -47.2506  -21.7052 C   0  0  0  0  0  0  0  0  0  0  0  0
    7.8144  -46.4030  -22.1517 C   0  0  0  0  0  0  0  0  0  0  0  0
    7.6418  -45.0358  -22.2124 C   0  0  0  0  0  0  0  0  0  0  0  0
    6.4416  -44.4844  -21.8219 C   0  0  0  0  0  0  0  0  0  0  0  0
    5.4311  -45.2831  -21.3786 C   0  0  0  0  0  0  0  0  0  0  0  0
    5.6302  -46.6430  -21.3283 C   0  0  0  0  0  0  0  0  0  0  0  0
    1.1146  -51.7585  -22.3573 C   0  0  0  0  0  0  0  0  0  0  0  0
    0.8623  -52.8339  -23.3161 C   0  0  0  0  0  0  0  0  0  0  0  0
   -0.5187  -53.0429  -23.8359 C   0  0  0  0  0  0  0  0  0  0  0  0
   -0.5305  -54.3215  -24.5574 N   0  0  0  0  0  0  0  0  0  0  0  0
   -1.1591  -55.3007  -24.0260 C   0  0  0  0  0  0  0  0  0  0  0  0
   -1.8262  -55.1558  -22.7752 N   0  0  0  0  0  0  0  0  0  0  0  0
   -1.2244  -56.5804  -24.6530 N   0  0  0  0  0  0  0  0  0  0  0  0
   -1.3658  -55.2674  -21.8665 H   0  0  0  0  0  0  0  0  0  0  0  0
   -2.8526  -54.9207  -22.7550 H   0  0  0  0  0  0  0  0  0  0  0  0
   -1.7642  -56.7769  -25.5123 H   0  0  0  0  0  0  0  0  0  0  0  0
   -0.6943  -57.3866  -24.2246 H   0  0  0  0  0  0  0  0  0  0  0  0
 25 26  1  0  0  0
 26 23  1  0  0  0
 23 24  1  0  0  0
 23  1  1  0  0  0
  1  2  1  0  0  0
  2  3  1  0  0  0
  3  4  2  0  0  0
  3  5  1  0  0  0
  5 27  1  0  0  0
 27 28  1  0  0  0
 28 29  2  0  0  0
 29 30  1  0  0  0
 30 31  2  0  0  0
 31 32  1  0  0  0
 32 33  2  0  0  0
  5  6  1  0  0  0
  6  7  1  0  0  0
  7  8  2  0  0  0
  7  9  1  0  0  0
  9 10  1  0  0  0
 10 11  1  0  0  0
 11 12  1  0  0  0
 12 13  1  0  0  0
 13 14  1  0  0  0
 14 15  2  0  0  0
 14 16  1  0  0  0
 16 34  1  0  0  0
 34 35  1  0  0  0
 35 36  1  0  0  0
 36 37  1  0  0  0
 37 38  2  0  0  0
 38 39  1  0  0  0
 38 40  1  0  0  0
 16 17  1  0  0  0
 17 18  1  0  0  0
 18 19  2  0  0  0
 18  1  1  0  0  0
 33 28  1  0  0  0
 13  9  1  0  0  0
  2 20  1  0  0  0
  6 21  1  0  0  0
 39 41  1  0  0  0
 39 42  1  0  0  0
 40 43  1  0  0  0
 40 44  1  0  0  0
 17 22  1  0  0  0
M  END
> <minimizedAffinity>
-5.65704

> <CNNscore>
0.3369517922

> <CNNaffinity>
6.3707690239

> <CNN_VS>
2.1466419697

> <CNNaffinity_variance>
0.5283304453

$$$$
[H]c1c([H])c([H])c(C([H])([H])[C@@]2([H])C(=O)N([H])[C@@]([H])([C@@]([H])(C([H])([H])[H])C([H])([H])C([H])([H])[H])C(=O)N([H])[C@]([H])(C([H])([H])C([H])([H])C([H])([H])N=C(N([H])[H])N([H])[H])C(=O)N3C([H])([H])C([H])([H])C([H])([H])[C@@]3([H])C(=O)N2[H])c([H])c1[H]


 44 46  0  0  0  0  0  0  0  0999 V2000
    4.5049  -49.9197  -21.8241 C   0  0  0  0  0  0  0  0  0  0  0  0
    4.2850  -50.9674  -20.8550 N   0  0  0  0  0  0  0  0  0  0  0  0
    3.0606  -51.3330  -20.2539 C   0  0  0  0  0  0  0  0  0  0  0  0
    3.1528  -52.0520  -19.2260 O   0  0  0  0  0  0  0  0  0  0  0  0
    1.7071  -50.9620  -20.7077 C   0  0  0  0  0  0  0  0  0  0  0  0
    1.0219  -52.1355  -21.2092 N   0  0  0  0  0  0  0  0  0  0  0  0
    0.7163  -52.4597  -22.5330 C   0  0  0  0  0  0  0  0  0  0  0  0
    0.9373  -53.7085  -22.7820 O   0  0  0  0  0  0  0  0  0  0  0  0
    0.2218  -51.6803  -23.6127 C   0  0  0  0  0  0  0  0  0  0  0  0
   -0.6005  -52.5437  -24.5740 C   0  0  0  0  0  0  0  0  0  0  0  0
   -0.6838  -51.7917  -25.8519 C   0  0  0  0  0  0  0  0  0  0  0  0
    0.0527  -50.5230  -25.5046 C   0  0  0  0  0  0  0  0  0  0  0  0
    1.0444  -51.0029  -24.5525 N   0  0  0  0  0  0  0  0  0  0  0  0
    2.4376  -50.8013  -24.5830 C   0  0  0  0  0  0  0  0  0  0  0  0
    2.7939  -49.6082  -24.9437 O   0  0  0  0  0  0  0  0  0  0  0  0
    3.5155  -51.7423  -24.2618 C   0  0  0  0  0  0  0  0  0  0  0  0
    4.7791  -51.0021  -24.1514 N   0  0  0  0  0  0  0  0  0  0  0  0
    5.2920  -50.4030  -22.9983 C   0  0  0  0  0  0  0  0  0  0  0  0
    6.5567  -50.2740  -22.9857 O   0  0  0  0  0  0  0  0  0  0  0  0
    5.1782  -51.4958  -20.6029 H   0  0  0  0  0  0  0  0  0  0  0  0
    0.7263  -52.8127  -20.4704 H   0  0  0  0  0  0  0  0  0  0  0  0
    5.3155  -50.9482  -25.0704 H   0  0  0  0  0  0  0  0  0  0  0  0
    5.2762  -48.8241  -21.1197 C   0  0  0  0  0  0  0  0  0  0  0  0
    5.4661  -47.5759  -21.9363 C   0  0  0  0  0  0  0  0  0  0  0  0
    3.5662  -47.5967  -19.8922 C   0  0  0  0  0  0  0  0  0  0  0  0
    4.7626  -48.5438  -19.7271 C   0  0  0  0  0  0  0  0  0  0  0  0
    0.9142  -50.1775  -19.7284 C   0  0  0  0  0  0  0  0  0  0  0  0
    0.3365  -50.8341  -18.5844 C   0  0  0  0  0  0  0  0  0  0  0  0
   -0.3789  -52.0217  -18.6807 C   0  0  0  0  0  0  0  0  0  0  0  0
   -0.9444  -52.6229  -17.5756 C   0  0  0  0  0  0  0  0  0  0  0  0
   -0.8022  -52.0383  -16.3367 C   0  0  0  0  0  0  0  0  0  0  0  0
   -0.1078  -50.8741  -16.2026 C   0  0  0  0  0  0  0  0  0  0  0  0
    0.4457  -50.2962  -17.3211 C   0  0  0  0  0  0  0  0  0  0  0  0
    3.6527  -52.9219  -25.1470 C   0  0  0  0  0  0  0  0  0  0  0  0
    3.6491  -52.8022  -26.6049 C   0  0  0  0  0  0  0  0  0  0  0  0
    2.3841  -53.0390  -27.3563 C   0  0  0  0  0  0  0  0  0  0  0  0
    1.6871  -54.1562  -26.7072 N   0  0  0  0  0  0  0  0  0  0  0  0
    0.6056  -54.5779  -27.2448 C   0  0  0  0  0  0  0  0  0  0  0  0
    0.0939  -53.9833  -28.4345 N   0  0  0  0  0  0  0  0  0  0  0  0
   -0.1403  -55.6576  -26.6853 N   0  0  0  0  0  0  0  0  0  0  0  0
   -0.5050  -53.1518  -28.4451 H   0  0  0  0  0  0  0  0  0  0  0  0
    0.3296  -54.4033  -29.3711 H   0  0  0  0  0  0  0  0  0  0  0  0
    0.1755  -56.6418  -26.6882 H   0  0  0  0  0  0  0  0  0  0  0  0
   -1.0744  -55.4547  -26.2371 H   0  0  0  0  0  0  0  0  0  0  0  0
 25 26  1  0  0  0
 26 23  1  0  0  0
 23 24  1  0  0  0
 23  1  1  0  0  0
  1  2  1  0  0  0
  2  3  1  0  0  0
  3  4  2  0  0  0
  3  5  1  0  0  0
  5 27  1  0  0  0
 27 28  1  0  0  0
 28 29  2  0  0  0
 29 30  1  0  0  0
 30 31  2  0  0  0
 31 32  1  0  0  0
 32 33  2  0  0  0
  5  6  1  0  0  0
  6  7  1  0  0  0
  7  8  2  0  0  0
  7  9  1  0  0  0
  9 10  1  0  0  0
 10 11  1  0  0  0
 11 12  1  0  0  0
 12 13  1  0  0  0
 13 14  1  0  0  0
 14 15  2  0  0  0
 14 16  1  0  0  0
 16 34  1  0  0  0
 34 35  1  0  0  0
 35 36  1  0  0  0
 36 37  1  0  0  0
 37 38  2  0  0  0
 38 39  1  0  0  0
 38 40  1  0  0  0
 16 17  1  0  0  0
 17 18  1  0  0  0
 18 19  2  0  0  0
 18  1  1  0  0  0
 33 28  1  0  0  0
 13  9  1  0  0  0
  2 20  1  0  0  0
  6 21  1  0  0  0
 39 41  1  0  0  0
 39 42  1  0  0  0
 40 43  1  0  0  0
 40 44  1  0  0  0
 17 22  1  0  0  0
M  END
> <minimizedAffinity>
-6.52727

> <CNNscore>
0.2558567524

> <CNNaffinity>
6.5291290283

> <CNN_VS>
1.6705217361

> <CNNaffinity_variance>
0.3662526608

$$$$
[H]c1c([H])c([H])c(C([H])([H])[C@@]2([H])C(=O)N([H])[C@@]([H])([C@@]([H])(C([H])([H])[H])C([H])([H])C([H])([H])[H])C(=O)N([H])[C@]([H])(C([H])([H])C([H])([H])C([H])([H])N=C(N([H])[H])N([H])[H])C(=O)N3C([H])([H])C([H])([H])C([H])([H])[C@@]3([H])C(=O)N2[H])c([H])c1[H]


 44 46  0  0  0  0  0  0  0  0999 V2000
    0.9862  -51.9498  -23.4908 C   0  0  0  0  0  0  0  0  0  0  0  0
    2.2108  -52.6775  -23.7278 N   0  0  0  0  0  0  0  0  0  0  0  0
    3.4676  -52.1426  -24.0861 C   0  0  0  0  0  0  0  0  0  0  0  0
    4.3012  -52.9689  -24.5383 O   0  0  0  0  0  0  0  0  0  0  0  0
    3.8915  -50.7338  -23.9813 C   0  0  0  0  0  0  0  0  0  0  0  0
    4.8992  -50.6029  -22.9490 N   0  0  0  0  0  0  0  0  0  0  0  0
    4.7725  -50.0242  -21.6842 C   0  0  0  0  0  0  0  0  0  0  0  0
    5.3607  -50.7298  -20.7751 O   0  0  0  0  0  0  0  0  0  0  0  0
    4.1314  -48.8362  -21.2423 C   0  0  0  0  0  0  0  0  0  0  0  0
    4.8343  -48.2672  -20.0061 C   0  0  0  0  0  0  0  0  0  0  0  0
    3.8722  -47.3359  -19.3639 C   0  0  0  0  0  0  0  0  0  0  0  0
    2.7069  -47.3996  -20.3180 C   0  0  0  0  0  0  0  0  0  0  0  0
    2.7843  -48.7731  -20.7948 N   0  0  0  0  0  0  0  0  0  0  0  0
    1.7602  -49.7393  -20.8117 C   0  0  0  0  0  0  0  0  0  0  0  0
    0.5988  -49.2763  -21.1544 O   0  0  0  0  0  0  0  0  0  0  0  0
    1.8345  -51.1713  -20.5045 C   0  0  0  0  0  0  0  0  0  0  0  0
    0.5917  -51.8194  -20.9431 N   0  0  0  0  0  0  0  0  0  0  0  0
    0.3366  -52.3549  -22.2079 C   0  0  0  0  0  0  0  0  0  0  0  0
   -0.5411  -53.2745  -22.2269 O   0  0  0  0  0  0  0  0  0  0  0  0
    2.0999  -53.7321  -23.6006 H   0  0  0  0  0  0  0  0  0  0  0  0
    5.8328  -50.9973  -23.2033 H   0  0  0  0  0  0  0  0  0  0  0  0
   -0.1532  -51.8570  -20.1822 H   0  0  0  0  0  0  0  0  0  0  0  0
    0.0578  -52.2641  -24.6444 C   0  0  0  0  0  0  0  0  0  0  0  0
    0.1195  -51.2769  -25.7768 C   0  0  0  0  0  0  0  0  0  0  0  0
    0.1048  -53.6597  -26.6412 C   0  0  0  0  0  0  0  0  0  0  0  0
    0.1584  -53.6983  -25.1078 C   0  0  0  0  0  0  0  0  0  0  0  0
    4.2664  -50.0979  -25.2691 C   0  0  0  0  0  0  0  0  0  0  0  0
    3.8015  -48.7696  -25.5742 C   0  0  0  0  0  0  0  0  0  0  0  0
    3.5729  -47.8096  -24.5957 C   0  0  0  0  0  0  0  0  0  0  0  0
    3.1052  -46.5498  -24.9066 C   0  0  0  0  0  0  0  0  0  0  0  0
    2.8543  -46.2233  -26.2209 C   0  0  0  0  0  0  0  0  0  0  0  0
    3.0662  -47.1379  -27.2079 C   0  0  0  0  0  0  0  0  0  0  0  0
    3.5330  -48.3866  -26.8697 C   0  0  0  0  0  0  0  0  0  0  0  0
    2.1729  -51.5342  -19.1090 C   0  0  0  0  0  0  0  0  0  0  0  0
    1.8900  -50.6417  -17.9851 C   0  0  0  0  0  0  0  0  0  0  0  0
    0.5372  -50.6567  -17.3602 C   0  0  0  0  0  0  0  0  0  0  0  0
    0.6927  -51.1360  -15.9812 N   0  0  0  0  0  0  0  0  0  0  0  0
   -0.1501  -51.9962  -15.5499 C   0  0  0  0  0  0  0  0  0  0  0  0
   -1.2051  -52.4740  -16.3800 N   0  0  0  0  0  0  0  0  0  0  0  0
   -0.0789  -52.5184  -14.2242 N   0  0  0  0  0  0  0  0  0  0  0  0
   -2.1061  -51.9980  -16.4889 H   0  0  0  0  0  0  0  0  0  0  0  0
   -1.0777  -53.3666  -16.9244 H   0  0  0  0  0  0  0  0  0  0  0  0
    0.6587  -53.1634  -13.8952 H   0  0  0  0  0  0  0  0  0  0  0  0
   -0.8183  -52.2382  -13.5247 H   0  0  0  0  0  0  0  0  0  0  0  0
 25 26  1  0  0  0
 26 23  1  0  0  0
 23 24  1  0  0  0
 23  1  1  0  0  0
  1  2  1  0  0  0
  2  3  1  0  0  0
  3  4  2  0  0  0
  3  5  1  0  0  0
  5 27  1  0  0  0
 27 28  1  0  0  0
 28 29  2  0  0  0
 29 30  1  0  0  0
 30 31  2  0  0  0
 31 32  1  0  0  0
 32 33  2  0  0  0
  5  6  1  0  0  0
  6  7  1  0  0  0
  7  8  2  0  0  0
  7  9  1  0  0  0
  9 10  1  0  0  0
 10 11  1  0  0  0
 11 12  1  0  0  0
 12 13  1  0  0  0
 13 14  1  0  0  0
 14 15  2  0  0  0
 14 16  1  0  0  0
 16 34  1  0  0  0
 34 35  1  0  0  0
 35 36  1  0  0  0
 36 37  1  0  0  0
 37 38  2  0  0  0
 38 39  1  0  0  0
 38 40  1  0  0  0
 16 17  1  0  0  0
 17 18  1  0  0  0
 18 19  2  0  0  0
 18  1  1  0  0  0
 33 28  1  0  0  0
 13  9  1  0  0  0
  2 20  1  0  0  0
  6 21  1  0  0  0
 39 41  1  0  0  0
 39 42  1  0  0  0
 40 43  1  0  0  0
 40 44  1  0  0  0
 17 22  1  0  0  0
M  END
> <minimizedAffinity>
-7.27884

> <CNNscore>
0.2044622004

> <CNNaffinity>
6.1505899429

> <CNN_VS>
1.2575631142

> <CNNaffinity_variance>
0.4040631652

$$$$
[H]c1c([H])c([H])c(C([H])([H])[C@@]2([H])C(=O)N([H])[C@@]([H])([C@@]([H])(C([H])([H])[H])C([H])([H])C([H])([H])[H])C(=O)N([H])[C@]([H])(C([H])([H])C([H])([H])C([H])([H])N=C(N([H])[H])N([H])[H])C(=O)N3C([H])([H])C([H])([H])C([H])([H])[C@@]3([H])C(=O)N2[H])c([H])c1[H]


 44 46  0  0  0  0  0  0  0  0999 V2000
    3.9838  -48.2340  -22.3391 C   0  0  0  0  0  0  0  0  0  0  0  0
    4.8418  -48.6762  -21.2650 N   0  0  0  0  0  0  0  0  0  0  0  0
    4.4548  -49.0459  -19.9584 C   0  0  0  0  0  0  0  0  0  0  0  0
    5.3824  -49.0970  -19.1104 O   0  0  0  0  0  0  0  0  0  0  0  0
    3.0921  -49.3748  -19.4995 C   0  0  0  0  0  0  0  0  0  0  0  0
    3.0112  -50.7861  -19.1831 N   0  0  0  0  0  0  0  0  0  0  0  0
    2.3594  -51.7964  -19.8939 C   0  0  0  0  0  0  0  0  0  0  0  0
    3.0737  -52.8715  -19.9589 O   0  0  0  0  0  0  0  0  0  0  0  0
    1.0922  -51.8428  -20.5339 C   0  0  0  0  0  0  0  0  0  0  0  0
    0.5349  -53.2694  -20.5328 C   0  0  0  0  0  0  0  0  0  0  0  0
   -0.5196  -53.3123  -21.5776 C   0  0  0  0  0  0  0  0  0  0  0  0
   -0.5251  -51.8842  -22.0603 C   0  0  0  0  0  0  0  0  0  0  0  0
    0.8716  -51.5069  -21.8968 N   0  0  0  0  0  0  0  0  0  0  0  0
    1.7296  -50.9382  -22.8575 C   0  0  0  0  0  0  0  0  0  0  0  0
    1.1702  -50.0359  -23.6015 O   0  0  0  0  0  0  0  0  0  0  0  0
    3.1444  -51.2227  -23.1179 C   0  0  0  0  0  0  0  0  0  0  0  0
    3.6857  -50.1841  -24.0039 N   0  0  0  0  0  0  0  0  0  0  0  0
    4.2562  -48.9714  -23.6095 C   0  0  0  0  0  0  0  0  0  0  0  0
    5.0828  -48.4793  -24.4408 O   0  0  0  0  0  0  0  0  0  0  0  0
    5.8722  -48.7138  -21.5437 H   0  0  0  0  0  0  0  0  0  0  0  0
    3.5096  -51.0624  -18.3073 H   0  0  0  0  0  0  0  0  0  0  0  0
    3.6098  -50.4326  -25.0372 H   0  0  0  0  0  0  0  0  0  0  0  0
    4.2611  -46.7603  -22.5451 C   0  0  0  0  0  0  0  0  0  0  0  0
    3.0500  -45.9459  -22.9068 C   0  0  0  0  0  0  0  0  0  0  0  0
    4.1173  -45.2018  -20.6774 C   0  0  0  0  0  0  0  0  0  0  0  0
    5.0670  -46.1498  -21.4227 C   0  0  0  0  0  0  0  0  0  0  0  0
    2.5631  -48.4898  -18.4317 C   0  0  0  0  0  0  0  0  0  0  0  0
    1.8065  -49.0533  -17.3437 C   0  0  0  0  0  0  0  0  0  0  0  0
    0.5042  -49.5151  -17.4931 C   0  0  0  0  0  0  0  0  0  0  0  0
   -0.2119  -50.0302  -16.4328 C   0  0  0  0  0  0  0  0  0  0  0  0
    0.3704  -50.0934  -15.1862 C   0  0  0  0  0  0  0  0  0  0  0  0
    1.6451  -49.6504  -15.0008 C   0  0  0  0  0  0  0  0  0  0  0  0
    2.3363  -49.1415  -16.0754 C   0  0  0  0  0  0  0  0  0  0  0  0
    3.4685  -52.5809  -23.6120 C   0  0  0  0  0  0  0  0  0  0  0  0
    3.4783  -52.9056  -25.0382 C   0  0  0  0  0  0  0  0  0  0  0  0
    2.2344  -52.7262  -25.8391 C   0  0  0  0  0  0  0  0  0  0  0  0
    1.1527  -53.4295  -25.1388 N   0  0  0  0  0  0  0  0  0  0  0  0
    0.4259  -54.2337  -25.8182 C   0  0  0  0  0  0  0  0  0  0  0  0
    0.6583  -54.4404  -27.2088 N   0  0  0  0  0  0  0  0  0  0  0  0
   -0.6483  -54.9603  -25.2237 N   0  0  0  0  0  0  0  0  0  0  0  0
    0.2718  -53.8440  -27.9470 H   0  0  0  0  0  0  0  0  0  0  0  0
    1.2587  -55.2464  -27.5236 H   0  0  0  0  0  0  0  0  0  0  0  0
   -0.5206  -55.7360  -24.5526 H   0  0  0  0  0  0  0  0  0  0  0  0
   -1.6404  -54.7016  -25.4750 H   0  0  0  0  0  0  0  0  0  0  0  0
 25 26  1  0  0  0
 26 23  1  0  0  0
 23 24  1  0  0  0
 23  1  1  0  0  0
  1  2  1  0  0  0
  2  3  1  0  0  0
  3  4  2  0  0  0
  3  5  1  0  0  0
  5 27  1  0  0  0
 27 28  1  0  0  0
 28 29  2  0  0  0
 29 30  1  0  0  0
 30 31  2  0  0  0
 31 32  1  0  0  0
 32 33  2  0  0  0
  5  6  1  0  0  0
  6  7  1  0  0  0
  7  8  2  0  0  0
  7  9  1  0  0  0
  9 10  1  0  0  0
 10 11  1  0  0  0
 11 12  1  0  0  0
 12 13  1  0  0  0
 13 14  1  0  0  0
 14 15  2  0  0  0
 14 16  1  0  0  0
 16 34  1  0  0  0
 34 35  1  0  0  0
 35 36  1  0  0  0
 36 37  1  0  0  0
 37 38  2  0  0  0
 38 39  1  0  0  0
 38 40  1  0  0  0
 16 17  1  0  0  0
 17 18  1  0  0  0
 18 19  2  0  0  0
 18  1  1  0  0  0
 33 28  1  0  0  0
 13  9  1  0  0  0
  2 20  1  0  0  0
  6 21  1  0  0  0
 39 41  1  0  0  0
 39 42  1  0  0  0
 40 43  1  0  0  0
 40 44  1  0  0  0
 17 22  1  0  0  0
M  END
> <minimizedAffinity>
-6.39870

> <CNNscore>
0.1898936182

> <CNNaffinity>
6.4160971642

> <CNN_VS>
1.2183759212

> <CNNaffinity_variance>
0.5304445028

$$$$
[H]c1c([H])c([H])c(C([H])([H])[C@@]2([H])C(=O)N([H])[C@@]([H])([C@@]([H])(C([H])([H])[H])C([H])([H])C([H])([H])[H])C(=O)N([H])[C@]([H])(C([H])([H])C([H])([H])C([H])([H])N=C(N([H])[H])N([H])[H])C(=O)N3C([H])([H])C([H])([H])C([H])([H])[C@@]3([H])C(=O)N2[H])c([H])c1[H]


 44 46  0  0  0  0  0  0  0  0999 V2000
    4.3512  -50.0874  -22.9698 C   0  0  0  0  0  0  0  0  0  0  0  0
    4.3489  -51.1413  -21.9827 N   0  0  0  0  0  0  0  0  0  0  0  0
    3.2720  -51.5417  -21.1618 C   0  0  0  0  0  0  0  0  0  0  0  0
    3.5781  -52.2582  -20.1744 O   0  0  0  0  0  0  0  0  0  0  0  0
    1.8471  -51.2091  -21.3477 C   0  0  0  0  0  0  0  0  0  0  0  0
    1.1118  -52.4014  -21.7164 N   0  0  0  0  0  0  0  0  0  0  0  0
    0.5690  -52.7336  -22.9598 C   0  0  0  0  0  0  0  0  0  0  0  0
    0.7732  -53.9755  -23.2535 O   0  0  0  0  0  0  0  0  0  0  0  0
   -0.1433  -51.9682  -23.9212 C   0  0  0  0  0  0  0  0  0  0  0  0
   -1.1093  -52.8541  -24.7135 C   0  0  0  0  0  0  0  0  0  0  0  0
   -1.4551  -52.1043  -25.9478 C   0  0  0  0  0  0  0  0  0  0  0  0
   -0.7015  -50.8154  -25.7397 C   0  0  0  0  0  0  0  0  0  0  0  0
    0.4661  -51.2673  -24.9964 N   0  0  0  0  0  0  0  0  0  0  0  0
    1.8219  -51.0263  -25.2902 C   0  0  0  0  0  0  0  0  0  0  0  0
    2.0698  -49.8233  -25.7052 O   0  0  0  0  0  0  0  0  0  0  0  0
    2.9670  -51.9364  -25.1854 C   0  0  0  0  0  0  0  0  0  0  0  0
    4.2075  -51.1607  -25.3131 N   0  0  0  0  0  0  0  0  0  0  0  0
    4.9136  -50.5477  -24.2751 C   0  0  0  0  0  0  0  0  0  0  0  0
    6.1535  -50.3828  -24.5026 O   0  0  0  0  0  0  0  0  0  0  0  0
    5.2882  -51.6442  -21.9082 H   0  0  0  0  0  0  0  0  0  0  0  0
    0.9812  -53.0869  -20.9388 H   0  0  0  0  0  0  0  0  0  0  0  0
    4.5575  -51.0912  -26.3170 H   0  0  0  0  0  0  0  0  0  0  0  0
    5.2117  -48.9706  -22.4188 C   0  0  0  0  0  0  0  0  0  0  0  0
    6.4522  -49.4365  -21.7080 C   0  0  0  0  0  0  0  0  0  0  0  0
    5.3015  -46.5511  -22.6936 C   0  0  0  0  0  0  0  0  0  0  0  0
    5.4868  -47.8842  -23.4316 C   0  0  0  0  0  0  0  0  0  0  0  0
    1.2336  -50.4478  -20.2309 C   0  0  0  0  0  0  0  0  0  0  0  0
    1.9107  -49.2973  -19.6911 C   0  0  0  0  0  0  0  0  0  0  0  0
    2.2084  -48.1738  -20.4531 C   0  0  0  0  0  0  0  0  0  0  0  0
    2.8785  -47.0910  -19.9230 C   0  0  0  0  0  0  0  0  0  0  0  0
    3.2683  -47.1132  -18.6022 C   0  0  0  0  0  0  0  0  0  0  0  0
    2.9943  -48.1970  -17.8237 C   0  0  0  0  0  0  0  0  0  0  0  0
    2.3248  -49.2629  -18.3779 C   0  0  0  0  0  0  0  0  0  0  0  0
    2.9659  -53.1113  -26.0873 C   0  0  0  0  0  0  0  0  0  0  0  0
    2.6825  -52.9910  -27.5173 C   0  0  0  0  0  0  0  0  0  0  0  0
    1.8596  -54.0346  -28.1914 C   0  0  0  0  0  0  0  0  0  0  0  0
    0.4483  -53.6944  -27.9722 N   0  0  0  0  0  0  0  0  0  0  0  0
   -0.2076  -53.2064  -28.9561 C   0  0  0  0  0  0  0  0  0  0  0  0
    0.4105  -52.9998  -30.2233 N   0  0  0  0  0  0  0  0  0  0  0  0
   -1.5826  -52.8454  -28.8371 N   0  0  0  0  0  0  0  0  0  0  0  0
    0.9424  -52.1589  -30.4686 H   0  0  0  0  0  0  0  0  0  0  0  0
    0.3312  -53.7387  -30.9695 H   0  0  0  0  0  0  0  0  0  0  0  0
   -2.3533  -53.5270  -28.7376 H   0  0  0  0  0  0  0  0  0  0  0  0
   -1.8450  -51.8229  -28.8500 H   0  0  0  0  0  0  0  0  0  0  0  0
 25 26  1  0  0  0
 26 23  1  0  0  0
 23 24  1  0  0  0
 23  1  1  0  0  0
  1  2  1  0  0  0
  2  3  1  0  0  0
  3  4  2  0  0  0
  3  5  1  0  0  0
  5 27  1  0  0  0
 27 28  1  0  0  0
 28 29  2  0  0  0
 29 30  1  0  0  0
 30 31  2  0  0  0
 31 32  1  0  0  0
 32 33  2  0  0  0
  5  6  1  0  0  0
  6  7  1  0  0  0
  7  8  2  0  0  0
  7  9  1  0  0  0
  9 10  1  0  0  0
 10 11  1  0  0  0
 11 12  1  0  0  0
 12 13  1  0  0  0
 13 14  1  0  0  0
 14 15  2  0  0  0
 14 16  1  0  0  0
 16 34  1  0  0  0
 34 35  1  0  0  0
 35 36  1  0  0  0
 36 37  1  0  0  0
 37 38  2  0  0  0
 38 39  1  0  0  0
 38 40  1  0  0  0
 16 17  1  0  0  0
 17 18  1  0  0  0
 18 19  2  0  0  0
 18  1  1  0  0  0
 33 28  1  0  0  0
 13  9  1  0  0  0
  2 20  1  0  0  0
  6 21  1  0  0  0
 39 41  1  0  0  0
 39 42  1  0  0  0
 40 43  1  0  0  0
 40 44  1  0  0  0
 17 22  1  0  0  0
M  END
> <minimizedAffinity>
-5.84315

> <CNNscore>
0.1869603097

> <CNNaffinity>
6.5436334610

> <CNN_VS>
1.2233997583

> <CNNaffinity_variance>
0.3497532606

$$$$
[H]c1c([H])c([H])c(C([H])([H])[C@@]2([H])C(=O)N([H])[C@@]([H])([C@@]([H])(C([H])([H])[H])C([H])([H])C([H])([H])[H])C(=O)N([H])[C@]([H])(C([H])([H])C([H])([H])C([H])([H])N=C(N([H])[H])N([H])[H])C(=O)N3C([H])([H])C([H])([H])C([H])([H])[C@@]3([H])C(=O)N2[H])c([H])c1[H]


 44 46  0  0  0  0  0  0  0  0999 V2000
    1.3783  -51.4771  -21.7415 C   0  0  0  0  0  0  0  0  0  0  0  0
    0.7911  -50.1595  -21.8077 N   0  0  0  0  0  0  0  0  0  0  0  0
    1.4137  -48.9295  -21.5022 C   0  0  0  0  0  0  0  0  0  0  0  0
    0.6375  -47.9545  -21.3323 O   0  0  0  0  0  0  0  0  0  0  0  0
    2.8613  -48.6805  -21.3677 C   0  0  0  0  0  0  0  0  0  0  0  0
    3.3182  -47.8533  -22.4656 N   0  0  0  0  0  0  0  0  0  0  0  0
    4.1015  -48.2241  -23.5609 C   0  0  0  0  0  0  0  0  0  0  0  0
    3.6649  -47.7010  -24.6591 O   0  0  0  0  0  0  0  0  0  0  0  0
    5.2538  -49.0475  -23.6703 C   0  0  0  0  0  0  0  0  0  0  0  0
    6.1341  -48.5972  -24.8400 C   0  0  0  0  0  0  0  0  0  0  0  0
    7.0310  -49.7375  -25.1576 C   0  0  0  0  0  0  0  0  0  0  0  0
    6.6328  -50.7382  -24.1029 C   0  0  0  0  0  0  0  0  0  0  0  0
    5.2174  -50.4440  -23.9294 N   0  0  0  0  0  0  0  0  0  0  0  0
    4.1360  -51.3440  -23.9865 C   0  0  0  0  0  0  0  0  0  0  0  0
    4.3655  -52.4867  -23.4188 O   0  0  0  0  0  0  0  0  0  0  0  0
    2.8104  -51.1604  -24.5861 C   0  0  0  0  0  0  0  0  0  0  0  0
    1.9300  -52.2488  -24.1422 N   0  0  0  0  0  0  0  0  0  0  0  0
    1.1372  -52.2581  -22.9919 C   0  0  0  0  0  0  0  0  0  0  0  0
    0.1205  -53.0189  -23.0552 O   0  0  0  0  0  0  0  0  0  0  0  0
   -0.2261  -50.1727  -22.1331 H   0  0  0  0  0  0  0  0  0  0  0  0
    3.0128  -46.8555  -22.4118 H   0  0  0  0  0  0  0  0  0  0  0  0
    1.9357  -53.0876  -24.7991 H   0  0  0  0  0  0  0  0  0  0  0  0
    0.7309  -52.1888  -20.5728 C   0  0  0  0  0  0  0  0  0  0  0  0
    1.5907  -53.2457  -19.9368 C   0  0  0  0  0  0  0  0  0  0  0  0
   -0.2610  -52.0901  -18.3493 C   0  0  0  0  0  0  0  0  0  0  0  0
    0.1253  -51.2387  -19.5666 C   0  0  0  0  0  0  0  0  0  0  0  0
    3.2889  -48.1939  -20.0322 C   0  0  0  0  0  0  0  0  0  0  0  0
    3.0654  -49.0101  -18.8671 C   0  0  0  0  0  0  0  0  0  0  0  0
    3.7181  -50.2194  -18.6596 C   0  0  0  0  0  0  0  0  0  0  0  0
    3.4727  -50.9980  -17.5478 C   0  0  0  0  0  0  0  0  0  0  0  0
    2.5568  -50.5745  -16.6103 C   0  0  0  0  0  0  0  0  0  0  0  0
    1.8971  -49.3947  -16.7792 C   0  0  0  0  0  0  0  0  0  0  0  0
    2.1611  -48.6382  -17.8970 C   0  0  0  0  0  0  0  0  0  0  0  0
    2.7649  -50.9906  -26.0568 C   0  0  0  0  0  0  0  0  0  0  0  0
    2.9195  -52.1203  -26.9731 C   0  0  0  0  0  0  0  0  0  0  0  0
    1.7072  -52.7659  -27.5513 C   0  0  0  0  0  0  0  0  0  0  0  0
    1.3239  -53.8662  -26.6582 N   0  0  0  0  0  0  0  0  0  0  0  0
    0.0772  -54.0493  -26.4379 C   0  0  0  0  0  0  0  0  0  0  0  0
   -0.9076  -53.2133  -27.0394 N   0  0  0  0  0  0  0  0  0  0  0  0
   -0.3897  -55.0924  -25.5840 N   0  0  0  0  0  0  0  0  0  0  0  0
   -1.2127  -52.3172  -26.6468 H   0  0  0  0  0  0  0  0  0  0  0  0
   -1.3646  -53.5102  -27.9406 H   0  0  0  0  0  0  0  0  0  0  0  0
   -0.3440  -56.0976  -25.8202 H   0  0  0  0  0  0  0  0  0  0  0  0
   -0.8105  -54.8377  -24.6499 H   0  0  0  0  0  0  0  0  0  0  0  0
 25 26  1  0  0  0
 26 23  1  0  0  0
 23 24  1  0  0  0
 23  1  1  0  0  0
  1  2  1  0  0  0
  2  3  1  0  0  0
  3  4  2  0  0  0
  3  5  1  0  0  0
  5 27  1  0  0  0
 27 28  1  0  0  0
 28 29  2  0  0  0
 29 30  1  0  0  0
 30 31  2  0  0  0
 31 32  1  0  0  0
 32 33  2  0  0  0
  5  6  1  0  0  0
  6  7  1  0  0  0
  7  8  2  0  0  0
  7  9  1  0  0  0
  9 10  1  0  0  0
 10 11  1  0  0  0
 11 12  1  0  0  0
 12 13  1  0  0  0
 13 14  1  0  0  0
 14 15  2  0  0  0
 14 16  1  0  0  0
 16 34  1  0  0  0
 34 35  1  0  0  0
 35 36  1  0  0  0
 36 37  1  0  0  0
 37 38  2  0  0  0
 38 39  1  0  0  0
 38 40  1  0  0  0
 16 17  1  0  0  0
 17 18  1  0  0  0
 18 19  2  0  0  0
 18  1  1  0  0  0
 33 28  1  0  0  0
 13  9  1  0  0  0
  2 20  1  0  0  0
  6 21  1  0  0  0
 39 41  1  0  0  0
 39 42  1  0  0  0
 40 43  1  0  0  0
 40 44  1  0  0  0
 17 22  1  0  0  0
M  END
> <minimizedAffinity>
-6.99484

> <CNNscore>
0.1829330474

> <CNNaffinity>
6.4630737305

> <CNN_VS>
1.1823097467

> <CNNaffinity_variance>
0.2712871134

$$$$
[H]c1c([H])c([H])c(C([H])([H])[C@@]2([H])C(=O)N([H])[C@@]([H])([C@@]([H])(C([H])([H])[H])C([H])([H])C([H])([H])[H])C(=O)N([H])[C@]([H])(C([H])([H])C([H])([H])C([H])([H])N=C(N([H])[H])N([H])[H])C(=O)N3C([H])([H])C([H])([H])C([H])([H])[C@@]3([H])C(=O)N2[H])c([H])c1[H]


 44 46  0  0  0  0  0  0  0  0999 V2000
    4.8049  -47.7259  -21.9371 C   0  0  0  0  0  0  0  0  0  0  0  0
    5.7857  -48.4314  -21.1462 N   0  0  0  0  0  0  0  0  0  0  0  0
    5.6237  -48.9427  -19.8400 C   0  0  0  0  0  0  0  0  0  0  0  0
    6.6865  -49.2395  -19.2365 O   0  0  0  0  0  0  0  0  0  0  0  0
    4.3508  -49.1611  -19.1275 C   0  0  0  0  0  0  0  0  0  0  0  0
    4.1158  -50.5821  -18.9728 N   0  0  0  0  0  0  0  0  0  0  0  0
    3.1805  -51.3816  -19.6338 C   0  0  0  0  0  0  0  0  0  0  0  0
    3.6876  -52.5166  -19.9874 O   0  0  0  0  0  0  0  0  0  0  0  0
    1.8172  -51.1687  -19.9711 C   0  0  0  0  0  0  0  0  0  0  0  0
    1.0547  -52.4962  -20.0153 C   0  0  0  0  0  0  0  0  0  0  0  0
   -0.1862  -52.2455  -20.7916 C   0  0  0  0  0  0  0  0  0  0  0  0
   -0.0664  -50.7718  -21.0854 C   0  0  0  0  0  0  0  0  0  0  0  0
    1.3756  -50.6046  -21.1982 N   0  0  0  0  0  0  0  0  0  0  0  0
    2.0952  -50.0109  -22.2528 C   0  0  0  0  0  0  0  0  0  0  0  0
    1.5434  -48.9423  -22.7369 O   0  0  0  0  0  0  0  0  0  0  0  0
    3.3629  -50.4304  -22.8589 C   0  0  0  0  0  0  0  0  0  0  0  0
    3.8661  -49.3470  -23.7131 N   0  0  0  0  0  0  0  0  0  0  0  0
    4.6894  -48.2908  -23.3153 C   0  0  0  0  0  0  0  0  0  0  0  0
    5.3933  -47.7876  -24.2468 O   0  0  0  0  0  0  0  0  0  0  0  0
    6.7172  -48.5573  -21.6533 H   0  0  0  0  0  0  0  0  0  0  0  0
    4.7346  -51.0492  -18.2724 H   0  0  0  0  0  0  0  0  0  0  0  0
    3.5402  -49.4242  -24.7245 H   0  0  0  0  0  0  0  0  0  0  0  0
    5.2621  -46.2854  -22.0220 C   0  0  0  0  0  0  0  0  0  0  0  0
    4.1562  -45.2750  -21.8928 C   0  0  0  0  0  0  0  0  0  0  0  0
    6.6253  -44.4637  -21.1497 C   0  0  0  0  0  0  0  0  0  0  0  0
    6.4396  -45.9871  -21.1240 C   0  0  0  0  0  0  0  0  0  0  0  0
    4.1998  -48.3882  -17.8693 C   0  0  0  0  0  0  0  0  0  0  0  0
    4.4815  -46.9760  -17.8580 C   0  0  0  0  0  0  0  0  0  0  0  0
    3.5803  -46.0257  -18.3229 C   0  0  0  0  0  0  0  0  0  0  0  0
    3.8784  -44.6790  -18.3250 C   0  0  0  0  0  0  0  0  0  0  0  0
    5.1010  -44.2529  -17.8552 C   0  0  0  0  0  0  0  0  0  0  0  0
    6.0104  -45.1548  -17.3914 C   0  0  0  0  0  0  0  0  0  0  0  0
    5.6871  -46.4916  -17.4008 C   0  0  0  0  0  0  0  0  0  0  0  0
    3.3599  -51.7281  -23.5730 C   0  0  0  0  0  0  0  0  0  0  0  0
    2.1230  -52.4586  -23.8490 C   0  0  0  0  0  0  0  0  0  0  0  0
    1.4912  -52.3477  -25.1941 C   0  0  0  0  0  0  0  0  0  0  0  0
    1.4143  -53.7005  -25.7592 N   0  0  0  0  0  0  0  0  0  0  0  0
    0.2532  -54.1907  -25.9778 C   0  0  0  0  0  0  0  0  0  0  0  0
   -0.9270  -53.4486  -25.6830 N   0  0  0  0  0  0  0  0  0  0  0  0
    0.0798  -55.4971  -26.5240 N   0  0  0  0  0  0  0  0  0  0  0  0
   -1.3713  -53.4258  -24.7598 H   0  0  0  0  0  0  0  0  0  0  0  0
   -1.3903  -52.8819  -26.4402 H   0  0  0  0  0  0  0  0  0  0  0  0
    0.3062  -55.7509  -27.5001 H   0  0  0  0  0  0  0  0  0  0  0  0
   -0.3023  -56.2625  -25.9055 H   0  0  0  0  0  0  0  0  0  0  0  0
 25 26  1  0  0  0
 26 23  1  0  0  0
 23 24  1  0  0  0
 23  1  1  0  0  0
  1  2  1  0  0  0
  2  3  1  0  0  0
  3  4  2  0  0  0
  3  5  1  0  0  0
  5 27  1  0  0  0
 27 28  1  0  0  0
 28 29  2  0  0  0
 29 30  1  0  0  0
 30 31  2  0  0  0
 31 32  1  0  0  0
 32 33  2  0  0  0
  5  6  1  0  0  0
  6  7  1  0  0  0
  7  8  2  0  0  0
  7  9  1  0  0  0
  9 10  1  0  0  0
 10 11  1  0  0  0
 11 12  1  0  0  0
 12 13  1  0  0  0
 13 14  1  0  0  0
 14 15  2  0  0  0
 14 16  1  0  0  0
 16 34  1  0  0  0
 34 35  1  0  0  0
 35 36  1  0  0  0
 36 37  1  0  0  0
 37 38  2  0  0  0
 38 39  1  0  0  0
 38 40  1  0  0  0
 16 17  1  0  0  0
 17 18  1  0  0  0
 18 19  2  0  0  0
 18  1  1  0  0  0
 33 28  1  0  0  0
 13  9  1  0  0  0
  2 20  1  0  0  0
  6 21  1  0  0  0
 39 41  1  0  0  0
 39 42  1  0  0  0
 40 43  1  0  0  0
 40 44  1  0  0  0
 17 22  1  0  0  0
M  END
> <minimizedAffinity>
-5.75569

> <CNNscore>
0.1750214994

> <CNNaffinity>
5.9945459366

> <CNN_VS>
1.0491744280

> <CNNaffinity_variance>
0.4740923047

$$$$
[H]c1nc(N2C([H])([H])[C@@]3([H])N(C([H])([H])[H])C([H])([H])[C@@]2([H])C3([H])[H])c([H])c([H])c1-c1c([H])c(F)c([H])c(F)c1[H]


 22 25  0  0  0  0  0  0  0  0999 V2000
    2.2603  -50.6366  -24.5211 C   0  0  0  0  0  0  0  0  0  0  0  0
    0.7977  -50.8748  -24.2885 C   0  0  0  0  0  0  0  0  0  0  0  0
   -0.0560  -51.4307  -25.3895 C   0  0  0  0  0  0  0  0  0  0  0  0
    0.5527  -51.7483  -26.7230 C   0  0  0  0  0  0  0  0  0  0  0  0
    2.0154  -51.5101  -26.9557 C   0  0  0  0  0  0  0  0  0  0  0  0
    2.8691  -50.9542  -25.8547 N   0  0  0  0  0  0  0  0  0  0  0  0
    6.1082  -48.6604  -20.0692 C   0  0  0  0  0  0  0  0  0  0  0  0
    5.2545  -49.2163  -21.1702 N   0  0  0  0  0  0  0  0  0  0  0  0
    5.6030  -50.3750  -22.0568 C   0  0  0  0  0  0  0  0  0  0  0  0
    4.4662  -50.5859  -23.0124 C   0  0  0  0  0  0  0  0  0  0  0  0
    3.4151  -49.5575  -22.7165 C   0  0  0  0  0  0  0  0  0  0  0  0
    3.9022  -48.7111  -21.5779 C   0  0  0  0  0  0  0  0  0  0  0  0
    2.7654  -48.9220  -22.5335 C   0  0  0  0  0  0  0  0  0  0  0  0
    3.1140  -50.0807  -23.4201 N   0  0  0  0  0  0  0  0  0  0  0  0
   -0.3010  -52.3042  -27.8240 C   0  0  0  0  0  0  0  0  0  0  0  0
   -1.7402  -52.6360  -27.5622 C   0  0  0  0  0  0  0  0  0  0  0  0
   -2.5939  -53.1919  -28.6632 C   0  0  0  0  0  0  0  0  0  0  0  0
   -4.0332  -53.5238  -28.4014 F   0  0  0  0  0  0  0  0  0  0  0  0
   -2.0085  -53.4159  -30.0259 C   0  0  0  0  0  0  0  0  0  0  0  0
   -0.5692  -53.0840  -30.2877 C   0  0  0  0  0  0  0  0  0  0  0  0
    0.0162  -53.3080  -31.6504 F   0  0  0  0  0  0  0  0  0  0  0  0
    0.2845  -52.5282  -29.1868 C   0  0  0  0  0  0  0  0  0  0  0  0
  7  8  1  0  0  0
  8  9  1  0  0  0
  9 10  1  0  0  0
 10 11  1  0  0  0
 11 12  1  0  0  0
 12 13  1  0  0  0
 13 14  1  0  0  0
 14  1  1  0  0  0
  1  2  2  0  0  0
  2  3  1  0  0  0
  3  4  2  0  0  0
  4  5  1  0  0  0
  5  6  2  0  0  0
  4 15  1  0  0  0
 15 16  2  0  0  0
 16 17  1  0  0  0
 17 18  1  0  0  0
 17 19  2  0  0  0
 19 20  1  0  0  0
 20 21  1  0  0  0
 20 22  2  0  0  0
 12  8  1  0  0  0
  6  1  1  0  0  0
 22 15  1  0  0  0
 14 10  1  0  0  0
M  END
> <minimizedAffinity>
-1.42896

> <CNNscore>
0.4538261890

> <CNNaffinity>
5.3785924911

> <CNN_VS>
2.4409461021

> <CNNaffinity_variance>
0.2826978862

$$$$
[H]c1nc(N2C([H])([H])[C@@]3([H])N(C([H])([H])[H])C([H])([H])[C@@]2([H])C3([H])[H])c([H])c([H])c1-c1c([H])c(F)c([H])c(F)c1[H]


 22 25  0  0  0  0  0  0  0  0999 V2000
    1.0942  -53.5179  -26.6585 C   0  0  0  0  0  0  0  0  0  0  0  0
   -0.3198  -53.7018  -26.1931 C   0  0  0  0  0  0  0  0  0  0  0  0
   -0.6942  -53.3649  -24.7802 C   0  0  0  0  0  0  0  0  0  0  0  0
    0.3454  -52.8442  -23.8326 C   0  0  0  0  0  0  0  0  0  0  0  0
    1.7596  -52.6603  -24.2980 C   0  0  0  0  0  0  0  0  0  0  0  0
    2.1340  -52.9972  -25.7109 N   0  0  0  0  0  0  0  0  0  0  0  0
    2.7311  -55.3439  -32.3609 C   0  0  0  0  0  0  0  0  0  0  0  0
    2.3567  -55.0070  -30.9480 N   0  0  0  0  0  0  0  0  0  0  0  0
    2.3773  -55.9500  -29.7816 C   0  0  0  0  0  0  0  0  0  0  0  0
    1.9293  -55.1938  -28.5661 C   0  0  0  0  0  0  0  0  0  0  0  0
    1.6319  -53.7834  -28.9812 C   0  0  0  0  0  0  0  0  0  0  0  0
    1.8960  -53.6680  -30.4532 C   0  0  0  0  0  0  0  0  0  0  0  0
    1.4480  -52.9117  -29.2378 C   0  0  0  0  0  0  0  0  0  0  0  0
    1.4686  -53.8548  -28.0714 N   0  0  0  0  0  0  0  0  0  0  0  0
   -0.0289  -52.5073  -22.4197 C   0  0  0  0  0  0  0  0  0  0  0  0
    0.3789  -51.1900  -21.8295 C   0  0  0  0  0  0  0  0  0  0  0  0
    0.0045  -50.8532  -20.4166 C   0  0  0  0  0  0  0  0  0  0  0  0
    0.4123  -49.5358  -19.8264 F   0  0  0  0  0  0  0  0  0  0  0  0
   -0.7777  -51.8336  -19.5939 C   0  0  0  0  0  0  0  0  0  0  0  0
   -1.1856  -53.1509  -20.1841 C   0  0  0  0  0  0  0  0  0  0  0  0
   -1.9678  -54.1314  -19.3613 F   0  0  0  0  0  0  0  0  0  0  0  0
   -0.8112  -53.4878  -21.5970 C   0  0  0  0  0  0  0  0  0  0  0  0
  7  8  1  0  0  0
  8  9  1  0  0  0
  9 10  1  0  0  0
 10 11  1  0  0  0
 11 12  1  0  0  0
 12 13  1  0  0  0
 13 14  1  0  0  0
 14  1  1  0  0  0
  1  2  2  0  0  0
  2  3  1  0  0  0
  3  4  2  0  0  0
  4  5  1  0  0  0
  5  6  2  0  0  0
  4 15  1  0  0  0
 15 16  2  0  0  0
 16 17  1  0  0  0
 17 18  1  0  0  0
 17 19  2  0  0  0
 19 20  1  0  0  0
 20 21  1  0  0  0
 20 22  2  0  0  0
 12  8  1  0  0  0
  6  1  1  0  0  0
 22 15  1  0  0  0
 14 10  1  0  0  0
M  END
> <minimizedAffinity>
7.88614

> <CNNscore>
0.3954328299

> <CNNaffinity>
5.6533570290

> <CNN_VS>
2.2355229855

> <CNNaffinity_variance>
0.2246876657

$$$$
[H]c1nc(N2C([H])([H])[C@@]3([H])N(C([H])([H])[H])C([H])([H])[C@@]2([H])C3([H])[H])c([H])c([H])c1-c1c([H])c(F)c([H])c(F)c1[H]


 22 25  0  0  0  0  0  0  0  0999 V2000
    0.3661  -51.4873  -21.1709 C   0  0  0  0  0  0  0  0  0  0  0  0
    1.3765  -50.8528  -22.0800 C   0  0  0  0  0  0  0  0  0  0  0  0
    1.3504  -51.1458  -23.5509 C   0  0  0  0  0  0  0  0  0  0  0  0
    0.3139  -52.0731  -24.1127 C   0  0  0  0  0  0  0  0  0  0  0  0
   -0.6966  -52.7076  -23.2035 C   0  0  0  0  0  0  0  0  0  0  0  0
   -0.6705  -52.4147  -21.7327 N   0  0  0  0  0  0  0  0  0  0  0  0
    0.6974  -49.8810  -15.1842 C   0  0  0  0  0  0  0  0  0  0  0  0
    0.6713  -50.1739  -16.6550 N   0  0  0  0  0  0  0  0  0  0  0  0
    1.2412  -49.3056  -17.7372 C   0  0  0  0  0  0  0  0  0  0  0  0
    0.9928  -49.9816  -19.0530 C   0  0  0  0  0  0  0  0  0  0  0  0
    0.2694  -51.2678  -18.7841 C   0  0  0  0  0  0  0  0  0  0  0  0
    0.0707  -51.3867  -17.3020 C   0  0  0  0  0  0  0  0  0  0  0  0
   -0.1778  -52.0628  -18.6178 C   0  0  0  0  0  0  0  0  0  0  0  0
    0.3922  -51.1943  -19.7000 N   0  0  0  0  0  0  0  0  0  0  0  0
    0.2878  -52.3660  -25.5836 C   0  0  0  0  0  0  0  0  0  0  0  0
    1.5477  -52.7694  -26.2905 C   0  0  0  0  0  0  0  0  0  0  0  0
    1.5216  -53.0623  -27.7613 C   0  0  0  0  0  0  0  0  0  0  0  0
    2.7817  -53.4657  -28.4682 F   0  0  0  0  0  0  0  0  0  0  0  0
    0.2355  -52.9519  -28.5253 C   0  0  0  0  0  0  0  0  0  0  0  0
   -1.0245  -52.5485  -27.8185 C   0  0  0  0  0  0  0  0  0  0  0  0
   -2.3106  -52.4381  -28.5825 F   0  0  0  0  0  0  0  0  0  0  0  0
   -0.9984  -52.2556  -26.3476 C   0  0  0  0  0  0  0  0  0  0  0  0
  7  8  1  0  0  0
  8  9  1  0  0  0
  9 10  1  0  0  0
 10 11  1  0  0  0
 11 12  1  0  0  0
 12 13  1  0  0  0
 13 14  1  0  0  0
 14  1  1  0  0  0
  1  2  2  0  0  0
  2  3  1  0  0  0
  3  4  2  0  0  0
  4  5  1  0  0  0
  5  6  2  0  0  0
  4 15  1  0  0  0
 15 16  2  0  0  0
 16 17  1  0  0  0
 17 18  1  0  0  0
 17 19  2  0  0  0
 19 20  1  0  0  0
 20 21  1  0  0  0
 20 22  2  0  0  0
 12  8  1  0  0  0
  6  1  1  0  0  0
 22 15  1  0  0  0
 14 10  1  0  0  0
M  END
> <minimizedAffinity>
-7.72501

> <CNNscore>
0.3822028041

> <CNNaffinity>
5.6922655106

> <CNN_VS>
2.1755998135

> <CNNaffinity_variance>
0.1851827651

$$$$
[H]c1nc(N2C([H])([H])[C@@]3([H])N(C([H])([H])[H])C([H])([H])[C@@]2([H])C3([H])[H])c([H])c([H])c1-c1c([H])c(F)c([H])c(F)c1[H]


 22 25  0  0  0  0  0  0  0  0999 V2000
   -0.0266  -51.4872  -18.7124 C   0  0  0  0  0  0  0  0  0  0  0  0
   -0.7315  -52.7765  -19.0136 C   0  0  0  0  0  0  0  0  0  0  0  0
   -0.7764  -53.2960  -20.4200 C   0  0  0  0  0  0  0  0  0  0  0  0
   -0.1165  -52.5261  -21.5253 C   0  0  0  0  0  0  0  0  0  0  0  0
    0.5884  -51.2367  -21.2242 C   0  0  0  0  0  0  0  0  0  0  0  0
    0.6334  -50.7172  -19.8178 N   0  0  0  0  0  0  0  0  0  0  0  0
    0.0692  -49.7691  -12.7484 C   0  0  0  0  0  0  0  0  0  0  0  0
    0.0243  -50.2886  -14.1548 N   0  0  0  0  0  0  0  0  0  0  0  0
   -0.2372  -51.7082  -14.5625 C   0  0  0  0  0  0  0  0  0  0  0  0
   -0.1902  -51.7767  -16.0602 C   0  0  0  0  0  0  0  0  0  0  0  0
    0.1003  -50.3993  -16.5782 C   0  0  0  0  0  0  0  0  0  0  0  0
    0.2328  -49.4796  -15.4006 C   0  0  0  0  0  0  0  0  0  0  0  0
    0.2798  -49.5479  -16.8984 C   0  0  0  0  0  0  0  0  0  0  0  0
    0.0184  -50.9677  -17.3060 N   0  0  0  0  0  0  0  0  0  0  0  0
   -0.1615  -53.0456  -22.9318 C   0  0  0  0  0  0  0  0  0  0  0  0
    0.1665  -52.1356  -24.0783 C   0  0  0  0  0  0  0  0  0  0  0  0
    0.1215  -52.6551  -25.4847 C   0  0  0  0  0  0  0  0  0  0  0  0
    0.4495  -51.7451  -26.6312 F   0  0  0  0  0  0  0  0  0  0  0  0
   -0.2515  -54.0845  -25.7447 C   0  0  0  0  0  0  0  0  0  0  0  0
   -0.5795  -54.9945  -24.5982 C   0  0  0  0  0  0  0  0  0  0  0  0
   -0.9525  -56.4239  -24.8582 F   0  0  0  0  0  0  0  0  0  0  0  0
   -0.5345  -54.4751  -23.1918 C   0  0  0  0  0  0  0  0  0  0  0  0
  7  8  1  0  0  0
  8  9  1  0  0  0
  9 10  1  0  0  0
 10 11  1  0  0  0
 11 12  1  0  0  0
 12 13  1  0  0  0
 13 14  1  0  0  0
 14  1  1  0  0  0
  1  2  2  0  0  0
  2  3  1  0  0  0
  3  4  2  0  0  0
  4  5  1  0  0  0
  5  6  2  0  0  0
  4 15  1  0  0  0
 15 16  2  0  0  0
 16 17  1  0  0  0
 17 18  1  0  0  0
 17 19  2  0  0  0
 19 20  1  0  0  0
 20 21  1  0  0  0
 20 22  2  0  0  0
 12  8  1  0  0  0
  6  1  1  0  0  0
 22 15  1  0  0  0
 14 10  1  0  0  0
M  END
> <minimizedAffinity>
-6.68178

> <CNNscore>
0.3385734260

> <CNNaffinity>
5.3324174881

> <CNN_VS>
1.8054149151

> <CNNaffinity_variance>
0.1254182905

$$$$
[H]c1nc(N2C([H])([H])[C@@]3([H])N(C([H])([H])[H])C([H])([H])[C@@]2([H])C3([H])[H])c([H])c([H])c1-c1c([H])c(F)c([H])c(F)c1[H]


 22 25  0  0  0  0  0  0  0  0999 V2000
   -0.1479  -51.7696  -18.7794 C   0  0  0  0  0  0  0  0  0  0  0  0
   -0.7795  -53.0627  -19.2022 C   0  0  0  0  0  0  0  0  0  0  0  0
   -0.7601  -53.4701  -20.6457 C   0  0  0  0  0  0  0  0  0  0  0  0
   -0.1090  -52.5845  -21.6663 C   0  0  0  0  0  0  0  0  0  0  0  0
    0.5227  -51.2913  -21.2434 C   0  0  0  0  0  0  0  0  0  0  0  0
    0.5033  -50.8839  -19.8000 N   0  0  0  0  0  0  0  0  0  0  0  0
    0.0520  -49.7319  -12.9194 C   0  0  0  0  0  0  0  0  0  0  0  0
    0.0714  -50.1393  -14.3629 N   0  0  0  0  0  0  0  0  0  0  0  0
    0.8160  -49.4457  -15.4649 C   0  0  0  0  0  0  0  0  0  0  0  0
    0.5545  -50.1896  -16.7409 C   0  0  0  0  0  0  0  0  0  0  0  0
   -0.3518  -51.3430  -16.4276 C   0  0  0  0  0  0  0  0  0  0  0  0
   -0.6504  -51.3119  -14.9579 C   0  0  0  0  0  0  0  0  0  0  0  0
   -0.9120  -52.0559  -16.2339 C   0  0  0  0  0  0  0  0  0  0  0  0
   -0.1673  -51.3622  -17.3359 N   0  0  0  0  0  0  0  0  0  0  0  0
   -0.0896  -52.9919  -23.1098 C   0  0  0  0  0  0  0  0  0  0  0  0
   -0.4313  -54.4004  -23.4962 C   0  0  0  0  0  0  0  0  0  0  0  0
   -0.4119  -54.8078  -24.9397 C   0  0  0  0  0  0  0  0  0  0  0  0
   -0.7537  -56.2164  -25.3261 F   0  0  0  0  0  0  0  0  0  0  0  0
   -0.0507  -53.8068  -25.9967 C   0  0  0  0  0  0  0  0  0  0  0  0
    0.2911  -52.3982  -25.6103 C   0  0  0  0  0  0  0  0  0  0  0  0
    0.6523  -51.3972  -26.6674 F   0  0  0  0  0  0  0  0  0  0  0  0
    0.2717  -51.9908  -24.1669 C   0  0  0  0  0  0  0  0  0  0  0  0
  7  8  1  0  0  0
  8  9  1  0  0  0
  9 10  1  0  0  0
 10 11  1  0  0  0
 11 12  1  0  0  0
 12 13  1  0  0  0
 13 14  1  0  0  0
 14  1  1  0  0  0
  1  2  2  0  0  0
  2  3  1  0  0  0
  3  4  2  0  0  0
  4  5  1  0  0  0
  5  6  2  0  0  0
  4 15  1  0  0  0
 15 16  2  0  0  0
 16 17  1  0  0  0
 17 18  1  0  0  0
 17 19  2  0  0  0
 19 20  1  0  0  0
 20 21  1  0  0  0
 20 22  2  0  0  0
 12  8  1  0  0  0
  6  1  1  0  0  0
 22 15  1  0  0  0
 14 10  1  0  0  0
M  END
> <minimizedAffinity>
-6.64205

> <CNNscore>
0.3308340013

> <CNNaffinity>
5.3518872261

> <CNN_VS>
1.7705862522

> <CNNaffinity_variance>
0.1665429175

$$$$
[H]c1nc(N2C([H])([H])[C@@]3([H])N(C([H])([H])[H])C([H])([H])[C@@]2([H])C3([H])[H])c([H])c([H])c1-c1c([H])c(F)c([H])c(F)c1[H]


 22 25  0  0  0  0  0  0  0  0999 V2000
    0.0719  -52.0667  -23.5164 C   0  0  0  0  0  0  0  0  0  0  0  0
    1.0890  -51.0943  -22.9972 C   0  0  0  0  0  0  0  0  0  0  0  0
    1.2474  -50.8922  -21.5193 C   0  0  0  0  0  0  0  0  0  0  0  0
    0.3887  -51.6625  -20.5607 C   0  0  0  0  0  0  0  0  0  0  0  0
   -0.6286  -52.6351  -21.0799 C   0  0  0  0  0  0  0  0  0  0  0  0
   -0.7870  -52.8372  -22.5578 N   0  0  0  0  0  0  0  0  0  0  0  0
   -0.1378  -53.0308  -29.6448 C   0  0  0  0  0  0  0  0  0  0  0  0
    0.0205  -52.8287  -28.1670 N   0  0  0  0  0  0  0  0  0  0  0  0
    1.2758  -53.0504  -27.3763 C   0  0  0  0  0  0  0  0  0  0  0  0
    0.9825  -52.7282  -25.9410 C   0  0  0  0  0  0  0  0  0  0  0  0
   -0.4540  -52.3073  -25.8446 C   0  0  0  0  0  0  0  0  0  0  0  0
   -1.0485  -52.3694  -27.2203 C   0  0  0  0  0  0  0  0  0  0  0  0
   -1.3418  -52.0471  -25.7850 C   0  0  0  0  0  0  0  0  0  0  0  0
   -0.0865  -52.2689  -24.9943 N   0  0  0  0  0  0  0  0  0  0  0  0
    0.5470  -51.4604  -19.0829 C   0  0  0  0  0  0  0  0  0  0  0  0
   -0.5477  -51.8795  -18.1470 C   0  0  0  0  0  0  0  0  0  0  0  0
   -0.3893  -51.6774  -16.6691 C   0  0  0  0  0  0  0  0  0  0  0  0
   -1.4841  -52.0965  -15.7332 F   0  0  0  0  0  0  0  0  0  0  0  0
    0.8638  -51.0562  -16.1271 C   0  0  0  0  0  0  0  0  0  0  0  0
    1.9586  -50.6371  -17.0630 C   0  0  0  0  0  0  0  0  0  0  0  0
    3.2117  -50.0159  -16.5210 F   0  0  0  0  0  0  0  0  0  0  0  0
    1.8002  -50.8392  -18.5409 C   0  0  0  0  0  0  0  0  0  0  0  0
  7  8  1  0  0  0
  8  9  1  0  0  0
  9 10  1  0  0  0
 10 11  1  0  0  0
 11 12  1  0  0  0
 12 13  1  0  0  0
 13 14  1  0  0  0
 14  1  1  0  0  0
  1  2  2  0  0  0
  2  3  1  0  0  0
  3  4  2  0  0  0
  4  5  1  0  0  0
  5  6  2  0  0  0
  4 15  1  0  0  0
 15 16  2  0  0  0
 16 17  1  0  0  0
 17 18  1  0  0  0
 17 19  2  0  0  0
 19 20  1  0  0  0
 20 21  1  0  0  0
 20 22  2  0  0  0
 12  8  1  0  0  0
  6  1  1  0  0  0
 22 15  1  0  0  0
 14 10  1  0  0  0
M  END
> <minimizedAffinity>
-6.87882

> <CNNscore>
0.3183840215

> <CNNaffinity>
5.8943262100

> <CNN_VS>
1.8766592741

> <CNNaffinity_variance>
0.1244225502

$$$$
[H]c1nc(N2C([H])([H])[C@@]3([H])N(C([H])([H])[H])C([H])([H])[C@@]2([H])C3([H])[H])c([H])c([H])c1-c1c([H])c(F)c([H])c(F)c1[H]


 22 25  0  0  0  0  0  0  0  0999 V2000
    0.2617  -52.2314  -21.1896 C   0  0  0  0  0  0  0  0  0  0  0  0
    0.7294  -50.8485  -20.8450 C   0  0  0  0  0  0  0  0  0  0  0  0
    0.6495  -50.3609  -19.4287 C   0  0  0  0  0  0  0  0  0  0  0  0
    0.1018  -51.2562  -18.3571 C   0  0  0  0  0  0  0  0  0  0  0  0
   -0.3659  -52.6391  -18.7017 C   0  0  0  0  0  0  0  0  0  0  0  0
   -0.2860  -53.1267  -20.1180 N   0  0  0  0  0  0  0  0  0  0  0  0
    0.2361  -54.5303  -26.9555 C   0  0  0  0  0  0  0  0  0  0  0  0
    0.1561  -54.0427  -25.5392 N   0  0  0  0  0  0  0  0  0  0  0  0
   -0.8216  -54.5070  -24.5008 C   0  0  0  0  0  0  0  0  0  0  0  0
   -0.5422  -53.7564  -23.2324 C   0  0  0  0  0  0  0  0  0  0  0  0
    0.6084  -52.8283  -23.4870 C   0  0  0  0  0  0  0  0  0  0  0  0
    1.0399  -53.0053  -24.9127 C   0  0  0  0  0  0  0  0  0  0  0  0
    1.3195  -52.2547  -23.6444 C   0  0  0  0  0  0  0  0  0  0  0  0
    0.3417  -52.7190  -22.6059 N   0  0  0  0  0  0  0  0  0  0  0  0
    0.0219  -50.7686  -16.9408 C   0  0  0  0  0  0  0  0  0  0  0  0
   -0.3296  -51.7225  -15.8379 C   0  0  0  0  0  0  0  0  0  0  0  0
   -0.4095  -51.2349  -14.4216 C   0  0  0  0  0  0  0  0  0  0  0  0
   -0.7610  -52.1889  -13.3187 F   0  0  0  0  0  0  0  0  0  0  0  0
   -0.1380  -49.7934  -14.1082 C   0  0  0  0  0  0  0  0  0  0  0  0
    0.2135  -48.8394  -15.2112 C   0  0  0  0  0  0  0  0  0  0  0  0
    0.4851  -47.3978  -14.8978 F   0  0  0  0  0  0  0  0  0  0  0  0
    0.2935  -49.3270  -16.6275 C   0  0  0  0  0  0  0  0  0  0  0  0
  7  8  1  0  0  0
  8  9  1  0  0  0
  9 10  1  0  0  0
 10 11  1  0  0  0
 11 12  1  0  0  0
 12 13  1  0  0  0
 13 14  1  0  0  0
 14  1  1  0  0  0
  1  2  2  0  0  0
  2  3  1  0  0  0
  3  4  2  0  0  0
  4  5  1  0  0  0
  5  6  2  0  0  0
  4 15  1  0  0  0
 15 16  2  0  0  0
 16 17  1  0  0  0
 17 18  1  0  0  0
 17 19  2  0  0  0
 19 20  1  0  0  0
 20 21  1  0  0  0
 20 22  2  0  0  0
 12  8  1  0  0  0
  6  1  1  0  0  0
 22 15  1  0  0  0
 14 10  1  0  0  0
M  END
> <minimizedAffinity>
-6.47273

> <CNNscore>
0.2805127800

> <CNNaffinity>
5.5765962601

> <CNN_VS>
1.5643064976

> <CNNaffinity_variance>
0.2674707472

$$$$
[H]c1nc(N2C([H])([H])[C@@]3([H])N(C([H])([H])[H])C([H])([H])[C@@]2([H])C3([H])[H])c([H])c([H])c1-c1c([H])c(F)c([H])c(F)c1[H]


 22 25  0  0  0  0  0  0  0  0999 V2000
    0.5332  -52.4352  -22.4005 C   0  0  0  0  0  0  0  0  0  0  0  0
    0.6845  -50.9885  -22.0345 C   0  0  0  0  0  0  0  0  0  0  0  0
    0.5654  -50.5609  -20.6017 C   0  0  0  0  0  0  0  0  0  0  0  0
    0.2950  -51.5800  -19.5348 C   0  0  0  0  0  0  0  0  0  0  0  0
    0.1437  -53.0268  -19.9008 C   0  0  0  0  0  0  0  0  0  0  0  0
    0.2628  -53.4544  -21.3336 N   0  0  0  0  0  0  0  0  0  0  0  0
    1.4509  -54.0185  -28.3319 C   0  0  0  0  0  0  0  0  0  0  0  0
    1.3318  -53.5909  -26.8991 N   0  0  0  0  0  0  0  0  0  0  0  0
    2.3776  -52.8650  -26.1057 C   0  0  0  0  0  0  0  0  0  0  0  0
    1.8381  -52.6396  -24.7244 C   0  0  0  0  0  0  0  0  0  0  0  0
    0.4589  -53.2262  -24.6640 C   0  0  0  0  0  0  0  0  0  0  0  0
    0.1459  -53.8141  -26.0080 C   0  0  0  0  0  0  0  0  0  0  0  0
   -0.3936  -53.5887  -24.6266 C   0  0  0  0  0  0  0  0  0  0  0  0
    0.6523  -52.8628  -23.8333 N   0  0  0  0  0  0  0  0  0  0  0  0
    0.1759  -51.1524  -18.1020 C   0  0  0  0  0  0  0  0  0  0  0  0
    1.0809  -50.0862  -17.5598 C   0  0  0  0  0  0  0  0  0  0  0  0
    0.9618  -49.6586  -16.1270 C   0  0  0  0  0  0  0  0  0  0  0  0
    1.8669  -48.5923  -15.5848 F   0  0  0  0  0  0  0  0  0  0  0  0
   -0.0623  -50.2972  -15.2364 C   0  0  0  0  0  0  0  0  0  0  0  0
   -0.9675  -51.3635  -15.7786 C   0  0  0  0  0  0  0  0  0  0  0  0
   -1.9916  -52.0021  -14.8880 F   0  0  0  0  0  0  0  0  0  0  0  0
   -0.8484  -51.7911  -17.2114 C   0  0  0  0  0  0  0  0  0  0  0  0
  7  8  1  0  0  0
  8  9  1  0  0  0
  9 10  1  0  0  0
 10 11  1  0  0  0
 11 12  1  0  0  0
 12 13  1  0  0  0
 13 14  1  0  0  0
 14  1  1  0  0  0
  1  2  2  0  0  0
  2  3  1  0  0  0
  3  4  2  0  0  0
  4  5  1  0  0  0
  5  6  2  0  0  0
  4 15  1  0  0  0
 15 16  2  0  0  0
 16 17  1  0  0  0
 17 18  1  0  0  0
 17 19  2  0  0  0
 19 20  1  0  0  0
 20 21  1  0  0  0
 20 22  2  0  0  0
 12  8  1  0  0  0
  6  1  1  0  0  0
 22 15  1  0  0  0
 14 10  1  0  0  0
M  END
> <minimizedAffinity>
-6.79397

> <CNNscore>
0.2796062827

> <CNNaffinity>
5.7614221573

> <CNN_VS>
1.6109298468

> <CNNaffinity_variance>
0.2876161039

$$$$
[H]c1nc(N2C([H])([H])[C@@]3([H])N(C([H])([H])[H])C([H])([H])[C@@]2([H])C3([H])[H])c([H])c([H])c1-c1c([H])c(F)c([H])c(F)c1[H]


 22 25  0  0  0  0  0  0  0  0999 V2000
    0.6108  -52.3091  -22.5684 C   0  0  0  0  0  0  0  0  0  0  0  0
    0.8600  -50.8696  -22.2283 C   0  0  0  0  0  0  0  0  0  0  0  0
    0.7430  -50.4036  -20.8074 C   0  0  0  0  0  0  0  0  0  0  0  0
    0.3768  -51.3770  -19.7265 C   0  0  0  0  0  0  0  0  0  0  0  0
    0.1277  -52.8166  -20.0666 C   0  0  0  0  0  0  0  0  0  0  0  0
    0.2447  -53.2827  -21.4875 N   0  0  0  0  0  0  0  0  0  0  0  0
    1.5239  -54.0611  -28.4529 C   0  0  0  0  0  0  0  0  0  0  0  0
    1.4068  -53.5950  -27.0320 N   0  0  0  0  0  0  0  0  0  0  0  0
    2.4643  -52.8725  -26.2512 C   0  0  0  0  0  0  0  0  0  0  0  0
    1.9228  -52.6005  -24.8790 C   0  0  0  0  0  0  0  0  0  0  0  0
    0.5307  -53.1551  -24.8117 C   0  0  0  0  0  0  0  0  0  0  0  0
    0.2119  -53.7697  -26.1424 C   0  0  0  0  0  0  0  0  0  0  0  0
   -0.3297  -53.4978  -24.7702 C   0  0  0  0  0  0  0  0  0  0  0  0
    0.7279  -52.7752  -23.9893 N   0  0  0  0  0  0  0  0  0  0  0  0
    0.2598  -50.9109  -18.3056 C   0  0  0  0  0  0  0  0  0  0  0  0
   -0.5423  -51.7065  -17.3189 C   0  0  0  0  0  0  0  0  0  0  0  0
   -0.6593  -51.2405  -15.8980 C   0  0  0  0  0  0  0  0  0  0  0  0
   -1.4615  -52.0362  -14.9113 F   0  0  0  0  0  0  0  0  0  0  0  0
    0.0258  -49.9788  -15.4637 C   0  0  0  0  0  0  0  0  0  0  0  0
    0.8280  -49.1830  -16.4504 C   0  0  0  0  0  0  0  0  0  0  0  0
    1.5131  -47.9213  -16.0161 F   0  0  0  0  0  0  0  0  0  0  0  0
    0.9450  -49.6491  -17.8713 C   0  0  0  0  0  0  0  0  0  0  0  0
  7  8  1  0  0  0
  8  9  1  0  0  0
  9 10  1  0  0  0
 10 11  1  0  0  0
 11 12  1  0  0  0
 12 13  1  0  0  0
 13 14  1  0  0  0
 14  1  1  0  0  0
  1  2  2  0  0  0
  2  3  1  0  0  0
  3  4  2  0  0  0
  4  5  1  0  0  0
  5  6  2  0  0  0
  4 15  1  0  0  0
 15 16  2  0  0  0
 16 17  1  0  0  0
 17 18  1  0  0  0
 17 19  2  0  0  0
 19 20  1  0  0  0
 20 21  1  0  0  0
 20 22  2  0  0  0
 12  8  1  0  0  0
  6  1  1  0  0  0
 22 15  1  0  0  0
 14 10  1  0  0  0
M  END
> <minimizedAffinity>
-6.87749

> <CNNscore>
0.2720586061

> <CNNaffinity>
5.8090596199

> <CNN_VS>
1.5804046392

> <CNNaffinity_variance>
0.3944983780

$$$$
[H]O[C@]1([H])[C@@]([H])(C([H])([H])OP(=O)(O[H])OP(=O)(O[H])OP(=O)(O[H])OC([H])([H])[C@@]2([H])O[C@@]([H])(n3c([H])c([H])c(=O)n([H])c3=O)[C@]([H])(O[H])[C@]2([H])O[H])O[C@@]([H])(c2c([H])c([H])c([H])c([H])c2[H])[C@]1([H])O[H]


 51 54  0  0  0  0  0  0  0  0999 V2000
    5.7094  -48.1922  -22.4405 P   0  0  0  0  0  0  0  0  0  0  0  0
    5.6786  -47.6036  -24.0077 O   0  0  0  0  0  0  0  0  0  0  0  0
    7.0324  -48.8285  -22.1331 O   0  0  0  0  0  0  0  0  0  0  0  0
    5.2374  -46.7074  -24.0642 H   0  0  0  0  0  0  0  0  0  0  0  0
    4.4335  -49.3073  -22.2463 O   0  0  0  0  0  0  0  0  0  0  0  0
    4.8151  -50.5932  -23.3379 P   0  0  0  0  0  0  0  0  0  0  0  0
    6.1429  -51.3772  -22.5487 O   0  0  0  0  0  0  0  0  0  0  0  0
    5.2118  -50.1892  -24.6700 O   0  0  0  0  0  0  0  0  0  0  0  0
    5.8012  -51.5027  -21.5854 H   0  0  0  0  0  0  0  0  0  0  0  0
    3.5205  -51.6751  -23.3218 O   0  0  0  0  0  0  0  0  0  0  0  0
    2.6398  -51.1938  -24.3528 C   0  0  0  0  0  0  0  0  0  0  0  0
    4.2520  -53.2821  -26.4360 O   0  0  0  0  0  0  0  0  0  0  0  0
    3.1962  -52.3950  -26.4073 C   0  0  0  0  0  0  0  0  0  0  0  0
    2.1648  -52.7216  -27.4338 C   0  0  0  0  0  0  0  0  0  0  0  0
    2.7410  -53.6390  -28.3203 O   0  0  0  0  0  0  0  0  0  0  0  0
    1.0638  -53.3094  -26.5946 C   0  0  0  0  0  0  0  0  0  0  0  0
    1.1648  -52.8148  -25.2910 O   0  0  0  0  0  0  0  0  0  0  0  0
    2.4506  -52.4558  -25.1264 C   0  0  0  0  0  0  0  0  0  0  0  0
    4.4414  -53.5705  -25.4644 H   0  0  0  0  0  0  0  0  0  0  0  0
    3.7460  -53.5555  -28.3496 H   0  0  0  0  0  0  0  0  0  0  0  0
   -0.3101  -52.9486  -27.0374 C   0  0  0  0  0  0  0  0  0  0  0  0
   -0.7419  -53.1247  -28.3622 C   0  0  0  0  0  0  0  0  0  0  0  0
   -1.9840  -52.7554  -28.7987 C   0  0  0  0  0  0  0  0  0  0  0  0
   -2.8529  -52.1791  -27.8884 C   0  0  0  0  0  0  0  0  0  0  0  0
   -2.3992  -52.0126  -26.5631 C   0  0  0  0  0  0  0  0  0  0  0  0
   -1.1660  -52.3939  -26.1751 C   0  0  0  0  0  0  0  0  0  0  0  0
    5.3417  -46.9634  -21.3119 O   0  0  0  0  0  0  0  0  0  0  0  0
    3.6914  -46.5995  -21.4301 P   0  0  0  0  0  0  0  0  0  0  0  0
    2.9638  -47.0499  -22.8258 O   0  0  0  0  0  0  0  0  0  0  0  0
    3.6818  -44.9936  -21.3964 O   0  0  0  0  0  0  0  0  0  0  0  0
    3.3069  -46.5043  -23.6045 H   0  0  0  0  0  0  0  0  0  0  0  0
    2.9284  -47.0543  -20.0383 O   0  0  0  0  0  0  0  0  0  0  0  0
    1.9792  -48.0573  -20.4341 C   0  0  0  0  0  0  0  0  0  0  0  0
    1.9741  -49.0524  -19.2738 C   0  0  0  0  0  0  0  0  0  0  0  0
    0.7395  -49.7473  -19.4488 O   0  0  0  0  0  0  0  0  0  0  0  0
    0.9838  -51.0403  -19.4380 C   0  0  0  0  0  0  0  0  0  0  0  0
    2.4750  -51.1873  -19.9616 C   0  0  0  0  0  0  0  0  0  0  0  0
    2.9958  -52.3795  -19.5887 O   0  0  0  0  0  0  0  0  0  0  0  0
    3.0827  -49.9953  -19.2851 C   0  0  0  0  0  0  0  0  0  0  0  0
    3.4749  -50.3411  -17.9546 O   0  0  0  0  0  0  0  0  0  0  0  0
    2.8846  -52.5755  -18.6521 H   0  0  0  0  0  0  0  0  0  0  0  0
    2.6366  -50.4371  -17.4088 H   0  0  0  0  0  0  0  0  0  0  0  0
    0.1633  -51.9385  -20.2242 N   0  0  0  0  0  0  0  0  0  0  0  0
    0.1410  -52.0128  -21.4996 C   0  0  0  0  0  0  0  0  0  0  0  0
   -0.5313  -53.0223  -22.2166 C   0  0  0  0  0  0  0  0  0  0  0  0
   -1.1832  -53.9890  -21.4690 C   0  0  0  0  0  0  0  0  0  0  0  0
   -1.7528  -54.9597  -21.9722 O   0  0  0  0  0  0  0  0  0  0  0  0
   -1.1293  -53.8506  -20.1593 N   0  0  0  0  0  0  0  0  0  0  0  0
   -0.5044  -52.8801  -19.4419 C   0  0  0  0  0  0  0  0  0  0  0  0
   -0.5656  -52.8781  -18.2547 O   0  0  0  0  0  0  0  0  0  0  0  0
   -1.5781  -54.6601  -19.5935 H   0  0  0  0  0  0  0  0  0  0  0  0
 12 13  1  0  0  0
 13 14  1  0  0  0
 14 15  1  0  0  0
 14 16  1  0  0  0
 16 17  1  0  0  0
 17 18  1  0  0  0
 18 11  1  0  0  0
 11 10  1  0  0  0
 10  6  1  0  0  0
  6  7  1  0  0  0
  6  8  2  0  0  0
  6  5  1  0  0  0
  5  1  1  0  0  0
  1  2  1  0  0  0
  1  3  2  0  0  0
  1 27  1  0  0  0
 27 28  1  0  0  0
 28 29  1  0  0  0
 28 30  2  0  0  0
 28 32  1  0  0  0
 32 33  1  0  0  0
 33 34  1  0  0  0
 34 35  1  0  0  0
 35 36  1  0  0  0
 36 37  1  0  0  0
 37 38  1  0  0  0
 37 39  1  0  0  0
 39 40  1  0  0  0
 36 43  1  0  0  0
 43 44  1  0  0  0
 44 45  2  0  0  0
 45 46  1  0  0  0
 46 47  2  0  0  0
 46 48  1  0  0  0
 48 49  1  0  0  0
 49 50  2  0  0  0
 16 21  1  0  0  0
 21 22  2  0  0  0
 22 23  1  0  0  0
 23 24  2  0  0  0
 24 25  1  0  0  0
 25 26  2  0  0  0
 18 13  1  0  0  0
 39 34  1  0  0  0
 49 43  1  0  0  0
 26 21  1  0  0  0
 12 19  1  0  0  0
 15 20  1  0  0  0
  7  9  1  0  0  0
  2  4  1  0  0  0
 29 31  1  0  0  0
 38 41  1  0  0  0
 40 42  1  0  0  0
 48 51  1  0  0  0
M  END
> <minimizedAffinity>
-8.86644

> <CNNscore>
0.7086971402

> <CNNaffinity>
6.0545020103

> <CNN_VS>
4.2908082008

> <CNNaffinity_variance>
0.2847686410

$$$$
[H]O[C@]1([H])[C@@]([H])(C([H])([H])OP(=O)(O[H])OP(=O)(O[H])OP(=O)(O[H])OC([H])([H])[C@@]2([H])O[C@@]([H])(n3c([H])c([H])c(=O)n([H])c3=O)[C@]([H])(O[H])[C@]2([H])O[H])O[C@@]([H])(c2c([H])c([H])c([H])c([H])c2[H])[C@]1([H])O[H]


 51 54  0  0  0  0  0  0  0  0999 V2000
    4.2124  -51.3482  -22.7457 P   0  0  0  0  0  0  0  0  0  0  0  0
    3.9088  -51.5273  -21.1088 O   0  0  0  0  0  0  0  0  0  0  0  0
    5.5818  -51.8506  -23.0947 O   0  0  0  0  0  0  0  0  0  0  0  0
    2.9792  -51.8523  -20.9320 H   0  0  0  0  0  0  0  0  0  0  0  0
    4.0394  -49.7029  -23.1606 O   0  0  0  0  0  0  0  0  0  0  0  0
    2.8113  -49.1162  -22.0936 P   0  0  0  0  0  0  0  0  0  0  0  0
    1.6509  -50.4022  -22.1098 O   0  0  0  0  0  0  0  0  0  0  0  0
    2.1720  -47.8800  -22.4914 O   0  0  0  0  0  0  0  0  0  0  0  0
    2.2272  -51.2391  -21.9429 H   0  0  0  0  0  0  0  0  0  0  0  0
    3.4696  -49.0626  -20.5410 O   0  0  0  0  0  0  0  0  0  0  0  0
    3.0168  -47.8068  -20.0041 C   0  0  0  0  0  0  0  0  0  0  0  0
    4.8446  -48.3906  -17.2439 O   0  0  0  0  0  0  0  0  0  0  0  0
    4.0237  -49.0346  -18.1461 C   0  0  0  0  0  0  0  0  0  0  0  0
    3.3713  -50.2352  -17.5485 C   0  0  0  0  0  0  0  0  0  0  0  0
    4.0428  -50.5177  -16.3533 O   0  0  0  0  0  0  0  0  0  0  0  0
    1.9606  -49.7553  -17.3446 C   0  0  0  0  0  0  0  0  0  0  0  0
    1.6911  -48.7220  -18.2466 O   0  0  0  0  0  0  0  0  0  0  0  0
    2.8824  -48.1857  -18.5669 C   0  0  0  0  0  0  0  0  0  0  0  0
    4.6298  -47.3833  -17.2932 H   0  0  0  0  0  0  0  0  0  0  0  0
    4.9930  -50.1787  -16.3649 H   0  0  0  0  0  0  0  0  0  0  0  0
    0.9150  -50.7800  -17.6102 C   0  0  0  0  0  0  0  0  0  0  0  0
    0.0204  -51.2138  -16.6182 C   0  0  0  0  0  0  0  0  0  0  0  0
   -0.9153  -52.1881  -16.8300 C   0  0  0  0  0  0  0  0  0  0  0  0
   -0.9788  -52.7732  -18.0828 C   0  0  0  0  0  0  0  0  0  0  0  0
   -0.0718  -52.3217  -19.0644 C   0  0  0  0  0  0  0  0  0  0  0  0
    0.8339  -51.3557  -18.8126 C   0  0  0  0  0  0  0  0  0  0  0  0
    3.0151  -52.1253  -23.6845 O   0  0  0  0  0  0  0  0  0  0  0  0
    3.2536  -51.7131  -25.3103 P   0  0  0  0  0  0  0  0  0  0  0  0
    4.5934  -50.8277  -25.6286 O   0  0  0  0  0  0  0  0  0  0  0  0
    1.9887  -50.7743  -25.6247 O   0  0  0  0  0  0  0  0  0  0  0  0
    4.5150  -49.8998  -25.2354 H   0  0  0  0  0  0  0  0  0  0  0  0
    3.0304  -53.0499  -26.2534 O   0  0  0  0  0  0  0  0  0  0  0  0
    2.5222  -52.5547  -27.5025 C   0  0  0  0  0  0  0  0  0  0  0  0
    1.2975  -53.4247  -27.7845 C   0  0  0  0  0  0  0  0  0  0  0  0
    1.1715  -54.2021  -26.5938 O   0  0  0  0  0  0  0  0  0  0  0  0
   -0.0647  -54.0957  -26.1556 C   0  0  0  0  0  0  0  0  0  0  0  0
   -0.5688  -52.6808  -26.6685 C   0  0  0  0  0  0  0  0  0  0  0  0
   -1.9212  -52.6316  -26.6786 O   0  0  0  0  0  0  0  0  0  0  0  0
    0.0715  -52.6780  -28.0243 C   0  0  0  0  0  0  0  0  0  0  0  0
   -0.7692  -53.3593  -28.9585 O   0  0  0  0  0  0  0  0  0  0  0  0
   -2.3335  -53.3820  -27.1200 H   0  0  0  0  0  0  0  0  0  0  0  0
   -0.7187  -54.3409  -28.7489 H   0  0  0  0  0  0  0  0  0  0  0  0
   -0.3365  -54.1577  -24.7341 N   0  0  0  0  0  0  0  0  0  0  0  0
   -0.2489  -53.1853  -23.9098 C   0  0  0  0  0  0  0  0  0  0  0  0
   -0.6982  -53.2430  -22.5756 C   0  0  0  0  0  0  0  0  0  0  0  0
   -1.2818  -54.4301  -22.1652 C   0  0  0  0  0  0  0  0  0  0  0  0
   -1.7728  -54.5879  -21.0454 O   0  0  0  0  0  0  0  0  0  0  0  0
   -1.3340  -55.3963  -23.0602 N   0  0  0  0  0  0  0  0  0  0  0  0
   -0.8943  -55.3752  -24.3461 C   0  0  0  0  0  0  0  0  0  0  0  0
   -0.9923  -56.3431  -25.0295 O   0  0  0  0  0  0  0  0  0  0  0  0
   -1.8648  -56.2876  -22.7429 H   0  0  0  0  0  0  0  0  0  0  0  0
 12 13  1  0  0  0
 13 14  1  0  0  0
 14 15  1  0  0  0
 14 16  1  0  0  0
 16 17  1  0  0  0
 17 18  1  0  0  0
 18 11  1  0  0  0
 11 10  1  0  0  0
 10  6  1  0  0  0
  6  7  1  0  0  0
  6  8  2  0  0  0
  6  5  1  0  0  0
  5  1  1  0  0  0
  1  2  1  0  0  0
  1  3  2  0  0  0
  1 27  1  0  0  0
 27 28  1  0  0  0
 28 29  1  0  0  0
 28 30  2  0  0  0
 28 32  1  0  0  0
 32 33  1  0  0  0
 33 34  1  0  0  0
 34 35  1  0  0  0
 35 36  1  0  0  0
 36 37  1  0  0  0
 37 38  1  0  0  0
 37 39  1  0  0  0
 39 40  1  0  0  0
 36 43  1  0  0  0
 43 44  1  0  0  0
 44 45  2  0  0  0
 45 46  1  0  0  0
 46 47  2  0  0  0
 46 48  1  0  0  0
 48 49  1  0  0  0
 49 50  2  0  0  0
 16 21  1  0  0  0
 21 22  2  0  0  0
 22 23  1  0  0  0
 23 24  2  0  0  0
 24 25  1  0  0  0
 25 26  2  0  0  0
 18 13  1  0  0  0
 39 34  1  0  0  0
 49 43  1  0  0  0
 26 21  1  0  0  0
 12 19  1  0  0  0
 15 20  1  0  0  0
  7  9  1  0  0  0
  2  4  1  0  0  0
 29 31  1  0  0  0
 38 41  1  0  0  0
 40 42  1  0  0  0
 48 51  1  0  0  0
M  END
> <minimizedAffinity>
-9.17023

> <CNNscore>
0.2526893914

> <CNNaffinity>
5.1753258705

> <CNN_VS>
1.3077499866

> <CNNaffinity_variance>
0.5664257407

$$$$
[H]O[C@]1([H])[C@@]([H])(C([H])([H])OP(=O)(O[H])OP(=O)(O[H])OP(=O)(O[H])OC([H])([H])[C@@]2([H])O[C@@]([H])(n3c([H])c([H])c(=O)n([H])c3=O)[C@]([H])(O[H])[C@]2([H])O[H])O[C@@]([H])(c2c([H])c([H])c([H])c([H])c2[H])[C@]1([H])O[H]


 51 54  0  0  0  0  0  0  0  0999 V2000
    4.1333  -51.2539  -22.5057 P   0  0  0  0  0  0  0  0  0  0  0  0
    3.7254  -49.6963  -22.9653 O   0  0  0  0  0  0  0  0  0  0  0  0
    3.7310  -51.5158  -21.0847 O   0  0  0  0  0  0  0  0  0  0  0  0
    3.3469  -49.6642  -23.8909 H   0  0  0  0  0  0  0  0  0  0  0  0
    5.8122  -51.4680  -22.7164 O   0  0  0  0  0  0  0  0  0  0  0  0
    6.5011  -49.9491  -22.2591 P   0  0  0  0  0  0  0  0  0  0  0  0
    6.2239  -48.9709  -23.6616 O   0  0  0  0  0  0  0  0  0  0  0  0
    7.9154  -49.9680  -21.9519 O   0  0  0  0  0  0  0  0  0  0  0  0
    5.2267  -49.1297  -23.8639 H   0  0  0  0  0  0  0  0  0  0  0  0
    5.5525  -49.3138  -21.0167 O   0  0  0  0  0  0  0  0  0  0  0  0
    6.1156  -48.0136  -20.7663 C   0  0  0  0  0  0  0  0  0  0  0  0
    4.8978  -45.3187  -19.1680 O   0  0  0  0  0  0  0  0  0  0  0  0
    4.7881  -46.6934  -19.1953 C   0  0  0  0  0  0  0  0  0  0  0  0
    3.4594  -47.1570  -18.7016 C   0  0  0  0  0  0  0  0  0  0  0  0
    2.8533  -46.0682  -18.0639 O   0  0  0  0  0  0  0  0  0  0  0  0
    2.7750  -47.5608  -19.9786 C   0  0  0  0  0  0  0  0  0  0  0  0
    3.7409  -47.8877  -20.9347 O   0  0  0  0  0  0  0  0  0  0  0  0
    4.8589  -47.2317  -20.5757 C   0  0  0  0  0  0  0  0  0  0  0  0
    5.2827  -45.0201  -20.0767 H   0  0  0  0  0  0  0  0  0  0  0  0
    3.5328  -45.4108  -17.7117 H   0  0  0  0  0  0  0  0  0  0  0  0
    1.9207  -48.7736  -19.8647 C   0  0  0  0  0  0  0  0  0  0  0  0
    1.0493  -49.1765  -20.8899 C   0  0  0  0  0  0  0  0  0  0  0  0
    0.2221  -50.2601  -20.7846 C   0  0  0  0  0  0  0  0  0  0  0  0
    0.2466  -50.9905  -19.6092 C   0  0  0  0  0  0  0  0  0  0  0  0
    1.1299  -50.5690  -18.5933 C   0  0  0  0  0  0  0  0  0  0  0  0
    1.9306  -49.4948  -18.7406 C   0  0  0  0  0  0  0  0  0  0  0  0
    3.4474  -52.4089  -23.5612 O   0  0  0  0  0  0  0  0  0  0  0  0
    3.5039  -51.7969  -25.1398 P   0  0  0  0  0  0  0  0  0  0  0  0
    4.7694  -50.8136  -25.4746 O   0  0  0  0  0  0  0  0  0  0  0  0
    2.1784  -50.8928  -25.2146 O   0  0  0  0  0  0  0  0  0  0  0  0
    4.6954  -49.9435  -24.9654 H   0  0  0  0  0  0  0  0  0  0  0  0
    3.2383  -53.0230  -26.2133 O   0  0  0  0  0  0  0  0  0  0  0  0
    2.5888  -52.4104  -27.3387 C   0  0  0  0  0  0  0  0  0  0  0  0
    1.4141  -53.3380  -27.6488 C   0  0  0  0  0  0  0  0  0  0  0  0
    1.2969  -54.1204  -26.4605 O   0  0  0  0  0  0  0  0  0  0  0  0
    0.0470  -54.0731  -26.0520 C   0  0  0  0  0  0  0  0  0  0  0  0
   -0.5117  -52.6840  -26.5785 C   0  0  0  0  0  0  0  0  0  0  0  0
   -1.8644  -52.6994  -26.6209 O   0  0  0  0  0  0  0  0  0  0  0  0
    0.1599  -52.6506  -27.9186 C   0  0  0  0  0  0  0  0  0  0  0  0
   -0.6247  -53.3714  -28.8718 O   0  0  0  0  0  0  0  0  0  0  0  0
   -2.2297  -53.4686  -27.0711 H   0  0  0  0  0  0  0  0  0  0  0  0
   -0.5325  -54.3495  -28.6598 H   0  0  0  0  0  0  0  0  0  0  0  0
   -0.2554  -54.1479  -24.6373 N   0  0  0  0  0  0  0  0  0  0  0  0
   -0.1312  -53.1981  -23.7917 C   0  0  0  0  0  0  0  0  0  0  0  0
   -0.6088  -53.2571  -22.4674 C   0  0  0  0  0  0  0  0  0  0  0  0
   -1.2640  -54.4183  -22.0923 C   0  0  0  0  0  0  0  0  0  0  0  0
   -1.7846  -54.5709  -20.9853 O   0  0  0  0  0  0  0  0  0  0  0  0
   -1.3512  -55.3625  -23.0079 N   0  0  0  0  0  0  0  0  0  0  0  0
   -0.8862  -55.3404  -24.2847 C   0  0  0  0  0  0  0  0  0  0  0  0
   -1.0233  -56.2879  -24.9897 O   0  0  0  0  0  0  0  0  0  0  0  0
   -1.9358  -56.2294  -22.7189 H   0  0  0  0  0  0  0  0  0  0  0  0
 12 13  1  0  0  0
 13 14  1  0  0  0
 14 15  1  0  0  0
 14 16  1  0  0  0
 16 17  1  0  0  0
 17 18  1  0  0  0
 18 11  1  0  0  0
 11 10  1  0  0  0
 10  6  1  0  0  0
  6  7  1  0  0  0
  6  8  2  0  0  0
  6  5  1  0  0  0
  5  1  1  0  0  0
  1  2  1  0  0  0
  1  3  2  0  0  0
  1 27  1  0  0  0
 27 28  1  0  0  0
 28 29  1  0  0  0
 28 30  2  0  0  0
 28 32  1  0  0  0
 32 33  1  0  0  0
 33 34  1  0  0  0
 34 35  1  0  0  0
 35 36  1  0  0  0
 36 37  1  0  0  0
 37 38  1  0  0  0
 37 39  1  0  0  0
 39 40  1  0  0  0
 36 43  1  0  0  0
 43 44  1  0  0  0
 44 45  2  0  0  0
 45 46  1  0  0  0
 46 47  2  0  0  0
 46 48  1  0  0  0
 48 49  1  0  0  0
 49 50  2  0  0  0
 16 21  1  0  0  0
 21 22  2  0  0  0
 22 23  1  0  0  0
 23 24  2  0  0  0
 24 25  1  0  0  0
 25 26  2  0  0  0
 18 13  1  0  0  0
 39 34  1  0  0  0
 49 43  1  0  0  0
 26 21  1  0  0  0
 12 19  1  0  0  0
 15 20  1  0  0  0
  7  9  1  0  0  0
  2  4  1  0  0  0
 29 31  1  0  0  0
 38 41  1  0  0  0
 40 42  1  0  0  0
 48 51  1  0  0  0
M  END
> <minimizedAffinity>
-8.74964

> <CNNscore>
0.1859298497

> <CNNaffinity>
5.1368598938

> <CNN_VS>
0.9550955892

> <CNNaffinity_variance>
0.5048001409

$$$$
[H]O[C@]1([H])[C@@]([H])(C([H])([H])OP(=O)(O[H])OP(=O)(O[H])OP(=O)(O[H])OC([H])([H])[C@@]2([H])O[C@@]([H])(n3c([H])c([H])c(=O)n([H])c3=O)[C@]([H])(O[H])[C@]2([H])O[H])O[C@@]([H])(c2c([H])c([H])c([H])c([H])c2[H])[C@]1([H])O[H]


 51 54  0  0  0  0  0  0  0  0999 V2000
    5.5344  -48.2943  -23.5222 P   0  0  0  0  0  0  0  0  0  0  0  0
    4.0346  -48.9277  -23.1313 O   0  0  0  0  0  0  0  0  0  0  0  0
    5.7320  -46.9517  -22.8835 O   0  0  0  0  0  0  0  0  0  0  0  0
    4.0816  -49.9055  -22.9245 H   0  0  0  0  0  0  0  0  0  0  0  0
    5.6621  -48.1898  -25.2198 O   0  0  0  0  0  0  0  0  0  0  0  0
    4.3406  -47.1782  -25.6899 P   0  0  0  0  0  0  0  0  0  0  0  0
    4.5936  -46.9936  -27.3936 O   0  0  0  0  0  0  0  0  0  0  0  0
    4.2931  -45.8750  -25.0620 O   0  0  0  0  0  0  0  0  0  0  0  0
    4.7394  -47.9612  -27.7145 H   0  0  0  0  0  0  0  0  0  0  0  0
    2.9222  -48.0704  -25.4936 O   0  0  0  0  0  0  0  0  0  0  0  0
    3.0226  -49.1210  -26.4717 C   0  0  0  0  0  0  0  0  0  0  0  0
    4.0265  -51.7486  -24.6309 O   0  0  0  0  0  0  0  0  0  0  0  0
    3.3713  -51.4469  -25.8066 C   0  0  0  0  0  0  0  0  0  0  0  0
    2.4374  -52.5337  -26.2197 C   0  0  0  0  0  0  0  0  0  0  0  0
    2.7528  -53.6621  -25.4538 O   0  0  0  0  0  0  0  0  0  0  0  0
    1.0974  -51.9380  -25.8858 C   0  0  0  0  0  0  0  0  0  0  0  0
    1.1977  -50.5438  -25.8982 O   0  0  0  0  0  0  0  0  0  0  0  0
    2.4921  -50.2604  -25.6671 C   0  0  0  0  0  0  0  0  0  0  0  0
    3.9678  -50.9191  -24.0214 H   0  0  0  0  0  0  0  0  0  0  0  0
    3.7139  -53.6534  -25.1469 H   0  0  0  0  0  0  0  0  0  0  0  0
    0.0200  -52.2548  -26.8619 C   0  0  0  0  0  0  0  0  0  0  0  0
    0.2934  -52.5964  -28.1965 C   0  0  0  0  0  0  0  0  0  0  0  0
   -0.6843  -52.8441  -29.1198 C   0  0  0  0  0  0  0  0  0  0  0  0
   -2.0048  -52.7506  -28.7158 C   0  0  0  0  0  0  0  0  0  0  0  0
   -2.2566  -52.4072  -27.3709 C   0  0  0  0  0  0  0  0  0  0  0  0
   -1.2610  -52.1736  -26.4929 C   0  0  0  0  0  0  0  0  0  0  0  0
    6.7902  -49.3699  -23.0923 O   0  0  0  0  0  0  0  0  0  0  0  0
    6.3592  -50.1542  -21.6539 P   0  0  0  0  0  0  0  0  0  0  0  0
    7.5859  -50.8745  -20.8435 O   0  0  0  0  0  0  0  0  0  0  0  0
    5.3890  -51.3261  -22.1690 O   0  0  0  0  0  0  0  0  0  0  0  0
    7.9439  -51.6665  -21.3596 H   0  0  0  0  0  0  0  0  0  0  0  0
    5.3859  -49.1644  -20.7599 O   0  0  0  0  0  0  0  0  0  0  0  0
    4.6414  -50.0394  -19.8976 C   0  0  0  0  0  0  0  0  0  0  0  0
    3.2359  -49.4391  -19.8713 C   0  0  0  0  0  0  0  0  0  0  0  0
    2.5368  -50.2087  -20.8495 O   0  0  0  0  0  0  0  0  0  0  0  0
    1.4285  -50.6652  -20.3064 C   0  0  0  0  0  0  0  0  0  0  0  0
    1.7415  -50.7814  -18.7547 C   0  0  0  0  0  0  0  0  0  0  0  0
    0.5941  -50.8067  -18.0375 O   0  0  0  0  0  0  0  0  0  0  0  0
    2.5631  -49.5388  -18.5846 C   0  0  0  0  0  0  0  0  0  0  0  0
    1.7048  -48.4166  -18.3667 O   0  0  0  0  0  0  0  0  0  0  0  0
   -0.0212  -50.1012  -18.2649 H   0  0  0  0  0  0  0  0  0  0  0  0
    1.2569  -48.2056  -19.2413 H   0  0  0  0  0  0  0  0  0  0  0  0
    0.8863  -51.9396  -20.7306 N   0  0  0  0  0  0  0  0  0  0  0  0
    0.7825  -52.9891  -20.0091 C   0  0  0  0  0  0  0  0  0  0  0  0
    0.0832  -54.1473  -20.4023 C   0  0  0  0  0  0  0  0  0  0  0  0
   -0.5342  -54.1121  -21.6416 C   0  0  0  0  0  0  0  0  0  0  0  0
   -1.2297  -55.0334  -22.0746 O   0  0  0  0  0  0  0  0  0  0  0  0
   -0.3822  -53.0043  -22.3395 N   0  0  0  0  0  0  0  0  0  0  0  0
    0.2993  -51.8804  -21.9940 C   0  0  0  0  0  0  0  0  0  0  0  0
    0.3653  -50.9632  -22.7476 O   0  0  0  0  0  0  0  0  0  0  0  0
   -0.9383  -52.9683  -23.2702 H   0  0  0  0  0  0  0  0  0  0  0  0
 12 13  1  0  0  0
 13 14  1  0  0  0
 14 15  1  0  0  0
 14 16  1  0  0  0
 16 17  1  0  0  0
 17 18  1  0  0  0
 18 11  1  0  0  0
 11 10  1  0  0  0
 10  6  1  0  0  0
  6  7  1  0  0  0
  6  8  2  0  0  0
  6  5  1  0  0  0
  5  1  1  0  0  0
  1  2  1  0  0  0
  1  3  2  0  0  0
  1 27  1  0  0  0
 27 28  1  0  0  0
 28 29  1  0  0  0
 28 30  2  0  0  0
 28 32  1  0  0  0
 32 33  1  0  0  0
 33 34  1  0  0  0
 34 35  1  0  0  0
 35 36  1  0  0  0
 36 37  1  0  0  0
 37 38  1  0  0  0
 37 39  1  0  0  0
 39 40  1  0  0  0
 36 43  1  0  0  0
 43 44  1  0  0  0
 44 45  2  0  0  0
 45 46  1  0  0  0
 46 47  2  0  0  0
 46 48  1  0  0  0
 48 49  1  0  0  0
 49 50  2  0  0  0
 16 21  1  0  0  0
 21 22  2  0  0  0
 22 23  1  0  0  0
 23 24  2  0  0  0
 24 25  1  0  0  0
 25 26  2  0  0  0
 18 13  1  0  0  0
 39 34  1  0  0  0
 49 43  1  0  0  0
 26 21  1  0  0  0
 12 19  1  0  0  0
 15 20  1  0  0  0
  7  9  1  0  0  0
  2  4  1  0  0  0
 29 31  1  0  0  0
 38 41  1  0  0  0
 40 42  1  0  0  0
 48 51  1  0  0  0
M  END
> <minimizedAffinity>
-7.61202

> <CNNscore>
0.1789325774

> <CNNaffinity>
5.1970863342

> <CNN_VS>
0.9299280643

> <CNNaffinity_variance>
0.6520625353

$$$$
[H]O[C@]1([H])[C@@]([H])(C([H])([H])OP(=O)(O[H])OP(=O)(O[H])OP(=O)(O[H])OC([H])([H])[C@@]2([H])O[C@@]([H])(n3c([H])c([H])c(=O)n([H])c3=O)[C@]([H])(O[H])[C@]2([H])O[H])O[C@@]([H])(c2c([H])c([H])c([H])c([H])c2[H])[C@]1([H])O[H]


 51 54  0  0  0  0  0  0  0  0999 V2000
    3.5580  -48.8448  -22.6889 P   0  0  0  0  0  0  0  0  0  0  0  0
    5.2301  -48.7718  -22.7391 O   0  0  0  0  0  0  0  0  0  0  0  0
    2.9905  -47.6495  -21.9827 O   0  0  0  0  0  0  0  0  0  0  0  0
    5.5924  -49.0547  -23.6278 H   0  0  0  0  0  0  0  0  0  0  0  0
    3.0935  -50.2916  -21.9142 O   0  0  0  0  0  0  0  0  0  0  0  0
    4.3269  -50.5630  -20.7327 P   0  0  0  0  0  0  0  0  0  0  0  0
    4.5636  -48.9828  -20.0638 O   0  0  0  0  0  0  0  0  0  0  0  0
    5.5840  -51.0682  -21.2419 O   0  0  0  0  0  0  0  0  0  0  0  0
    3.6045  -48.6713  -19.8550 H   0  0  0  0  0  0  0  0  0  0  0  0
    3.6617  -51.5221  -19.5143 O   0  0  0  0  0  0  0  0  0  0  0  0
    2.2408  -51.3467  -19.6570 C   0  0  0  0  0  0  0  0  0  0  0  0
    3.8032  -49.8024  -17.1126 O   0  0  0  0  0  0  0  0  0  0  0  0
    2.8348  -50.7524  -17.3619 C   0  0  0  0  0  0  0  0  0  0  0  0
    1.8568  -50.8598  -16.2412 C   0  0  0  0  0  0  0  0  0  0  0  0
    2.4099  -50.1875  -15.1450 O   0  0  0  0  0  0  0  0  0  0  0  0
    0.6468  -50.1757  -16.8157 C   0  0  0  0  0  0  0  0  0  0  0  0
    0.6960  -50.2486  -18.2108 O   0  0  0  0  0  0  0  0  0  0  0  0
    1.9937  -50.3985  -18.5314 C   0  0  0  0  0  0  0  0  0  0  0  0
    3.8924  -49.2207  -17.9592 H   0  0  0  0  0  0  0  0  0  0  0  0
    3.4178  -50.1644  -15.1857 H   0  0  0  0  0  0  0  0  0  0  0  0
   -0.6511  -50.8007  -16.4434 C   0  0  0  0  0  0  0  0  0  0  0  0
   -1.0935  -52.0066  -17.0115 C   0  0  0  0  0  0  0  0  0  0  0  0
   -2.3035  -52.5714  -16.7177 C   0  0  0  0  0  0  0  0  0  0  0  0
   -3.1293  -51.9190  -15.8187 C   0  0  0  0  0  0  0  0  0  0  0  0
   -2.6649  -50.7101  -15.2594 C   0  0  0  0  0  0  0  0  0  0  0  0
   -1.4623  -50.1899  -15.5759 C   0  0  0  0  0  0  0  0  0  0  0  0
    2.8993  -49.0018  -24.2574 O   0  0  0  0  0  0  0  0  0  0  0  0
    3.5646  -50.3789  -24.9859 P   0  0  0  0  0  0  0  0  0  0  0  0
    4.8839  -51.0056  -24.2463 O   0  0  0  0  0  0  0  0  0  0  0  0
    4.0499  -49.8228  -26.4125 O   0  0  0  0  0  0  0  0  0  0  0  0
    5.6744  -50.3807  -24.3273 H   0  0  0  0  0  0  0  0  0  0  0  0
    2.3582  -51.4494  -25.3396 O   0  0  0  0  0  0  0  0  0  0  0  0
    2.2443  -51.4360  -26.7715 C   0  0  0  0  0  0  0  0  0  0  0  0
    1.3688  -52.6470  -27.0929 C   0  0  0  0  0  0  0  0  0  0  0  0
    1.3810  -53.3882  -25.8729 O   0  0  0  0  0  0  0  0  0  0  0  0
    0.1374  -53.6512  -25.5326 C   0  0  0  0  0  0  0  0  0  0  0  0
   -0.7242  -52.4747  -26.1594 C   0  0  0  0  0  0  0  0  0  0  0  0
   -2.0222  -52.8415  -26.2708 O   0  0  0  0  0  0  0  0  0  0  0  0
    0.0000  -52.3185  -27.4629 C   0  0  0  0  0  0  0  0  0  0  0  0
   -0.5114  -53.2529  -28.4163 O   0  0  0  0  0  0  0  0  0  0  0  0
   -2.1487  -53.6953  -26.6984 H   0  0  0  0  0  0  0  0  0  0  0  0
   -0.1852  -54.1651  -28.1489 H   0  0  0  0  0  0  0  0  0  0  0  0
   -0.2249  -53.7489  -24.1336 N   0  0  0  0  0  0  0  0  0  0  0  0
   -0.1136  -52.8208  -23.2625 C   0  0  0  0  0  0  0  0  0  0  0  0
   -0.6469  -52.8967  -21.9605 C   0  0  0  0  0  0  0  0  0  0  0  0
   -1.3439  -54.0494  -21.6386 C   0  0  0  0  0  0  0  0  0  0  0  0
   -1.9133  -54.2131  -20.5574 O   0  0  0  0  0  0  0  0  0  0  0  0
   -1.4152  -54.9713  -22.5779 N   0  0  0  0  0  0  0  0  0  0  0  0
   -0.8973  -54.9331  -23.8339 C   0  0  0  0  0  0  0  0  0  0  0  0
   -1.0272  -55.8617  -24.5649 O   0  0  0  0  0  0  0  0  0  0  0  0
   -2.0313  -55.8299  -22.3325 H   0  0  0  0  0  0  0  0  0  0  0  0
 12 13  1  0  0  0
 13 14  1  0  0  0
 14 15  1  0  0  0
 14 16  1  0  0  0
 16 17  1  0  0  0
 17 18  1  0  0  0
 18 11  1  0  0  0
 11 10  1  0  0  0
 10  6  1  0  0  0
  6  7  1  0  0  0
  6  8  2  0  0  0
  6  5  1  0  0  0
  5  1  1  0  0  0
  1  2  1  0  0  0
  1  3  2  0  0  0
  1 27  1  0  0  0
 27 28  1  0  0  0
 28 29  1  0  0  0
 28 30  2  0  0  0
 28 32  1  0  0  0
 32 33  1  0  0  0
 33 34  1  0  0  0
 34 35  1  0  0  0
 35 36  1  0  0  0
 36 37  1  0  0  0
 37 38  1  0  0  0
 37 39  1  0  0  0
 39 40  1  0  0  0
 36 43  1  0  0  0
 43 44  1  0  0  0
 44 45  2  0  0  0
 45 46  1  0  0  0
 46 47  2  0  0  0
 46 48  1  0  0  0
 48 49  1  0  0  0
 49 50  2  0  0  0
 16 21  1  0  0  0
 21 22  2  0  0  0
 22 23  1  0  0  0
 23 24  2  0  0  0
 24 25  1  0  0  0
 25 26  2  0  0  0
 18 13  1  0  0  0
 39 34  1  0  0  0
 49 43  1  0  0  0
 26 21  1  0  0  0
 12 19  1  0  0  0
 15 20  1  0  0  0
  7  9  1  0  0  0
  2  4  1  0  0  0
 29 31  1  0  0  0
 38 41  1  0  0  0
 40 42  1  0  0  0
 48 51  1  0  0  0
M  END
> <minimizedAffinity>
-8.41342

> <CNNscore>
0.1132286042

> <CNNaffinity>
5.0257577896

> <CNN_VS>
0.5690595508

> <CNNaffinity_variance>
0.4807522893

$$$$
[H]O[C@]1([H])[C@@]([H])(C([H])([H])OP(=O)(O[H])OP(=O)(O[H])OP(=O)(O[H])OC([H])([H])[C@@]2([H])O[C@@]([H])(n3c([H])c([H])c(=O)n([H])c3=O)[C@]([H])(O[H])[C@]2([H])O[H])O[C@@]([H])(c2c([H])c([H])c([H])c([H])c2[H])[C@]1([H])O[H]


 51 54  0  0  0  0  0  0  0  0999 V2000
    2.4660  -52.3794  -26.9536 P   0  0  0  0  0  0  0  0  0  0  0  0
    2.8949  -52.9124  -25.4253 O   0  0  0  0  0  0  0  0  0  0  0  0
    2.9799  -53.3118  -28.0100 O   0  0  0  0  0  0  0  0  0  0  0  0
    2.1468  -52.8126  -24.7685 H   0  0  0  0  0  0  0  0  0  0  0  0
    3.0771  -50.8029  -27.1781 O   0  0  0  0  0  0  0  0  0  0  0  0
    3.3009  -50.1951  -25.5746 P   0  0  0  0  0  0  0  0  0  0  0  0
    4.7157  -51.0419  -25.0437 O   0  0  0  0  0  0  0  0  0  0  0  0
    2.2129  -50.4409  -24.6522 O   0  0  0  0  0  0  0  0  0  0  0  0
    5.3750  -50.9074  -25.8232 H   0  0  0  0  0  0  0  0  0  0  0  0
    3.7180  -48.5652  -25.7021 O   0  0  0  0  0  0  0  0  0  0  0  0
    4.2454  -48.2288  -24.4064 C   0  0  0  0  0  0  0  0  0  0  0  0
    3.1415  -45.4910  -22.7982 O   0  0  0  0  0  0  0  0  0  0  0  0
    2.9478  -46.2059  -23.9618 C   0  0  0  0  0  0  0  0  0  0  0  0
    2.4223  -45.3481  -25.0628 C   0  0  0  0  0  0  0  0  0  0  0  0
    1.9875  -44.1512  -24.4817 O   0  0  0  0  0  0  0  0  0  0  0  0
    3.6351  -45.1842  -25.9371 C   0  0  0  0  0  0  0  0  0  0  0  0
    4.4981  -46.2650  -25.7343 O   0  0  0  0  0  0  0  0  0  0  0  0
    4.2196  -46.7401  -24.5071 C   0  0  0  0  0  0  0  0  0  0  0  0
    4.0756  -45.7348  -22.4362 H   0  0  0  0  0  0  0  0  0  0  0  0
    1.7282  -44.2735  -23.5144 H   0  0  0  0  0  0  0  0  0  0  0  0
    3.3492  -45.1891  -27.3973 C   0  0  0  0  0  0  0  0  0  0  0  0
    2.1720  -45.7399  -27.9295 C   0  0  0  0  0  0  0  0  0  0  0  0
    1.9134  -45.7964  -29.2709 C   0  0  0  0  0  0  0  0  0  0  0  0
    2.8607  -45.2871  -30.1421 C   0  0  0  0  0  0  0  0  0  0  0  0
    4.0351  -44.7377  -29.5861 C   0  0  0  0  0  0  0  0  0  0  0  0
    4.2480  -44.7002  -28.2557 C   0  0  0  0  0  0  0  0  0  0  0  0
    0.7749  -52.1750  -27.0844 O   0  0  0  0  0  0  0  0  0  0  0  0
    0.0212  -53.1797  -25.9476 P   0  0  0  0  0  0  0  0  0  0  0  0
    0.4352  -54.7623  -26.0145 O   0  0  0  0  0  0  0  0  0  0  0  0
   -1.5269  -53.0847  -26.3654 O   0  0  0  0  0  0  0  0  0  0  0  0
    0.0910  -55.1901  -26.8632 H   0  0  0  0  0  0  0  0  0  0  0  0
    0.0987  -52.4753  -24.4563 O   0  0  0  0  0  0  0  0  0  0  0  0
   -0.7357  -53.2821  -23.6098 C   0  0  0  0  0  0  0  0  0  0  0  0
    0.1648  -53.6501  -22.4307 C   0  0  0  0  0  0  0  0  0  0  0  0
    1.2017  -52.6712  -22.4974 O   0  0  0  0  0  0  0  0  0  0  0  0
    1.3219  -52.1101  -21.3132 C   0  0  0  0  0  0  0  0  0  0  0  0
   -0.1152  -52.2253  -20.6493 C   0  0  0  0  0  0  0  0  0  0  0  0
   -0.0304  -52.1009  -19.3043 O   0  0  0  0  0  0  0  0  0  0  0  0
   -0.4909  -53.5940  -21.1326 C   0  0  0  0  0  0  0  0  0  0  0  0
    0.0398  -54.5830  -20.2472 O   0  0  0  0  0  0  0  0  0  0  0  0
    0.6368  -52.6684  -18.9035 H   0  0  0  0  0  0  0  0  0  0  0  0
    1.0333  -54.6175  -20.3949 H   0  0  0  0  0  0  0  0  0  0  0  0
    1.7330  -50.7253  -21.2068 N   0  0  0  0  0  0  0  0  0  0  0  0
    1.0386  -49.7077  -21.5459 C   0  0  0  0  0  0  0  0  0  0  0  0
    1.4004  -48.3772  -21.2559 C   0  0  0  0  0  0  0  0  0  0  0  0
    2.5739  -48.1913  -20.5441 C   0  0  0  0  0  0  0  0  0  0  0  0
    2.9681  -47.0842  -20.1715 O   0  0  0  0  0  0  0  0  0  0  0  0
    3.2475  -49.2805  -20.2322 N   0  0  0  0  0  0  0  0  0  0  0  0
    2.9326  -50.5725  -20.5127 C   0  0  0  0  0  0  0  0  0  0  0  0
    3.6596  -51.4528  -20.1810 O   0  0  0  0  0  0  0  0  0  0  0  0
    4.1197  -49.1177  -19.6080 H   0  0  0  0  0  0  0  0  0  0  0  0
 12 13  1  0  0  0
 13 14  1  0  0  0
 14 15  1  0  0  0
 14 16  1  0  0  0
 16 17  1  0  0  0
 17 18  1  0  0  0
 18 11  1  0  0  0
 11 10  1  0  0  0
 10  6  1  0  0  0
  6  7  1  0  0  0
  6  8  2  0  0  0
  6  5  1  0  0  0
  5  1  1  0  0  0
  1  2  1  0  0  0
  1  3  2  0  0  0
  1 27  1  0  0  0
 27 28  1  0  0  0
 28 29  1  0  0  0
 28 30  2  0  0  0
 28 32  1  0  0  0
 32 33  1  0  0  0
 33 34  1  0  0  0
 34 35  1  0  0  0
 35 36  1  0  0  0
 36 37  1  0  0  0
 37 38  1  0  0  0
 37 39  1  0  0  0
 39 40  1  0  0  0
 36 43  1  0  0  0
 43 44  1  0  0  0
 44 45  2  0  0  0
 45 46  1  0  0  0
 46 47  2  0  0  0
 46 48  1  0  0  0
 48 49  1  0  0  0
 49 50  2  0  0  0
 16 21  1  0  0  0
 21 22  2  0  0  0
 22 23  1  0  0  0
 23 24  2  0  0  0
 24 25  1  0  0  0
 25 26  2  0  0  0
 18 13  1  0  0  0
 39 34  1  0  0  0
 49 43  1  0  0  0
 26 21  1  0  0  0
 12 19  1  0  0  0
 15 20  1  0  0  0
  7  9  1  0  0  0
  2  4  1  0  0  0
 29 31  1  0  0  0
 38 41  1  0  0  0
 40 42  1  0  0  0
 48 51  1  0  0  0
M  END
> <minimizedAffinity>
-8.56358

> <CNNscore>
0.1057917997

> <CNNaffinity>
4.4465608597

> <CNN_VS>
0.4704096615

> <CNNaffinity_variance>
1.3190816641

$$$$
[H]O[C@]1([H])[C@@]([H])(C([H])([H])OP(=O)(O[H])OP(=O)(O[H])OP(=O)(O[H])OC([H])([H])[C@@]2([H])O[C@@]([H])(n3c([H])c([H])c(=O)n([H])c3=O)[C@]([H])(O[H])[C@]2([H])O[H])O[C@@]([H])(c2c([H])c([H])c([H])c([H])c2[H])[C@]1([H])O[H]


 51 54  0  0  0  0  0  0  0  0999 V2000
    2.5045  -49.5318  -17.7845 P   0  0  0  0  0  0  0  0  0  0  0  0
    3.7086  -49.2633  -16.6525 O   0  0  0  0  0  0  0  0  0  0  0  0
    1.1518  -49.2354  -17.2083 O   0  0  0  0  0  0  0  0  0  0  0  0
    4.5048  -48.8070  -17.0513 H   0  0  0  0  0  0  0  0  0  0  0  0
    2.6019  -51.1488  -18.3185 O   0  0  0  0  0  0  0  0  0  0  0  0
    1.0079  -51.5134  -18.8816 P   0  0  0  0  0  0  0  0  0  0  0  0
    0.6133  -50.1177  -19.8286 O   0  0  0  0  0  0  0  0  0  0  0  0
    0.0065  -51.7018  -17.8536 O   0  0  0  0  0  0  0  0  0  0  0  0
    1.4403  -50.0028  -20.4314 H   0  0  0  0  0  0  0  0  0  0  0  0
    1.1304  -52.8162  -19.9467 O   0  0  0  0  0  0  0  0  0  0  0  0
    1.1318  -52.2114  -21.2523 C   0  0  0  0  0  0  0  0  0  0  0  0
   -1.3328  -54.3880  -20.5532 O   0  0  0  0  0  0  0  0  0  0  0  0
   -0.3729  -54.1206  -21.5069 C   0  0  0  0  0  0  0  0  0  0  0  0
   -0.7557  -54.6496  -22.8477 C   0  0  0  0  0  0  0  0  0  0  0  0
   -1.8245  -55.5323  -22.6531 O   0  0  0  0  0  0  0  0  0  0  0  0
   -1.1409  -53.3941  -23.5807 C   0  0  0  0  0  0  0  0  0  0  0  0
   -0.4848  -52.3038  -23.0021 O   0  0  0  0  0  0  0  0  0  0  0  0
   -0.2049  -52.6648  -21.7370 C   0  0  0  0  0  0  0  0  0  0  0  0
   -1.5015  -53.5158  -20.0299 H   0  0  0  0  0  0  0  0  0  0  0  0
   -1.8217  -55.9301  -21.7259 H   0  0  0  0  0  0  0  0  0  0  0  0
   -0.7404  -53.3678  -25.0135 C   0  0  0  0  0  0  0  0  0  0  0  0
   -0.0457  -54.4282  -25.6179 C   0  0  0  0  0  0  0  0  0  0  0  0
    0.3723  -54.4021  -26.9196 C   0  0  0  0  0  0  0  0  0  0  0  0
    0.0972  -53.2740  -27.6728 C   0  0  0  0  0  0  0  0  0  0  0  0
   -0.6024  -52.2214  -27.0462 C   0  0  0  0  0  0  0  0  0  0  0  0
   -0.9983  -52.2905  -25.7596 C   0  0  0  0  0  0  0  0  0  0  0  0
    2.7792  -48.6243  -19.2057 O   0  0  0  0  0  0  0  0  0  0  0  0
    4.2297  -49.1475  -19.9072 P   0  0  0  0  0  0  0  0  0  0  0  0
    5.3935  -49.6238  -18.8588 O   0  0  0  0  0  0  0  0  0  0  0  0
    4.7697  -47.8193  -20.6313 O   0  0  0  0  0  0  0  0  0  0  0  0
    5.7439  -48.8388  -18.3270 H   0  0  0  0  0  0  0  0  0  0  0  0
    3.8965  -50.1935  -21.1405 O   0  0  0  0  0  0  0  0  0  0  0  0
    5.0883  -50.9779  -21.3075 C   0  0  0  0  0  0  0  0  0  0  0  0
    5.0163  -51.4729  -22.7519 C   0  0  0  0  0  0  0  0  0  0  0  0
    3.9327  -50.7211  -23.2981 O   0  0  0  0  0  0  0  0  0  0  0  0
    4.3403  -50.1515  -24.4121 C   0  0  0  0  0  0  0  0  0  0  0  0
    5.9052  -49.9562  -24.2323 C   0  0  0  0  0  0  0  0  0  0  0  0
    6.5075  -49.8015  -25.4344 O   0  0  0  0  0  0  0  0  0  0  0  0
    6.2253  -51.2406  -23.5283 C   0  0  0  0  0  0  0  0  0  0  0  0
    6.4264  -52.2817  -24.4872 O   0  0  0  0  0  0  0  0  0  0  0  0
    6.2646  -50.4744  -26.0795 H   0  0  0  0  0  0  0  0  0  0  0  0
    5.5272  -52.5170  -24.8693 H   0  0  0  0  0  0  0  0  0  0  0  0
    3.7923  -48.8721  -24.8134 N   0  0  0  0  0  0  0  0  0  0  0  0
    3.7805  -47.8061  -24.1091 C   0  0  0  0  0  0  0  0  0  0  0  0
    3.4062  -46.5411  -24.6040 C   0  0  0  0  0  0  0  0  0  0  0  0
    3.0522  -46.4748  -25.9413 C   0  0  0  0  0  0  0  0  0  0  0  0
    2.7678  -45.4195  -26.5117 O   0  0  0  0  0  0  0  0  0  0  0  0
    3.0771  -47.6104  -26.6099 N   0  0  0  0  0  0  0  0  0  0  0  0
    3.4165  -48.8456  -26.1559 C   0  0  0  0  0  0  0  0  0  0  0  0
    3.3672  -49.7860  -26.8816 O   0  0  0  0  0  0  0  0  0  0  0  0
    2.8734  -47.5223  -27.6718 H   0  0  0  0  0  0  0  0  0  0  0  0
 12 13  1  0  0  0
 13 14  1  0  0  0
 14 15  1  0  0  0
 14 16  1  0  0  0
 16 17  1  0  0  0
 17 18  1  0  0  0
 18 11  1  0  0  0
 11 10  1  0  0  0
 10  6  1  0  0  0
  6  7  1  0  0  0
  6  8  2  0  0  0
  6  5  1  0  0  0
  5  1  1  0  0  0
  1  2  1  0  0  0
  1  3  2  0  0  0
  1 27  1  0  0  0
 27 28  1  0  0  0
 28 29  1  0  0  0
 28 30  2  0  0  0
 28 32  1  0  0  0
 32 33  1  0  0  0
 33 34  1  0  0  0
 34 35  1  0  0  0
 35 36  1  0  0  0
 36 37  1  0  0  0
 37 38  1  0  0  0
 37 39  1  0  0  0
 39 40  1  0  0  0
 36 43  1  0  0  0
 43 44  1  0  0  0
 44 45  2  0  0  0
 45 46  1  0  0  0
 46 47  2  0  0  0
 46 48  1  0  0  0
 48 49  1  0  0  0
 49 50  2  0  0  0
 16 21  1  0  0  0
 21 22  2  0  0  0
 22 23  1  0  0  0
 23 24  2  0  0  0
 24 25  1  0  0  0
 25 26  2  0  0  0
 18 13  1  0  0  0
 39 34  1  0  0  0
 49 43  1  0  0  0
 26 21  1  0  0  0
 12 19  1  0  0  0
 15 20  1  0  0  0
  7  9  1  0  0  0
  2  4  1  0  0  0
 29 31  1  0  0  0
 38 41  1  0  0  0
 40 42  1  0  0  0
 48 51  1  0  0  0
M  END
> <minimizedAffinity>
-8.48062

> <CNNscore>
0.0805387944

> <CNNaffinity>
4.7272429466

> <CNN_VS>
0.3807264566

> <CNNaffinity_variance>
1.0530188084

$$$$
[H]O[C@]1([H])[C@@]([H])(C([H])([H])OP(=O)(O[H])OP(=O)(O[H])OP(=O)(O[H])OC([H])([H])[C@@]2([H])O[C@@]([H])(n3c([H])c([H])c(=O)n([H])c3=O)[C@]([H])(O[H])[C@]2([H])O[H])O[C@@]([H])(c2c([H])c([H])c([H])c([H])c2[H])[C@]1([H])O[H]


 51 54  0  0  0  0  0  0  0  0999 V2000
    3.1184  -48.6266  -19.9386 P   0  0  0  0  0  0  0  0  0  0  0  0
    4.5734  -49.3070  -19.4658 O   0  0  0  0  0  0  0  0  0  0  0  0
    2.7972  -47.4189  -19.1091 O   0  0  0  0  0  0  0  0  0  0  0  0
    5.1274  -49.5919  -20.2488 H   0  0  0  0  0  0  0  0  0  0  0  0
    1.8916  -49.8041  -19.8068 O   0  0  0  0  0  0  0  0  0  0  0  0
    2.7277  -51.3130  -19.9297 P   0  0  0  0  0  0  0  0  0  0  0  0
    3.4391  -51.4797  -18.3591 O   0  0  0  0  0  0  0  0  0  0  0  0
    3.7616  -51.3776  -20.9405 O   0  0  0  0  0  0  0  0  0  0  0  0
    2.6503  -51.2919  -17.7241 H   0  0  0  0  0  0  0  0  0  0  0  0
    1.5660  -52.5275  -20.0786 O   0  0  0  0  0  0  0  0  0  0  0  0
    0.3628  -51.9373  -19.5547 C   0  0  0  0  0  0  0  0  0  0  0  0
   -1.8721  -54.3635  -20.2020 O   0  0  0  0  0  0  0  0  0  0  0  0
   -0.6607  -53.8723  -20.6420 C   0  0  0  0  0  0  0  0  0  0  0  0
   -0.4190  -54.1887  -22.0792 C   0  0  0  0  0  0  0  0  0  0  0  0
   -1.3540  -55.1621  -22.4503 O   0  0  0  0  0  0  0  0  0  0  0  0
   -0.6491  -52.8552  -22.7357 C   0  0  0  0  0  0  0  0  0  0  0  0
   -0.4185  -51.8382  -21.8049 O   0  0  0  0  0  0  0  0  0  0  0  0
   -0.6083  -52.3907  -20.5933 C   0  0  0  0  0  0  0  0  0  0  0  0
   -2.3436  -53.6073  -19.6834 H   0  0  0  0  0  0  0  0  0  0  0  0
   -1.6602  -55.7116  -21.6614 H   0  0  0  0  0  0  0  0  0  0  0  0
    0.2700  -52.5569  -23.8670 C   0  0  0  0  0  0  0  0  0  0  0  0
    1.6513  -52.8011  -23.7960 C   0  0  0  0  0  0  0  0  0  0  0  0
    2.5182  -52.4897  -24.8065 C   0  0  0  0  0  0  0  0  0  0  0  0
    2.0057  -51.9043  -25.9512 C   0  0  0  0  0  0  0  0  0  0  0  0
    0.6157  -51.6690  -26.0018 C   0  0  0  0  0  0  0  0  0  0  0  0
   -0.2034  -51.9946  -24.9821 C   0  0  0  0  0  0  0  0  0  0  0  0
    3.1277  -48.2435  -21.6035 O   0  0  0  0  0  0  0  0  0  0  0  0
    4.5970  -47.4860  -21.9739 P   0  0  0  0  0  0  0  0  0  0  0  0
    5.3226  -46.7005  -20.7342 O   0  0  0  0  0  0  0  0  0  0  0  0
    4.1577  -46.3683  -23.0406 O   0  0  0  0  0  0  0  0  0  0  0  0
    4.7866  -45.8894  -20.4573 H   0  0  0  0  0  0  0  0  0  0  0  0
    5.5523  -48.5288  -22.8261 O   0  0  0  0  0  0  0  0  0  0  0  0
    4.6434  -49.3739  -23.5495 C   0  0  0  0  0  0  0  0  0  0  0  0
    5.3603  -49.6587  -24.8691 C   0  0  0  0  0  0  0  0  0  0  0  0
    4.3400  -49.4454  -25.8445 O   0  0  0  0  0  0  0  0  0  0  0  0
    4.8018  -48.6163  -26.7561 C   0  0  0  0  0  0  0  0  0  0  0  0
    5.8830  -47.7301  -26.0046 C   0  0  0  0  0  0  0  0  0  0  0  0
    6.7320  -47.1602  -26.8912 O   0  0  0  0  0  0  0  0  0  0  0  0
    6.4956  -48.7883  -25.1369 C   0  0  0  0  0  0  0  0  0  0  0  0
    7.5128  -49.4817  -25.8637 O   0  0  0  0  0  0  0  0  0  0  0  0
    7.1029  -47.7812  -27.5274 H   0  0  0  0  0  0  0  0  0  0  0  0
    7.0542  -50.0635  -26.5429 H   0  0  0  0  0  0  0  0  0  0  0  0
    3.8985  -47.7080  -27.4322 N   0  0  0  0  0  0  0  0  0  0  0  0
    3.1672  -46.8217  -26.8733 C   0  0  0  0  0  0  0  0  0  0  0  0
    2.4449  -45.8393  -27.5792 C   0  0  0  0  0  0  0  0  0  0  0  0
    2.5675  -45.8464  -28.9588 C   0  0  0  0  0  0  0  0  0  0  0  0
    2.0403  -45.0025  -29.6867 O   0  0  0  0  0  0  0  0  0  0  0  0
    3.3295  -46.7908  -29.4733 N   0  0  0  0  0  0  0  0  0  0  0  0
    4.0230  -47.7600  -28.8201 C   0  0  0  0  0  0  0  0  0  0  0  0
    4.6536  -48.5617  -29.4308 O   0  0  0  0  0  0  0  0  0  0  0  0
    3.4746  -46.7294  -30.5467 H   0  0  0  0  0  0  0  0  0  0  0  0
 12 13  1  0  0  0
 13 14  1  0  0  0
 14 15  1  0  0  0
 14 16  1  0  0  0
 16 17  1  0  0  0
 17 18  1  0  0  0
 18 11  1  0  0  0
 11 10  1  0  0  0
 10  6  1  0  0  0
  6  7  1  0  0  0
  6  8  2  0  0  0
  6  5  1  0  0  0
  5  1  1  0  0  0
  1  2  1  0  0  0
  1  3  2  0  0  0
  1 27  1  0  0  0
 27 28  1  0  0  0
 28 29  1  0  0  0
 28 30  2  0  0  0
 28 32  1  0  0  0
 32 33  1  0  0  0
 33 34  1  0  0  0
 34 35  1  0  0  0
 35 36  1  0  0  0
 36 37  1  0  0  0
 37 38  1  0  0  0
 37 39  1  0  0  0
 39 40  1  0  0  0
 36 43  1  0  0  0
 43 44  1  0  0  0
 44 45  2  0  0  0
 45 46  1  0  0  0
 46 47  2  0  0  0
 46 48  1  0  0  0
 48 49  1  0  0  0
 49 50  2  0  0  0
 16 21  1  0  0  0
 21 22  2  0  0  0
 22 23  1  0  0  0
 23 24  2  0  0  0
 24 25  1  0  0  0
 25 26  2  0  0  0
 18 13  1  0  0  0
 39 34  1  0  0  0
 49 43  1  0  0  0
 26 21  1  0  0  0
 12 19  1  0  0  0
 15 20  1  0  0  0
  7  9  1  0  0  0
  2  4  1  0  0  0
 29 31  1  0  0  0
 38 41  1  0  0  0
 40 42  1  0  0  0
 48 51  1  0  0  0
M  END
> <minimizedAffinity>
-7.73439

> <CNNscore>
0.0764107630

> <CNNaffinity>
4.6026349068

> <CNN_VS>
0.3516908586

> <CNNaffinity_variance>
0.8819960356

$$$$
[H]O[C@]1([H])[C@@]([H])(C([H])([H])OP(=O)(O[H])OP(=O)(O[H])OP(=O)(O[H])OC([H])([H])[C@@]2([H])O[C@@]([H])(n3c([H])c([H])c(=O)n([H])c3=O)[C@]([H])(O[H])[C@]2([H])O[H])O[C@@]([H])(c2c([H])c([H])c([H])c([H])c2[H])[C@]1([H])O[H]


 51 54  0  0  0  0  0  0  0  0999 V2000
    1.3919  -51.9603  -19.9302 P   0  0  0  0  0  0  0  0  0  0  0  0
    0.3501  -50.9753  -19.0653 O   0  0  0  0  0  0  0  0  0  0  0  0
    2.7058  -52.1039  -19.2213 O   0  0  0  0  0  0  0  0  0  0  0  0
   -0.5847  -51.3318  -19.0572 H   0  0  0  0  0  0  0  0  0  0  0  0
    1.6056  -51.3011  -21.4887 O   0  0  0  0  0  0  0  0  0  0  0  0
    2.4961  -49.8429  -21.2215 P   0  0  0  0  0  0  0  0  0  0  0  0
    4.0968  -50.4288  -20.9130 O   0  0  0  0  0  0  0  0  0  0  0  0
    2.0529  -49.0315  -20.1078 O   0  0  0  0  0  0  0  0  0  0  0  0
    4.2589  -51.0856  -21.6894 H   0  0  0  0  0  0  0  0  0  0  0  0
    2.5491  -49.0040  -22.6844 O   0  0  0  0  0  0  0  0  0  0  0  0
    2.2594  -47.6410  -22.3255 C   0  0  0  0  0  0  0  0  0  0  0  0
    4.3098  -45.0221  -21.8388 O   0  0  0  0  0  0  0  0  0  0  0  0
    3.3707  -45.5017  -22.7279 C   0  0  0  0  0  0  0  0  0  0  0  0
    3.5833  -44.9702  -24.1050 C   0  0  0  0  0  0  0  0  0  0  0  0
    4.4786  -43.8993  -24.0003 O   0  0  0  0  0  0  0  0  0  0  0  0
    4.1579  -46.1647  -24.8157 C   0  0  0  0  0  0  0  0  0  0  0  0
    3.7439  -47.3305  -24.1649 O   0  0  0  0  0  0  0  0  0  0  0  0
    3.4639  -46.9722  -22.8990 C   0  0  0  0  0  0  0  0  0  0  0  0
    4.6623  -45.8251  -21.2966 H   0  0  0  0  0  0  0  0  0  0  0  0
    4.4473  -43.4689  -23.0883 H   0  0  0  0  0  0  0  0  0  0  0  0
    3.6999  -46.3260  -26.2221 C   0  0  0  0  0  0  0  0  0  0  0  0
    4.4045  -47.1029  -27.1562 C   0  0  0  0  0  0  0  0  0  0  0  0
    4.0257  -47.2245  -28.4644 C   0  0  0  0  0  0  0  0  0  0  0  0
    2.8945  -46.5461  -28.8839 C   0  0  0  0  0  0  0  0  0  0  0  0
    2.2016  -45.7726  -27.9292 C   0  0  0  0  0  0  0  0  0  0  0  0
    2.6095  -45.6828  -26.6476 C   0  0  0  0  0  0  0  0  0  0  0  0
    0.6882  -53.4870  -20.2349 O   0  0  0  0  0  0  0  0  0  0  0  0
   -0.4026  -53.3304  -21.5215 P   0  0  0  0  0  0  0  0  0  0  0  0
   -1.1982  -51.9020  -21.6073 O   0  0  0  0  0  0  0  0  0  0  0  0
   -1.4999  -54.4561  -21.1917 O   0  0  0  0  0  0  0  0  0  0  0  0
   -1.8421  -51.8002  -20.8348 H   0  0  0  0  0  0  0  0  0  0  0  0
    0.3178  -53.8408  -22.9167 O   0  0  0  0  0  0  0  0  0  0  0  0
   -0.7620  -54.1752  -23.8031 C   0  0  0  0  0  0  0  0  0  0  0  0
   -0.5849  -53.2280  -24.9896 C   0  0  0  0  0  0  0  0  0  0  0  0
    0.3206  -52.2454  -24.4871 O   0  0  0  0  0  0  0  0  0  0  0  0
    1.3187  -52.1255  -25.3362 C   0  0  0  0  0  0  0  0  0  0  0  0
    1.4294  -53.5378  -26.0520 C   0  0  0  0  0  0  0  0  0  0  0  0
    2.0929  -53.4264  -27.2263 O   0  0  0  0  0  0  0  0  0  0  0  0
   -0.0306  -53.8535  -26.1812 C   0  0  0  0  0  0  0  0  0  0  0  0
   -0.5536  -53.2503  -27.3671 O   0  0  0  0  0  0  0  0  0  0  0  0
    1.7628  -52.7208  -27.7930 H   0  0  0  0  0  0  0  0  0  0  0  0
   -0.6077  -52.2603  -27.2027 H   0  0  0  0  0  0  0  0  0  0  0  0
    2.6416  -51.7845  -24.8547 N   0  0  0  0  0  0  0  0  0  0  0  0
    3.4031  -52.5359  -24.1559 C   0  0  0  0  0  0  0  0  0  0  0  0
    4.7495  -52.2384  -23.8659 C   0  0  0  0  0  0  0  0  0  0  0  0
    5.2570  -51.0645  -24.3977 C   0  0  0  0  0  0  0  0  0  0  0  0
    6.4346  -50.7218  -24.2727 O   0  0  0  0  0  0  0  0  0  0  0  0
    4.4182  -50.3307  -25.1015 N   0  0  0  0  0  0  0  0  0  0  0  0
    3.1128  -50.5831  -25.3828 C   0  0  0  0  0  0  0  0  0  0  0  0
    2.4748  -49.8064  -26.0177 O   0  0  0  0  0  0  0  0  0  0  0  0
    4.8568  -49.4579  -25.5734 H   0  0  0  0  0  0  0  0  0  0  0  0
 12 13  1  0  0  0
 13 14  1  0  0  0
 14 15  1  0  0  0
 14 16  1  0  0  0
 16 17  1  0  0  0
 17 18  1  0  0  0
 18 11  1  0  0  0
 11 10  1  0  0  0
 10  6  1  0  0  0
  6  7  1  0  0  0
  6  8  2  0  0  0
  6  5  1  0  0  0
  5  1  1  0  0  0
  1  2  1  0  0  0
  1  3  2  0  0  0
  1 27  1  0  0  0
 27 28  1  0  0  0
 28 29  1  0  0  0
 28 30  2  0  0  0
 28 32  1  0  0  0
 32 33  1  0  0  0
 33 34  1  0  0  0
 34 35  1  0  0  0
 35 36  1  0  0  0
 36 37  1  0  0  0
 37 38  1  0  0  0
 37 39  1  0  0  0
 39 40  1  0  0  0
 36 43  1  0  0  0
 43 44  1  0  0  0
 44 45  2  0  0  0
 45 46  1  0  0  0
 46 47  2  0  0  0
 46 48  1  0  0  0
 48 49  1  0  0  0
 49 50  2  0  0  0
 16 21  1  0  0  0
 21 22  2  0  0  0
 22 23  1  0  0  0
 23 24  2  0  0  0
 24 25  1  0  0  0
 25 26  2  0  0  0
 18 13  1  0  0  0
 39 34  1  0  0  0
 49 43  1  0  0  0
 26 21  1  0  0  0
 12 19  1  0  0  0
 15 20  1  0  0  0
  7  9  1  0  0  0
  2  4  1  0  0  0
 29 31  1  0  0  0
 38 41  1  0  0  0
 40 42  1  0  0  0
 48 51  1  0  0  0
M  END
> <minimizedAffinity>
-7.66336

> <CNNscore>
0.0662328079

> <CNNaffinity>
4.5057935715

> <CNN_VS>
0.2984313667

> <CNNaffinity_variance>
0.9595691562

$$$$
[H]c1nc(N([H])[H])c2c(-c3c([H])c([H])c(Oc4c([H])c([H])c([H])c([H])c4[H])c([H])c3[H])c([H])n([C@@]3([H])C([H])([H])N([H])C([H])([H])C([H])([H])C3([H])[H])c2n1


 32 36  0  0  0  0  0  0  0  0999 V2000
   -0.2779  -54.1240  -20.3312 N   0  0  0  0  0  0  0  0  0  0  0  0
   -0.5131  -54.1963  -21.7221 C   0  0  0  0  0  0  0  0  0  0  0  0
   -1.2231  -55.2328  -22.2592 N   0  0  0  0  0  0  0  0  0  0  0  0
   -1.4111  -55.2888  -23.5830 C   0  0  0  0  0  0  0  0  0  0  0  0
   -0.9259  -54.3578  -24.4227 N   0  0  0  0  0  0  0  0  0  0  0  0
   -0.2221  -53.3183  -23.9535 C   0  0  0  0  0  0  0  0  0  0  0  0
    0.3663  -52.2816  -24.5751 N   0  0  0  0  0  0  0  0  0  0  0  0
    0.9393  -51.5490  -23.6254 C   0  0  0  0  0  0  0  0  0  0  0  0
    0.7366  -52.0948  -22.3468 C   0  0  0  0  0  0  0  0  0  0  0  0
   -0.0121  -53.2322  -22.5923 C   0  0  0  0  0  0  0  0  0  0  0  0
   -1.1157  -53.9362  -19.7177 H   0  0  0  0  0  0  0  0  0  0  0  0
    0.6436  -54.2401  -19.8743 H   0  0  0  0  0  0  0  0  0  0  0  0
    0.3663  -52.0222  -26.0298 C   0  0  0  0  0  0  0  0  0  0  0  0
   -0.8705  -52.6041  -26.6405 C   0  0  0  0  0  0  0  0  0  0  0  0
   -0.7537  -52.4178  -28.1529 C   0  0  0  0  0  0  0  0  0  0  0  0
    0.4711  -53.1798  -28.6036 C   0  0  0  0  0  0  0  0  0  0  0  0
    1.6458  -52.5585  -28.0278 N   0  0  0  0  0  0  0  0  0  0  0  0
    1.6327  -52.6052  -26.5988 C   0  0  0  0  0  0  0  0  0  0  0  0
    1.8172  -51.6030  -28.4013 H   0  0  0  0  0  0  0  0  0  0  0  0
    1.2010  -51.5055  -21.1023 C   0  0  0  0  0  0  0  0  0  0  0  0
    0.4531  -50.6011  -20.4037 C   0  0  0  0  0  0  0  0  0  0  0  0
    0.8724  -50.0377  -19.2126 C   0  0  0  0  0  0  0  0  0  0  0  0
    2.1049  -50.4054  -18.7046 C   0  0  0  0  0  0  0  0  0  0  0  0
    2.8881  -51.3135  -19.3793 C   0  0  0  0  0  0  0  0  0  0  0  0
    2.4263  -51.8614  -20.5833 C   0  0  0  0  0  0  0  0  0  0  0  0
    2.5377  -49.8598  -17.5285 O   0  0  0  0  0  0  0  0  0  0  0  0
    2.4877  -50.5915  -16.3684 C   0  0  0  0  0  0  0  0  0  0  0  0
    3.6731  -51.1091  -15.8700 C   0  0  0  0  0  0  0  0  0  0  0  0
    3.6768  -51.8591  -14.6955 C   0  0  0  0  0  0  0  0  0  0  0  0
    2.4839  -52.0819  -14.0315 C   0  0  0  0  0  0  0  0  0  0  0  0
    1.3285  -51.5637  -14.5390 C   0  0  0  0  0  0  0  0  0  0  0  0
    1.3143  -50.8256  -15.6919 C   0  0  0  0  0  0  0  0  0  0  0  0
  1  2  1  0  0  0
  2  3  2  0  0  0
  3  4  1  0  0  0
  4  5  2  0  0  0
  5  6  1  0  0  0
  6  7  1  0  0  0
  7  8  1  0  0  0
  8  9  2  0  0  0
  9 20  1  0  0  0
 20 21  2  0  0  0
 21 22  1  0  0  0
 22 23  2  0  0  0
 23 26  1  0  0  0
 26 27  1  0  0  0
 27 28  2  0  0  0
 28 29  1  0  0  0
 29 30  2  0  0  0
 30 31  1  0  0  0
 31 32  2  0  0  0
 23 24  1  0  0  0
 24 25  2  0  0  0
  9 10  1  0  0  0
  7 13  1  0  0  0
 13 14  1  0  0  0
 14 15  1  0  0  0
 15 16  1  0  0  0
 16 17  1  0  0  0
 17 18  1  0  0  0
 10  2  1  0  0  0
 18 13  1  0  0  0
 10  6  2  0  0  0
 25 20  1  0  0  0
 32 27  1  0  0  0
  1 11  1  0  0  0
  1 12  1  0  0  0
 17 19  1  0  0  0
M  END
> <minimizedAffinity>
-9.34202

> <CNNscore>
0.8165714741

> <CNNaffinity>
7.1589727402

> <CNN_VS>
5.8458127975

> <CNNaffinity_variance>
0.0847289413

$$$$
[H]c1nc(N([H])[H])c2c(-c3c([H])c([H])c(Oc4c([H])c([H])c([H])c([H])c4[H])c([H])c3[H])c([H])n([C@@]3([H])C([H])([H])N([H])C([H])([H])C([H])([H])C3([H])[H])c2n1


 32 36  0  0  0  0  0  0  0  0999 V2000
   -1.7725  -54.2643  -20.5779 N   0  0  0  0  0  0  0  0  0  0  0  0
   -1.1425  -54.1256  -21.8344 C   0  0  0  0  0  0  0  0  0  0  0  0
   -1.5098  -54.9087  -22.8922 N   0  0  0  0  0  0  0  0  0  0  0  0
   -0.8801  -54.7723  -24.0651 C   0  0  0  0  0  0  0  0  0  0  0  0
    0.1133  -53.8865  -24.2543 N   0  0  0  0  0  0  0  0  0  0  0  0
    0.5162  -53.0914  -23.2535 C   0  0  0  0  0  0  0  0  0  0  0  0
    1.4746  -52.1510  -23.1874 N   0  0  0  0  0  0  0  0  0  0  0  0
    1.4525  -51.6773  -21.9456 C   0  0  0  0  0  0  0  0  0  0  0  0
    0.4684  -52.3031  -21.1622 C   0  0  0  0  0  0  0  0  0  0  0  0
   -0.1146  -53.2079  -22.0317 C   0  0  0  0  0  0  0  0  0  0  0  0
   -2.7820  -53.9625  -20.5176 H   0  0  0  0  0  0  0  0  0  0  0  0
   -1.3236  -54.6353  -19.7222 H   0  0  0  0  0  0  0  0  0  0  0  0
    2.3685  -51.7370  -24.2889 C   0  0  0  0  0  0  0  0  0  0  0  0
    1.5884  -50.9507  -25.2960 C   0  0  0  0  0  0  0  0  0  0  0  0
    2.5294  -50.6613  -26.4650 C   0  0  0  0  0  0  0  0  0  0  0  0
    2.9497  -51.9940  -27.0406 C   0  0  0  0  0  0  0  0  0  0  0  0
    3.7377  -52.7017  -26.0527 N   0  0  0  0  0  0  0  0  0  0  0  0
    2.9886  -52.9813  -24.8674 C   0  0  0  0  0  0  0  0  0  0  0  0
    4.6474  -52.2365  -25.8580 H   0  0  0  0  0  0  0  0  0  0  0  0
    0.1680  -51.9766  -19.7784 C   0  0  0  0  0  0  0  0  0  0  0  0
    0.4614  -50.7562  -19.2401 C   0  0  0  0  0  0  0  0  0  0  0  0
    0.1735  -50.4228  -17.9294 C   0  0  0  0  0  0  0  0  0  0  0  0
   -0.4388  -51.3670  -17.1258 C   0  0  0  0  0  0  0  0  0  0  0  0
   -0.7501  -52.6083  -17.6312 C   0  0  0  0  0  0  0  0  0  0  0  0
   -0.4418  -52.9063  -18.9651 C   0  0  0  0  0  0  0  0  0  0  0  0
   -0.7316  -51.0570  -15.8272 O   0  0  0  0  0  0  0  0  0  0  0  0
   -1.9112  -50.4278  -15.5168 C   0  0  0  0  0  0  0  0  0  0  0  0
   -3.0744  -51.1819  -15.5164 C   0  0  0  0  0  0  0  0  0  0  0  0
   -4.2982  -50.5909  -15.2081 C   0  0  0  0  0  0  0  0  0  0  0  0
   -4.3402  -49.2425  -14.9022 C   0  0  0  0  0  0  0  0  0  0  0  0
   -3.1840  -48.5185  -14.9083 C   0  0  0  0  0  0  0  0  0  0  0  0
   -1.9769  -49.0896  -15.2097 C   0  0  0  0  0  0  0  0  0  0  0  0
  1  2  1  0  0  0
  2  3  2  0  0  0
  3  4  1  0  0  0
  4  5  2  0  0  0
  5  6  1  0  0  0
  6  7  1  0  0  0
  7  8  1  0  0  0
  8  9  2  0  0  0
  9 20  1  0  0  0
 20 21  2  0  0  0
 21 22  1  0  0  0
 22 23  2  0  0  0
 23 26  1  0  0  0
 26 27  1  0  0  0
 27 28  2  0  0  0
 28 29  1  0  0  0
 29 30  2  0  0  0
 30 31  1  0  0  0
 31 32  2  0  0  0
 23 24  1  0  0  0
 24 25  2  0  0  0
  9 10  1  0  0  0
  7 13  1  0  0  0
 13 14  1  0  0  0
 14 15  1  0  0  0
 15 16  1  0  0  0
 16 17  1  0  0  0
 17 18  1  0  0  0
 10  2  1  0  0  0
 18 13  1  0  0  0
 10  6  2  0  0  0
 25 20  1  0  0  0
 32 27  1  0  0  0
  1 11  1  0  0  0
  1 12  1  0  0  0
 17 19  1  0  0  0
M  END
> <minimizedAffinity>
-9.10804

> <CNNscore>
0.7814239860

> <CNNaffinity>
6.8864645958

> <CNN_VS>
5.3812484741

> <CNNaffinity_variance>
0.1885473579

$$$$
[H]c1nc(N([H])[H])c2c(-c3c([H])c([H])c(Oc4c([H])c([H])c([H])c([H])c4[H])c([H])c3[H])c([H])n([C@@]3([H])C([H])([H])N([H])C([H])([H])C([H])([H])C3([H])[H])c2n1


 32 36  0  0  0  0  0  0  0  0999 V2000
   -0.5124  -54.1424  -20.5567 N   0  0  0  0  0  0  0  0  0  0  0  0
   -0.6233  -54.2584  -21.9599 C   0  0  0  0  0  0  0  0  0  0  0  0
   -1.2233  -55.3469  -22.5274 N   0  0  0  0  0  0  0  0  0  0  0  0
   -1.2939  -55.4423  -23.8603 C   0  0  0  0  0  0  0  0  0  0  0  0
   -0.7937  -54.5019  -24.6806 N   0  0  0  0  0  0  0  0  0  0  0  0
   -0.1942  -53.4121  -24.1813 C   0  0  0  0  0  0  0  0  0  0  0  0
    0.3838  -52.3554  -24.7784 N   0  0  0  0  0  0  0  0  0  0  0  0
    0.8301  -51.5696  -23.8036 C   0  0  0  0  0  0  0  0  0  0  0  0
    0.5509  -52.0992  -22.5326 C   0  0  0  0  0  0  0  0  0  0  0  0
   -0.1066  -53.2846  -22.8101 C   0  0  0  0  0  0  0  0  0  0  0  0
   -1.4091  -53.9923  -20.0209 H   0  0  0  0  0  0  0  0  0  0  0  0
    0.3719  -54.1930  -20.0210 H   0  0  0  0  0  0  0  0  0  0  0  0
    0.4931  -52.1276  -26.2343 C   0  0  0  0  0  0  0  0  0  0  0  0
   -0.7649  -52.5824  -26.9064 C   0  0  0  0  0  0  0  0  0  0  0  0
   -0.5447  -52.4411  -28.4122 C   0  0  0  0  0  0  0  0  0  0  0  0
    0.6110  -53.3423  -28.7811 C   0  0  0  0  0  0  0  0  0  0  0  0
    1.8137  -52.8422  -28.1479 N   0  0  0  0  0  0  0  0  0  0  0  0
    1.7166  -52.8578  -26.7214 C   0  0  0  0  0  0  0  0  0  0  0  0
    2.1105  -51.9192  -28.5246 H   0  0  0  0  0  0  0  0  0  0  0  0
    0.8721  -51.4566  -21.2694 C   0  0  0  0  0  0  0  0  0  0  0  0
    1.7263  -52.0200  -20.3648 C   0  0  0  0  0  0  0  0  0  0  0  0
    2.0531  -51.4194  -19.1629 C   0  0  0  0  0  0  0  0  0  0  0  0
    1.4898  -50.1929  -18.8615 C   0  0  0  0  0  0  0  0  0  0  0  0
    0.6241  -49.5931  -19.7470 C   0  0  0  0  0  0  0  0  0  0  0  0
    0.3192  -50.2349  -20.9546 C   0  0  0  0  0  0  0  0  0  0  0  0
    1.7999  -49.5827  -17.6784 O   0  0  0  0  0  0  0  0  0  0  0  0
    0.8262  -49.3722  -16.7343 C   0  0  0  0  0  0  0  0  0  0  0  0
   -0.1020  -50.3783  -16.5163 C   0  0  0  0  0  0  0  0  0  0  0  0
   -1.1108  -50.2145  -15.5690 C   0  0  0  0  0  0  0  0  0  0  0  0
   -1.1763  -49.0359  -14.8476 C   0  0  0  0  0  0  0  0  0  0  0  0
   -0.2531  -48.0583  -15.0776 C   0  0  0  0  0  0  0  0  0  0  0  0
    0.7417  -48.2096  -16.0060 C   0  0  0  0  0  0  0  0  0  0  0  0
  1  2  1  0  0  0
  2  3  2  0  0  0
  3  4  1  0  0  0
  4  5  2  0  0  0
  5  6  1  0  0  0
  6  7  1  0  0  0
  7  8  1  0  0  0
  8  9  2  0  0  0
  9 20  1  0  0  0
 20 21  2  0  0  0
 21 22  1  0  0  0
 22 23  2  0  0  0
 23 26  1  0  0  0
 26 27  1  0  0  0
 27 28  2  0  0  0
 28 29  1  0  0  0
 29 30  2  0  0  0
 30 31  1  0  0  0
 31 32  2  0  0  0
 23 24  1  0  0  0
 24 25  2  0  0  0
  9 10  1  0  0  0
  7 13  1  0  0  0
 13 14  1  0  0  0
 14 15  1  0  0  0
 15 16  1  0  0  0
 16 17  1  0  0  0
 17 18  1  0  0  0
 10  2  1  0  0  0
 18 13  1  0  0  0
 10  6  2  0  0  0
 25 20  1  0  0  0
 32 27  1  0  0  0
  1 11  1  0  0  0
  1 12  1  0  0  0
 17 19  1  0  0  0
M  END
> <minimizedAffinity>
-8.91516

> <CNNscore>
0.7479023933

> <CNNaffinity>
7.1461715698

> <CNN_VS>
5.3446388245

> <CNNaffinity_variance>
0.1519362032

$$$$
[H]c1nc(N([H])[H])c2c(-c3c([H])c([H])c(Oc4c([H])c([H])c([H])c([H])c4[H])c([H])c3[H])c([H])n([C@@]3([H])C([H])([H])N([H])C([H])([H])C([H])([H])C3([H])[H])c2n1


 32 36  0  0  0  0  0  0  0  0999 V2000
   -1.0022  -53.4517  -19.5115 N   0  0  0  0  0  0  0  0  0  0  0  0
   -0.9310  -53.7686  -20.8861 C   0  0  0  0  0  0  0  0  0  0  0  0
   -1.7813  -54.6843  -21.4386 N   0  0  0  0  0  0  0  0  0  0  0  0
   -1.6763  -54.9828  -22.7389 C   0  0  0  0  0  0  0  0  0  0  0  0
   -0.7582  -54.4148  -23.5399 N   0  0  0  0  0  0  0  0  0  0  0  0
    0.1025  -53.5096  -23.0540 C   0  0  0  0  0  0  0  0  0  0  0  0
    1.0993  -52.8198  -23.6350 N   0  0  0  0  0  0  0  0  0  0  0  0
    1.6389  -52.0642  -22.6838 C   0  0  0  0  0  0  0  0  0  0  0  0
    1.0005  -52.2437  -21.4452 C   0  0  0  0  0  0  0  0  0  0  0  0
    0.0187  -53.1801  -21.7166 C   0  0  0  0  0  0  0  0  0  0  0  0
   -1.8594  -52.9271  -19.1896 H   0  0  0  0  0  0  0  0  0  0  0  0
   -0.2853  -53.6927  -18.8049 H   0  0  0  0  0  0  0  0  0  0  0  0
    1.5029  -52.8979  -25.0544 C   0  0  0  0  0  0  0  0  0  0  0  0
    2.9968  -52.8901  -25.1497 C   0  0  0  0  0  0  0  0  0  0  0  0
    3.3508  -52.8441  -26.6357 C   0  0  0  0  0  0  0  0  0  0  0  0
    2.7759  -51.5621  -27.1924 C   0  0  0  0  0  0  0  0  0  0  0  0
    1.3308  -51.6296  -27.1229 N   0  0  0  0  0  0  0  0  0  0  0  0
    0.8621  -51.7424  -25.7768 C   0  0  0  0  0  0  0  0  0  0  0  0
    0.9329  -52.3548  -27.7535 H   0  0  0  0  0  0  0  0  0  0  0  0
    1.3302  -51.5302  -20.2228 C   0  0  0  0  0  0  0  0  0  0  0  0
    0.5033  -50.5831  -19.6895 C   0  0  0  0  0  0  0  0  0  0  0  0
    0.7939  -49.9015  -18.5220 C   0  0  0  0  0  0  0  0  0  0  0  0
    1.9751  -50.1906  -17.8637 C   0  0  0  0  0  0  0  0  0  0  0  0
    2.8348  -51.1384  -18.3696 C   0  0  0  0  0  0  0  0  0  0  0  0
    2.5030  -51.8068  -19.5555 C   0  0  0  0  0  0  0  0  0  0  0  0
    2.2808  -49.5278  -16.7080 O   0  0  0  0  0  0  0  0  0  0  0  0
    2.4519  -50.2239  -15.5376 C   0  0  0  0  0  0  0  0  0  0  0  0
    3.6163  -50.0133  -14.8156 C   0  0  0  0  0  0  0  0  0  0  0  0
    3.8386  -50.6951  -13.6207 C   0  0  0  0  0  0  0  0  0  0  0  0
    2.8841  -51.5852  -13.1622 C   0  0  0  0  0  0  0  0  0  0  0  0
    1.7452  -51.7780  -13.8880 C   0  0  0  0  0  0  0  0  0  0  0  0
    1.5174  -51.1131  -15.0629 C   0  0  0  0  0  0  0  0  0  0  0  0
  1  2  1  0  0  0
  2  3  2  0  0  0
  3  4  1  0  0  0
  4  5  2  0  0  0
  5  6  1  0  0  0
  6  7  1  0  0  0
  7  8  1  0  0  0
  8  9  2  0  0  0
  9 20  1  0  0  0
 20 21  2  0  0  0
 21 22  1  0  0  0
 22 23  2  0  0  0
 23 26  1  0  0  0
 26 27  1  0  0  0
 27 28  2  0  0  0
 28 29  1  0  0  0
 29 30  2  0  0  0
 30 31  1  0  0  0
 31 32  2  0  0  0
 23 24  1  0  0  0
 24 25  2  0  0  0
  9 10  1  0  0  0
  7 13  1  0  0  0
 13 14  1  0  0  0
 14 15  1  0  0  0
 15 16  1  0  0  0
 16 17  1  0  0  0
 17 18  1  0  0  0
 10  2  1  0  0  0
 18 13  1  0  0  0
 10  6  2  0  0  0
 25 20  1  0  0  0
 32 27  1  0  0  0
  1 11  1  0  0  0
  1 12  1  0  0  0
 17 19  1  0  0  0
M  END
> <minimizedAffinity>
-8.21891

> <CNNscore>
0.6547349691

> <CNNaffinity>
6.7686562538

> <CNN_VS>
4.4316759109

> <CNNaffinity_variance>
0.1220395193

$$$$
[H]c1nc(N([H])[H])c2c(-c3c([H])c([H])c(Oc4c([H])c([H])c([H])c([H])c4[H])c([H])c3[H])c([H])n([C@@]3([H])C([H])([H])N([H])C([H])([H])C([H])([H])C3([H])[H])c2n1


 32 36  0  0  0  0  0  0  0  0999 V2000
   -1.7062  -53.7301  -21.0069 N   0  0  0  0  0  0  0  0  0  0  0  0
   -0.8643  -53.5564  -22.1276 C   0  0  0  0  0  0  0  0  0  0  0  0
   -1.1641  -54.1404  -23.3260 N   0  0  0  0  0  0  0  0  0  0  0  0
   -0.3366  -53.9785  -24.3651 C   0  0  0  0  0  0  0  0  0  0  0  0
    0.7944  -53.2564  -24.2837 N   0  0  0  0  0  0  0  0  0  0  0  0
    1.1402  -52.6602  -23.1344 C   0  0  0  0  0  0  0  0  0  0  0  0
    2.2031  -51.9079  -22.8003 N   0  0  0  0  0  0  0  0  0  0  0  0
    2.0471  -51.5825  -21.5209 C   0  0  0  0  0  0  0  0  0  0  0  0
    0.8657  -52.1195  -20.9826 C   0  0  0  0  0  0  0  0  0  0  0  0
    0.3065  -52.8080  -22.0447 C   0  0  0  0  0  0  0  0  0  0  0  0
   -2.6558  -53.2719  -21.0516 H   0  0  0  0  0  0  0  0  0  0  0  0
   -1.4644  -54.2667  -20.1555 H   0  0  0  0  0  0  0  0  0  0  0  0
    3.3176  -51.5268  -23.6926 C   0  0  0  0  0  0  0  0  0  0  0  0
    4.5778  -52.1875  -23.2274 C   0  0  0  0  0  0  0  0  0  0  0  0
    5.7114  -51.6589  -24.1057 C   0  0  0  0  0  0  0  0  0  0  0  0
    5.7837  -50.1648  -23.8906 C   0  0  0  0  0  0  0  0  0  0  0  0
    4.5671  -49.5612  -24.3939 N   0  0  0  0  0  0  0  0  0  0  0  0
    3.4086  -50.0237  -23.6951 C   0  0  0  0  0  0  0  0  0  0  0  0
    4.4775  -49.6422  -25.4269 H   0  0  0  0  0  0  0  0  0  0  0  0
    0.3931  -51.9077  -19.6249 C   0  0  0  0  0  0  0  0  0  0  0  0
    0.5767  -50.7242  -18.9685 C   0  0  0  0  0  0  0  0  0  0  0  0
    0.1249  -50.4996  -17.6811 C   0  0  0  0  0  0  0  0  0  0  0  0
   -0.5430  -51.5187  -17.0271 C   0  0  0  0  0  0  0  0  0  0  0  0
   -0.7474  -52.7260  -17.6547 C   0  0  0  0  0  0  0  0  0  0  0  0
   -0.2738  -52.9130  -18.9600 C   0  0  0  0  0  0  0  0  0  0  0  0
   -0.9974  -51.3166  -15.7539 O   0  0  0  0  0  0  0  0  0  0  0  0
   -2.2287  -50.7483  -15.5426 C   0  0  0  0  0  0  0  0  0  0  0  0
   -2.2765  -49.4275  -15.1248 C   0  0  0  0  0  0  0  0  0  0  0  0
   -3.5014  -48.8037  -14.8960 C   0  0  0  0  0  0  0  0  0  0  0  0
   -4.6705  -49.5171  -15.0905 C   0  0  0  0  0  0  0  0  0  0  0  0
   -4.6013  -50.8160  -15.5018 C   0  0  0  0  0  0  0  0  0  0  0  0
   -3.4031  -51.4378  -15.7292 C   0  0  0  0  0  0  0  0  0  0  0  0
  1  2  1  0  0  0
  2  3  2  0  0  0
  3  4  1  0  0  0
  4  5  2  0  0  0
  5  6  1  0  0  0
  6  7  1  0  0  0
  7  8  1  0  0  0
  8  9  2  0  0  0
  9 20  1  0  0  0
 20 21  2  0  0  0
 21 22  1  0  0  0
 22 23  2  0  0  0
 23 26  1  0  0  0
 26 27  1  0  0  0
 27 28  2  0  0  0
 28 29  1  0  0  0
 29 30  2  0  0  0
 30 31  1  0  0  0
 31 32  2  0  0  0
 23 24  1  0  0  0
 24 25  2  0  0  0
  9 10  1  0  0  0
  7 13  1  0  0  0
 13 14  1  0  0  0
 14 15  1  0  0  0
 15 16  1  0  0  0
 16 17  1  0  0  0
 17 18  1  0  0  0
 10  2  1  0  0  0
 18 13  1  0  0  0
 10  6  2  0  0  0
 25 20  1  0  0  0
 32 27  1  0  0  0
  1 11  1  0  0  0
  1 12  1  0  0  0
 17 19  1  0  0  0
M  END
> <minimizedAffinity>
-8.57322

> <CNNscore>
0.6037619114

> <CNNaffinity>
6.7382812500

> <CNN_VS>
4.0683174133

> <CNNaffinity_variance>
0.2800118625

$$$$
[H]c1nc(N([H])[H])c2c(-c3c([H])c([H])c(Oc4c([H])c([H])c([H])c([H])c4[H])c([H])c3[H])c([H])n([C@@]3([H])C([H])([H])N([H])C([H])([H])C([H])([H])C3([H])[H])c2n1


 32 36  0  0  0  0  0  0  0  0999 V2000
   -0.0033  -53.9566  -20.4689 N   0  0  0  0  0  0  0  0  0  0  0  0
   -0.3395  -54.0694  -21.8361 C   0  0  0  0  0  0  0  0  0  0  0  0
   -1.0888  -55.1186  -22.2887 N   0  0  0  0  0  0  0  0  0  0  0  0
   -1.3729  -55.2132  -23.5930 C   0  0  0  0  0  0  0  0  0  0  0  0
   -0.9486  -54.3097  -24.4934 N   0  0  0  0  0  0  0  0  0  0  0  0
   -0.2105  -53.2594  -24.1081 C   0  0  0  0  0  0  0  0  0  0  0  0
    0.3328  -52.2441  -24.8017 N   0  0  0  0  0  0  0  0  0  0  0  0
    0.9750  -51.4858  -23.9188 C   0  0  0  0  0  0  0  0  0  0  0  0
    0.8651  -51.9925  -22.6130 C   0  0  0  0  0  0  0  0  0  0  0  0
    0.0984  -53.1337  -22.7691 C   0  0  0  0  0  0  0  0  0  0  0  0
   -0.7938  -53.7472  -19.8018 H   0  0  0  0  0  0  0  0  0  0  0  0
    0.9489  -54.0627  -20.0770 H   0  0  0  0  0  0  0  0  0  0  0  0
    0.2271  -52.0282  -26.2598 C   0  0  0  0  0  0  0  0  0  0  0  0
   -1.0420  -52.6411  -26.7643 C   0  0  0  0  0  0  0  0  0  0  0  0
   -1.0343  -52.4987  -28.2860 C   0  0  0  0  0  0  0  0  0  0  0  0
    0.1653  -53.2607  -28.7999 C   0  0  0  0  0  0  0  0  0  0  0  0
    1.3696  -52.6100  -28.3268 N   0  0  0  0  0  0  0  0  0  0  0  0
    1.4578  -52.6143  -26.8997 C   0  0  0  0  0  0  0  0  0  0  0  0
    1.5022  -51.6643  -28.7390 H   0  0  0  0  0  0  0  0  0  0  0  0
    1.4201  -51.3682  -21.4239 C   0  0  0  0  0  0  0  0  0  0  0  0
    0.7449  -50.4084  -20.7253 C   0  0  0  0  0  0  0  0  0  0  0  0
    1.2510  -49.8106  -19.5858 C   0  0  0  0  0  0  0  0  0  0  0  0
    2.4975  -50.2011  -19.1319 C   0  0  0  0  0  0  0  0  0  0  0  0
    3.2093  -51.1649  -19.8084 C   0  0  0  0  0  0  0  0  0  0  0  0
    2.6605  -51.7462  -20.9591 C   0  0  0  0  0  0  0  0  0  0  0  0
    3.0156  -49.6222  -18.0073 O   0  0  0  0  0  0  0  0  0  0  0  0
    3.6841  -48.4265  -18.0917 C   0  0  0  0  0  0  0  0  0  0  0  0
    3.1280  -47.3208  -17.4674 C   0  0  0  0  0  0  0  0  0  0  0  0
    3.7668  -46.0836  -17.5232 C   0  0  0  0  0  0  0  0  0  0  0  0
    4.9629  -45.9702  -18.2088 C   0  0  0  0  0  0  0  0  0  0  0  0
    5.4930  -47.0707  -18.8163 C   0  0  0  0  0  0  0  0  0  0  0  0
    4.8733  -48.2904  -18.7673 C   0  0  0  0  0  0  0  0  0  0  0  0
  1  2  1  0  0  0
  2  3  2  0  0  0
  3  4  1  0  0  0
  4  5  2  0  0  0
  5  6  1  0  0  0
  6  7  1  0  0  0
  7  8  1  0  0  0
  8  9  2  0  0  0
  9 20  1  0  0  0
 20 21  2  0  0  0
 21 22  1  0  0  0
 22 23  2  0  0  0
 23 26  1  0  0  0
 26 27  1  0  0  0
 27 28  2  0  0  0
 28 29  1  0  0  0
 29 30  2  0  0  0
 30 31  1  0  0  0
 31 32  2  0  0  0
 23 24  1  0  0  0
 24 25  2  0  0  0
  9 10  1  0  0  0
  7 13  1  0  0  0
 13 14  1  0  0  0
 14 15  1  0  0  0
 15 16  1  0  0  0
 16 17  1  0  0  0
 17 18  1  0  0  0
 10  2  1  0  0  0
 18 13  1  0  0  0
 10  6  2  0  0  0
 25 20  1  0  0  0
 32 27  1  0  0  0
  1 11  1  0  0  0
  1 12  1  0  0  0
 17 19  1  0  0  0
M  END
> <minimizedAffinity>
-8.50559

> <CNNscore>
0.5613788962

> <CNNaffinity>
6.9596991539

> <CNN_VS>
3.9070281982

> <CNNaffinity_variance>
0.2896913886

$$$$
[H]c1nc(N([H])[H])c2c(-c3c([H])c([H])c(Oc4c([H])c([H])c([H])c([H])c4[H])c([H])c3[H])c([H])n([C@@]3([H])C([H])([H])N([H])C([H])([H])C([H])([H])C3([H])[H])c2n1


 32 36  0  0  0  0  0  0  0  0999 V2000
   -0.9381  -53.5501  -19.4478 N   0  0  0  0  0  0  0  0  0  0  0  0
   -0.8938  -53.8259  -20.8323 C   0  0  0  0  0  0  0  0  0  0  0  0
   -1.7690  -54.7091  -21.3988 N   0  0  0  0  0  0  0  0  0  0  0  0
   -1.6895  -54.9694  -22.7091 C   0  0  0  0  0  0  0  0  0  0  0  0
   -0.7738  -54.3933  -23.5070 N   0  0  0  0  0  0  0  0  0  0  0  0
    0.1105  -53.5187  -23.0076 C   0  0  0  0  0  0  0  0  0  0  0  0
    1.1106  -52.8290  -23.5833 N   0  0  0  0  0  0  0  0  0  0  0  0
    1.6784  -52.1126  -22.6182 C   0  0  0  0  0  0  0  0  0  0  0  0
    1.0561  -52.3187  -21.3756 C   0  0  0  0  0  0  0  0  0  0  0  0
    0.0534  -53.2290  -21.6597 C   0  0  0  0  0  0  0  0  0  0  0  0
   -1.7806  -53.0206  -19.0964 H   0  0  0  0  0  0  0  0  0  0  0  0
   -0.2148  -53.8253  -18.7604 H   0  0  0  0  0  0  0  0  0  0  0  0
    1.4907  -52.8706  -25.0107 C   0  0  0  0  0  0  0  0  0  0  0  0
    2.9829  -52.8840  -25.1296 C   0  0  0  0  0  0  0  0  0  0  0  0
    3.3145  -52.7987  -26.6191 C   0  0  0  0  0  0  0  0  0  0  0  0
    2.7522  -51.4914  -27.1278 C   0  0  0  0  0  0  0  0  0  0  0  0
    1.3075  -51.5377  -27.0371 N   0  0  0  0  0  0  0  0  0  0  0  0
    0.8579  -51.6836  -25.6876 C   0  0  0  0  0  0  0  0  0  0  0  0
    0.8879  -52.2369  -27.6827 H   0  0  0  0  0  0  0  0  0  0  0  0
    1.4174  -51.6491  -20.1376 C   0  0  0  0  0  0  0  0  0  0  0  0
    0.5469  -50.8335  -19.4724 C   0  0  0  0  0  0  0  0  0  0  0  0
    0.8679  -50.1965  -18.2879 C   0  0  0  0  0  0  0  0  0  0  0  0
    2.1273  -50.3927  -17.7514 C   0  0  0  0  0  0  0  0  0  0  0  0
    3.0328  -51.2069  -18.3921 C   0  0  0  0  0  0  0  0  0  0  0  0
    2.6679  -51.8343  -19.5905 C   0  0  0  0  0  0  0  0  0  0  0  0
    2.4642  -49.7718  -16.5813 O   0  0  0  0  0  0  0  0  0  0  0  0
    2.7877  -48.4380  -16.5758 C   0  0  0  0  0  0  0  0  0  0  0  0
    2.3064  -47.6525  -15.5400 C   0  0  0  0  0  0  0  0  0  0  0  0
    2.6060  -46.2925  -15.4880 C   0  0  0  0  0  0  0  0  0  0  0  0
    3.3896  -45.7340  -16.4818 C   0  0  0  0  0  0  0  0  0  0  0  0
    3.8530  -46.5247  -17.4923 C   0  0  0  0  0  0  0  0  0  0  0  0
    3.5644  -47.8616  -17.5525 C   0  0  0  0  0  0  0  0  0  0  0  0
  1  2  1  0  0  0
  2  3  2  0  0  0
  3  4  1  0  0  0
  4  5  2  0  0  0
  5  6  1  0  0  0
  6  7  1  0  0  0
  7  8  1  0  0  0
  8  9  2  0  0  0
  9 20  1  0  0  0
 20 21  2  0  0  0
 21 22  1  0  0  0
 22 23  2  0  0  0
 23 26  1  0  0  0
 26 27  1  0  0  0
 27 28  2  0  0  0
 28 29  1  0  0  0
 29 30  2  0  0  0
 30 31  1  0  0  0
 31 32  2  0  0  0
 23 24  1  0  0  0
 24 25  2  0  0  0
  9 10  1  0  0  0
  7 13  1  0  0  0
 13 14  1  0  0  0
 14 15  1  0  0  0
 15 16  1  0  0  0
 16 17  1  0  0  0
 17 18  1  0  0  0
 10  2  1  0  0  0
 18 13  1  0  0  0
 10  6  2  0  0  0
 25 20  1  0  0  0
 32 27  1  0  0  0
  1 11  1  0  0  0
  1 12  1  0  0  0
 17 19  1  0  0  0
M  END
> <minimizedAffinity>
-7.60967

> <CNNscore>
0.5474165082

> <CNNaffinity>
6.6771912575

> <CNN_VS>
3.6552047729

> <CNNaffinity_variance>
0.1934228390

$$$$
[H]c1nc(N([H])[H])c2c(-c3c([H])c([H])c(Oc4c([H])c([H])c([H])c([H])c4[H])c([H])c3[H])c([H])n([C@@]3([H])C([H])([H])N([H])C([H])([H])C([H])([H])C3([H])[H])c2n1


 32 36  0  0  0  0  0  0  0  0999 V2000
   -1.5713  -53.1316  -21.1461 N   0  0  0  0  0  0  0  0  0  0  0  0
   -0.7111  -53.1532  -22.2662 C   0  0  0  0  0  0  0  0  0  0  0  0
   -1.0820  -53.7808  -23.4219 N   0  0  0  0  0  0  0  0  0  0  0  0
   -0.2378  -53.8061  -24.4599 C   0  0  0  0  0  0  0  0  0  0  0  0
    0.9779  -53.2338  -24.4181 N   0  0  0  0  0  0  0  0  0  0  0  0
    1.3960  -52.6038  -23.3115 C   0  0  0  0  0  0  0  0  0  0  0  0
    2.5476  -51.9740  -23.0207 N   0  0  0  0  0  0  0  0  0  0  0  0
    2.4324  -51.5366  -21.7707 C   0  0  0  0  0  0  0  0  0  0  0  0
    1.1895  -51.8732  -21.2089 C   0  0  0  0  0  0  0  0  0  0  0  0
    0.5475  -52.5600  -22.2242 C   0  0  0  0  0  0  0  0  0  0  0  0
   -2.4526  -52.5580  -21.2359 H   0  0  0  0  0  0  0  0  0  0  0  0
   -1.4040  -53.6302  -20.2546 H   0  0  0  0  0  0  0  0  0  0  0  0
    3.7046  -51.8091  -23.9250 C   0  0  0  0  0  0  0  0  0  0  0  0
    4.9637  -52.1538  -23.1924 C   0  0  0  0  0  0  0  0  0  0  0  0
    6.1282  -51.8442  -24.1325 C   0  0  0  0  0  0  0  0  0  0  0  0
    6.0770  -50.3643  -24.4348 C   0  0  0  0  0  0  0  0  0  0  0  0
    4.8684  -50.0818  -25.1813 N   0  0  0  0  0  0  0  0  0  0  0  0
    3.6898  -50.3918  -24.4335 C   0  0  0  0  0  0  0  0  0  0  0  0
    4.8731  -50.5115  -26.1285 H   0  0  0  0  0  0  0  0  0  0  0  0
    0.7453  -51.5010  -19.8762 C   0  0  0  0  0  0  0  0  0  0  0  0
    0.0847  -52.3749  -19.0606 C   0  0  0  0  0  0  0  0  0  0  0  0
   -0.3361  -52.0434  -17.7858 C   0  0  0  0  0  0  0  0  0  0  0  0
   -0.0773  -50.7694  -17.3142 C   0  0  0  0  0  0  0  0  0  0  0  0
    0.5856  -49.8601  -18.1060 C   0  0  0  0  0  0  0  0  0  0  0  0
    0.9954  -50.2360  -19.3920 C   0  0  0  0  0  0  0  0  0  0  0  0
   -0.4851  -50.4220  -16.0567 O   0  0  0  0  0  0  0  0  0  0  0  0
   -0.0587  -51.1423  -14.9690 C   0  0  0  0  0  0  0  0  0  0  0  0
    1.2983  -51.3953  -14.8432 C   0  0  0  0  0  0  0  0  0  0  0  0
    1.7828  -52.1221  -13.7574 C   0  0  0  0  0  0  0  0  0  0  0  0
    0.8944  -52.5890  -12.8054 C   0  0  0  0  0  0  0  0  0  0  0  0
   -0.4372  -52.3291  -12.9481 C   0  0  0  0  0  0  0  0  0  0  0  0
   -0.9231  -51.6161  -14.0110 C   0  0  0  0  0  0  0  0  0  0  0  0
  1  2  1  0  0  0
  2  3  2  0  0  0
  3  4  1  0  0  0
  4  5  2  0  0  0
  5  6  1  0  0  0
  6  7  1  0  0  0
  7  8  1  0  0  0
  8  9  2  0  0  0
  9 20  1  0  0  0
 20 21  2  0  0  0
 21 22  1  0  0  0
 22 23  2  0  0  0
 23 26  1  0  0  0
 26 27  1  0  0  0
 27 28  2  0  0  0
 28 29  1  0  0  0
 29 30  2  0  0  0
 30 31  1  0  0  0
 31 32  2  0  0  0
 23 24  1  0  0  0
 24 25  2  0  0  0
  9 10  1  0  0  0
  7 13  1  0  0  0
 13 14  1  0  0  0
 14 15  1  0  0  0
 15 16  1  0  0  0
 16 17  1  0  0  0
 17 18  1  0  0  0
 10  2  1  0  0  0
 18 13  1  0  0  0
 10  6  2  0  0  0
 25 20  1  0  0  0
 32 27  1  0  0  0
  1 11  1  0  0  0
  1 12  1  0  0  0
 17 19  1  0  0  0
M  END
> <minimizedAffinity>
-7.43820

> <CNNscore>
0.5278894901

> <CNNaffinity>
6.7192544937

> <CNN_VS>
3.5470237732

> <CNNaffinity_variance>
0.3600640893

$$$$
[H]c1nc(N([H])[H])c2c(-c3c([H])c([H])c(Oc4c([H])c([H])c([H])c([H])c4[H])c([H])c3[H])c([H])n([C@@]3([H])C([H])([H])N([H])C([H])([H])C([H])([H])C3([H])[H])c2n1


 32 36  0  0  0  0  0  0  0  0999 V2000
   -1.6932  -52.8865  -17.8122 N   0  0  0  0  0  0  0  0  0  0  0  0
   -1.2140  -53.0500  -19.1308 C   0  0  0  0  0  0  0  0  0  0  0  0
   -1.8331  -53.9033  -20.0001 N   0  0  0  0  0  0  0  0  0  0  0  0
   -1.3439  -54.0566  -21.2363 C   0  0  0  0  0  0  0  0  0  0  0  0
   -0.2541  -53.3997  -21.6698 N   0  0  0  0  0  0  0  0  0  0  0  0
    0.3946  -52.5496  -20.8619 C   0  0  0  0  0  0  0  0  0  0  0  0
    1.4915  -51.7955  -21.0506 N   0  0  0  0  0  0  0  0  0  0  0  0
    1.7033  -51.1467  -19.9100 C   0  0  0  0  0  0  0  0  0  0  0  0
    0.7396  -51.4641  -18.9382 C   0  0  0  0  0  0  0  0  0  0  0  0
   -0.0862  -52.3695  -19.5810 C   0  0  0  0  0  0  0  0  0  0  0  0
   -2.6255  -52.4044  -17.7028 H   0  0  0  0  0  0  0  0  0  0  0  0
   -1.2042  -53.2005  -16.9556 H   0  0  0  0  0  0  0  0  0  0  0  0
    2.2926  -51.7152  -22.2897 C   0  0  0  0  0  0  0  0  0  0  0  0
    3.7384  -51.5482  -21.9392 C   0  0  0  0  0  0  0  0  0  0  0  0
    4.4967  -51.3444  -23.2504 C   0  0  0  0  0  0  0  0  0  0  0  0
    3.9554  -50.0859  -23.8885 C   0  0  0  0  0  0  0  0  0  0  0  0
    2.5706  -50.3051  -24.2520 N   0  0  0  0  0  0  0  0  0  0  0  0
    1.7517  -50.5752  -23.1115 C   0  0  0  0  0  0  0  0  0  0  0  0
    2.4619  -51.0125  -25.0067 H   0  0  0  0  0  0  0  0  0  0  0  0
    0.6735  -50.8880  -17.6058 C   0  0  0  0  0  0  0  0  0  0  0  0
    0.8253  -49.5487  -17.3856 C   0  0  0  0  0  0  0  0  0  0  0  0
    0.7548  -48.9801  -16.1271 C   0  0  0  0  0  0  0  0  0  0  0  0
    0.5204  -49.8036  -15.0413 C   0  0  0  0  0  0  0  0  0  0  0  0
    0.3624  -51.1585  -15.2221 C   0  0  0  0  0  0  0  0  0  0  0  0
    0.4408  -51.6950  -16.5141 C   0  0  0  0  0  0  0  0  0  0  0  0
    0.4473  -49.2610  -13.7889 O   0  0  0  0  0  0  0  0  0  0  0  0
    1.1762  -48.1403  -13.4785 C   0  0  0  0  0  0  0  0  0  0  0  0
    0.5701  -46.9030  -13.6305 C   0  0  0  0  0  0  0  0  0  0  0  0
    1.2667  -45.7343  -13.3291 C   0  0  0  0  0  0  0  0  0  0  0  0
    2.5708  -45.8220  -12.8761 C   0  0  0  0  0  0  0  0  0  0  0  0
    3.1487  -47.0495  -12.7335 C   0  0  0  0  0  0  0  0  0  0  0  0
    2.4729  -48.2034  -13.0269 C   0  0  0  0  0  0  0  0  0  0  0  0
  1  2  1  0  0  0
  2  3  2  0  0  0
  3  4  1  0  0  0
  4  5  2  0  0  0
  5  6  1  0  0  0
  6  7  1  0  0  0
  7  8  1  0  0  0
  8  9  2  0  0  0
  9 20  1  0  0  0
 20 21  2  0  0  0
 21 22  1  0  0  0
 22 23  2  0  0  0
 23 26  1  0  0  0
 26 27  1  0  0  0
 27 28  2  0  0  0
 28 29  1  0  0  0
 29 30  2  0  0  0
 30 31  1  0  0  0
 31 32  2  0  0  0
 23 24  1  0  0  0
 24 25  2  0  0  0
  9 10  1  0  0  0
  7 13  1  0  0  0
 13 14  1  0  0  0
 14 15  1  0  0  0
 15 16  1  0  0  0
 16 17  1  0  0  0
 17 18  1  0  0  0
 10  2  1  0  0  0
 18 13  1  0  0  0
 10  6  2  0  0  0
 25 20  1  0  0  0
 32 27  1  0  0  0
  1 11  1  0  0  0
  1 12  1  0  0  0
 17 19  1  0  0  0
M  END
> <minimizedAffinity>
-5.69296

> <CNNscore>
0.5019691586

> <CNNaffinity>
6.5696954727

> <CNN_VS>
3.2977845669

> <CNNaffinity_variance>
0.6618142128

$$$$
[H]Oc1c([H])c([H])c(C([H])([H])[C@@]([H])(C(=O)N([H])[C@@]([H])(C(=O)N2C([H])([H])C([H])([H])C([H])([H])[C@@]2([H])C(=O)N([H])[C@]([H])(C(=O)N([H])[H])C([H])([H])c2c([H])c([H])c([H])c([H])c2[H])C([H])([H])[H])N([H])[H])c([H])c1[H]


 43 45  0  0  0  0  0  0  0  0999 V2000
    2.0846  -50.9088  -21.5298 C   0  0  0  0  0  0  0  0  0  0  0  0
    2.5357  -50.9068  -22.7758 O   0  0  0  0  0  0  0  0  0  0  0  0
    2.7564  -50.0158  -20.7117 N   0  0  0  0  0  0  0  0  0  0  0  0
    3.8310  -49.0632  -21.2710 C   0  0  0  0  0  0  0  0  0  0  0  0
    3.3175  -47.7491  -20.7057 C   0  0  0  0  0  0  0  0  0  0  0  0
    2.3623  -48.1260  -19.5481 C   0  0  0  0  0  0  0  0  0  0  0  0
    2.8113  -49.5823  -19.3589 C   0  0  0  0  0  0  0  0  0  0  0  0
    2.2336  -50.2974  -18.2684 C   0  0  0  0  0  0  0  0  0  0  0  0
    2.5901  -51.4614  -17.8699 O   0  0  0  0  0  0  0  0  0  0  0  0
    1.1512  -49.6779  -17.5306 N   0  0  0  0  0  0  0  0  0  0  0  0
    0.8271  -48.7520  -17.8222 H   0  0  0  0  0  0  0  0  0  0  0  0
    0.5269  -50.3281  -16.4107 C   0  0  0  0  0  0  0  0  0  0  0  0
    1.5300  -50.6727  -15.3546 C   0  0  0  0  0  0  0  0  0  0  0  0
    2.5715  -49.7459  -15.0836 N   0  0  0  0  0  0  0  0  0  0  0  0
    1.4945  -51.7323  -14.7047 O   0  0  0  0  0  0  0  0  0  0  0  0
    3.1592  -49.7713  -14.2227 H   0  0  0  0  0  0  0  0  0  0  0  0
    2.8093  -48.9623  -15.7602 H   0  0  0  0  0  0  0  0  0  0  0  0
   -0.1372  -51.5942  -16.9098 C   0  0  0  0  0  0  0  0  0  0  0  0
   -1.5461  -51.6690  -16.4948 C   0  0  0  0  0  0  0  0  0  0  0  0
   -2.0190  -50.6861  -15.6433 C   0  0  0  0  0  0  0  0  0  0  0  0
   -3.3257  -50.7127  -15.2201 C   0  0  0  0  0  0  0  0  0  0  0  0
   -4.1679  -51.7000  -15.6300 C   0  0  0  0  0  0  0  0  0  0  0  0
   -3.7044  -52.6743  -16.4725 C   0  0  0  0  0  0  0  0  0  0  0  0
   -2.3760  -52.6767  -16.9240 C   0  0  0  0  0  0  0  0  0  0  0  0
   -0.2051  -51.1276  -20.6234 C   0  0  0  0  0  0  0  0  0  0  0  0
    0.9787  -51.8367  -21.2746 C   0  0  0  0  0  0  0  0  0  0  0  0
    0.5225  -52.3832  -22.5694 N   0  0  0  0  0  0  0  0  0  0  0  0
   -0.0316  -53.6564  -22.7115 C   0  0  0  0  0  0  0  0  0  0  0  0
   -0.1425  -54.3734  -21.6582 O   0  0  0  0  0  0  0  0  0  0  0  0
    0.6465  -51.7471  -23.3781 H   0  0  0  0  0  0  0  0  0  0  0  0
   -0.5055  -54.2547  -23.9667 C   0  0  0  0  0  0  0  0  0  0  0  0
   -1.6498  -55.0838  -23.6868 N   0  0  0  0  0  0  0  0  0  0  0  0
   -1.5312  -55.7489  -22.9000 H   0  0  0  0  0  0  0  0  0  0  0  0
   -2.4822  -54.4480  -23.4913 H   0  0  0  0  0  0  0  0  0  0  0  0
   -0.8871  -53.2369  -25.0048 C   0  0  0  0  0  0  0  0  0  0  0  0
    0.2125  -52.9682  -25.9373 C   0  0  0  0  0  0  0  0  0  0  0  0
    0.9911  -51.8288  -25.8064 C   0  0  0  0  0  0  0  0  0  0  0  0
    2.0250  -51.5871  -26.6948 C   0  0  0  0  0  0  0  0  0  0  0  0
    2.2769  -52.4838  -27.7101 C   0  0  0  0  0  0  0  0  0  0  0  0
    3.3088  -52.2385  -28.5951 O   0  0  0  0  0  0  0  0  0  0  0  0
    1.5117  -53.6329  -27.8636 C   0  0  0  0  0  0  0  0  0  0  0  0
    0.4822  -53.8542  -26.9630 C   0  0  0  0  0  0  0  0  0  0  0  0
    4.2541  -52.5628  -28.4346 H   0  0  0  0  0  0  0  0  0  0  0  0
 25 26  1  0  0  0
 26 27  1  0  0  0
 27 28  1  0  0  0
 28 29  2  0  0  0
 28 31  1  0  0  0
 31 32  1  0  0  0
 31 35  1  0  0  0
 35 36  1  0  0  0
 36 37  2  0  0  0
 37 38  1  0  0  0
 38 39  2  0  0  0
 39 40  1  0  0  0
 39 41  1  0  0  0
 41 42  2  0  0  0
 26  1  1  0  0  0
  1  2  2  0  0  0
  1  3  1  0  0  0
  3  4  1  0  0  0
  4  5  1  0  0  0
  5  6  1  0  0  0
  6  7  1  0  0  0
  7  8  1  0  0  0
  8  9  2  0  0  0
  8 10  1  0  0  0
 10 12  1  0  0  0
 12 18  1  0  0  0
 18 19  1  0  0  0
 19 20  2  0  0  0
 20 21  1  0  0  0
 21 22  2  0  0  0
 22 23  1  0  0  0
 23 24  2  0  0  0
 12 13  1  0  0  0
 13 14  1  0  0  0
 13 15  2  0  0  0
 42 36  1  0  0  0
  7  3  1  0  0  0
 24 19  1  0  0  0
 27 30  1  0  0  0
 32 33  1  0  0  0
 32 34  1  0  0  0
 40 43  1  0  0  0
 10 11  1  0  0  0
 14 16  1  0  0  0
 14 17  1  0  0  0
M  END
> <minimizedAffinity>
-7.88844

> <CNNscore>
0.4497610927

> <CNNaffinity>
6.8661208153

> <CNN_VS>
3.0881140232

> <CNNaffinity_variance>
0.0901126936

$$$$
[H]Oc1c([H])c([H])c(C([H])([H])[C@@]([H])(C(=O)N([H])[C@@]([H])(C(=O)N2C([H])([H])C([H])([H])C([H])([H])[C@@]2([H])C(=O)N([H])[C@]([H])(C(=O)N([H])[H])C([H])([H])c2c([H])c([H])c([H])c([H])c2[H])C([H])([H])[H])N([H])[H])c([H])c1[H]


 43 45  0  0  0  0  0  0  0  0999 V2000
    1.5700  -51.4294  -20.3029 C   0  0  0  0  0  0  0  0  0  0  0  0
    1.8971  -51.5501  -19.0245 O   0  0  0  0  0  0  0  0  0  0  0  0
    0.8582  -52.5164  -20.7823 N   0  0  0  0  0  0  0  0  0  0  0  0
    0.4219  -53.6662  -19.8535 C   0  0  0  0  0  0  0  0  0  0  0  0
   -1.0537  -53.7296  -20.2120 C   0  0  0  0  0  0  0  0  0  0  0  0
   -1.1942  -53.0083  -21.5737 C   0  0  0  0  0  0  0  0  0  0  0  0
    0.2862  -53.0209  -21.9820 C   0  0  0  0  0  0  0  0  0  0  0  0
    0.5991  -52.5281  -23.2833 C   0  0  0  0  0  0  0  0  0  0  0  0
    0.4724  -51.3133  -23.6690 O   0  0  0  0  0  0  0  0  0  0  0  0
    1.1060  -53.4583  -24.2721 N   0  0  0  0  0  0  0  0  0  0  0  0
    1.2125  -54.4417  -24.0095 H   0  0  0  0  0  0  0  0  0  0  0  0
    1.4575  -53.0364  -25.6006 C   0  0  0  0  0  0  0  0  0  0  0  0
    2.9032  -52.6580  -25.6854 C   0  0  0  0  0  0  0  0  0  0  0  0
    3.6016  -52.9234  -26.8933 N   0  0  0  0  0  0  0  0  0  0  0  0
    3.5210  -52.1235  -24.7478 O   0  0  0  0  0  0  0  0  0  0  0  0
    4.5156  -52.4872  -27.1411 H   0  0  0  0  0  0  0  0  0  0  0  0
    3.2186  -53.5953  -27.6216 H   0  0  0  0  0  0  0  0  0  0  0  0
    0.6000  -51.8408  -25.9587 C   0  0  0  0  0  0  0  0  0  0  0  0
   -0.3801  -52.1686  -27.0050 C   0  0  0  0  0  0  0  0  0  0  0  0
   -1.7221  -52.0492  -26.6895 C   0  0  0  0  0  0  0  0  0  0  0  0
   -2.6790  -52.3492  -27.6285 C   0  0  0  0  0  0  0  0  0  0  0  0
   -2.3225  -52.7651  -28.8742 C   0  0  0  0  0  0  0  0  0  0  0  0
   -0.9960  -52.8845  -29.1907 C   0  0  0  0  0  0  0  0  0  0  0  0
    0.0066  -52.5859  -28.2559 C   0  0  0  0  0  0  0  0  0  0  0  0
    0.9496  -49.0980  -20.8434 C   0  0  0  0  0  0  0  0  0  0  0  0
    2.0148  -50.1862  -20.9398 C   0  0  0  0  0  0  0  0  0  0  0  0
    3.2184  -49.7054  -20.2301 N   0  0  0  0  0  0  0  0  0  0  0  0
    3.7791  -48.4444  -20.4393 C   0  0  0  0  0  0  0  0  0  0  0  0
    3.2105  -47.6790  -21.2918 O   0  0  0  0  0  0  0  0  0  0  0  0
    3.6257  -50.3805  -19.5575 H   0  0  0  0  0  0  0  0  0  0  0  0
    4.9692  -47.9080  -19.7654 C   0  0  0  0  0  0  0  0  0  0  0  0
    5.4092  -48.8529  -18.7710 N   0  0  0  0  0  0  0  0  0  0  0  0
    4.6672  -49.2056  -18.1383 H   0  0  0  0  0  0  0  0  0  0  0  0
    5.8682  -49.6740  -19.2716 H   0  0  0  0  0  0  0  0  0  0  0  0
    6.1090  -47.6265  -20.7040 C   0  0  0  0  0  0  0  0  0  0  0  0
    6.2063  -48.6354  -21.7640 C   0  0  0  0  0  0  0  0  0  0  0  0
    6.5600  -49.9428  -21.4685 C   0  0  0  0  0  0  0  0  0  0  0  0
    6.6495  -50.8845  -22.4793 C   0  0  0  0  0  0  0  0  0  0  0  0
    6.3856  -50.5168  -23.7807 C   0  0  0  0  0  0  0  0  0  0  0  0
    6.4770  -51.4591  -24.7866 O   0  0  0  0  0  0  0  0  0  0  0  0
    6.0294  -49.2136  -24.1038 C   0  0  0  0  0  0  0  0  0  0  0  0
    5.9462  -48.2880  -23.0760 C   0  0  0  0  0  0  0  0  0  0  0  0
    5.6923  -52.0320  -25.0707 H   0  0  0  0  0  0  0  0  0  0  0  0
 25 26  1  0  0  0
 26 27  1  0  0  0
 27 28  1  0  0  0
 28 29  2  0  0  0
 28 31  1  0  0  0
 31 32  1  0  0  0
 31 35  1  0  0  0
 35 36  1  0  0  0
 36 37  2  0  0  0
 37 38  1  0  0  0
 38 39  2  0  0  0
 39 40  1  0  0  0
 39 41  1  0  0  0
 41 42  2  0  0  0
 26  1  1  0  0  0
  1  2  2  0  0  0
  1  3  1  0  0  0
  3  4  1  0  0  0
  4  5  1  0  0  0
  5  6  1  0  0  0
  6  7  1  0  0  0
  7  8  1  0  0  0
  8  9  2  0  0  0
  8 10  1  0  0  0
 10 12  1  0  0  0
 12 18  1  0  0  0
 18 19  1  0  0  0
 19 20  2  0  0  0
 20 21  1  0  0  0
 21 22  2  0  0  0
 22 23  1  0  0  0
 23 24  2  0  0  0
 12 13  1  0  0  0
 13 14  1  0  0  0
 13 15  2  0  0  0
 42 36  1  0  0  0
  7  3  1  0  0  0
 24 19  1  0  0  0
 27 30  1  0  0  0
 32 33  1  0  0  0
 32 34  1  0  0  0
 40 43  1  0  0  0
 10 11  1  0  0  0
 14 16  1  0  0  0
 14 17  1  0  0  0
M  END
> <minimizedAffinity>
-8.10906

> <CNNscore>
0.3180179894

> <CNNaffinity>
6.6734032631

> <CNN_VS>
2.1222622395

> <CNNaffinity_variance>
0.0868893638

$$$$
[H]Oc1c([H])c([H])c(C([H])([H])[C@@]([H])(C(=O)N([H])[C@@]([H])(C(=O)N2C([H])([H])C([H])([H])C([H])([H])[C@@]2([H])C(=O)N([H])[C@]([H])(C(=O)N([H])[H])C([H])([H])c2c([H])c([H])c([H])c([H])c2[H])C([H])([H])[H])N([H])[H])c([H])c1[H]


 43 45  0  0  0  0  0  0  0  0999 V2000
    0.2397  -52.6335  -22.1229 C   0  0  0  0  0  0  0  0  0  0  0  0
   -0.6232  -53.6028  -21.8547 O   0  0  0  0  0  0  0  0  0  0  0  0
    0.6715  -52.6448  -23.4387 N   0  0  0  0  0  0  0  0  0  0  0  0
    0.0904  -53.6334  -24.4683 C   0  0  0  0  0  0  0  0  0  0  0  0
   -0.2692  -52.6567  -25.5759 C   0  0  0  0  0  0  0  0  0  0  0  0
    0.5474  -51.3726  -25.2952 C   0  0  0  0  0  0  0  0  0  0  0  0
    1.5661  -51.9709  -24.3142 C   0  0  0  0  0  0  0  0  0  0  0  0
    2.6169  -51.1126  -23.8746 C   0  0  0  0  0  0  0  0  0  0  0  0
    3.5835  -51.4534  -23.1062 O   0  0  0  0  0  0  0  0  0  0  0  0
    2.6164  -49.7338  -24.3204 N   0  0  0  0  0  0  0  0  0  0  0  0
    1.8560  -49.4159  -24.9271 H   0  0  0  0  0  0  0  0  0  0  0  0
    3.6482  -48.8108  -23.9328 C   0  0  0  0  0  0  0  0  0  0  0  0
    3.1979  -47.3929  -24.0970 C   0  0  0  0  0  0  0  0  0  0  0  0
    2.8430  -46.6575  -22.9349 N   0  0  0  0  0  0  0  0  0  0  0  0
    3.1191  -46.8296  -25.2029 O   0  0  0  0  0  0  0  0  0  0  0  0
    2.7581  -45.6186  -22.9110 H   0  0  0  0  0  0  0  0  0  0  0  0
    2.6417  -47.1405  -22.0105 H   0  0  0  0  0  0  0  0  0  0  0  0
    4.8588  -49.0615  -24.8071 C   0  0  0  0  0  0  0  0  0  0  0  0
    6.0877  -49.1913  -24.0097 C   0  0  0  0  0  0  0  0  0  0  0  0
    6.4505  -48.1232  -23.2084 C   0  0  0  0  0  0  0  0  0  0  0  0
    7.5928  -48.1901  -22.4481 C   0  0  0  0  0  0  0  0  0  0  0  0
    8.3784  -49.3010  -22.4725 C   0  0  0  0  0  0  0  0  0  0  0  0
    8.0234  -50.3601  -23.2637 C   0  0  0  0  0  0  0  0  0  0  0  0
    6.8633  -50.3250  -24.0520 C   0  0  0  0  0  0  0  0  0  0  0  0
    0.4000  -50.2843  -21.3693 C   0  0  0  0  0  0  0  0  0  0  0  0
    0.5530  -51.7549  -20.9920 C   0  0  0  0  0  0  0  0  0  0  0  0
   -0.4006  -52.0437  -19.9010 N   0  0  0  0  0  0  0  0  0  0  0  0
   -0.1417  -51.7550  -18.5601 C   0  0  0  0  0  0  0  0  0  0  0  0
    0.9823  -51.2136  -18.2787 O   0  0  0  0  0  0  0  0  0  0  0  0
   -1.2880  -52.4849  -20.2041 H   0  0  0  0  0  0  0  0  0  0  0  0
   -1.0470  -52.0143  -17.4325 C   0  0  0  0  0  0  0  0  0  0  0  0
   -0.8716  -53.3758  -16.9956 N   0  0  0  0  0  0  0  0  0  0  0  0
   -0.8932  -54.0876  -17.7495 H   0  0  0  0  0  0  0  0  0  0  0  0
    0.0544  -53.4413  -16.4725 H   0  0  0  0  0  0  0  0  0  0  0  0
   -0.8198  -51.0974  -16.2633 C   0  0  0  0  0  0  0  0  0  0  0  0
   -2.0813  -50.6800  -15.6426 C   0  0  0  0  0  0  0  0  0  0  0  0
   -3.2162  -51.4700  -15.7419 C   0  0  0  0  0  0  0  0  0  0  0  0
   -4.4006  -51.0629  -15.1522 C   0  0  0  0  0  0  0  0  0  0  0  0
   -4.4471  -49.8690  -14.4660 C   0  0  0  0  0  0  0  0  0  0  0  0
   -5.6312  -49.4659  -13.8799 O   0  0  0  0  0  0  0  0  0  0  0  0
   -3.3246  -49.0588  -14.3518 C   0  0  0  0  0  0  0  0  0  0  0  0
   -2.1501  -49.4861  -14.9500 C   0  0  0  0  0  0  0  0  0  0  0  0
   -5.8829  -49.7142  -12.9314 H   0  0  0  0  0  0  0  0  0  0  0  0
 25 26  1  0  0  0
 26 27  1  0  0  0
 27 28  1  0  0  0
 28 29  2  0  0  0
 28 31  1  0  0  0
 31 32  1  0  0  0
 31 35  1  0  0  0
 35 36  1  0  0  0
 36 37  2  0  0  0
 37 38  1  0  0  0
 38 39  2  0  0  0
 39 40  1  0  0  0
 39 41  1  0  0  0
 41 42  2  0  0  0
 26  1  1  0  0  0
  1  2  2  0  0  0
  1  3  1  0  0  0
  3  4  1  0  0  0
  4  5  1  0  0  0
  5  6  1  0  0  0
  6  7  1  0  0  0
  7  8  1  0  0  0
  8  9  2  0  0  0
  8 10  1  0  0  0
 10 12  1  0  0  0
 12 18  1  0  0  0
 18 19  1  0  0  0
 19 20  2  0  0  0
 20 21  1  0  0  0
 21 22  2  0  0  0
 22 23  1  0  0  0
 23 24  2  0  0  0
 12 13  1  0  0  0
 13 14  1  0  0  0
 13 15  2  0  0  0
 42 36  1  0  0  0
  7  3  1  0  0  0
 24 19  1  0  0  0
 27 30  1  0  0  0
 32 33  1  0  0  0
 32 34  1  0  0  0
 40 43  1  0  0  0
 10 11  1  0  0  0
 14 16  1  0  0  0
 14 17  1  0  0  0
M  END
> <minimizedAffinity>
-7.12160

> <CNNscore>
0.3122700453

> <CNNaffinity>
6.3860802650

> <CNN_VS>
1.9941816330

> <CNNaffinity_variance>
0.3189553618

$$$$
[H]Oc1c([H])c([H])c(C([H])([H])[C@@]([H])(C(=O)N([H])[C@@]([H])(C(=O)N2C([H])([H])C([H])([H])C([H])([H])[C@@]2([H])C(=O)N([H])[C@]([H])(C(=O)N([H])[H])C([H])([H])c2c([H])c([H])c([H])c([H])c2[H])C([H])([H])[H])N([H])[H])c([H])c1[H]


 43 45  0  0  0  0  0  0  0  0999 V2000
    3.4033  -50.3720  -20.1055 C   0  0  0  0  0  0  0  0  0  0  0  0
    4.5752  -50.2556  -19.4981 O   0  0  0  0  0  0  0  0  0  0  0  0
    2.3962  -50.8002  -19.2568 N   0  0  0  0  0  0  0  0  0  0  0  0
    2.6437  -50.9966  -17.7484 C   0  0  0  0  0  0  0  0  0  0  0  0
    1.4815  -50.1867  -17.1978 C   0  0  0  0  0  0  0  0  0  0  0  0
    0.4712  -50.0435  -18.3611 C   0  0  0  0  0  0  0  0  0  0  0  0
    1.0199  -51.1562  -19.2660 C   0  0  0  0  0  0  0  0  0  0  0  0
    0.2794  -51.4469  -20.4498 C   0  0  0  0  0  0  0  0  0  0  0  0
   -0.4217  -50.6055  -21.1140 O   0  0  0  0  0  0  0  0  0  0  0  0
    0.3055  -52.8001  -20.9675 N   0  0  0  0  0  0  0  0  0  0  0  0
    0.8448  -53.5074  -20.4614 H   0  0  0  0  0  0  0  0  0  0  0  0
   -0.4029  -53.1687  -22.1629 C   0  0  0  0  0  0  0  0  0  0  0  0
   -1.3206  -54.3249  -21.9155 C   0  0  0  0  0  0  0  0  0  0  0  0
   -1.5185  -55.2665  -22.9601 N   0  0  0  0  0  0  0  0  0  0  0  0
   -1.9183  -54.4987  -20.8388 O   0  0  0  0  0  0  0  0  0  0  0  0
   -1.9276  -56.2145  -22.8150 H   0  0  0  0  0  0  0  0  0  0  0  0
   -1.2534  -55.0467  -23.9651 H   0  0  0  0  0  0  0  0  0  0  0  0
    0.6156  -53.5482  -23.2173 C   0  0  0  0  0  0  0  0  0  0  0  0
    0.1956  -53.1167  -24.5590 C   0  0  0  0  0  0  0  0  0  0  0  0
    0.6858  -53.8214  -25.6442 C   0  0  0  0  0  0  0  0  0  0  0  0
    0.3299  -53.4560  -26.9198 C   0  0  0  0  0  0  0  0  0  0  0  0
   -0.5047  -52.4023  -27.1323 C   0  0  0  0  0  0  0  0  0  0  0  0
   -0.9922  -51.7023  -26.0617 C   0  0  0  0  0  0  0  0  0  0  0  0
   -0.6492  -52.0491  -24.7462 C   0  0  0  0  0  0  0  0  0  0  0  0
    3.0506  -48.5555  -21.7453 C   0  0  0  0  0  0  0  0  0  0  0  0
    3.4080  -50.0232  -21.5294 C   0  0  0  0  0  0  0  0  0  0  0  0
    4.7716  -50.2390  -22.0561 N   0  0  0  0  0  0  0  0  0  0  0  0
    5.0347  -50.9170  -23.2475 C   0  0  0  0  0  0  0  0  0  0  0  0
    4.0340  -51.3681  -23.9040 O   0  0  0  0  0  0  0  0  0  0  0  0
    5.5315  -49.8485  -21.4696 H   0  0  0  0  0  0  0  0  0  0  0  0
    6.3634  -51.1613  -23.8246 C   0  0  0  0  0  0  0  0  0  0  0  0
    6.3226  -52.3789  -24.5933 N   0  0  0  0  0  0  0  0  0  0  0  0
    5.8967  -53.1919  -24.1104 H   0  0  0  0  0  0  0  0  0  0  0  0
    5.7918  -52.1851  -25.4967 H   0  0  0  0  0  0  0  0  0  0  0  0
    6.8426  -50.0453  -24.7100 C   0  0  0  0  0  0  0  0  0  0  0  0
    7.1191  -48.8231  -23.9481 C   0  0  0  0  0  0  0  0  0  0  0  0
    6.4294  -47.6502  -24.2139 C   0  0  0  0  0  0  0  0  0  0  0  0
    6.7018  -46.5035  -23.4877 C   0  0  0  0  0  0  0  0  0  0  0  0
    7.6615  -46.5325  -22.4995 C   0  0  0  0  0  0  0  0  0  0  0  0
    7.9310  -45.3859  -21.7778 O   0  0  0  0  0  0  0  0  0  0  0  0
    8.3669  -47.6944  -22.2133 C   0  0  0  0  0  0  0  0  0  0  0  0
    8.0779  -48.8300  -22.9528 C   0  0  0  0  0  0  0  0  0  0  0  0
    7.4406  -45.1504  -20.9242 H   0  0  0  0  0  0  0  0  0  0  0  0
 25 26  1  0  0  0
 26 27  1  0  0  0
 27 28  1  0  0  0
 28 29  2  0  0  0
 28 31  1  0  0  0
 31 32  1  0  0  0
 31 35  1  0  0  0
 35 36  1  0  0  0
 36 37  2  0  0  0
 37 38  1  0  0  0
 38 39  2  0  0  0
 39 40  1  0  0  0
 39 41  1  0  0  0
 41 42  2  0  0  0
 26  1  1  0  0  0
  1  2  2  0  0  0
  1  3  1  0  0  0
  3  4  1  0  0  0
  4  5  1  0  0  0
  5  6  1  0  0  0
  6  7  1  0  0  0
  7  8  1  0  0  0
  8  9  2  0  0  0
  8 10  1  0  0  0
 10 12  1  0  0  0
 12 18  1  0  0  0
 18 19  1  0  0  0
 19 20  2  0  0  0
 20 21  1  0  0  0
 21 22  2  0  0  0
 22 23  1  0  0  0
 23 24  2  0  0  0
 12 13  1  0  0  0
 13 14  1  0  0  0
 13 15  2  0  0  0
 42 36  1  0  0  0
  7  3  1  0  0  0
 24 19  1  0  0  0
 27 30  1  0  0  0
 32 33  1  0  0  0
 32 34  1  0  0  0
 40 43  1  0  0  0
 10 11  1  0  0  0
 14 16  1  0  0  0
 14 17  1  0  0  0
M  END
> <minimizedAffinity>
-7.13670

> <CNNscore>
0.2810802460

> <CNNaffinity>
6.5744986534

> <CNN_VS>
1.8479616642

> <CNNaffinity_variance>
0.1286051422

$$$$
[H]Oc1c([H])c([H])c(C([H])([H])[C@@]([H])(C(=O)N([H])[C@@]([H])(C(=O)N2C([H])([H])C([H])([H])C([H])([H])[C@@]2([H])C(=O)N([H])[C@]([H])(C(=O)N([H])[H])C([H])([H])c2c([H])c([H])c([H])c([H])c2[H])C([H])([H])[H])N([H])[H])c([H])c1[H]


 43 45  0  0  0  0  0  0  0  0999 V2000
    0.1268  -52.2288  -22.3134 C   0  0  0  0  0  0  0  0  0  0  0  0
   -1.0559  -52.7892  -22.1059 O   0  0  0  0  0  0  0  0  0  0  0  0
    0.5948  -52.4188  -23.6029 N   0  0  0  0  0  0  0  0  0  0  0  0
   -0.2624  -53.1188  -24.6755 C   0  0  0  0  0  0  0  0  0  0  0  0
   -0.1560  -52.0904  -25.7895 C   0  0  0  0  0  0  0  0  0  0  0  0
    1.0740  -51.2158  -25.4479 C   0  0  0  0  0  0  0  0  0  0  0  0
    1.7275  -52.1494  -24.4186 C   0  0  0  0  0  0  0  0  0  0  0  0
    3.0008  -51.7563  -23.9102 C   0  0  0  0  0  0  0  0  0  0  0  0
    3.9991  -52.5361  -23.7205 O   0  0  0  0  0  0  0  0  0  0  0  0
    3.2109  -50.3628  -23.5727 N   0  0  0  0  0  0  0  0  0  0  0  0
    2.4357  -49.7066  -23.6984 H   0  0  0  0  0  0  0  0  0  0  0  0
    4.4699  -49.8858  -23.0686 C   0  0  0  0  0  0  0  0  0  0  0  0
    4.8331  -50.5647  -21.7851 C   0  0  0  0  0  0  0  0  0  0  0  0
    6.0480  -51.2981  -21.7286 N   0  0  0  0  0  0  0  0  0  0  0  0
    4.1207  -50.5172  -20.7669 O   0  0  0  0  0  0  0  0  0  0  0  0
    6.5060  -51.5918  -20.8391 H   0  0  0  0  0  0  0  0  0  0  0  0
    6.5629  -51.5909  -22.6104 H   0  0  0  0  0  0  0  0  0  0  0  0
    4.3507  -48.3943  -22.8359 C   0  0  0  0  0  0  0  0  0  0  0  0
    4.2080  -47.6565  -24.1000 C   0  0  0  0  0  0  0  0  0  0  0  0
    5.1506  -47.8834  -25.0873 C   0  0  0  0  0  0  0  0  0  0  0  0
    5.0673  -47.2154  -26.2848 C   0  0  0  0  0  0  0  0  0  0  0  0
    4.0627  -46.3269  -26.5153 C   0  0  0  0  0  0  0  0  0  0  0  0
    3.1279  -46.0993  -25.5415 C   0  0  0  0  0  0  0  0  0  0  0  0
    3.1832  -46.7648  -24.3076 C   0  0  0  0  0  0  0  0  0  0  0  0
    0.8047  -50.0272  -21.4157 C   0  0  0  0  0  0  0  0  0  0  0  0
    0.6893  -51.5263  -21.1561 C   0  0  0  0  0  0  0  0  0  0  0  0
   -0.2215  -51.7181  -20.0085 N   0  0  0  0  0  0  0  0  0  0  0  0
    0.2056  -51.7008  -18.6797 C   0  0  0  0  0  0  0  0  0  0  0  0
    1.4512  -51.5085  -18.4619 O   0  0  0  0  0  0  0  0  0  0  0  0
   -1.2145  -51.8713  -20.2620 H   0  0  0  0  0  0  0  0  0  0  0  0
   -0.6480  -51.8818  -17.4978 C   0  0  0  0  0  0  0  0  0  0  0  0
   -0.9387  -53.2840  -17.3413 N   0  0  0  0  0  0  0  0  0  0  0  0
   -1.2676  -53.7651  -18.1991 H   0  0  0  0  0  0  0  0  0  0  0  0
   -0.0616  -53.7676  -16.9778 H   0  0  0  0  0  0  0  0  0  0  0  0
   -0.0243  -51.3718  -16.2289 C   0  0  0  0  0  0  0  0  0  0  0  0
   -0.6185  -50.1016  -15.7996 C   0  0  0  0  0  0  0  0  0  0  0  0
    0.1277  -48.9333  -15.8003 C   0  0  0  0  0  0  0  0  0  0  0  0
   -0.4457  -47.7416  -15.3910 C   0  0  0  0  0  0  0  0  0  0  0  0
   -1.7615  -47.7214  -14.9826 C   0  0  0  0  0  0  0  0  0  0  0  0
   -2.3297  -46.5305  -14.5740 O   0  0  0  0  0  0  0  0  0  0  0  0
   -2.5311  -48.8778  -14.9722 C   0  0  0  0  0  0  0  0  0  0  0  0
   -1.9364  -50.0590  -15.3858 C   0  0  0  0  0  0  0  0  0  0  0  0
   -2.7969  -45.9008  -15.2141 H   0  0  0  0  0  0  0  0  0  0  0  0
 25 26  1  0  0  0
 26 27  1  0  0  0
 27 28  1  0  0  0
 28 29  2  0  0  0
 28 31  1  0  0  0
 31 32  1  0  0  0
 31 35  1  0  0  0
 35 36  1  0  0  0
 36 37  2  0  0  0
 37 38  1  0  0  0
 38 39  2  0  0  0
 39 40  1  0  0  0
 39 41  1  0  0  0
 41 42  2  0  0  0
 26  1  1  0  0  0
  1  2  2  0  0  0
  1  3  1  0  0  0
  3  4  1  0  0  0
  4  5  1  0  0  0
  5  6  1  0  0  0
  6  7  1  0  0  0
  7  8  1  0  0  0
  8  9  2  0  0  0
  8 10  1  0  0  0
 10 12  1  0  0  0
 12 18  1  0  0  0
 18 19  1  0  0  0
 19 20  2  0  0  0
 20 21  1  0  0  0
 21 22  2  0  0  0
 22 23  1  0  0  0
 23 24  2  0  0  0
 12 13  1  0  0  0
 13 14  1  0  0  0
 13 15  2  0  0  0
 42 36  1  0  0  0
  7  3  1  0  0  0
 24 19  1  0  0  0
 27 30  1  0  0  0
 32 33  1  0  0  0
 32 34  1  0  0  0
 40 43  1  0  0  0
 10 11  1  0  0  0
 14 16  1  0  0  0
 14 17  1  0  0  0
M  END
> <minimizedAffinity>
-6.98267

> <CNNscore>
0.2675009370

> <CNNaffinity>
6.3112878799

> <CNN_VS>
1.6882754564

> <CNNaffinity_variance>
0.3533929884

$$$$
[H]Oc1c([H])c([H])c(C([H])([H])[C@@]([H])(C(=O)N([H])[C@@]([H])(C(=O)N2C([H])([H])C([H])([H])C([H])([H])[C@@]2([H])C(=O)N([H])[C@]([H])(C(=O)N([H])[H])C([H])([H])c2c([H])c([H])c([H])c([H])c2[H])C([H])([H])[H])N([H])[H])c([H])c1[H]


 43 45  0  0  0  0  0  0  0  0999 V2000
    6.3353  -50.6274  -23.4555 C   0  0  0  0  0  0  0  0  0  0  0  0
    7.6409  -50.8020  -23.5996 O   0  0  0  0  0  0  0  0  0  0  0  0
    6.0155  -49.4207  -22.8558 N   0  0  0  0  0  0  0  0  0  0  0  0
    7.0989  -48.3787  -22.5156 C   0  0  0  0  0  0  0  0  0  0  0  0
    6.4766  -47.1522  -23.1625 C   0  0  0  0  0  0  0  0  0  0  0  0
    4.9765  -47.4824  -23.3498 C   0  0  0  0  0  0  0  0  0  0  0  0
    4.8945  -48.6798  -22.3918 C   0  0  0  0  0  0  0  0  0  0  0  0
    3.6020  -49.2420  -22.1736 C   0  0  0  0  0  0  0  0  0  0  0  0
    2.7030  -49.4103  -23.0703 O   0  0  0  0  0  0  0  0  0  0  0  0
    3.2502  -49.6685  -20.8342 N   0  0  0  0  0  0  0  0  0  0  0  0
    3.9353  -49.5423  -20.0845 H   0  0  0  0  0  0  0  0  0  0  0  0
    1.9729  -50.2575  -20.5365 C   0  0  0  0  0  0  0  0  0  0  0  0
    1.3395  -49.6077  -19.3462 C   0  0  0  0  0  0  0  0  0  0  0  0
    1.8303  -48.3430  -18.9256 N   0  0  0  0  0  0  0  0  0  0  0  0
    0.4050  -50.1237  -18.7084 O   0  0  0  0  0  0  0  0  0  0  0  0
    1.3130  -47.7064  -18.2820 H   0  0  0  0  0  0  0  0  0  0  0  0
    2.7710  -47.9740  -19.2532 H   0  0  0  0  0  0  0  0  0  0  0  0
    2.1861  -51.7300  -20.2551 C   0  0  0  0  0  0  0  0  0  0  0  0
    1.1917  -52.5650  -20.9457 C   0  0  0  0  0  0  0  0  0  0  0  0
    1.0470  -52.3963  -22.3114 C   0  0  0  0  0  0  0  0  0  0  0  0
    0.1278  -53.1465  -23.0039 C   0  0  0  0  0  0  0  0  0  0  0  0
   -0.6483  -54.0604  -22.3601 C   0  0  0  0  0  0  0  0  0  0  0  0
   -0.5085  -54.2307  -21.0091 C   0  0  0  0  0  0  0  0  0  0  0  0
    0.4207  -53.4815  -20.2718 C   0  0  0  0  0  0  0  0  0  0  0  0
    4.7022  -52.3770  -22.8356 C   0  0  0  0  0  0  0  0  0  0  0  0
    5.5057  -51.7267  -23.9580 C   0  0  0  0  0  0  0  0  0  0  0  0
    4.5483  -51.1753  -24.9391 N   0  0  0  0  0  0  0  0  0  0  0  0
    3.5872  -51.9498  -25.5910 C   0  0  0  0  0  0  0  0  0  0  0  0
    3.5471  -53.1979  -25.3140 O   0  0  0  0  0  0  0  0  0  0  0  0
    4.6424  -50.1584  -25.1148 H   0  0  0  0  0  0  0  0  0  0  0  0
    2.6080  -51.4623  -26.5716 C   0  0  0  0  0  0  0  0  0  0  0  0
    3.2202  -50.4325  -27.3715 N   0  0  0  0  0  0  0  0  0  0  0  0
    3.7129  -49.6928  -26.8371 H   0  0  0  0  0  0  0  0  0  0  0  0
    3.9019  -50.8960  -28.0466 H   0  0  0  0  0  0  0  0  0  0  0  0
    2.0904  -52.5399  -27.4827 C   0  0  0  0  0  0  0  0  0  0  0  0
    0.6270  -52.5207  -27.5762 C   0  0  0  0  0  0  0  0  0  0  0  0
   -0.0116  -52.8250  -28.7684 C   0  0  0  0  0  0  0  0  0  0  0  0
   -1.3938  -52.8015  -28.8427 C   0  0  0  0  0  0  0  0  0  0  0  0
   -2.1325  -52.4743  -27.7266 C   0  0  0  0  0  0  0  0  0  0  0  0
   -3.5114  -52.4509  -27.8051 O   0  0  0  0  0  0  0  0  0  0  0  0
   -1.5174  -52.1652  -26.5200 C   0  0  0  0  0  0  0  0  0  0  0  0
   -0.1330  -52.1949  -26.4690 C   0  0  0  0  0  0  0  0  0  0  0  0
   -4.0826  -53.2650  -27.6164 H   0  0  0  0  0  0  0  0  0  0  0  0
 25 26  1  0  0  0
 26 27  1  0  0  0
 27 28  1  0  0  0
 28 29  2  0  0  0
 28 31  1  0  0  0
 31 32  1  0  0  0
 31 35  1  0  0  0
 35 36  1  0  0  0
 36 37  2  0  0  0
 37 38  1  0  0  0
 38 39  2  0  0  0
 39 40  1  0  0  0
 39 41  1  0  0  0
 41 42  2  0  0  0
 26  1  1  0  0  0
  1  2  2  0  0  0
  1  3  1  0  0  0
  3  4  1  0  0  0
  4  5  1  0  0  0
  5  6  1  0  0  0
  6  7  1  0  0  0
  7  8  1  0  0  0
  8  9  2  0  0  0
  8 10  1  0  0  0
 10 12  1  0  0  0
 12 18  1  0  0  0
 18 19  1  0  0  0
 19 20  2  0  0  0
 20 21  1  0  0  0
 21 22  2  0  0  0
 22 23  1  0  0  0
 23 24  2  0  0  0
 12 13  1  0  0  0
 13 14  1  0  0  0
 13 15  2  0  0  0
 42 36  1  0  0  0
  7  3  1  0  0  0
 24 19  1  0  0  0
 27 30  1  0  0  0
 32 33  1  0  0  0
 32 34  1  0  0  0
 40 43  1  0  0  0
 10 11  1  0  0  0
 14 16  1  0  0  0
 14 17  1  0  0  0
M  END
> <minimizedAffinity>
-8.88358

> <CNNscore>
0.2456335276

> <CNNaffinity>
6.3521070480

> <CNN_VS>
1.5602904558

> <CNNaffinity_variance>
0.4218695760

$$$$
[H]Oc1c([H])c([H])c(C([H])([H])[C@@]([H])(C(=O)N([H])[C@@]([H])(C(=O)N2C([H])([H])C([H])([H])C([H])([H])[C@@]2([H])C(=O)N([H])[C@]([H])(C(=O)N([H])[H])C([H])([H])c2c([H])c([H])c([H])c([H])c2[H])C([H])([H])[H])N([H])[H])c([H])c1[H]


 43 45  0  0  0  0  0  0  0  0999 V2000
    3.8407  -49.8151  -20.6130 C   0  0  0  0  0  0  0  0  0  0  0  0
    5.1222  -49.6349  -20.3283 O   0  0  0  0  0  0  0  0  0  0  0  0
    3.1037  -50.2560  -19.5265 N   0  0  0  0  0  0  0  0  0  0  0  0
    3.7364  -50.3965  -18.1282 C   0  0  0  0  0  0  0  0  0  0  0  0
    2.7175  -49.6159  -17.3143 C   0  0  0  0  0  0  0  0  0  0  0  0
    1.4385  -49.5476  -18.1826 C   0  0  0  0  0  0  0  0  0  0  0  0
    1.7882  -50.6653  -19.1760 C   0  0  0  0  0  0  0  0  0  0  0  0
    0.7843  -51.0205  -20.1247 C   0  0  0  0  0  0  0  0  0  0  0  0
    0.0739  -50.1958  -20.8000 O   0  0  0  0  0  0  0  0  0  0  0  0
    0.5260  -52.4259  -20.3655 N   0  0  0  0  0  0  0  0  0  0  0  0
    1.0636  -53.1195  -19.8390 H   0  0  0  0  0  0  0  0  0  0  0  0
   -0.4593  -52.8641  -21.3162 C   0  0  0  0  0  0  0  0  0  0  0  0
   -1.4602  -53.7767  -20.6793 C   0  0  0  0  0  0  0  0  0  0  0  0
   -1.6623  -53.6845  -19.2765 N   0  0  0  0  0  0  0  0  0  0  0  0
   -2.1217  -54.6119  -21.3206 O   0  0  0  0  0  0  0  0  0  0  0  0
   -2.4886  -54.0858  -18.7832 H   0  0  0  0  0  0  0  0  0  0  0  0
   -0.9653  -53.1906  -18.6450 H   0  0  0  0  0  0  0  0  0  0  0  0
    0.2548  -53.5969  -22.4325 C   0  0  0  0  0  0  0  0  0  0  0  0
    0.1816  -52.8579  -23.7019 C   0  0  0  0  0  0  0  0  0  0  0  0
   -0.7309  -53.2919  -24.6472 C   0  0  0  0  0  0  0  0  0  0  0  0
   -0.8354  -52.6409  -25.8525 C   0  0  0  0  0  0  0  0  0  0  0  0
   -0.0478  -51.5668  -26.1315 C   0  0  0  0  0  0  0  0  0  0  0  0
    0.8563  -51.1339  -25.1992 C   0  0  0  0  0  0  0  0  0  0  0  0
    0.9883  -51.7754  -23.9585 C   0  0  0  0  0  0  0  0  0  0  0  0
    2.4561  -48.3684  -22.0630 C   0  0  0  0  0  0  0  0  0  0  0  0
    3.4663  -49.5100  -21.9972 C   0  0  0  0  0  0  0  0  0  0  0  0
    4.6802  -49.0825  -22.7233 N   0  0  0  0  0  0  0  0  0  0  0  0
    5.0724  -49.6263  -23.9476 C   0  0  0  0  0  0  0  0  0  0  0  0
    4.3331  -50.5398  -24.4523 O   0  0  0  0  0  0  0  0  0  0  0  0
    5.2305  -48.3413  -22.2525 H   0  0  0  0  0  0  0  0  0  0  0  0
    6.2629  -49.2435  -24.7186 C   0  0  0  0  0  0  0  0  0  0  0  0
    6.9773  -50.4355  -25.0982 N   0  0  0  0  0  0  0  0  0  0  0  0
    7.1492  -51.1107  -24.3300 H   0  0  0  0  0  0  0  0  0  0  0  0
    6.4327  -50.9165  -25.8776 H   0  0  0  0  0  0  0  0  0  0  0  0
    5.9420  -48.4558  -25.9578 C   0  0  0  0  0  0  0  0  0  0  0  0
    5.0610  -47.3192  -25.6704 C   0  0  0  0  0  0  0  0  0  0  0  0
    3.7659  -47.2831  -26.1637 C   0  0  0  0  0  0  0  0  0  0  0  0
    2.9456  -46.2031  -25.8857 C   0  0  0  0  0  0  0  0  0  0  0  0
    3.4218  -45.1638  -25.1166 C   0  0  0  0  0  0  0  0  0  0  0  0
    2.6005  -44.0875  -24.8423 O   0  0  0  0  0  0  0  0  0  0  0  0
    4.7153  -45.1751  -24.6104 C   0  0  0  0  0  0  0  0  0  0  0  0
    5.5185  -46.2660  -24.9014 C   0  0  0  0  0  0  0  0  0  0  0  0
    1.9938  -44.0564  -24.0327 H   0  0  0  0  0  0  0  0  0  0  0  0
 25 26  1  0  0  0
 26 27  1  0  0  0
 27 28  1  0  0  0
 28 29  2  0  0  0
 28 31  1  0  0  0
 31 32  1  0  0  0
 31 35  1  0  0  0
 35 36  1  0  0  0
 36 37  2  0  0  0
 37 38  1  0  0  0
 38 39  2  0  0  0
 39 40  1  0  0  0
 39 41  1  0  0  0
 41 42  2  0  0  0
 26  1  1  0  0  0
  1  2  2  0  0  0
  1  3  1  0  0  0
  3  4  1  0  0  0
  4  5  1  0  0  0
  5  6  1  0  0  0
  6  7  1  0  0  0
  7  8  1  0  0  0
  8  9  2  0  0  0
  8 10  1  0  0  0
 10 12  1  0  0  0
 12 18  1  0  0  0
 18 19  1  0  0  0
 19 20  2  0  0  0
 20 21  1  0  0  0
 21 22  2  0  0  0
 22 23  1  0  0  0
 23 24  2  0  0  0
 12 13  1  0  0  0
 13 14  1  0  0  0
 13 15  2  0  0  0
 42 36  1  0  0  0
  7  3  1  0  0  0
 24 19  1  0  0  0
 27 30  1  0  0  0
 32 33  1  0  0  0
 32 34  1  0  0  0
 40 43  1  0  0  0
 10 11  1  0  0  0
 14 16  1  0  0  0
 14 17  1  0  0  0
M  END
> <minimizedAffinity>
-7.63356

> <CNNscore>
0.2378774881

> <CNNaffinity>
6.3451962471

> <CNN_VS>
1.5093793869

> <CNNaffinity_variance>
0.1771083176

$$$$
[H]Oc1c([H])c([H])c(C([H])([H])[C@@]([H])(C(=O)N([H])[C@@]([H])(C(=O)N2C([H])([H])C([H])([H])C([H])([H])[C@@]2([H])C(=O)N([H])[C@]([H])(C(=O)N([H])[H])C([H])([H])c2c([H])c([H])c([H])c([H])c2[H])C([H])([H])[H])N([H])[H])c([H])c1[H]


 43 45  0  0  0  0  0  0  0  0999 V2000
    5.2287  -48.3858  -22.4887 C   0  0  0  0  0  0  0  0  0  0  0  0
    5.8650  -47.4376  -21.8165 O   0  0  0  0  0  0  0  0  0  0  0  0
    4.4600  -47.8872  -23.5273 N   0  0  0  0  0  0  0  0  0  0  0  0
    4.4701  -46.3893  -23.8892 C   0  0  0  0  0  0  0  0  0  0  0  0
    4.7380  -46.4954  -25.3815 C   0  0  0  0  0  0  0  0  0  0  0  0
    4.3746  -47.9460  -25.7790 C   0  0  0  0  0  0  0  0  0  0  0  0
    3.5530  -48.3147  -24.5350 C   0  0  0  0  0  0  0  0  0  0  0  0
    2.9110  -49.5883  -24.5419 C   0  0  0  0  0  0  0  0  0  0  0  0
    2.3147  -50.1261  -23.5440 O   0  0  0  0  0  0  0  0  0  0  0  0
    2.9178  -50.3599  -25.7684 N   0  0  0  0  0  0  0  0  0  0  0  0
    3.3929  -49.9724  -26.5878 H   0  0  0  0  0  0  0  0  0  0  0  0
    2.2804  -51.6453  -25.8595 C   0  0  0  0  0  0  0  0  0  0  0  0
    3.2624  -52.7546  -25.6464 C   0  0  0  0  0  0  0  0  0  0  0  0
    3.6792  -53.0428  -24.3196 N   0  0  0  0  0  0  0  0  0  0  0  0
    3.7308  -53.4344  -26.5765 O   0  0  0  0  0  0  0  0  0  0  0  0
    4.1526  -53.9291  -24.0414 H   0  0  0  0  0  0  0  0  0  0  0  0
    3.5257  -52.3536  -23.5259 H   0  0  0  0  0  0  0  0  0  0  0  0
    1.6665  -51.7712  -27.2380 C   0  0  0  0  0  0  0  0  0  0  0  0
    0.2095  -51.9593  -27.1691 C   0  0  0  0  0  0  0  0  0  0  0  0
   -0.4242  -52.4869  -28.2802 C   0  0  0  0  0  0  0  0  0  0  0  0
   -1.7848  -52.6771  -28.2708 C   0  0  0  0  0  0  0  0  0  0  0  0
   -2.5234  -52.3514  -27.1751 C   0  0  0  0  0  0  0  0  0  0  0  0
   -1.9005  -51.8293  -26.0736 C   0  0  0  0  0  0  0  0  0  0  0  0
   -0.5130  -51.6226  -26.0497 C   0  0  0  0  0  0  0  0  0  0  0  0
    6.7749  -49.8450  -21.2268 C   0  0  0  0  0  0  0  0  0  0  0  0
    5.4682  -49.7502  -22.0089 C   0  0  0  0  0  0  0  0  0  0  0  0
    4.3668  -50.1219  -21.0967 N   0  0  0  0  0  0  0  0  0  0  0  0
    3.8715  -51.4220  -20.9829 C   0  0  0  0  0  0  0  0  0  0  0  0
    4.4088  -52.3249  -21.7123 O   0  0  0  0  0  0  0  0  0  0  0  0
    3.9795  -49.3382  -20.5402 H   0  0  0  0  0  0  0  0  0  0  0  0
    2.7838  -51.8550  -20.0954 C   0  0  0  0  0  0  0  0  0  0  0  0
    3.0722  -51.4163  -18.7539 N   0  0  0  0  0  0  0  0  0  0  0  0
    4.0284  -51.6315  -18.4150 H   0  0  0  0  0  0  0  0  0  0  0  0
    2.9068  -50.3648  -18.7043 H   0  0  0  0  0  0  0  0  0  0  0  0
    1.4375  -51.3232  -20.5001 C   0  0  0  0  0  0  0  0  0  0  0  0
    0.5775  -52.3750  -21.0523 C   0  0  0  0  0  0  0  0  0  0  0  0
    0.6061  -52.6772  -22.4050 C   0  0  0  0  0  0  0  0  0  0  0  0
   -0.2123  -53.6716  -22.9129 C   0  0  0  0  0  0  0  0  0  0  0  0
   -1.0556  -54.3599  -22.0683 C   0  0  0  0  0  0  0  0  0  0  0  0
   -1.8714  -55.3507  -22.5791 O   0  0  0  0  0  0  0  0  0  0  0  0
   -1.1038  -54.0767  -20.7092 C   0  0  0  0  0  0  0  0  0  0  0  0
   -0.2761  -53.0775  -20.2230 C   0  0  0  0  0  0  0  0  0  0  0  0
   -1.5803  -56.3181  -22.6434 H   0  0  0  0  0  0  0  0  0  0  0  0
 25 26  1  0  0  0
 26 27  1  0  0  0
 27 28  1  0  0  0
 28 29  2  0  0  0
 28 31  1  0  0  0
 31 32  1  0  0  0
 31 35  1  0  0  0
 35 36  1  0  0  0
 36 37  2  0  0  0
 37 38  1  0  0  0
 38 39  2  0  0  0
 39 40  1  0  0  0
 39 41  1  0  0  0
 41 42  2  0  0  0
 26  1  1  0  0  0
  1  2  2  0  0  0
  1  3  1  0  0  0
  3  4  1  0  0  0
  4  5  1  0  0  0
  5  6  1  0  0  0
  6  7  1  0  0  0
  7  8  1  0  0  0
  8  9  2  0  0  0
  8 10  1  0  0  0
 10 12  1  0  0  0
 12 18  1  0  0  0
 18 19  1  0  0  0
 19 20  2  0  0  0
 20 21  1  0  0  0
 21 22  2  0  0  0
 22 23  1  0  0  0
 23 24  2  0  0  0
 12 13  1  0  0  0
 13 14  1  0  0  0
 13 15  2  0  0  0
 42 36  1  0  0  0
  7  3  1  0  0  0
 24 19  1  0  0  0
 27 30  1  0  0  0
 32 33  1  0  0  0
 32 34  1  0  0  0
 40 43  1  0  0  0
 10 11  1  0  0  0
 14 16  1  0  0  0
 14 17  1  0  0  0
M  END
> <minimizedAffinity>
-8.18675

> <CNNscore>
0.2352317274

> <CNNaffinity>
6.5449590683

> <CNN_VS>
1.5395820141

> <CNNaffinity_variance>
0.0732403025

$$$$
[H]Oc1c([H])c([H])c(C([H])([H])[C@@]([H])(C(=O)N([H])[C@@]([H])(C(=O)N2C([H])([H])C([H])([H])C([H])([H])[C@@]2([H])C(=O)N([H])[C@]([H])(C(=O)N([H])[H])C([H])([H])c2c([H])c([H])c([H])c([H])c2[H])C([H])([H])[H])N([H])[H])c([H])c1[H]


 43 45  0  0  0  0  0  0  0  0999 V2000
    1.9675  -50.3770  -22.2326 C   0  0  0  0  0  0  0  0  0  0  0  0
    2.1413  -50.1867  -23.5324 O   0  0  0  0  0  0  0  0  0  0  0  0
    2.7845  -49.5725  -21.4558 N   0  0  0  0  0  0  0  0  0  0  0  0
    3.6993  -48.5053  -22.0878 C   0  0  0  0  0  0  0  0  0  0  0  0
    3.2979  -47.3041  -21.2475 C   0  0  0  0  0  0  0  0  0  0  0  0
    2.6188  -47.8766  -19.9804 C   0  0  0  0  0  0  0  0  0  0  0  0
    3.1208  -49.3231  -20.0973 C   0  0  0  0  0  0  0  0  0  0  0  0
    2.8015  -50.2041  -19.0221 C   0  0  0  0  0  0  0  0  0  0  0  0
    3.3615  -51.3332  -18.7941 O   0  0  0  0  0  0  0  0  0  0  0  0
    1.7601  -49.8131  -18.0933 N   0  0  0  0  0  0  0  0  0  0  0  0
    1.2784  -48.9230  -18.2445 H   0  0  0  0  0  0  0  0  0  0  0  0
    1.3904  -50.6394  -16.9764 C   0  0  0  0  0  0  0  0  0  0  0  0
   -0.0951  -50.7992  -16.8875 C   0  0  0  0  0  0  0  0  0  0  0  0
   -0.8234  -49.9006  -16.0633 N   0  0  0  0  0  0  0  0  0  0  0  0
   -0.7207  -51.6821  -17.5004 O   0  0  0  0  0  0  0  0  0  0  0  0
   -1.8559  -49.7683  -16.1227 H   0  0  0  0  0  0  0  0  0  0  0  0
   -0.3412  -49.3046  -15.3279 H   0  0  0  0  0  0  0  0  0  0  0  0
    1.9051  -49.9829  -15.7127 C   0  0  0  0  0  0  0  0  0  0  0  0
    2.6316  -50.9371  -14.8615 C   0  0  0  0  0  0  0  0  0  0  0  0
    2.1581  -51.1441  -13.5779 C   0  0  0  0  0  0  0  0  0  0  0  0
    2.8035  -52.0203  -12.7393 C   0  0  0  0  0  0  0  0  0  0  0  0
    3.9105  -52.6926  -13.1570 C   0  0  0  0  0  0  0  0  0  0  0  0
    4.3824  -52.4910  -14.4261 C   0  0  0  0  0  0  0  0  0  0  0  0
    3.7471  -51.6039  -15.3081 C   0  0  0  0  0  0  0  0  0  0  0  0
   -0.0786  -50.8161  -20.9161 C   0  0  0  0  0  0  0  0  0  0  0  0
    0.9567  -51.3802  -21.8847 C   0  0  0  0  0  0  0  0  0  0  0  0
    0.2510  -51.7768  -23.1209 N   0  0  0  0  0  0  0  0  0  0  0  0
   -0.1721  -53.0821  -23.3768 C   0  0  0  0  0  0  0  0  0  0  0  0
    0.0715  -53.9674  -22.4864 O   0  0  0  0  0  0  0  0  0  0  0  0
    0.0916  -51.0076  -23.7968 H   0  0  0  0  0  0  0  0  0  0  0  0
   -0.8787  -53.5383  -24.5813 C   0  0  0  0  0  0  0  0  0  0  0  0
   -1.1704  -52.3983  -25.4122 N   0  0  0  0  0  0  0  0  0  0  0  0
   -1.6087  -51.5959  -24.9228 H   0  0  0  0  0  0  0  0  0  0  0  0
   -0.2635  -52.0805  -25.8725 H   0  0  0  0  0  0  0  0  0  0  0  0
   -0.0974  -54.5379  -25.3873 C   0  0  0  0  0  0  0  0  0  0  0  0
    0.8868  -53.8881  -26.2589 C   0  0  0  0  0  0  0  0  0  0  0  0
    1.9477  -53.1748  -25.7226 C   0  0  0  0  0  0  0  0  0  0  0  0
    2.8686  -52.5652  -26.5574 C   0  0  0  0  0  0  0  0  0  0  0  0
    2.7264  -52.6701  -27.9238 C   0  0  0  0  0  0  0  0  0  0  0  0
    3.6468  -52.0595  -28.7534 O   0  0  0  0  0  0  0  0  0  0  0  0
    1.6725  -53.3786  -28.4868 C   0  0  0  0  0  0  0  0  0  0  0  0
    0.7629  -53.9804  -27.6322 C   0  0  0  0  0  0  0  0  0  0  0  0
    4.4868  -52.5252  -29.0730 H   0  0  0  0  0  0  0  0  0  0  0  0
 25 26  1  0  0  0
 26 27  1  0  0  0
 27 28  1  0  0  0
 28 29  2  0  0  0
 28 31  1  0  0  0
 31 32  1  0  0  0
 31 35  1  0  0  0
 35 36  1  0  0  0
 36 37  2  0  0  0
 37 38  1  0  0  0
 38 39  2  0  0  0
 39 40  1  0  0  0
 39 41  1  0  0  0
 41 42  2  0  0  0
 26  1  1  0  0  0
  1  2  2  0  0  0
  1  3  1  0  0  0
  3  4  1  0  0  0
  4  5  1  0  0  0
  5  6  1  0  0  0
  6  7  1  0  0  0
  7  8  1  0  0  0
  8  9  2  0  0  0
  8 10  1  0  0  0
 10 12  1  0  0  0
 12 18  1  0  0  0
 18 19  1  0  0  0
 19 20  2  0  0  0
 20 21  1  0  0  0
 21 22  2  0  0  0
 22 23  1  0  0  0
 23 24  2  0  0  0
 12 13  1  0  0  0
 13 14  1  0  0  0
 13 15  2  0  0  0
 42 36  1  0  0  0
  7  3  1  0  0  0
 24 19  1  0  0  0
 27 30  1  0  0  0
 32 33  1  0  0  0
 32 34  1  0  0  0
 40 43  1  0  0  0
 10 11  1  0  0  0
 14 16  1  0  0  0
 14 17  1  0  0  0
M  END
> <minimizedAffinity>
-7.31843

> <CNNscore>
0.2195255309

> <CNNaffinity>
6.2103323936

> <CNN_VS>
1.3633265495

> <CNNaffinity_variance>
0.0529478267

$$$$
[H]c1nc([H])c(-c2c(OC([H])(C([H])([H])[H])C([H])([H])[H])nc3sc(N([H])C(=O)N([H])C([H])([H])C([H])([H])[H])nc3c2[H])c([H])c1[H]


 27 29  0  0  0  0  0  0  0  0999 V2000
   -0.4921  -52.9419  -19.2683 C   0  0  0  0  0  0  0  0  0  0  0  0
   -0.9276  -53.1859  -20.4892 N   0  0  0  0  0  0  0  0  0  0  0  0
   -0.1722  -52.9284  -21.5156 C   0  0  0  0  0  0  0  0  0  0  0  0
   -0.4598  -53.1191  -22.8806 C   0  0  0  0  0  0  0  0  0  0  0  0
    0.4244  -52.8068  -23.8732 C   0  0  0  0  0  0  0  0  0  0  0  0
    1.6605  -52.2804  -23.5632 C   0  0  0  0  0  0  0  0  0  0  0  0
    1.9592  -52.0888  -22.2645 N   0  0  0  0  0  0  0  0  0  0  0  0
    1.0707  -52.4030  -21.2709 C   0  0  0  0  0  0  0  0  0  0  0  0
    1.0703  -52.3131  -19.5620 S   0  0  0  0  0  0  0  0  0  0  0  0
   -1.8494  -52.3795  -15.7960 N   0  0  0  0  0  0  0  0  0  0  0  0
   -1.1836  -52.1442  -17.0148 C   0  0  0  0  0  0  0  0  0  0  0  0
   -0.6123  -51.0330  -17.1994 O   0  0  0  0  0  0  0  0  0  0  0  0
   -1.1651  -53.1532  -18.0113 N   0  0  0  0  0  0  0  0  0  0  0  0
   -2.3229  -53.2835  -15.6269 H   0  0  0  0  0  0  0  0  0  0  0  0
   -1.6286  -54.0420  -17.8494 H   0  0  0  0  0  0  0  0  0  0  0  0
   -3.1676  -50.5883  -14.8628 C   0  0  0  0  0  0  0  0  0  0  0  0
   -1.8722  -51.3632  -14.7838 C   0  0  0  0  0  0  0  0  0  0  0  0
    0.0576  -53.0396  -25.2958 C   0  0  0  0  0  0  0  0  0  0  0  0
   -0.4906  -52.0299  -26.0253 C   0  0  0  0  0  0  0  0  0  0  0  0
   -0.8358  -52.2509  -27.3456 C   0  0  0  0  0  0  0  0  0  0  0  0
   -0.6078  -53.5015  -27.8766 C   0  0  0  0  0  0  0  0  0  0  0  0
   -0.0673  -54.4736  -27.1337 N   0  0  0  0  0  0  0  0  0  0  0  0
    0.2652  -54.2659  -25.8669 C   0  0  0  0  0  0  0  0  0  0  0  0
    2.5275  -51.9757  -24.5843 O   0  0  0  0  0  0  0  0  0  0  0  0
    3.0505  -50.6722  -24.6603 C   0  0  0  0  0  0  0  0  0  0  0  0
    2.6982  -50.0475  -25.9776 C   0  0  0  0  0  0  0  0  0  0  0  0
    4.5642  -50.7981  -24.5064 C   0  0  0  0  0  0  0  0  0  0  0  0
 16 17  1  0  0  0
 17 10  1  0  0  0
 10 11  1  0  0  0
 11 12  2  0  0  0
 11 13  1  0  0  0
 13  1  1  0  0  0
  1  2  2  0  0  0
  2  3  1  0  0  0
  3  4  2  0  0  0
  4  5  1  0  0  0
  5 18  1  0  0  0
 18 19  2  0  0  0
 19 20  1  0  0  0
 20 21  2  0  0  0
 21 22  1  0  0  0
 22 23  2  0  0  0
  5  6  2  0  0  0
  6 24  1  0  0  0
 24 25  1  0  0  0
 25 26  1  0  0  0
 25 27  1  0  0  0
  6  7  1  0  0  0
  7  8  2  0  0  0
  8  9  1  0  0  0
  9  1  1  0  0  0
  8  3  1  0  0  0
 23 18  1  0  0  0
 10 14  1  0  0  0
 13 15  1  0  0  0
M  END
> <minimizedAffinity>
-7.48261

> <CNNscore>
0.6761366725

> <CNNaffinity>
6.4997014999

> <CNN_VS>
4.3946866989

> <CNNaffinity_variance>
0.2187426090

$$$$
[H]c1nc([H])c(-c2c(OC([H])(C([H])([H])[H])C([H])([H])[H])nc3sc(N([H])C(=O)N([H])C([H])([H])C([H])([H])[H])nc3c2[H])c([H])c1[H]


 27 29  0  0  0  0  0  0  0  0999 V2000
   -0.7398  -53.0809  -19.0668 C   0  0  0  0  0  0  0  0  0  0  0  0
    0.3573  -52.5156  -19.5322 N   0  0  0  0  0  0  0  0  0  0  0  0
    0.6153  -52.5417  -20.8063 C   0  0  0  0  0  0  0  0  0  0  0  0
    1.7238  -51.9987  -21.4835 C   0  0  0  0  0  0  0  0  0  0  0  0
    1.8823  -52.0925  -22.8365 C   0  0  0  0  0  0  0  0  0  0  0  0
    0.9371  -52.7395  -23.6042 C   0  0  0  0  0  0  0  0  0  0  0  0
   -0.1324  -53.2672  -22.9796 N   0  0  0  0  0  0  0  0  0  0  0  0
   -0.2891  -53.1715  -21.6225 C   0  0  0  0  0  0  0  0  0  0  0  0
   -1.4633  -53.6901  -20.4909 S   0  0  0  0  0  0  0  0  0  0  0  0
   -1.5524  -52.1625  -15.5014 N   0  0  0  0  0  0  0  0  0  0  0  0
   -1.0886  -52.0539  -16.8270 C   0  0  0  0  0  0  0  0  0  0  0  0
   -0.5748  -50.9662  -17.2120 O   0  0  0  0  0  0  0  0  0  0  0  0
   -1.2052  -53.1616  -17.7049 N   0  0  0  0  0  0  0  0  0  0  0  0
   -1.9761  -53.0453  -15.1682 H   0  0  0  0  0  0  0  0  0  0  0  0
   -1.6204  -54.0301  -17.3819 H   0  0  0  0  0  0  0  0  0  0  0  0
   -2.7507  -50.2993  -14.5477 C   0  0  0  0  0  0  0  0  0  0  0  0
   -1.4377  -51.0459  -14.6081 C   0  0  0  0  0  0  0  0  0  0  0  0
    3.0758  -51.4904  -23.4887 C   0  0  0  0  0  0  0  0  0  0  0  0
    4.2005  -52.2375  -23.6594 C   0  0  0  0  0  0  0  0  0  0  0  0
    5.3102  -51.6735  -24.2607 C   0  0  0  0  0  0  0  0  0  0  0  0
    5.2315  -50.3599  -24.6682 C   0  0  0  0  0  0  0  0  0  0  0  0
    4.1116  -49.6514  -24.4864 N   0  0  0  0  0  0  0  0  0  0  0  0
    3.0450  -50.1887  -23.9100 C   0  0  0  0  0  0  0  0  0  0  0  0
    1.1256  -52.8180  -24.9628 O   0  0  0  0  0  0  0  0  0  0  0  0
    0.0146  -53.0787  -25.7851 C   0  0  0  0  0  0  0  0  0  0  0  0
    0.4269  -53.9031  -26.9684 C   0  0  0  0  0  0  0  0  0  0  0  0
   -0.5284  -51.7231  -26.2302 C   0  0  0  0  0  0  0  0  0  0  0  0
 16 17  1  0  0  0
 17 10  1  0  0  0
 10 11  1  0  0  0
 11 12  2  0  0  0
 11 13  1  0  0  0
 13  1  1  0  0  0
  1  2  2  0  0  0
  2  3  1  0  0  0
  3  4  2  0  0  0
  4  5  1  0  0  0
  5 18  1  0  0  0
 18 19  2  0  0  0
 19 20  1  0  0  0
 20 21  2  0  0  0
 21 22  1  0  0  0
 22 23  2  0  0  0
  5  6  2  0  0  0
  6 24  1  0  0  0
 24 25  1  0  0  0
 25 26  1  0  0  0
 25 27  1  0  0  0
  6  7  1  0  0  0
  7  8  2  0  0  0
  8  9  1  0  0  0
  9  1  1  0  0  0
  8  3  1  0  0  0
 23 18  1  0  0  0
 10 14  1  0  0  0
 13 15  1  0  0  0
M  END
> <minimizedAffinity>
-7.05177

> <CNNscore>
0.6155123711

> <CNNaffinity>
6.3643283844

> <CNN_VS>
3.9173228741

> <CNNaffinity_variance>
0.1166850105

$$$$
[H]c1nc([H])c(-c2c(OC([H])(C([H])([H])[H])C([H])([H])[H])nc3sc(N([H])C(=O)N([H])C([H])([H])C([H])([H])[H])nc3c2[H])c([H])c1[H]


 27 29  0  0  0  0  0  0  0  0999 V2000
   -0.3390  -53.6023  -22.9214 C   0  0  0  0  0  0  0  0  0  0  0  0
    0.5017  -52.7389  -22.3853 N   0  0  0  0  0  0  0  0  0  0  0  0
    0.4256  -52.4535  -21.1190 C   0  0  0  0  0  0  0  0  0  0  0  0
    1.2265  -51.5664  -20.3748 C   0  0  0  0  0  0  0  0  0  0  0  0
    1.0457  -51.3508  -19.0386 C   0  0  0  0  0  0  0  0  0  0  0  0
    0.0464  -52.0120  -18.3564 C   0  0  0  0  0  0  0  0  0  0  0  0
   -0.7330  -52.8658  -19.0464 N   0  0  0  0  0  0  0  0  0  0  0  0
   -0.5495  -53.0805  -20.3864 C   0  0  0  0  0  0  0  0  0  0  0  0
   -1.3004  -54.0494  -21.5803 S   0  0  0  0  0  0  0  0  0  0  0  0
   -0.7679  -53.6070  -26.6673 N   0  0  0  0  0  0  0  0  0  0  0  0
   -0.6929  -53.1393  -25.3407 C   0  0  0  0  0  0  0  0  0  0  0  0
   -0.8690  -51.9099  -25.1109 O   0  0  0  0  0  0  0  0  0  0  0  0
   -0.4219  -54.0510  -24.2888 N   0  0  0  0  0  0  0  0  0  0  0  0
   -0.6263  -54.6104  -26.8749 H   0  0  0  0  0  0  0  0  0  0  0  0
   -0.2823  -55.0368  -24.4881 H   0  0  0  0  0  0  0  0  0  0  0  0
   -0.1118  -52.9620  -28.8967 C   0  0  0  0  0  0  0  0  0  0  0  0
   -1.0416  -52.6903  -27.7363 C   0  0  0  0  0  0  0  0  0  0  0  0
    1.9327  -50.4035  -18.3119 C   0  0  0  0  0  0  0  0  0  0  0  0
    2.8713  -50.8832  -17.4509 C   0  0  0  0  0  0  0  0  0  0  0  0
    3.6904  -50.0000  -16.7724 C   0  0  0  0  0  0  0  0  0  0  0  0
    3.5210  -48.6517  -16.9985 C   0  0  0  0  0  0  0  0  0  0  0  0
    2.5893  -48.2111  -17.8511 N   0  0  0  0  0  0  0  0  0  0  0  0
    1.8015  -49.0548  -18.5038 C   0  0  0  0  0  0  0  0  0  0  0  0
   -0.1108  -51.7729  -17.0127 O   0  0  0  0  0  0  0  0  0  0  0  0
   -1.1607  -50.9360  -16.5937 C   0  0  0  0  0  0  0  0  0  0  0  0
   -0.6209  -49.7851  -15.7975 C   0  0  0  0  0  0  0  0  0  0  0  0
   -2.0926  -51.7954  -15.7428 C   0  0  0  0  0  0  0  0  0  0  0  0
 16 17  1  0  0  0
 17 10  1  0  0  0
 10 11  1  0  0  0
 11 12  2  0  0  0
 11 13  1  0  0  0
 13  1  1  0  0  0
  1  2  2  0  0  0
  2  3  1  0  0  0
  3  4  2  0  0  0
  4  5  1  0  0  0
  5 18  1  0  0  0
 18 19  2  0  0  0
 19 20  1  0  0  0
 20 21  2  0  0  0
 21 22  1  0  0  0
 22 23  2  0  0  0
  5  6  2  0  0  0
  6 24  1  0  0  0
 24 25  1  0  0  0
 25 26  1  0  0  0
 25 27  1  0  0  0
  6  7  1  0  0  0
  7  8  2  0  0  0
  8  9  1  0  0  0
  9  1  1  0  0  0
  8  3  1  0  0  0
 23 18  1  0  0  0
 10 14  1  0  0  0
 13 15  1  0  0  0
M  END
> <minimizedAffinity>
-6.57037

> <CNNscore>
0.6001764536

> <CNNaffinity>
6.5279006958

> <CNN_VS>
3.9178922176

> <CNNaffinity_variance>
0.1454588026

$$$$
[H]c1nc([H])c(-c2c(OC([H])(C([H])([H])[H])C([H])([H])[H])nc3sc(N([H])C(=O)N([H])C([H])([H])C([H])([H])[H])nc3c2[H])c([H])c1[H]


 27 29  0  0  0  0  0  0  0  0999 V2000
   -0.5163  -52.7706  -18.8159 C   0  0  0  0  0  0  0  0  0  0  0  0
   -0.9512  -53.0368  -20.0324 N   0  0  0  0  0  0  0  0  0  0  0  0
   -0.2098  -52.7643  -21.0651 C   0  0  0  0  0  0  0  0  0  0  0  0
   -0.4994  -52.9738  -22.4270 C   0  0  0  0  0  0  0  0  0  0  0  0
    0.3692  -52.6424  -23.4270 C   0  0  0  0  0  0  0  0  0  0  0  0
    1.5906  -52.0765  -23.1283 C   0  0  0  0  0  0  0  0  0  0  0  0
    1.8908  -51.8662  -21.8328 N   0  0  0  0  0  0  0  0  0  0  0  0
    1.0180  -52.1997  -20.8317 C   0  0  0  0  0  0  0  0  0  0  0  0
    1.0246  -52.0971  -19.1235 S   0  0  0  0  0  0  0  0  0  0  0  0
   -1.9693  -52.1897  -15.3857 N   0  0  0  0  0  0  0  0  0  0  0  0
   -1.3206  -51.9426  -16.6113 C   0  0  0  0  0  0  0  0  0  0  0  0
   -0.8779  -50.7842  -16.8507 O   0  0  0  0  0  0  0  0  0  0  0  0
   -1.1753  -52.9928  -17.5533 N   0  0  0  0  0  0  0  0  0  0  0  0
   -2.3384  -53.1321  -15.1721 H   0  0  0  0  0  0  0  0  0  0  0  0
   -1.5361  -53.9194  -17.3477 H   0  0  0  0  0  0  0  0  0  0  0  0
   -3.4977  -50.5221  -14.5490 C   0  0  0  0  0  0  0  0  0  0  0  0
   -2.1199  -51.1321  -14.4282 C   0  0  0  0  0  0  0  0  0  0  0  0
    0.0015  -52.8968  -24.8456 C   0  0  0  0  0  0  0  0  0  0  0  0
   -0.4243  -51.8674  -25.6275 C   0  0  0  0  0  0  0  0  0  0  0  0
   -0.7709  -52.1079  -26.9441 C   0  0  0  0  0  0  0  0  0  0  0  0
   -0.6698  -53.3976  -27.4176 C   0  0  0  0  0  0  0  0  0  0  0  0
   -0.2480  -54.3883  -26.6241 N   0  0  0  0  0  0  0  0  0  0  0  0
    0.0854  -54.1619  -25.3608 C   0  0  0  0  0  0  0  0  0  0  0  0
    2.4421  -51.7533  -24.1568 O   0  0  0  0  0  0  0  0  0  0  0  0
    3.4189  -52.6883  -24.5443 C   0  0  0  0  0  0  0  0  0  0  0  0
    4.7627  -52.2851  -24.0138 C   0  0  0  0  0  0  0  0  0  0  0  0
    3.4220  -52.7109  -26.0708 C   0  0  0  0  0  0  0  0  0  0  0  0
 16 17  1  0  0  0
 17 10  1  0  0  0
 10 11  1  0  0  0
 11 12  2  0  0  0
 11 13  1  0  0  0
 13  1  1  0  0  0
  1  2  2  0  0  0
  2  3  1  0  0  0
  3  4  2  0  0  0
  4  5  1  0  0  0
  5 18  1  0  0  0
 18 19  2  0  0  0
 19 20  1  0  0  0
 20 21  2  0  0  0
 21 22  1  0  0  0
 22 23  2  0  0  0
  5  6  2  0  0  0
  6 24  1  0  0  0
 24 25  1  0  0  0
 25 26  1  0  0  0
 25 27  1  0  0  0
  6  7  1  0  0  0
  7  8  2  0  0  0
  8  9  1  0  0  0
  9  1  1  0  0  0
  8  3  1  0  0  0
 23 18  1  0  0  0
 10 14  1  0  0  0
 13 15  1  0  0  0
M  END
> <minimizedAffinity>
-7.71524

> <CNNscore>
0.5977404714

> <CNNaffinity>
6.4050474167

> <CNN_VS>
3.8285560608

> <CNNaffinity_variance>
0.2049095631

$$$$
[H]c1nc([H])c(-c2c(OC([H])(C([H])([H])[H])C([H])([H])[H])nc3sc(N([H])C(=O)N([H])C([H])([H])C([H])([H])[H])nc3c2[H])c([H])c1[H]


 27 29  0  0  0  0  0  0  0  0999 V2000
   -1.0529  -52.6996  -18.2654 C   0  0  0  0  0  0  0  0  0  0  0  0
   -1.2165  -53.1575  -19.4916 N   0  0  0  0  0  0  0  0  0  0  0  0
   -0.5717  -52.6160  -20.4823 C   0  0  0  0  0  0  0  0  0  0  0  0
   -0.6156  -52.9634  -21.8460 C   0  0  0  0  0  0  0  0  0  0  0  0
    0.1152  -52.3129  -22.7985 C   0  0  0  0  0  0  0  0  0  0  0  0
    0.9417  -51.2667  -22.4470 C   0  0  0  0  0  0  0  0  0  0  0  0
    1.0010  -50.9156  -21.1487 N   0  0  0  0  0  0  0  0  0  0  0  0
    0.2672  -51.5698  -20.1952 C   0  0  0  0  0  0  0  0  0  0  0  0
    0.0707  -51.4328  -18.5008 S   0  0  0  0  0  0  0  0  0  0  0  0
   -3.5403  -53.1843  -15.4738 N   0  0  0  0  0  0  0  0  0  0  0  0
   -2.9663  -52.7229  -16.6745 C   0  0  0  0  0  0  0  0  0  0  0  0
   -3.6229  -51.9289  -17.4051 O   0  0  0  0  0  0  0  0  0  0  0  0
   -1.6666  -53.1545  -17.0431 N   0  0  0  0  0  0  0  0  0  0  0  0
   -3.0176  -53.8349  -14.8626 H   0  0  0  0  0  0  0  0  0  0  0  0
   -1.1500  -53.7931  -16.4460 H   0  0  0  0  0  0  0  0  0  0  0  0
   -5.7202  -53.9513  -14.7834 C   0  0  0  0  0  0  0  0  0  0  0  0
   -4.8546  -52.7519  -15.0949 C   0  0  0  0  0  0  0  0  0  0  0  0
    0.0257  -52.7360  -24.2217 C   0  0  0  0  0  0  0  0  0  0  0  0
   -0.8419  -52.1058  -25.0599 C   0  0  0  0  0  0  0  0  0  0  0  0
   -0.9271  -52.5050  -26.3807 C   0  0  0  0  0  0  0  0  0  0  0  0
   -0.1192  -53.5389  -26.8006 C   0  0  0  0  0  0  0  0  0  0  0  0
    0.7235  -54.1385  -25.9525 N   0  0  0  0  0  0  0  0  0  0  0  0
    0.8083  -53.7587  -24.6849 C   0  0  0  0  0  0  0  0  0  0  0  0
    1.6633  -50.6318  -23.4286 O   0  0  0  0  0  0  0  0  0  0  0  0
    3.0650  -50.5926  -23.3185 C   0  0  0  0  0  0  0  0  0  0  0  0
    3.5648  -49.1970  -23.5475 C   0  0  0  0  0  0  0  0  0  0  0  0
    3.6141  -51.5467  -24.3763 C   0  0  0  0  0  0  0  0  0  0  0  0
 16 17  1  0  0  0
 17 10  1  0  0  0
 10 11  1  0  0  0
 11 12  2  0  0  0
 11 13  1  0  0  0
 13  1  1  0  0  0
  1  2  2  0  0  0
  2  3  1  0  0  0
  3  4  2  0  0  0
  4  5  1  0  0  0
  5 18  1  0  0  0
 18 19  2  0  0  0
 19 20  1  0  0  0
 20 21  2  0  0  0
 21 22  1  0  0  0
 22 23  2  0  0  0
  5  6  2  0  0  0
  6 24  1  0  0  0
 24 25  1  0  0  0
 25 26  1  0  0  0
 25 27  1  0  0  0
  6  7  1  0  0  0
  7  8  2  0  0  0
  8  9  1  0  0  0
  9  1  1  0  0  0
  8  3  1  0  0  0
 23 18  1  0  0  0
 10 14  1  0  0  0
 13 15  1  0  0  0
M  END
> <minimizedAffinity>
-6.20998

> <CNNscore>
0.5622317195

> <CNNaffinity>
6.3553705215

> <CNN_VS>
3.5731909275

> <CNNaffinity_variance>
0.3729156852

$$$$
[H]c1nc([H])c(-c2c(OC([H])(C([H])([H])[H])C([H])([H])[H])nc3sc(N([H])C(=O)N([H])C([H])([H])C([H])([H])[H])nc3c2[H])c([H])c1[H]


 27 29  0  0  0  0  0  0  0  0999 V2000
    0.1693  -53.3659  -24.1715 C   0  0  0  0  0  0  0  0  0  0  0  0
    0.3462  -53.3645  -22.8645 N   0  0  0  0  0  0  0  0  0  0  0  0
    0.7207  -52.2775  -22.2573 C   0  0  0  0  0  0  0  0  0  0  0  0
    0.9584  -52.0832  -20.8832 C   0  0  0  0  0  0  0  0  0  0  0  0
    1.3515  -50.8833  -20.3634 C   0  0  0  0  0  0  0  0  0  0  0  0
    1.5335  -49.7938  -21.1888 C   0  0  0  0  0  0  0  0  0  0  0  0
    1.3123  -49.9546  -22.5070 N   0  0  0  0  0  0  0  0  0  0  0  0
    0.9179  -51.1590  -23.0259 C   0  0  0  0  0  0  0  0  0  0  0  0
    0.5476  -51.7515  -24.5879 S   0  0  0  0  0  0  0  0  0  0  0  0
   -1.1246  -56.7093  -25.3390 N   0  0  0  0  0  0  0  0  0  0  0  0
   -0.7335  -55.6644  -24.4791 C   0  0  0  0  0  0  0  0  0  0  0  0
   -0.8313  -55.8259  -23.2303 O   0  0  0  0  0  0  0  0  0  0  0  0
   -0.2386  -54.4529  -25.0258 N   0  0  0  0  0  0  0  0  0  0  0  0
   -1.0517  -56.5952  -26.3645 H   0  0  0  0  0  0  0  0  0  0  0  0
   -0.1654  -54.3367  -26.0319 H   0  0  0  0  0  0  0  0  0  0  0  0
   -1.9877  -58.8873  -25.9117 C   0  0  0  0  0  0  0  0  0  0  0  0
   -1.6261  -57.9373  -24.7929 C   0  0  0  0  0  0  0  0  0  0  0  0
    1.5796  -50.7461  -18.9000 C   0  0  0  0  0  0  0  0  0  0  0  0
    2.8145  -50.9925  -18.3834 C   0  0  0  0  0  0  0  0  0  0  0  0
    3.0222  -50.8698  -17.0222 C   0  0  0  0  0  0  0  0  0  0  0  0
    1.9560  -50.4980  -16.2329 C   0  0  0  0  0  0  0  0  0  0  0  0
    0.7540  -50.2628  -16.7705 N   0  0  0  0  0  0  0  0  0  0  0  0
    0.5506  -50.3794  -18.0756 C   0  0  0  0  0  0  0  0  0  0  0  0
    1.9303  -48.6006  -20.6356 O   0  0  0  0  0  0  0  0  0  0  0  0
    3.2390  -48.1456  -20.8779 C   0  0  0  0  0  0  0  0  0  0  0  0
    3.8691  -47.6736  -19.6012 C   0  0  0  0  0  0  0  0  0  0  0  0
    3.1259  -47.0020  -21.8830 C   0  0  0  0  0  0  0  0  0  0  0  0
 16 17  1  0  0  0
 17 10  1  0  0  0
 10 11  1  0  0  0
 11 12  2  0  0  0
 11 13  1  0  0  0
 13  1  1  0  0  0
  1  2  2  0  0  0
  2  3  1  0  0  0
  3  4  2  0  0  0
  4  5  1  0  0  0
  5 18  1  0  0  0
 18 19  2  0  0  0
 19 20  1  0  0  0
 20 21  2  0  0  0
 21 22  1  0  0  0
 22 23  2  0  0  0
  5  6  2  0  0  0
  6 24  1  0  0  0
 24 25  1  0  0  0
 25 26  1  0  0  0
 25 27  1  0  0  0
  6  7  1  0  0  0
  7  8  2  0  0  0
  8  9  1  0  0  0
  9  1  1  0  0  0
  8  3  1  0  0  0
 23 18  1  0  0  0
 10 14  1  0  0  0
 13 15  1  0  0  0
M  END
> <minimizedAffinity>
-3.30609

> <CNNscore>
0.5226389170

> <CNNaffinity>
6.3657860756

> <CNN_VS>
3.3270075321

> <CNNaffinity_variance>
0.6994591951

$$$$
[H]c1nc([H])c(-c2c(OC([H])(C([H])([H])[H])C([H])([H])[H])nc3sc(N([H])C(=O)N([H])C([H])([H])C([H])([H])[H])nc3c2[H])c([H])c1[H]


 27 29  0  0  0  0  0  0  0  0999 V2000
   -0.0276  -53.3885  -23.6656 C   0  0  0  0  0  0  0  0  0  0  0  0
    0.8027  -52.4445  -23.2668 N   0  0  0  0  0  0  0  0  0  0  0  0
    0.8794  -52.1318  -22.0071 C   0  0  0  0  0  0  0  0  0  0  0  0
    1.6974  -51.1618  -21.3970 C   0  0  0  0  0  0  0  0  0  0  0  0
    1.6866  -50.9253  -20.0522 C   0  0  0  0  0  0  0  0  0  0  0  0
    0.8519  -51.6476  -19.2258 C   0  0  0  0  0  0  0  0  0  0  0  0
    0.0599  -52.5812  -19.7857 N   0  0  0  0  0  0  0  0  0  0  0  0
    0.0728  -52.8166  -21.1347 C   0  0  0  0  0  0  0  0  0  0  0  0
   -0.7515  -53.8764  -22.1957 S   0  0  0  0  0  0  0  0  0  0  0  0
   -0.9248  -53.5201  -27.3253 N   0  0  0  0  0  0  0  0  0  0  0  0
   -0.7049  -53.0114  -26.0303 C   0  0  0  0  0  0  0  0  0  0  0  0
   -0.9077  -51.7846  -25.8086 O   0  0  0  0  0  0  0  0  0  0  0  0
   -0.2613  -53.8797  -25.0005 N   0  0  0  0  0  0  0  0  0  0  0  0
   -0.7640  -54.5221  -27.5259 H   0  0  0  0  0  0  0  0  0  0  0  0
   -0.1023  -54.8639  -25.1930 H   0  0  0  0  0  0  0  0  0  0  0  0
   -0.4450  -52.7506  -29.5602 C   0  0  0  0  0  0  0  0  0  0  0  0
   -1.3735  -52.6474  -28.3718 C   0  0  0  0  0  0  0  0  0  0  0  0
    2.5819  -49.8886  -19.4725 C   0  0  0  0  0  0  0  0  0  0  0  0
    2.1799  -48.5886  -19.4448 C   0  0  0  0  0  0  0  0  0  0  0  0
    3.0166  -47.6264  -18.9106 C   0  0  0  0  0  0  0  0  0  0  0  0
    4.2401  -48.0280  -18.4213 C   0  0  0  0  0  0  0  0  0  0  0  0
    4.6067  -49.3137  -18.4628 N   0  0  0  0  0  0  0  0  0  0  0  0
    3.8073  -50.2398  -18.9744 C   0  0  0  0  0  0  0  0  0  0  0  0
    0.8634  -51.3855  -17.8773 O   0  0  0  0  0  0  0  0  0  0  0  0
   -0.2733  -50.7976  -17.2935 C   0  0  0  0  0  0  0  0  0  0  0  0
    0.1105  -49.5536  -16.5485 C   0  0  0  0  0  0  0  0  0  0  0  0
   -0.8661  -51.8373  -16.3457 C   0  0  0  0  0  0  0  0  0  0  0  0
 16 17  1  0  0  0
 17 10  1  0  0  0
 10 11  1  0  0  0
 11 12  2  0  0  0
 11 13  1  0  0  0
 13  1  1  0  0  0
  1  2  2  0  0  0
  2  3  1  0  0  0
  3  4  2  0  0  0
  4  5  1  0  0  0
  5 18  1  0  0  0
 18 19  2  0  0  0
 19 20  1  0  0  0
 20 21  2  0  0  0
 21 22  1  0  0  0
 22 23  2  0  0  0
  5  6  2  0  0  0
  6 24  1  0  0  0
 24 25  1  0  0  0
 25 26  1  0  0  0
 25 27  1  0  0  0
  6  7  1  0  0  0
  7  8  2  0  0  0
  8  9  1  0  0  0
  9  1  1  0  0  0
  8  3  1  0  0  0
 23 18  1  0  0  0
 10 14  1  0  0  0
 13 15  1  0  0  0
M  END
> <minimizedAffinity>
-6.67249

> <CNNscore>
0.4652234018

> <CNNaffinity>
6.4774675369

> <CNN_VS>
3.0134694576

> <CNNaffinity_variance>
0.2367337644

$$$$
[H]c1nc([H])c(-c2c(OC([H])(C([H])([H])[H])C([H])([H])[H])nc3sc(N([H])C(=O)N([H])C([H])([H])C([H])([H])[H])nc3c2[H])c([H])c1[H]


 27 29  0  0  0  0  0  0  0  0999 V2000
   -0.1943  -52.6300  -20.0378 C   0  0  0  0  0  0  0  0  0  0  0  0
    0.6586  -52.2404  -20.9654 N   0  0  0  0  0  0  0  0  0  0  0  0
    0.4427  -52.5305  -22.2143 C   0  0  0  0  0  0  0  0  0  0  0  0
    1.2306  -52.2046  -23.3348 C   0  0  0  0  0  0  0  0  0  0  0  0
    0.8939  -52.5696  -24.6067 C   0  0  0  0  0  0  0  0  0  0  0  0
   -0.2589  -53.2886  -24.8419 C   0  0  0  0  0  0  0  0  0  0  0  0
   -1.0293  -53.6124  -23.7863 N   0  0  0  0  0  0  0  0  0  0  0  0
   -0.6895  -53.2449  -22.5116 C   0  0  0  0  0  0  0  0  0  0  0  0
   -1.3759  -53.4543  -20.9581 S   0  0  0  0  0  0  0  0  0  0  0  0
    0.2352  -50.9598  -16.6850 N   0  0  0  0  0  0  0  0  0  0  0  0
    0.1897  -51.1411  -18.0811 C   0  0  0  0  0  0  0  0  0  0  0  0
    0.4441  -50.1621  -18.8374 O   0  0  0  0  0  0  0  0  0  0  0  0
   -0.1397  -52.4136  -18.6137 N   0  0  0  0  0  0  0  0  0  0  0  0
    0.0298  -51.7499  -16.0498 H   0  0  0  0  0  0  0  0  0  0  0  0
   -0.3420  -53.1920  -17.9938 H   0  0  0  0  0  0  0  0  0  0  0  0
   -0.6962  -48.9041  -15.8343 C   0  0  0  0  0  0  0  0  0  0  0  0
    0.5676  -49.6753  -16.1394 C   0  0  0  0  0  0  0  0  0  0  0  0
    1.7697  -52.1866  -25.7464 C   0  0  0  0  0  0  0  0  0  0  0  0
    2.2205  -53.1438  -26.6024 C   0  0  0  0  0  0  0  0  0  0  0  0
    3.0390  -52.7857  -27.6574 C   0  0  0  0  0  0  0  0  0  0  0  0
    3.3696  -51.4561  -27.8014 C   0  0  0  0  0  0  0  0  0  0  0  0
    2.9105  -50.5386  -26.9432 N   0  0  0  0  0  0  0  0  0  0  0  0
    2.1252  -50.8779  -25.9299 C   0  0  0  0  0  0  0  0  0  0  0  0
   -0.5696  -53.6418  -26.1326 O   0  0  0  0  0  0  0  0  0  0  0  0
   -1.5193  -52.8760  -26.8327 C   0  0  0  0  0  0  0  0  0  0  0  0
   -1.0474  -52.6175  -28.2328 C   0  0  0  0  0  0  0  0  0  0  0  0
   -1.6796  -51.5672  -26.0631 C   0  0  0  0  0  0  0  0  0  0  0  0
 16 17  1  0  0  0
 17 10  1  0  0  0
 10 11  1  0  0  0
 11 12  2  0  0  0
 11 13  1  0  0  0
 13  1  1  0  0  0
  1  2  2  0  0  0
  2  3  1  0  0  0
  3  4  2  0  0  0
  4  5  1  0  0  0
  5 18  1  0  0  0
 18 19  2  0  0  0
 19 20  1  0  0  0
 20 21  2  0  0  0
 21 22  1  0  0  0
 22 23  2  0  0  0
  5  6  2  0  0  0
  6 24  1  0  0  0
 24 25  1  0  0  0
 25 26  1  0  0  0
 25 27  1  0  0  0
  6  7  1  0  0  0
  7  8  2  0  0  0
  8  9  1  0  0  0
  9  1  1  0  0  0
  8  3  1  0  0  0
 23 18  1  0  0  0
 10 14  1  0  0  0
 13 15  1  0  0  0
M  END
> <minimizedAffinity>
-6.36707

> <CNNscore>
0.4532400966

> <CNNaffinity>
6.4777631760

> <CNN_VS>
2.9359819889

> <CNNaffinity_variance>
0.4071178436

$$$$
[H]c1nc([H])c(-c2c(OC([H])(C([H])([H])[H])C([H])([H])[H])nc3sc(N([H])C(=O)N([H])C([H])([H])C([H])([H])[H])nc3c2[H])c([H])c1[H]


 27 29  0  0  0  0  0  0  0  0999 V2000
    0.7203  -52.7627  -22.1810 C   0  0  0  0  0  0  0  0  0  0  0  0
    1.1021  -51.9199  -21.2410 N   0  0  0  0  0  0  0  0  0  0  0  0
    0.5610  -51.9702  -20.0598 C   0  0  0  0  0  0  0  0  0  0  0  0
    0.8348  -51.1627  -18.9394 C   0  0  0  0  0  0  0  0  0  0  0  0
    0.1935  -51.3154  -17.7436 C   0  0  0  0  0  0  0  0  0  0  0  0
   -0.7687  -52.2910  -17.5900 C   0  0  0  0  0  0  0  0  0  0  0  0
   -1.0483  -53.0761  -18.6472 N   0  0  0  0  0  0  0  0  0  0  0  0
   -0.4036  -52.9211  -19.8455 C   0  0  0  0  0  0  0  0  0  0  0  0
   -0.4692  -53.6881  -21.3738 S   0  0  0  0  0  0  0  0  0  0  0  0
    0.8073  -52.7387  -25.9503 N   0  0  0  0  0  0  0  0  0  0  0  0
    0.3207  -52.6243  -24.6333 C   0  0  0  0  0  0  0  0  0  0  0  0
   -0.8864  -52.3016  -24.4492 O   0  0  0  0  0  0  0  0  0  0  0  0
    1.1891  -52.8718  -23.5397 N   0  0  0  0  0  0  0  0  0  0  0  0
    1.7931  -53.0020  -26.1206 H   0  0  0  0  0  0  0  0  0  0  0  0
    2.1574  -53.1305  -23.7024 H   0  0  0  0  0  0  0  0  0  0  0  0
    0.0155  -53.6347  -28.0448 C   0  0  0  0  0  0  0  0  0  0  0  0
   -0.0655  -52.4898  -27.0612 C   0  0  0  0  0  0  0  0  0  0  0  0
    0.5363  -50.4307  -16.5980 C   0  0  0  0  0  0  0  0  0  0  0  0
   -0.0251  -49.1941  -16.5087 C   0  0  0  0  0  0  0  0  0  0  0  0
    0.2998  -48.3718  -15.4459 C   0  0  0  0  0  0  0  0  0  0  0  0
    1.1909  -48.8440  -14.5075 C   0  0  0  0  0  0  0  0  0  0  0  0
    1.7260  -50.0645  -14.6231 N   0  0  0  0  0  0  0  0  0  0  0  0
    1.4171  -50.8563  -15.6409 C   0  0  0  0  0  0  0  0  0  0  0  0
   -1.3967  -52.4188  -16.3748 O   0  0  0  0  0  0  0  0  0  0  0  0
   -2.6237  -51.7607  -16.1758 C   0  0  0  0  0  0  0  0  0  0  0  0
   -2.6778  -51.1688  -14.7986 C   0  0  0  0  0  0  0  0  0  0  0  0
   -3.7179  -52.8094  -16.3597 C   0  0  0  0  0  0  0  0  0  0  0  0
 16 17  1  0  0  0
 17 10  1  0  0  0
 10 11  1  0  0  0
 11 12  2  0  0  0
 11 13  1  0  0  0
 13  1  1  0  0  0
  1  2  2  0  0  0
  2  3  1  0  0  0
  3  4  2  0  0  0
  4  5  1  0  0  0
  5 18  1  0  0  0
 18 19  2  0  0  0
 19 20  1  0  0  0
 20 21  2  0  0  0
 21 22  1  0  0  0
 22 23  2  0  0  0
  5  6  2  0  0  0
  6 24  1  0  0  0
 24 25  1  0  0  0
 25 26  1  0  0  0
 25 27  1  0  0  0
  6  7  1  0  0  0
  7  8  2  0  0  0
  8  9  1  0  0  0
  9  1  1  0  0  0
  8  3  1  0  0  0
 23 18  1  0  0  0
 10 14  1  0  0  0
 13 15  1  0  0  0
M  END
> <minimizedAffinity>
-6.36752

> <CNNscore>
0.4385287762

> <CNNaffinity>
6.0158863068

> <CNN_VS>
2.6381392479

> <CNNaffinity_variance>
0.1414460838

$$$$
[H]OC(=O)c1nc(Oc2c([H])c([H])c(O[H])c(O[H])c2[H])c2c([H])c(O[H])c(O[H])c([H])c2c1[H]


 29 31  0  0  0  0  0  0  0  0999 V2000
   -0.5625  -53.0826  -21.1695 C   0  0  0  0  0  0  0  0  0  0  0  0
    0.0740  -51.9364  -21.6053 C   0  0  0  0  0  0  0  0  0  0  0  0
    0.5061  -51.0392  -20.6509 C   0  0  0  0  0  0  0  0  0  0  0  0
    1.1501  -49.8710  -21.0088 C   0  0  0  0  0  0  0  0  0  0  0  0
    1.5758  -48.9846  -20.0430 C   0  0  0  0  0  0  0  0  0  0  0  0
    2.2182  -47.8200  -20.4065 O   0  0  0  0  0  0  0  0  0  0  0  0
    1.3724  -49.2368  -18.7003 C   0  0  0  0  0  0  0  0  0  0  0  0
    1.7753  -48.3899  -17.7022 O   0  0  0  0  0  0  0  0  0  0  0  0
    0.7253  -50.4119  -18.3541 C   0  0  0  0  0  0  0  0  0  0  0  0
    0.2885  -51.3171  -19.2986 C   0  0  0  0  0  0  0  0  0  0  0  0
   -0.3504  -52.4714  -18.9002 C   0  0  0  0  0  0  0  0  0  0  0  0
   -0.7582  -53.3240  -19.8631 N   0  0  0  0  0  0  0  0  0  0  0  0
    2.5396  -47.1554  -19.7263 H   0  0  0  0  0  0  0  0  0  0  0  0
    1.6086  -48.6088  -16.7312 H   0  0  0  0  0  0  0  0  0  0  0  0
   -1.9223  -55.0237  -21.9449 O   0  0  0  0  0  0  0  0  0  0  0  0
   -1.0169  -54.0276  -22.1880 C   0  0  0  0  0  0  0  0  0  0  0  0
   -0.5531  -53.9232  -23.3530 O   0  0  0  0  0  0  0  0  0  0  0  0
   -1.7238  -56.0147  -21.9978 H   0  0  0  0  0  0  0  0  0  0  0  0
   -0.5571  -52.7311  -17.5707 O   0  0  0  0  0  0  0  0  0  0  0  0
   -1.6830  -52.4147  -16.8606 C   0  0  0  0  0  0  0  0  0  0  0  0
   -2.8757  -53.0577  -17.0724 C   0  0  0  0  0  0  0  0  0  0  0  0
   -4.0052  -52.7047  -16.3249 C   0  0  0  0  0  0  0  0  0  0  0  0
   -3.9346  -51.7123  -15.3722 C   0  0  0  0  0  0  0  0  0  0  0  0
   -5.0761  -51.3653  -14.6264 O   0  0  0  0  0  0  0  0  0  0  0  0
   -2.7523  -51.0743  -15.1615 C   0  0  0  0  0  0  0  0  0  0  0  0
   -2.6620  -50.0727  -14.2066 O   0  0  0  0  0  0  0  0  0  0  0  0
   -1.6235  -51.4255  -15.9068 C   0  0  0  0  0  0  0  0  0  0  0  0
   -5.0312  -50.6456  -13.9333 H   0  0  0  0  0  0  0  0  0  0  0  0
   -1.7962  -49.5804  -14.0276 H   0  0  0  0  0  0  0  0  0  0  0  0
 15 16  1  0  0  0
 16 17  2  0  0  0
 16  1  1  0  0  0
  1  2  2  0  0  0
  2  3  1  0  0  0
  3  4  2  0  0  0
  4  5  1  0  0  0
  5  6  1  0  0  0
  5  7  2  0  0  0
  7  8  1  0  0  0
  7  9  1  0  0  0
  9 10  2  0  0  0
 10 11  1  0  0  0
 11 19  1  0  0  0
 19 20  1  0  0  0
 20 21  2  0  0  0
 21 22  1  0  0  0
 22 23  2  0  0  0
 23 24  1  0  0  0
 23 25  1  0  0  0
 25 26  1  0  0  0
 25 27  2  0  0  0
 11 12  2  0  0  0
 12  1  1  0  0  0
 10  3  1  0  0  0
 27 20  1  0  0  0
 15 18  1  0  0  0
  6 13  1  0  0  0
  8 14  1  0  0  0
 24 28  1  0  0  0
 26 29  1  0  0  0
M  END
> <minimizedAffinity>
-7.82865

> <CNNscore>
0.6603160501

> <CNNaffinity>
5.1954674721

> <CNN_VS>
3.4306504726

> <CNNaffinity_variance>
0.0745281950

$$$$
[H]OC(=O)c1nc(Oc2c([H])c([H])c(O[H])c(O[H])c2[H])c2c([H])c(O[H])c(O[H])c([H])c2c1[H]


 29 31  0  0  0  0  0  0  0  0999 V2000
    2.0149  -50.4078  -23.3158 C   0  0  0  0  0  0  0  0  0  0  0  0
    1.7536  -50.4406  -21.9595 C   0  0  0  0  0  0  0  0  0  0  0  0
    0.8858  -51.4072  -21.4957 C   0  0  0  0  0  0  0  0  0  0  0  0
    0.5752  -51.5030  -20.1534 C   0  0  0  0  0  0  0  0  0  0  0  0
   -0.2940  -52.4745  -19.7057 C   0  0  0  0  0  0  0  0  0  0  0  0
   -0.6002  -52.5653  -18.3644 O   0  0  0  0  0  0  0  0  0  0  0  0
   -0.8747  -53.3731  -20.5794 C   0  0  0  0  0  0  0  0  0  0  0  0
   -1.7438  -54.3560  -20.1864 O   0  0  0  0  0  0  0  0  0  0  0  0
   -0.5552  -53.2666  -21.9233 C   0  0  0  0  0  0  0  0  0  0  0  0
    0.3110  -52.3048  -22.3996 C   0  0  0  0  0  0  0  0  0  0  0  0
    0.5948  -52.2425  -23.7468 C   0  0  0  0  0  0  0  0  0  0  0  0
    1.4482  -51.2833  -24.1618 N   0  0  0  0  0  0  0  0  0  0  0  0
   -1.2294  -53.2618  -18.0085 H   0  0  0  0  0  0  0  0  0  0  0  0
   -2.1483  -54.9947  -20.8550 H   0  0  0  0  0  0  0  0  0  0  0  0
    3.0993  -49.0721  -25.1208 O   0  0  0  0  0  0  0  0  0  0  0  0
    2.9357  -49.3802  -23.7982 C   0  0  0  0  0  0  0  0  0  0  0  0
    3.6172  -48.7414  -22.9550 O   0  0  0  0  0  0  0  0  0  0  0  0
    3.9526  -49.2082  -25.6478 H   0  0  0  0  0  0  0  0  0  0  0  0
    0.0240  -53.1292  -24.6218 O   0  0  0  0  0  0  0  0  0  0  0  0
    0.0749  -53.0494  -25.9867 C   0  0  0  0  0  0  0  0  0  0  0  0
   -0.9408  -52.4866  -26.7164 C   0  0  0  0  0  0  0  0  0  0  0  0
   -0.8507  -52.4241  -28.1118 C   0  0  0  0  0  0  0  0  0  0  0  0
    0.2528  -52.9243  -28.7672 C   0  0  0  0  0  0  0  0  0  0  0  0
    0.3331  -52.8563  -30.1703 O   0  0  0  0  0  0  0  0  0  0  0  0
    1.2604  -53.4825  -28.0445 C   0  0  0  0  0  0  0  0  0  0  0  0
    2.3791  -53.9913  -28.6868 O   0  0  0  0  0  0  0  0  0  0  0  0
    1.1722  -53.5458  -26.6512 C   0  0  0  0  0  0  0  0  0  0  0  0
    1.1317  -53.2178  -30.6520 H   0  0  0  0  0  0  0  0  0  0  0  0
    3.1444  -54.4123  -28.1760 H   0  0  0  0  0  0  0  0  0  0  0  0
 15 16  1  0  0  0
 16 17  2  0  0  0
 16  1  1  0  0  0
  1  2  2  0  0  0
  2  3  1  0  0  0
  3  4  2  0  0  0
  4  5  1  0  0  0
  5  6  1  0  0  0
  5  7  2  0  0  0
  7  8  1  0  0  0
  7  9  1  0  0  0
  9 10  2  0  0  0
 10 11  1  0  0  0
 11 19  1  0  0  0
 19 20  1  0  0  0
 20 21  2  0  0  0
 21 22  1  0  0  0
 22 23  2  0  0  0
 23 24  1  0  0  0
 23 25  1  0  0  0
 25 26  1  0  0  0
 25 27  2  0  0  0
 11 12  2  0  0  0
 12  1  1  0  0  0
 10  3  1  0  0  0
 27 20  1  0  0  0
 15 18  1  0  0  0
  6 13  1  0  0  0
  8 14  1  0  0  0
 24 28  1  0  0  0
 26 29  1  0  0  0
M  END
> <minimizedAffinity>
-9.08612

> <CNNscore>
0.6391622424

> <CNNaffinity>
5.8512678146

> <CNN_VS>
3.7399094105

> <CNNaffinity_variance>
0.1266714782

$$$$
[H]OC(=O)c1nc(Oc2c([H])c([H])c(O[H])c(O[H])c2[H])c2c([H])c(O[H])c(O[H])c([H])c2c1[H]


 29 31  0  0  0  0  0  0  0  0999 V2000
   -3.2202  -51.7879  -15.6856 C   0  0  0  0  0  0  0  0  0  0  0  0
   -3.0328  -50.5431  -15.1163 C   0  0  0  0  0  0  0  0  0  0  0  0
   -1.8674  -49.8688  -15.4157 C   0  0  0  0  0  0  0  0  0  0  0  0
   -1.6085  -48.6202  -14.8850 C   0  0  0  0  0  0  0  0  0  0  0  0
   -0.4391  -47.9593  -15.1937 C   0  0  0  0  0  0  0  0  0  0  0  0
   -0.1863  -46.7130  -14.6608 O   0  0  0  0  0  0  0  0  0  0  0  0
    0.5001  -48.5218  -16.0360 C   0  0  0  0  0  0  0  0  0  0  0  0
    1.6767  -47.9078  -16.3743 O   0  0  0  0  0  0  0  0  0  0  0  0
    0.2288  -49.7745  -16.5619 C   0  0  0  0  0  0  0  0  0  0  0  0
   -0.9326  -50.4590  -16.2705 C   0  0  0  0  0  0  0  0  0  0  0  0
   -1.1531  -51.7033  -16.8206 C   0  0  0  0  0  0  0  0  0  0  0  0
   -2.3046  -52.3312  -16.5040 N   0  0  0  0  0  0  0  0  0  0  0  0
    0.6560  -46.2074  -14.8671 H   0  0  0  0  0  0  0  0  0  0  0  0
    2.3390  -48.3511  -16.9936 H   0  0  0  0  0  0  0  0  0  0  0  0
   -5.3632  -52.0516  -14.4381 O   0  0  0  0  0  0  0  0  0  0  0  0
   -4.4581  -52.4951  -15.3628 C   0  0  0  0  0  0  0  0  0  0  0  0
   -4.7094  -53.5707  -15.9655 O   0  0  0  0  0  0  0  0  0  0  0  0
   -5.5931  -52.5281  -13.5752 H   0  0  0  0  0  0  0  0  0  0  0  0
   -0.2278  -52.2702  -17.6574 O   0  0  0  0  0  0  0  0  0  0  0  0
   -0.3257  -52.3499  -19.0197 C   0  0  0  0  0  0  0  0  0  0  0  0
    0.2313  -51.4034  -19.8412 C   0  0  0  0  0  0  0  0  0  0  0  0
    0.1090  -51.5211  -21.2306 C   0  0  0  0  0  0  0  0  0  0  0  0
   -0.5687  -52.5827  -21.7883 C   0  0  0  0  0  0  0  0  0  0  0  0
   -0.6857  -52.6912  -23.1863 O   0  0  0  0  0  0  0  0  0  0  0  0
   -1.1213  -53.5216  -20.9746 C   0  0  0  0  0  0  0  0  0  0  0  0
   -1.8073  -54.5974  -21.5178 O   0  0  0  0  0  0  0  0  0  0  0  0
   -1.0001  -53.4058  -19.5871 C   0  0  0  0  0  0  0  0  0  0  0  0
   -1.1766  -53.4596  -23.5973 H   0  0  0  0  0  0  0  0  0  0  0  0
   -2.2289  -55.3114  -20.9379 H   0  0  0  0  0  0  0  0  0  0  0  0
 15 16  1  0  0  0
 16 17  2  0  0  0
 16  1  1  0  0  0
  1  2  2  0  0  0
  2  3  1  0  0  0
  3  4  2  0  0  0
  4  5  1  0  0  0
  5  6  1  0  0  0
  5  7  2  0  0  0
  7  8  1  0  0  0
  7  9  1  0  0  0
  9 10  2  0  0  0
 10 11  1  0  0  0
 11 19  1  0  0  0
 19 20  1  0  0  0
 20 21  2  0  0  0
 21 22  1  0  0  0
 22 23  2  0  0  0
 23 24  1  0  0  0
 23 25  1  0  0  0
 25 26  1  0  0  0
 25 27  2  0  0  0
 11 12  2  0  0  0
 12  1  1  0  0  0
 10  3  1  0  0  0
 27 20  1  0  0  0
 15 18  1  0  0  0
  6 13  1  0  0  0
  8 14  1  0  0  0
 24 28  1  0  0  0
 26 29  1  0  0  0
M  END
> <minimizedAffinity>
-7.15426

> <CNNscore>
0.5500431061

> <CNNaffinity>
4.9105596542

> <CNN_VS>
2.7010195255

> <CNNaffinity_variance>
0.0968185514

$$$$
[H]OC(=O)c1nc(Oc2c([H])c([H])c(O[H])c(O[H])c2[H])c2c([H])c(O[H])c(O[H])c([H])c2c1[H]


 29 31  0  0  0  0  0  0  0  0999 V2000
    1.9548  -50.7981  -19.1010 C   0  0  0  0  0  0  0  0  0  0  0  0
    1.3026  -50.3745  -17.9591 C   0  0  0  0  0  0  0  0  0  0  0  0
    0.1709  -51.0622  -17.5732 C   0  0  0  0  0  0  0  0  0  0  0  0
   -0.5352  -50.6983  -16.4434 C   0  0  0  0  0  0  0  0  0  0  0  0
   -1.6643  -51.3955  -16.0712 C   0  0  0  0  0  0  0  0  0  0  0  0
   -2.3651  -51.0274  -14.9422 O   0  0  0  0  0  0  0  0  0  0  0  0
   -2.1187  -52.4697  -16.8112 C   0  0  0  0  0  0  0  0  0  0  0  0
   -3.2337  -53.1952  -16.4852 O   0  0  0  0  0  0  0  0  0  0  0  0
   -1.4018  -52.8249  -17.9423 C   0  0  0  0  0  0  0  0  0  0  0  0
   -0.2688  -52.1457  -18.3387 C   0  0  0  0  0  0  0  0  0  0  0  0
    0.4074  -52.5404  -19.4729 C   0  0  0  0  0  0  0  0  0  0  0  0
    1.5097  -51.8430  -19.8177 N   0  0  0  0  0  0  0  0  0  0  0  0
   -3.1906  -51.5157  -14.6460 H   0  0  0  0  0  0  0  0  0  0  0  0
   -3.5348  -53.9745  -17.0513 H   0  0  0  0  0  0  0  0  0  0  0  0
    3.1583  -48.7274  -19.7952 O   0  0  0  0  0  0  0  0  0  0  0  0
    3.1532  -50.0635  -19.5023 C   0  0  0  0  0  0  0  0  0  0  0  0
    4.2415  -50.6896  -19.5841 O   0  0  0  0  0  0  0  0  0  0  0  0
    3.3631  -48.3328  -20.7045 H   0  0  0  0  0  0  0  0  0  0  0  0
   -0.0350  -53.6047  -20.2140 O   0  0  0  0  0  0  0  0  0  0  0  0
   -0.2507  -53.6027  -21.5651 C   0  0  0  0  0  0  0  0  0  0  0  0
    0.0204  -52.5033  -22.3388 C   0  0  0  0  0  0  0  0  0  0  0  0
   -0.2142  -52.5414  -23.7182 C   0  0  0  0  0  0  0  0  0  0  0  0
   -0.7177  -53.6768  -24.3137 C   0  0  0  0  0  0  0  0  0  0  0  0
   -0.9497  -53.7042  -25.7012 O   0  0  0  0  0  0  0  0  0  0  0  0
   -0.9867  -54.7674  -23.5473 C   0  0  0  0  0  0  0  0  0  0  0  0
   -1.4940  -55.9195  -24.1290 O   0  0  0  0  0  0  0  0  0  0  0  0
   -0.7531  -54.7313  -22.1699 C   0  0  0  0  0  0  0  0  0  0  0  0
   -1.3153  -54.5257  -26.1394 H   0  0  0  0  0  0  0  0  0  0  0  0
   -1.7038  -56.7463  -23.5847 H   0  0  0  0  0  0  0  0  0  0  0  0
 15 16  1  0  0  0
 16 17  2  0  0  0
 16  1  1  0  0  0
  1  2  2  0  0  0
  2  3  1  0  0  0
  3  4  2  0  0  0
  4  5  1  0  0  0
  5  6  1  0  0  0
  5  7  2  0  0  0
  7  8  1  0  0  0
  7  9  1  0  0  0
  9 10  2  0  0  0
 10 11  1  0  0  0
 11 19  1  0  0  0
 19 20  1  0  0  0
 20 21  2  0  0  0
 21 22  1  0  0  0
 22 23  2  0  0  0
 23 24  1  0  0  0
 23 25  1  0  0  0
 25 26  1  0  0  0
 25 27  2  0  0  0
 11 12  2  0  0  0
 12  1  1  0  0  0
 10  3  1  0  0  0
 27 20  1  0  0  0
 15 18  1  0  0  0
  6 13  1  0  0  0
  8 14  1  0  0  0
 24 28  1  0  0  0
 26 29  1  0  0  0
M  END
> <minimizedAffinity>
-8.01689

> <CNNscore>
0.5362360477

> <CNNaffinity>
5.3143501282

> <CNN_VS>
2.8497462273

> <CNNaffinity_variance>
0.0710789710

$$$$
[H]OC(=O)c1nc(Oc2c([H])c([H])c(O[H])c(O[H])c2[H])c2c([H])c(O[H])c(O[H])c([H])c2c1[H]


 29 31  0  0  0  0  0  0  0  0999 V2000
    2.0525  -50.4007  -21.0497 C   0  0  0  0  0  0  0  0  0  0  0  0
    1.2938  -51.4686  -20.6107 C   0  0  0  0  0  0  0  0  0  0  0  0
    0.6342  -52.2212  -21.5599 C   0  0  0  0  0  0  0  0  0  0  0  0
   -0.1435  -53.3038  -21.1985 C   0  0  0  0  0  0  0  0  0  0  0  0
   -0.7965  -54.0459  -22.1590 C   0  0  0  0  0  0  0  0  0  0  0  0
   -1.5715  -55.1257  -21.7921 O   0  0  0  0  0  0  0  0  0  0  0  0
   -0.6927  -53.7310  -23.5000 C   0  0  0  0  0  0  0  0  0  0  0  0
   -1.3204  -54.4351  -24.4929 O   0  0  0  0  0  0  0  0  0  0  0  0
    0.0903  -52.6428  -23.8497 C   0  0  0  0  0  0  0  0  0  0  0  0
    0.7549  -51.8824  -22.9104 C   0  0  0  0  0  0  0  0  0  0  0  0
    1.5210  -50.8096  -23.3121 C   0  0  0  0  0  0  0  0  0  0  0  0
    2.1507  -50.0979  -22.3543 N   0  0  0  0  0  0  0  0  0  0  0  0
   -2.0588  -55.6848  -22.4685 H   0  0  0  0  0  0  0  0  0  0  0  0
   -1.2205  -54.1742  -25.4628 H   0  0  0  0  0  0  0  0  0  0  0  0
    3.5402  -50.1535  -19.0637 O   0  0  0  0  0  0  0  0  0  0  0  0
    2.7479  -49.6088  -20.0367 C   0  0  0  0  0  0  0  0  0  0  0  0
    2.6138  -48.3579  -20.0566 O   0  0  0  0  0  0  0  0  0  0  0  0
    3.3478  -50.1182  -18.0707 H   0  0  0  0  0  0  0  0  0  0  0  0
    1.6305  -50.4888  -24.6398 O   0  0  0  0  0  0  0  0  0  0  0  0
    1.9169  -51.3636  -25.6521 C   0  0  0  0  0  0  0  0  0  0  0  0
    3.0928  -52.0685  -25.6872 C   0  0  0  0  0  0  0  0  0  0  0  0
    3.3483  -52.9543  -26.7405 C   0  0  0  0  0  0  0  0  0  0  0  0
    2.4277  -53.1288  -27.7501 C   0  0  0  0  0  0  0  0  0  0  0  0
    2.6947  -54.0217  -28.8042 O   0  0  0  0  0  0  0  0  0  0  0  0
    1.2614  -52.4302  -27.7160 C   0  0  0  0  0  0  0  0  0  0  0  0
    0.3226  -52.5928  -28.7236 O   0  0  0  0  0  0  0  0  0  0  0  0
    1.0046  -51.5455  -26.6652 C   0  0  0  0  0  0  0  0  0  0  0  0
    2.0302  -54.1527  -29.5402 H   0  0  0  0  0  0  0  0  0  0  0  0
   -0.5538  -52.0870  -28.7252 H   0  0  0  0  0  0  0  0  0  0  0  0
 15 16  1  0  0  0
 16 17  2  0  0  0
 16  1  1  0  0  0
  1  2  2  0  0  0
  2  3  1  0  0  0
  3  4  2  0  0  0
  4  5  1  0  0  0
  5  6  1  0  0  0
  5  7  2  0  0  0
  7  8  1  0  0  0
  7  9  1  0  0  0
  9 10  2  0  0  0
 10 11  1  0  0  0
 11 19  1  0  0  0
 19 20  1  0  0  0
 20 21  2  0  0  0
 21 22  1  0  0  0
 22 23  2  0  0  0
 23 24  1  0  0  0
 23 25  1  0  0  0
 25 26  1  0  0  0
 25 27  2  0  0  0
 11 12  2  0  0  0
 12  1  1  0  0  0
 10  3  1  0  0  0
 27 20  1  0  0  0
 15 18  1  0  0  0
  6 13  1  0  0  0
  8 14  1  0  0  0
 24 28  1  0  0  0
 26 29  1  0  0  0
M  END
> <minimizedAffinity>
-7.80371

> <CNNscore>
0.5165055990

> <CNNaffinity>
5.5114097595

> <CNN_VS>
2.8466739655

> <CNNaffinity_variance>
0.2534273565

$$$$
[H]OC(=O)c1nc(Oc2c([H])c([H])c(O[H])c(O[H])c2[H])c2c([H])c(O[H])c(O[H])c([H])c2c1[H]


 29 31  0  0  0  0  0  0  0  0999 V2000
    2.0308  -49.6934  -21.7725 C   0  0  0  0  0  0  0  0  0  0  0  0
    1.6765  -50.1605  -20.5214 C   0  0  0  0  0  0  0  0  0  0  0  0
    0.8089  -51.2308  -20.4574 C   0  0  0  0  0  0  0  0  0  0  0  0
    0.4085  -51.7536  -19.2434 C   0  0  0  0  0  0  0  0  0  0  0  0
   -0.4592  -52.8235  -19.1962 C   0  0  0  0  0  0  0  0  0  0  0  0
   -0.8554  -53.3411  -17.9812 O   0  0  0  0  0  0  0  0  0  0  0  0
   -0.9494  -53.3991  -20.3523 C   0  0  0  0  0  0  0  0  0  0  0  0
   -1.8127  -54.4622  -20.3605 O   0  0  0  0  0  0  0  0  0  0  0  0
   -0.5402  -52.8657  -21.5637 C   0  0  0  0  0  0  0  0  0  0  0  0
    0.3268  -51.7959  -21.6412 C   0  0  0  0  0  0  0  0  0  0  0  0
    0.7020  -51.3034  -22.8725 C   0  0  0  0  0  0  0  0  0  0  0  0
    1.5520  -50.2558  -22.8939 N   0  0  0  0  0  0  0  0  0  0  0  0
   -1.4859  -54.1193  -17.9149 H   0  0  0  0  0  0  0  0  0  0  0  0
   -2.1496  -54.8560  -21.2266 H   0  0  0  0  0  0  0  0  0  0  0  0
    4.3119  -48.6861  -21.7887 O   0  0  0  0  0  0  0  0  0  0  0  0
    2.9507  -48.5588  -21.8306 C   0  0  0  0  0  0  0  0  0  0  0  0
    2.4691  -47.4001  -21.9243 O   0  0  0  0  0  0  0  0  0  0  0  0
    4.9056  -48.3362  -21.0475 H   0  0  0  0  0  0  0  0  0  0  0  0
    0.2215  -51.8673  -24.0253 O   0  0  0  0  0  0  0  0  0  0  0  0
    0.9654  -52.1888  -25.1277 C   0  0  0  0  0  0  0  0  0  0  0  0
    2.2947  -52.5129  -25.0333 C   0  0  0  0  0  0  0  0  0  0  0  0
    3.0212  -52.8361  -26.1852 C   0  0  0  0  0  0  0  0  0  0  0  0
    2.4146  -52.8328  -27.4219 C   0  0  0  0  0  0  0  0  0  0  0  0
    3.1544  -53.1592  -28.5734 O   0  0  0  0  0  0  0  0  0  0  0  0
    1.0966  -52.5116  -27.5164 C   0  0  0  0  0  0  0  0  0  0  0  0
    0.4688  -52.5030  -28.7528 O   0  0  0  0  0  0  0  0  0  0  0  0
    0.3696  -52.1887  -26.3674 C   0  0  0  0  0  0  0  0  0  0  0  0
    2.7196  -53.1585  -29.4741 H   0  0  0  0  0  0  0  0  0  0  0  0
   -0.5102  -52.2682  -28.8544 H   0  0  0  0  0  0  0  0  0  0  0  0
 15 16  1  0  0  0
 16 17  2  0  0  0
 16  1  1  0  0  0
  1  2  2  0  0  0
  2  3  1  0  0  0
  3  4  2  0  0  0
  4  5  1  0  0  0
  5  6  1  0  0  0
  5  7  2  0  0  0
  7  8  1  0  0  0
  7  9  1  0  0  0
  9 10  2  0  0  0
 10 11  1  0  0  0
 11 19  1  0  0  0
 19 20  1  0  0  0
 20 21  2  0  0  0
 21 22  1  0  0  0
 22 23  2  0  0  0
 23 24  1  0  0  0
 23 25  1  0  0  0
 25 26  1  0  0  0
 25 27  2  0  0  0
 11 12  2  0  0  0
 12  1  1  0  0  0
 10  3  1  0  0  0
 27 20  1  0  0  0
 15 18  1  0  0  0
  6 13  1  0  0  0
  8 14  1  0  0  0
 24 28  1  0  0  0
 26 29  1  0  0  0
M  END
> <minimizedAffinity>
-8.24197

> <CNNscore>
0.5145598650

> <CNNaffinity>
5.5515480042

> <CNN_VS>
2.8566038609

> <CNNaffinity_variance>
0.1092865244

$$$$
[H]OC(=O)c1nc(Oc2c([H])c([H])c(O[H])c(O[H])c2[H])c2c([H])c(O[H])c(O[H])c([H])c2c1[H]


 29 31  0  0  0  0  0  0  0  0999 V2000
    0.9608  -50.7347  -18.3454 C   0  0  0  0  0  0  0  0  0  0  0  0
    0.0727  -51.7791  -18.5166 C   0  0  0  0  0  0  0  0  0  0  0  0
   -0.1437  -52.2343  -19.8005 C   0  0  0  0  0  0  0  0  0  0  0  0
   -1.0170  -53.2745  -20.0515 C   0  0  0  0  0  0  0  0  0  0  0  0
   -1.2225  -53.7178  -21.3402 C   0  0  0  0  0  0  0  0  0  0  0  0
   -2.0956  -54.7567  -21.5845 O   0  0  0  0  0  0  0  0  0  0  0  0
   -0.5664  -53.1394  -22.4094 C   0  0  0  0  0  0  0  0  0  0  0  0
   -0.7350  -53.5418  -23.7076 O   0  0  0  0  0  0  0  0  0  0  0  0
    0.3069  -52.0970  -22.1446 C   0  0  0  0  0  0  0  0  0  0  0  0
    0.5321  -51.6327  -20.8656 C   0  0  0  0  0  0  0  0  0  0  0  0
    1.4114  -50.5921  -20.6573 C   0  0  0  0  0  0  0  0  0  0  0  0
    1.5966  -50.1752  -19.3876 N   0  0  0  0  0  0  0  0  0  0  0  0
   -2.2659  -55.1013  -22.5118 H   0  0  0  0  0  0  0  0  0  0  0  0
   -0.2374  -53.0941  -24.4629 H   0  0  0  0  0  0  0  0  0  0  0  0
    2.3546  -50.4434  -16.2982 O   0  0  0  0  0  0  0  0  0  0  0  0
    1.1840  -50.2589  -16.9814 C   0  0  0  0  0  0  0  0  0  0  0  0
    0.2518  -49.6459  -16.3996 O   0  0  0  0  0  0  0  0  0  0  0  0
    2.4564  -51.0018  -15.4603 H   0  0  0  0  0  0  0  0  0  0  0  0
    2.0674  -50.0115  -21.7111 O   0  0  0  0  0  0  0  0  0  0  0  0
    3.0766  -50.5832  -22.4367 C   0  0  0  0  0  0  0  0  0  0  0  0
    4.0453  -51.3533  -21.8457 C   0  0  0  0  0  0  0  0  0  0  0  0
    5.0614  -51.9209  -22.6233 C   0  0  0  0  0  0  0  0  0  0  0  0
    5.1019  -51.7147  -23.9846 C   0  0  0  0  0  0  0  0  0  0  0  0
    6.1279  -52.2900  -24.7568 O   0  0  0  0  0  0  0  0  0  0  0  0
    4.1418  -50.9513  -24.5715 C   0  0  0  0  0  0  0  0  0  0  0  0
    4.1661  -50.7326  -25.9406 O   0  0  0  0  0  0  0  0  0  0  0  0
    3.1265  -50.3838  -23.7967 C   0  0  0  0  0  0  0  0  0  0  0  0
    6.1628  -52.1439  -25.7456 H   0  0  0  0  0  0  0  0  0  0  0  0
    3.4656  -50.1694  -26.4053 H   0  0  0  0  0  0  0  0  0  0  0  0
 15 16  1  0  0  0
 16 17  2  0  0  0
 16  1  1  0  0  0
  1  2  2  0  0  0
  2  3  1  0  0  0
  3  4  2  0  0  0
  4  5  1  0  0  0
  5  6  1  0  0  0
  5  7  2  0  0  0
  7  8  1  0  0  0
  7  9  1  0  0  0
  9 10  2  0  0  0
 10 11  1  0  0  0
 11 19  1  0  0  0
 19 20  1  0  0  0
 20 21  2  0  0  0
 21 22  1  0  0  0
 22 23  2  0  0  0
 23 24  1  0  0  0
 23 25  1  0  0  0
 25 26  1  0  0  0
 25 27  2  0  0  0
 11 12  2  0  0  0
 12  1  1  0  0  0
 10  3  1  0  0  0
 27 20  1  0  0  0
 15 18  1  0  0  0
  6 13  1  0  0  0
  8 14  1  0  0  0
 24 28  1  0  0  0
 26 29  1  0  0  0
M  END
> <minimizedAffinity>
-7.37151

> <CNNscore>
0.4864766896

> <CNNaffinity>
5.2826294899

> <CNN_VS>
2.5698761940

> <CNNaffinity_variance>
0.0763101876

$$$$
[H]OC(=O)c1nc(Oc2c([H])c([H])c(O[H])c(O[H])c2[H])c2c([H])c(O[H])c(O[H])c([H])c2c1[H]


 29 31  0  0  0  0  0  0  0  0999 V2000
    2.4305  -50.8774  -22.0935 C   0  0  0  0  0  0  0  0  0  0  0  0
    1.5427  -51.2547  -21.1045 C   0  0  0  0  0  0  0  0  0  0  0  0
    0.6626  -52.2782  -21.3877 C   0  0  0  0  0  0  0  0  0  0  0  0
   -0.2546  -52.7110  -20.4502 C   0  0  0  0  0  0  0  0  0  0  0  0
   -1.1276  -53.7350  -20.7487 C   0  0  0  0  0  0  0  0  0  0  0  0
   -2.0411  -54.1628  -19.8086 O   0  0  0  0  0  0  0  0  0  0  0  0
   -1.1105  -54.3530  -21.9840 C   0  0  0  0  0  0  0  0  0  0  0  0
   -1.9553  -55.3737  -22.3307 O   0  0  0  0  0  0  0  0  0  0  0  0
   -0.1859  -53.9098  -22.9157 C   0  0  0  0  0  0  0  0  0  0  0  0
    0.6995  -52.8876  -22.6449 C   0  0  0  0  0  0  0  0  0  0  0  0
    1.5994  -52.4849  -23.6079 C   0  0  0  0  0  0  0  0  0  0  0  0
    2.4438  -51.4808  -23.2931 N   0  0  0  0  0  0  0  0  0  0  0  0
   -2.6892  -54.9058  -19.9966 H   0  0  0  0  0  0  0  0  0  0  0  0
   -1.9127  -55.8007  -23.2441 H   0  0  0  0  0  0  0  0  0  0  0  0
    4.5249  -49.9687  -21.0903 O   0  0  0  0  0  0  0  0  0  0  0  0
    3.3595  -49.7920  -21.7844 C   0  0  0  0  0  0  0  0  0  0  0  0
    3.0764  -48.6301  -22.1759 O   0  0  0  0  0  0  0  0  0  0  0  0
    4.7261  -49.5704  -20.1820 H   0  0  0  0  0  0  0  0  0  0  0  0
    1.6245  -53.0915  -24.8364 O   0  0  0  0  0  0  0  0  0  0  0  0
    0.6582  -52.9860  -25.7993 C   0  0  0  0  0  0  0  0  0  0  0  0
    0.7762  -53.6125  -27.0136 C   0  0  0  0  0  0  0  0  0  0  0  0
   -0.2349  -53.4798  -27.9724 C   0  0  0  0  0  0  0  0  0  0  0  0
   -1.3554  -52.7225  -27.7109 C   0  0  0  0  0  0  0  0  0  0  0  0
   -2.3658  -52.5958  -28.6819 O   0  0  0  0  0  0  0  0  0  0  0  0
   -1.4732  -52.1010  -26.5071 C   0  0  0  0  0  0  0  0  0  0  0  0
   -2.5941  -51.3345  -26.2259 O   0  0  0  0  0  0  0  0  0  0  0  0
   -0.4648  -52.2324  -25.5486 C   0  0  0  0  0  0  0  0  0  0  0  0
   -3.1817  -52.0473  -28.4981 H   0  0  0  0  0  0  0  0  0  0  0  0
   -2.7097  -50.8605  -25.3394 H   0  0  0  0  0  0  0  0  0  0  0  0
 15 16  1  0  0  0
 16 17  2  0  0  0
 16  1  1  0  0  0
  1  2  2  0  0  0
  2  3  1  0  0  0
  3  4  2  0  0  0
  4  5  1  0  0  0
  5  6  1  0  0  0
  5  7  2  0  0  0
  7  8  1  0  0  0
  7  9  1  0  0  0
  9 10  2  0  0  0
 10 11  1  0  0  0
 11 19  1  0  0  0
 19 20  1  0  0  0
 20 21  2  0  0  0
 21 22  1  0  0  0
 22 23  2  0  0  0
 23 24  1  0  0  0
 23 25  1  0  0  0
 25 26  1  0  0  0
 25 27  2  0  0  0
 11 12  2  0  0  0
 12  1  1  0  0  0
 10  3  1  0  0  0
 27 20  1  0  0  0
 15 18  1  0  0  0
  6 13  1  0  0  0
  8 14  1  0  0  0
 24 28  1  0  0  0
 26 29  1  0  0  0
M  END
> <minimizedAffinity>
-8.54551

> <CNNscore>
0.4631524086

> <CNNaffinity>
5.4380826950

> <CNN_VS>
2.5186610222

> <CNNaffinity_variance>
0.3214195073

$$$$
[H]OC(=O)c1nc(Oc2c([H])c([H])c(O[H])c(O[H])c2[H])c2c([H])c(O[H])c(O[H])c([H])c2c1[H]


 29 31  0  0  0  0  0  0  0  0999 V2000
   -0.5553  -53.3279  -22.0687 C   0  0  0  0  0  0  0  0  0  0  0  0
   -0.5237  -52.2565  -21.1970 C   0  0  0  0  0  0  0  0  0  0  0  0
    0.3415  -51.2210  -21.4831 C   0  0  0  0  0  0  0  0  0  0  0  0
    0.4298  -50.1162  -20.6591 C   0  0  0  0  0  0  0  0  0  0  0  0
    1.2994  -49.0897  -20.9586 C   0  0  0  0  0  0  0  0  0  0  0  0
    1.3832  -47.9892  -20.1322 O   0  0  0  0  0  0  0  0  0  0  0  0
    2.1012  -49.1358  -22.0825 C   0  0  0  0  0  0  0  0  0  0  0  0
    2.9810  -48.1437  -22.4250 O   0  0  0  0  0  0  0  0  0  0  0  0
    2.0034  -50.2494  -22.9010 C   0  0  0  0  0  0  0  0  0  0  0  0
    1.1424  -51.2912  -22.6262 C   0  0  0  0  0  0  0  0  0  0  0  0
    1.0843  -52.3763  -23.4738 C   0  0  0  0  0  0  0  0  0  0  0  0
    0.2259  -53.3688  -23.1602 N   0  0  0  0  0  0  0  0  0  0  0  0
    2.0067  -47.2263  -20.3240 H   0  0  0  0  0  0  0  0  0  0  0  0
    3.5509  -48.2134  -23.2551 H   0  0  0  0  0  0  0  0  0  0  0  0
   -1.7670  -55.4343  -22.6283 O   0  0  0  0  0  0  0  0  0  0  0  0
   -1.4752  -54.4205  -21.7576 C   0  0  0  0  0  0  0  0  0  0  0  0
   -2.0312  -54.4338  -20.6290 O   0  0  0  0  0  0  0  0  0  0  0  0
   -2.6778  -55.6070  -23.0345 H   0  0  0  0  0  0  0  0  0  0  0  0
    1.8755  -52.4318  -24.5913 O   0  0  0  0  0  0  0  0  0  0  0  0
    1.4304  -52.5403  -25.8806 C   0  0  0  0  0  0  0  0  0  0  0  0
    0.2440  -51.9837  -26.2850 C   0  0  0  0  0  0  0  0  0  0  0  0
   -0.1763  -52.1170  -27.6134 C   0  0  0  0  0  0  0  0  0  0  0  0
    0.5912  -52.8051  -28.5270 C   0  0  0  0  0  0  0  0  0  0  0  0
    0.1591  -52.9331  -29.8600 O   0  0  0  0  0  0  0  0  0  0  0  0
    1.7677  -53.3573  -28.1269 C   0  0  0  0  0  0  0  0  0  0  0  0
    2.5539  -54.0537  -29.0324 O   0  0  0  0  0  0  0  0  0  0  0  0
    2.1891  -53.2252  -26.8009 C   0  0  0  0  0  0  0  0  0  0  0  0
    0.7119  -53.4316  -30.5280 H   0  0  0  0  0  0  0  0  0  0  0  0
    3.4337  -54.4752  -28.7641 H   0  0  0  0  0  0  0  0  0  0  0  0
 15 16  1  0  0  0
 16 17  2  0  0  0
 16  1  1  0  0  0
  1  2  2  0  0  0
  2  3  1  0  0  0
  3  4  2  0  0  0
  4  5  1  0  0  0
  5  6  1  0  0  0
  5  7  2  0  0  0
  7  8  1  0  0  0
  7  9  1  0  0  0
  9 10  2  0  0  0
 10 11  1  0  0  0
 11 19  1  0  0  0
 19 20  1  0  0  0
 20 21  2  0  0  0
 21 22  1  0  0  0
 22 23  2  0  0  0
 23 24  1  0  0  0
 23 25  1  0  0  0
 25 26  1  0  0  0
 25 27  2  0  0  0
 11 12  2  0  0  0
 12  1  1  0  0  0
 10  3  1  0  0  0
 27 20  1  0  0  0
 15 18  1  0  0  0
  6 13  1  0  0  0
  8 14  1  0  0  0
 24 28  1  0  0  0
 26 29  1  0  0  0
M  END
> <minimizedAffinity>
-9.19173

> <CNNscore>
0.4511614144

> <CNNaffinity>
5.5162892342

> <CNN_VS>
2.4887368679

> <CNNaffinity_variance>
0.0555957779

$$$$
[H]c1nc2c([H])c([H])c([H])c([H])n2c1C(=O)N([H])c1c([H])c(N([H])C(=O)c2c([H])c([H])c(C([H])([H])N3C([H])([H])C([H])([H])N(C([H])([H])[H])C([H])([H])C3([H])[H])c([H])c2[H])c([H])c([H])c1C([H])([H])[H]


 38 42  0  0  0  0  0  0  0  0999 V2000
    0.3686  -52.1443  -20.4549 C   0  0  0  0  0  0  0  0  0  0  0  0
   -0.3731  -53.2022  -19.9971 C   0  0  0  0  0  0  0  0  0  0  0  0
   -0.9108  -54.1664  -20.8473 C   0  0  0  0  0  0  0  0  0  0  0  0
   -0.7151  -54.0929  -22.1952 C   0  0  0  0  0  0  0  0  0  0  0  0
   -1.2978  -55.1333  -23.0875 C   0  0  0  0  0  0  0  0  0  0  0  0
    0.0385  -53.0288  -22.7197 C   0  0  0  0  0  0  0  0  0  0  0  0
    0.5470  -52.1067  -21.8585 C   0  0  0  0  0  0  0  0  0  0  0  0
    2.2366  -51.1181  -19.1689 C   0  0  0  0  0  0  0  0  0  0  0  0
    3.1131  -52.0074  -19.3373 O   0  0  0  0  0  0  0  0  0  0  0  0
    0.9360  -51.1271  -19.6676 N   0  0  0  0  0  0  0  0  0  0  0  0
    0.3236  -50.2936  -19.4436 H   0  0  0  0  0  0  0  0  0  0  0  0
    3.4956  -47.8139  -16.8234 C   0  0  0  0  0  0  0  0  0  0  0  0
    2.3131  -48.4815  -16.5598 C   0  0  0  0  0  0  0  0  0  0  0  0
    1.9046  -49.5568  -17.3189 C   0  0  0  0  0  0  0  0  0  0  0  0
    2.6815  -49.9802  -18.3597 C   0  0  0  0  0  0  0  0  0  0  0  0
    3.8520  -49.3516  -18.6536 C   0  0  0  0  0  0  0  0  0  0  0  0
    4.2518  -48.2641  -17.8752 C   0  0  0  0  0  0  0  0  0  0  0  0
    3.9214  -46.6641  -16.0057 C   0  0  0  0  0  0  0  0  0  0  0  0
    6.9519  -44.7115  -12.7352 C   0  0  0  0  0  0  0  0  0  0  0  0
    6.7075  -46.1092  -13.0293 N   0  0  0  0  0  0  0  0  0  0  0  0
    5.3342  -46.4400  -12.8332 C   0  0  0  0  0  0  0  0  0  0  0  0
    4.7254  -47.3551  -13.8350 C   0  0  0  0  0  0  0  0  0  0  0  0
    5.0350  -47.0414  -15.2013 N   0  0  0  0  0  0  0  0  0  0  0  0
    6.1948  -46.2321  -15.3686 C   0  0  0  0  0  0  0  0  0  0  0  0
    7.2481  -46.4962  -14.3142 C   0  0  0  0  0  0  0  0  0  0  0  0
    0.2204  -52.9887  -24.1181 N   0  0  0  0  0  0  0  0  0  0  0  0
    1.4341  -52.9722  -24.8410 C   0  0  0  0  0  0  0  0  0  0  0  0
    2.5528  -52.9917  -24.3081 O   0  0  0  0  0  0  0  0  0  0  0  0
   -0.6607  -52.9669  -24.7483 H   0  0  0  0  0  0  0  0  0  0  0  0
    1.4085  -52.9298  -26.3177 C   0  0  0  0  0  0  0  0  0  0  0  0
    2.5185  -52.9875  -27.1466 C   0  0  0  0  0  0  0  0  0  0  0  0
    2.0597  -52.9169  -28.3967 N   0  0  0  0  0  0  0  0  0  0  0  0
    0.7233  -52.8177  -28.4036 C   0  0  0  0  0  0  0  0  0  0  0  0
   -0.1899  -52.7194  -29.4278 C   0  0  0  0  0  0  0  0  0  0  0  0
   -1.5179  -52.6290  -29.1371 C   0  0  0  0  0  0  0  0  0  0  0  0
   -1.9058  -52.6387  -27.8280 C   0  0  0  0  0  0  0  0  0  0  0  0
   -0.9982  -52.7366  -26.8087 C   0  0  0  0  0  0  0  0  0  0  0  0
    0.3288  -52.8270  -27.0949 N   0  0  0  0  0  0  0  0  0  0  0  0
 19 20  1  0  0  0
 20 21  1  0  0  0
 21 22  1  0  0  0
 22 23  1  0  0  0
 23 18  1  0  0  0
 18 12  1  0  0  0
 12 13  2  0  0  0
 13 14  1  0  0  0
 14 15  2  0  0  0
 15 16  1  0  0  0
 16 17  2  0  0  0
 15  8  1  0  0  0
  8  9  2  0  0  0
  8 10  1  0  0  0
 10  1  1  0  0  0
  1  2  2  0  0  0
  2  3  1  0  0  0
  3  4  2  0  0  0
  4  5  1  0  0  0
  4  6  1  0  0  0
  6 26  1  0  0  0
 26 27  1  0  0  0
 27 28  2  0  0  0
 27 30  1  0  0  0
 30 31  2  0  0  0
 31 32  1  0  0  0
 32 33  2  0  0  0
 33 34  1  0  0  0
 34 35  2  0  0  0
 35 36  1  0  0  0
 36 37  2  0  0  0
 37 38  1  0  0  0
  6  7  2  0  0  0
 23 24  1  0  0  0
 24 25  1  0  0  0
 25 20  1  0  0  0
 17 12  1  0  0  0
  7  1  1  0  0  0
 38 30  1  0  0  0
 38 33  1  0  0  0
 10 11  1  0  0  0
 26 29  1  0  0  0
M  END
> <minimizedAffinity>
-8.57298

> <CNNscore>
0.3572336733

> <CNNaffinity>
6.2042365074

> <CNN_VS>
2.2163622379

> <CNNaffinity_variance>
0.0797900036

$$$$
[H]c1nc2c([H])c([H])c([H])c([H])n2c1C(=O)N([H])c1c([H])c(N([H])C(=O)c2c([H])c([H])c(C([H])([H])N3C([H])([H])C([H])([H])N(C([H])([H])[H])C([H])([H])C3([H])[H])c([H])c2[H])c([H])c([H])c1C([H])([H])[H]


 38 42  0  0  0  0  0  0  0  0999 V2000
    0.4186  -52.1336  -20.4720 C   0  0  0  0  0  0  0  0  0  0  0  0
   -0.2962  -53.2074  -20.0083 C   0  0  0  0  0  0  0  0  0  0  0  0
   -0.8220  -54.1815  -20.8546 C   0  0  0  0  0  0  0  0  0  0  0  0
   -0.6415  -54.1021  -22.2043 C   0  0  0  0  0  0  0  0  0  0  0  0
   -1.2113  -55.1532  -23.0924 C   0  0  0  0  0  0  0  0  0  0  0  0
    0.0843  -53.0217  -22.7347 C   0  0  0  0  0  0  0  0  0  0  0  0
    0.5820  -52.0903  -21.8772 C   0  0  0  0  0  0  0  0  0  0  0  0
    2.2777  -51.0701  -19.2034 C   0  0  0  0  0  0  0  0  0  0  0  0
    3.1709  -51.9404  -19.3822 O   0  0  0  0  0  0  0  0  0  0  0  0
    0.9725  -51.1058  -19.6888 N   0  0  0  0  0  0  0  0  0  0  0  0
    0.3450  -50.2857  -19.4571 H   0  0  0  0  0  0  0  0  0  0  0  0
    3.5465  -47.7666  -16.8621 C   0  0  0  0  0  0  0  0  0  0  0  0
    4.4318  -48.4789  -17.6510 C   0  0  0  0  0  0  0  0  0  0  0  0
    4.0204  -49.5501  -18.4143 C   0  0  0  0  0  0  0  0  0  0  0  0
    2.7067  -49.9242  -18.3969 C   0  0  0  0  0  0  0  0  0  0  0  0
    1.8027  -49.2511  -17.6346 C   0  0  0  0  0  0  0  0  0  0  0  0
    2.2352  -48.1683  -16.8671 C   0  0  0  0  0  0  0  0  0  0  0  0
    3.9983  -46.6238  -16.0487 C   0  0  0  0  0  0  0  0  0  0  0  0
    5.6583  -45.9430  -20.5736 C   0  0  0  0  0  0  0  0  0  0  0  0
    5.0895  -44.9752  -19.6572 N   0  0  0  0  0  0  0  0  0  0  0  0
    3.7660  -45.3473  -19.2779 C   0  0  0  0  0  0  0  0  0  0  0  0
    3.4019  -45.1314  -17.8523 C   0  0  0  0  0  0  0  0  0  0  0  0
    4.3948  -45.5584  -16.9075 N   0  0  0  0  0  0  0  0  0  0  0  0
    5.7051  -45.6847  -17.4508 C   0  0  0  0  0  0  0  0  0  0  0  0
    5.9787  -44.6847  -18.5536 C   0  0  0  0  0  0  0  0  0  0  0  0
    0.2513  -52.9759  -24.1348 N   0  0  0  0  0  0  0  0  0  0  0  0
    1.4561  -53.0001  -24.8721 C   0  0  0  0  0  0  0  0  0  0  0  0
    2.5793  -53.0680  -24.3529 O   0  0  0  0  0  0  0  0  0  0  0  0
   -0.6357  -52.9140  -24.7541 H   0  0  0  0  0  0  0  0  0  0  0  0
    1.4148  -52.9431  -26.3480 C   0  0  0  0  0  0  0  0  0  0  0  0
    2.5156  -52.9985  -27.1893 C   0  0  0  0  0  0  0  0  0  0  0  0
    2.0438  -52.9134  -28.4336 N   0  0  0  0  0  0  0  0  0  0  0  0
    0.7079  -52.8072  -28.4251 C   0  0  0  0  0  0  0  0  0  0  0  0
   -0.2157  -52.6942  -29.4384 C   0  0  0  0  0  0  0  0  0  0  0  0
   -1.5400  -52.5998  -29.1326 C   0  0  0  0  0  0  0  0  0  0  0  0
   -1.9139  -52.6204  -27.8196 C   0  0  0  0  0  0  0  0  0  0  0  0
   -0.9959  -52.7328  -26.8111 C   0  0  0  0  0  0  0  0  0  0  0  0
    0.3275  -52.8272  -27.1124 N   0  0  0  0  0  0  0  0  0  0  0  0
 19 20  1  0  0  0
 20 21  1  0  0  0
 21 22  1  0  0  0
 22 23  1  0  0  0
 23 18  1  0  0  0
 18 12  1  0  0  0
 12 13  2  0  0  0
 13 14  1  0  0  0
 14 15  2  0  0  0
 15 16  1  0  0  0
 16 17  2  0  0  0
 15  8  1  0  0  0
  8  9  2  0  0  0
  8 10  1  0  0  0
 10  1  1  0  0  0
  1  2  2  0  0  0
  2  3  1  0  0  0
  3  4  2  0  0  0
  4  5  1  0  0  0
  4  6  1  0  0  0
  6 26  1  0  0  0
 26 27  1  0  0  0
 27 28  2  0  0  0
 27 30  1  0  0  0
 30 31  2  0  0  0
 31 32  1  0  0  0
 32 33  2  0  0  0
 33 34  1  0  0  0
 34 35  2  0  0  0
 35 36  1  0  0  0
 36 37  2  0  0  0
 37 38  1  0  0  0
  6  7  2  0  0  0
 23 24  1  0  0  0
 24 25  1  0  0  0
 25 20  1  0  0  0
 17 12  1  0  0  0
  7  1  1  0  0  0
 38 30  1  0  0  0
 38 33  1  0  0  0
 10 11  1  0  0  0
 26 29  1  0  0  0
M  END
> <minimizedAffinity>
-8.47063

> <CNNscore>
0.3049601912

> <CNNaffinity>
6.4660949707

> <CNN_VS>
1.9719015360

> <CNNaffinity_variance>
0.0764027983

$$$$
[H]c1nc2c([H])c([H])c([H])c([H])n2c1C(=O)N([H])c1c([H])c(N([H])C(=O)c2c([H])c([H])c(C([H])([H])N3C([H])([H])C([H])([H])N(C([H])([H])[H])C([H])([H])C3([H])[H])c([H])c2[H])c([H])c([H])c1C([H])([H])[H]


 38 42  0  0  0  0  0  0  0  0999 V2000
    0.4113  -52.0894  -20.2639 C   0  0  0  0  0  0  0  0  0  0  0  0
   -0.3542  -53.1373  -19.8225 C   0  0  0  0  0  0  0  0  0  0  0  0
   -0.8896  -54.0918  -20.6850 C   0  0  0  0  0  0  0  0  0  0  0  0
   -0.6676  -54.0183  -22.0288 C   0  0  0  0  0  0  0  0  0  0  0  0
   -1.2484  -55.0482  -22.9344 C   0  0  0  0  0  0  0  0  0  0  0  0
    0.1110  -52.9642  -22.5366 C   0  0  0  0  0  0  0  0  0  0  0  0
    0.6166  -52.0514  -21.6637 C   0  0  0  0  0  0  0  0  0  0  0  0
    2.2899  -51.0619  -18.9943 C   0  0  0  0  0  0  0  0  0  0  0  0
    3.1780  -51.9302  -19.2054 O   0  0  0  0  0  0  0  0  0  0  0  0
    0.9784  -51.0822  -19.4636 N   0  0  0  0  0  0  0  0  0  0  0  0
    0.3566  -50.2660  -19.2043 H   0  0  0  0  0  0  0  0  0  0  0  0
    3.5596  -47.8174  -16.5724 C   0  0  0  0  0  0  0  0  0  0  0  0
    3.5468  -49.1161  -16.0963 C   0  0  0  0  0  0  0  0  0  0  0  0
    3.1376  -50.1712  -16.8828 C   0  0  0  0  0  0  0  0  0  0  0  0
    2.7329  -49.9368  -18.1663 C   0  0  0  0  0  0  0  0  0  0  0  0
    2.7296  -48.6745  -18.6743 C   0  0  0  0  0  0  0  0  0  0  0  0
    3.1471  -47.6166  -17.8648 C   0  0  0  0  0  0  0  0  0  0  0  0
    3.9977  -46.6969  -15.7213 C   0  0  0  0  0  0  0  0  0  0  0  0
    0.3315  -48.9468  -13.4432 C   0  0  0  0  0  0  0  0  0  0  0  0
    0.9890  -47.7017  -13.1008 N   0  0  0  0  0  0  0  0  0  0  0  0
    2.3840  -47.9035  -12.8839 C   0  0  0  0  0  0  0  0  0  0  0  0
    3.2939  -46.8542  -13.4158 C   0  0  0  0  0  0  0  0  0  0  0  0
    2.9932  -46.4186  -14.7502 N   0  0  0  0  0  0  0  0  0  0  0  0
    1.6614  -46.6961  -15.1713 C   0  0  0  0  0  0  0  0  0  0  0  0
    0.6659  -46.6431  -14.0324 C   0  0  0  0  0  0  0  0  0  0  0  0
    0.3198  -52.9237  -23.9312 N   0  0  0  0  0  0  0  0  0  0  0  0
    1.5468  -52.8746  -24.6298 C   0  0  0  0  0  0  0  0  0  0  0  0
    2.6546  -52.8597  -24.0745 O   0  0  0  0  0  0  0  0  0  0  0  0
   -0.5488  -52.9297  -24.5789 H   0  0  0  0  0  0  0  0  0  0  0  0
    1.5496  -52.8381  -26.1069 C   0  0  0  0  0  0  0  0  0  0  0  0
    2.6776  -52.8558  -26.9129 C   0  0  0  0  0  0  0  0  0  0  0  0
    2.2420  -52.8071  -28.1722 N   0  0  0  0  0  0  0  0  0  0  0  0
    0.9032  -52.7595  -28.2066 C   0  0  0  0  0  0  0  0  0  0  0  0
    0.0080  -52.7000  -29.2494 C   0  0  0  0  0  0  0  0  0  0  0  0
   -1.3282  -52.6599  -28.9860 C   0  0  0  0  0  0  0  0  0  0  0  0
   -1.7420  -52.6802  -27.6850 C   0  0  0  0  0  0  0  0  0  0  0  0
   -0.8523  -52.7395  -26.6471 C   0  0  0  0  0  0  0  0  0  0  0  0
    0.4828  -52.7796  -26.9061 N   0  0  0  0  0  0  0  0  0  0  0  0
 19 20  1  0  0  0
 20 21  1  0  0  0
 21 22  1  0  0  0
 22 23  1  0  0  0
 23 18  1  0  0  0
 18 12  1  0  0  0
 12 13  2  0  0  0
 13 14  1  0  0  0
 14 15  2  0  0  0
 15 16  1  0  0  0
 16 17  2  0  0  0
 15  8  1  0  0  0
  8  9  2  0  0  0
  8 10  1  0  0  0
 10  1  1  0  0  0
  1  2  2  0  0  0
  2  3  1  0  0  0
  3  4  2  0  0  0
  4  5  1  0  0  0
  4  6  1  0  0  0
  6 26  1  0  0  0
 26 27  1  0  0  0
 27 28  2  0  0  0
 27 30  1  0  0  0
 30 31  2  0  0  0
 31 32  1  0  0  0
 32 33  2  0  0  0
 33 34  1  0  0  0
 34 35  2  0  0  0
 35 36  1  0  0  0
 36 37  2  0  0  0
 37 38  1  0  0  0
  6  7  2  0  0  0
 23 24  1  0  0  0
 24 25  1  0  0  0
 25 20  1  0  0  0
 17 12  1  0  0  0
  7  1  1  0  0  0
 38 30  1  0  0  0
 38 33  1  0  0  0
 10 11  1  0  0  0
 26 29  1  0  0  0
M  END
> <minimizedAffinity>
-8.58873

> <CNNscore>
0.2862719297

> <CNNaffinity>
6.2864370346

> <CNN_VS>
1.7996304035

> <CNNaffinity_variance>
0.1433850676

$$$$
[H]c1nc2c([H])c([H])c([H])c([H])n2c1C(=O)N([H])c1c([H])c(N([H])C(=O)c2c([H])c([H])c(C([H])([H])N3C([H])([H])C([H])([H])N(C([H])([H])[H])C([H])([H])C3([H])[H])c([H])c2[H])c([H])c([H])c1C([H])([H])[H]


 38 42  0  0  0  0  0  0  0  0999 V2000
    0.9354  -51.5917  -19.9725 C   0  0  0  0  0  0  0  0  0  0  0  0
    0.3426  -52.5447  -19.1856 C   0  0  0  0  0  0  0  0  0  0  0  0
   -0.6340  -53.4146  -19.6665 C   0  0  0  0  0  0  0  0  0  0  0  0
   -1.0453  -53.3498  -20.9653 C   0  0  0  0  0  0  0  0  0  0  0  0
   -2.0903  -54.2884  -21.4606 C   0  0  0  0  0  0  0  0  0  0  0  0
   -0.4707  -52.3913  -21.8176 C   0  0  0  0  0  0  0  0  0  0  0  0
    0.4794  -51.5592  -21.3120 C   0  0  0  0  0  0  0  0  0  0  0  0
    1.9787  -49.3319  -19.9373 C   0  0  0  0  0  0  0  0  0  0  0  0
    1.1751  -48.7243  -20.6939 O   0  0  0  0  0  0  0  0  0  0  0  0
    1.9174  -50.6724  -19.5636 N   0  0  0  0  0  0  0  0  0  0  0  0
    2.6681  -51.0294  -18.9086 H   0  0  0  0  0  0  0  0  0  0  0  0
    5.1302  -46.8970  -18.4730 C   0  0  0  0  0  0  0  0  0  0  0  0
    3.9047  -46.3617  -18.8269 C   0  0  0  0  0  0  0  0  0  0  0  0
    2.8793  -47.1518  -19.2998 C   0  0  0  0  0  0  0  0  0  0  0  0
    3.0700  -48.4987  -19.4249 C   0  0  0  0  0  0  0  0  0  0  0  0
    4.2600  -49.0662  -19.0883 C   0  0  0  0  0  0  0  0  0  0  0  0
    5.2886  -48.2522  -18.6109 C   0  0  0  0  0  0  0  0  0  0  0  0
    6.2199  -46.0418  -17.9701 C   0  0  0  0  0  0  0  0  0  0  0  0
    2.3971  -45.6861  -14.9779 C   0  0  0  0  0  0  0  0  0  0  0  0
    3.8101  -45.6453  -14.6588 N   0  0  0  0  0  0  0  0  0  0  0  0
    4.4626  -46.8431  -15.0752 C   0  0  0  0  0  0  0  0  0  0  0  0
    5.8131  -46.6847  -15.6773 C   0  0  0  0  0  0  0  0  0  0  0  0
    5.9208  -45.6259  -16.6408 N   0  0  0  0  0  0  0  0  0  0  0  0
    4.9029  -44.6351  -16.5391 C   0  0  0  0  0  0  0  0  0  0  0  0
    4.4348  -44.4230  -15.1155 C   0  0  0  0  0  0  0  0  0  0  0  0
   -0.9208  -52.3569  -23.1541 N   0  0  0  0  0  0  0  0  0  0  0  0
   -0.1992  -52.6712  -24.3273 C   0  0  0  0  0  0  0  0  0  0  0  0
    0.9851  -53.0363  -24.3297 O   0  0  0  0  0  0  0  0  0  0  0  0
   -1.9446  -52.0558  -23.3416 H   0  0  0  0  0  0  0  0  0  0  0  0
   -0.8604  -52.5710  -25.6449 C   0  0  0  0  0  0  0  0  0  0  0  0
   -2.1822  -52.2113  -25.8597 C   0  0  0  0  0  0  0  0  0  0  0  0
   -2.3730  -52.2473  -27.1789 N   0  0  0  0  0  0  0  0  0  0  0  0
   -1.2469  -52.6095  -27.8086 C   0  0  0  0  0  0  0  0  0  0  0  0
   -0.9494  -52.7854  -29.1402 C   0  0  0  0  0  0  0  0  0  0  0  0
    0.3072  -53.1669  -29.5028 C   0  0  0  0  0  0  0  0  0  0  0  0
    1.2410  -53.3647  -28.5265 C   0  0  0  0  0  0  0  0  0  0  0  0
    0.9460  -53.1898  -27.2018 C   0  0  0  0  0  0  0  0  0  0  0  0
   -0.3078  -52.8090  -26.8357 N   0  0  0  0  0  0  0  0  0  0  0  0
 19 20  1  0  0  0
 20 21  1  0  0  0
 21 22  1  0  0  0
 22 23  1  0  0  0
 23 18  1  0  0  0
 18 12  1  0  0  0
 12 13  2  0  0  0
 13 14  1  0  0  0
 14 15  2  0  0  0
 15 16  1  0  0  0
 16 17  2  0  0  0
 15  8  1  0  0  0
  8  9  2  0  0  0
  8 10  1  0  0  0
 10  1  1  0  0  0
  1  2  2  0  0  0
  2  3  1  0  0  0
  3  4  2  0  0  0
  4  5  1  0  0  0
  4  6  1  0  0  0
  6 26  1  0  0  0
 26 27  1  0  0  0
 27 28  2  0  0  0
 27 30  1  0  0  0
 30 31  2  0  0  0
 31 32  1  0  0  0
 32 33  2  0  0  0
 33 34  1  0  0  0
 34 35  2  0  0  0
 35 36  1  0  0  0
 36 37  2  0  0  0
 37 38  1  0  0  0
  6  7  2  0  0  0
 23 24  1  0  0  0
 24 25  1  0  0  0
 25 20  1  0  0  0
 17 12  1  0  0  0
  7  1  1  0  0  0
 38 30  1  0  0  0
 38 33  1  0  0  0
 10 11  1  0  0  0
 26 29  1  0  0  0
M  END
> <minimizedAffinity>
-7.02856

> <CNNscore>
0.2616720498

> <CNNaffinity>
6.0876421928

> <CNN_VS>
1.5929658413

> <CNNaffinity_variance>
0.0565913022

$$$$
[H]c1nc2c([H])c([H])c([H])c([H])n2c1C(=O)N([H])c1c([H])c(N([H])C(=O)c2c([H])c([H])c(C([H])([H])N3C([H])([H])C([H])([H])N(C([H])([H])[H])C([H])([H])C3([H])[H])c([H])c2[H])c([H])c([H])c1C([H])([H])[H]


 38 42  0  0  0  0  0  0  0  0999 V2000
    2.8844  -51.5531  -21.0585 C   0  0  0  0  0  0  0  0  0  0  0  0
    4.2538  -51.5184  -21.1080 C   0  0  0  0  0  0  0  0  0  0  0  0
    4.9701  -51.7810  -22.2740 C   0  0  0  0  0  0  0  0  0  0  0  0
    4.3225  -52.0885  -23.4344 C   0  0  0  0  0  0  0  0  0  0  0  0
    5.1058  -52.3659  -24.6704 C   0  0  0  0  0  0  0  0  0  0  0  0
    2.9180  -52.1380  -23.4412 C   0  0  0  0  0  0  0  0  0  0  0  0
    2.2534  -51.8760  -22.2835 C   0  0  0  0  0  0  0  0  0  0  0  0
    0.9163  -51.9876  -19.5976 C   0  0  0  0  0  0  0  0  0  0  0  0
    0.3770  -52.9185  -20.2533 O   0  0  0  0  0  0  0  0  0  0  0  0
    2.0894  -51.3113  -19.9245 N   0  0  0  0  0  0  0  0  0  0  0  0
    2.4170  -50.5565  -19.2589 H   0  0  0  0  0  0  0  0  0  0  0  0
   -1.1907  -50.9286  -16.0700 C   0  0  0  0  0  0  0  0  0  0  0  0
   -1.4243  -52.1259  -16.7223 C   0  0  0  0  0  0  0  0  0  0  0  0
   -0.7385  -52.4724  -17.8664 C   0  0  0  0  0  0  0  0  0  0  0  0
    0.1974  -51.6174  -18.3754 C   0  0  0  0  0  0  0  0  0  0  0  0
    0.4581  -50.4294  -17.7652 C   0  0  0  0  0  0  0  0  0  0  0  0
   -0.2451  -50.0931  -16.6072 C   0  0  0  0  0  0  0  0  0  0  0  0
   -1.9315  -50.5680  -14.8482 C   0  0  0  0  0  0  0  0  0  0  0  0
    2.7680  -51.0469  -13.6739 C   0  0  0  0  0  0  0  0  0  0  0  0
    1.6276  -50.8468  -12.8025 N   0  0  0  0  0  0  0  0  0  0  0  0
    0.9448  -49.6368  -13.1245 C   0  0  0  0  0  0  0  0  0  0  0  0
   -0.5410  -49.6850  -13.0811 C   0  0  0  0  0  0  0  0  0  0  0  0
   -1.1231  -50.8385  -13.7067 N   0  0  0  0  0  0  0  0  0  0  0  0
   -0.2309  -51.9388  -13.8533 C   0  0  0  0  0  0  0  0  0  0  0  0
    0.7843  -52.0203  -12.7337 C   0  0  0  0  0  0  0  0  0  0  0  0
    2.2848  -52.4574  -24.6607 N   0  0  0  0  0  0  0  0  0  0  0  0
    1.8504  -51.5767  -25.6765 C   0  0  0  0  0  0  0  0  0  0  0  0
    1.9777  -50.3453  -25.6203 O   0  0  0  0  0  0  0  0  0  0  0  0
    2.0917  -53.5010  -24.8790 H   0  0  0  0  0  0  0  0  0  0  0  0
    1.2034  -52.1176  -26.8897 C   0  0  0  0  0  0  0  0  0  0  0  0
    1.8625  -52.6505  -27.9871 C   0  0  0  0  0  0  0  0  0  0  0  0
    0.9172  -53.0165  -28.8534 N   0  0  0  0  0  0  0  0  0  0  0  0
   -0.3008  -52.7446  -28.3652 C   0  0  0  0  0  0  0  0  0  0  0  0
   -1.5638  -52.9336  -28.8767 C   0  0  0  0  0  0  0  0  0  0  0  0
   -2.6485  -52.5534  -28.1451 C   0  0  0  0  0  0  0  0  0  0  0  0
   -2.4482  -51.9920  -26.9168 C   0  0  0  0  0  0  0  0  0  0  0  0
   -1.1923  -51.8037  -26.4071 C   0  0  0  0  0  0  0  0  0  0  0  0
   -0.1066  -52.1820  -27.1347 N   0  0  0  0  0  0  0  0  0  0  0  0
 19 20  1  0  0  0
 20 21  1  0  0  0
 21 22  1  0  0  0
 22 23  1  0  0  0
 23 18  1  0  0  0
 18 12  1  0  0  0
 12 13  2  0  0  0
 13 14  1  0  0  0
 14 15  2  0  0  0
 15 16  1  0  0  0
 16 17  2  0  0  0
 15  8  1  0  0  0
  8  9  2  0  0  0
  8 10  1  0  0  0
 10  1  1  0  0  0
  1  2  2  0  0  0
  2  3  1  0  0  0
  3  4  2  0  0  0
  4  5  1  0  0  0
  4  6  1  0  0  0
  6 26  1  0  0  0
 26 27  1  0  0  0
 27 28  2  0  0  0
 27 30  1  0  0  0
 30 31  2  0  0  0
 31 32  1  0  0  0
 32 33  2  0  0  0
 33 34  1  0  0  0
 34 35  2  0  0  0
 35 36  1  0  0  0
 36 37  2  0  0  0
 37 38  1  0  0  0
  6  7  2  0  0  0
 23 24  1  0  0  0
 24 25  1  0  0  0
 25 20  1  0  0  0
 17 12  1  0  0  0
  7  1  1  0  0  0
 38 30  1  0  0  0
 38 33  1  0  0  0
 10 11  1  0  0  0
 26 29  1  0  0  0
M  END
> <minimizedAffinity>
-8.91823

> <CNNscore>
0.1613571793

> <CNNaffinity>
6.4204816818

> <CNN_VS>
1.0359908342

> <CNNaffinity_variance>
0.0420825705

$$$$
[H]c1nc2c([H])c([H])c([H])c([H])n2c1C(=O)N([H])c1c([H])c(N([H])C(=O)c2c([H])c([H])c(C([H])([H])N3C([H])([H])C([H])([H])N(C([H])([H])[H])C([H])([H])C3([H])[H])c([H])c2[H])c([H])c([H])c1C([H])([H])[H]


 38 42  0  0  0  0  0  0  0  0999 V2000
    0.1037  -52.1062  -19.4521 C   0  0  0  0  0  0  0  0  0  0  0  0
   -0.9920  -52.8916  -19.2041 C   0  0  0  0  0  0  0  0  0  0  0  0
   -1.5236  -53.7608  -20.1546 C   0  0  0  0  0  0  0  0  0  0  0  0
   -0.9622  -53.8656  -21.3932 C   0  0  0  0  0  0  0  0  0  0  0  0
   -1.5450  -54.8006  -22.3955 C   0  0  0  0  0  0  0  0  0  0  0  0
    0.1639  -53.0835  -21.7020 C   0  0  0  0  0  0  0  0  0  0  0  0
    0.6543  -52.2462  -20.7485 C   0  0  0  0  0  0  0  0  0  0  0  0
    0.5027  -51.1835  -17.1749 C   0  0  0  0  0  0  0  0  0  0  0  0
   -0.2214  -51.9689  -16.5067 O   0  0  0  0  0  0  0  0  0  0  0  0
    0.6941  -51.1994  -18.5545 N   0  0  0  0  0  0  0  0  0  0  0  0
    1.3466  -50.4733  -18.9632 H   0  0  0  0  0  0  0  0  0  0  0  0
    2.4923  -48.2276  -14.8708 C   0  0  0  0  0  0  0  0  0  0  0  0
    1.3693  -47.9280  -15.6209 C   0  0  0  0  0  0  0  0  0  0  0  0
    0.7203  -48.8878  -16.3672 C   0  0  0  0  0  0  0  0  0  0  0  0
    1.1918  -50.1699  -16.3716 C   0  0  0  0  0  0  0  0  0  0  0  0
    2.2936  -50.5075  -15.6481 C   0  0  0  0  0  0  0  0  0  0  0  0
    2.9396  -49.5238  -14.8974 C   0  0  0  0  0  0  0  0  0  0  0  0
    3.1790  -47.1925  -14.0780 C   0  0  0  0  0  0  0  0  0  0  0  0
    3.5252  -45.9098  -18.7607 C   0  0  0  0  0  0  0  0  0  0  0  0
    4.1887  -45.3350  -17.6078 N   0  0  0  0  0  0  0  0  0  0  0  0
    3.2389  -44.8570  -16.6573 C   0  0  0  0  0  0  0  0  0  0  0  0
    3.5574  -45.1005  -15.2252 C   0  0  0  0  0  0  0  0  0  0  0  0
    4.0243  -46.4256  -14.9306 N   0  0  0  0  0  0  0  0  0  0  0  0
    4.5353  -47.1311  -16.0572 C   0  0  0  0  0  0  0  0  0  0  0  0
    5.1984  -46.2182  -17.0661 C   0  0  0  0  0  0  0  0  0  0  0  0
    0.7170  -53.2215  -22.9924 N   0  0  0  0  0  0  0  0  0  0  0  0
    1.0813  -52.2023  -23.9004 C   0  0  0  0  0  0  0  0  0  0  0  0
    0.9532  -50.9924  -23.6643 O   0  0  0  0  0  0  0  0  0  0  0  0
    0.8990  -54.2219  -23.3668 H   0  0  0  0  0  0  0  0  0  0  0  0
    1.6509  -52.5602  -25.2159 C   0  0  0  0  0  0  0  0  0  0  0  0
    2.9857  -52.8370  -25.4696 C   0  0  0  0  0  0  0  0  0  0  0  0
    3.0736  -53.1077  -26.7723 N   0  0  0  0  0  0  0  0  0  0  0  0
    1.8702  -53.0172  -27.3550 C   0  0  0  0  0  0  0  0  0  0  0  0
    1.4575  -53.2013  -28.6543 C   0  0  0  0  0  0  0  0  0  0  0  0
    0.1422  -53.0388  -28.9705 C   0  0  0  0  0  0  0  0  0  0  0  0
   -0.7337  -52.6957  -27.9810 C   0  0  0  0  0  0  0  0  0  0  0  0
   -0.3240  -52.5125  -26.6883 C   0  0  0  0  0  0  0  0  0  0  0  0
    0.9886  -52.6736  -26.3685 N   0  0  0  0  0  0  0  0  0  0  0  0
 19 20  1  0  0  0
 20 21  1  0  0  0
 21 22  1  0  0  0
 22 23  1  0  0  0
 23 18  1  0  0  0
 18 12  1  0  0  0
 12 13  2  0  0  0
 13 14  1  0  0  0
 14 15  2  0  0  0
 15 16  1  0  0  0
 16 17  2  0  0  0
 15  8  1  0  0  0
  8  9  2  0  0  0
  8 10  1  0  0  0
 10  1  1  0  0  0
  1  2  2  0  0  0
  2  3  1  0  0  0
  3  4  2  0  0  0
  4  5  1  0  0  0
  4  6  1  0  0  0
  6 26  1  0  0  0
 26 27  1  0  0  0
 27 28  2  0  0  0
 27 30  1  0  0  0
 30 31  2  0  0  0
 31 32  1  0  0  0
 32 33  2  0  0  0
 33 34  1  0  0  0
 34 35  2  0  0  0
 35 36  1  0  0  0
 36 37  2  0  0  0
 37 38  1  0  0  0
  6  7  2  0  0  0
 23 24  1  0  0  0
 24 25  1  0  0  0
 25 20  1  0  0  0
 17 12  1  0  0  0
  7  1  1  0  0  0
 38 30  1  0  0  0
 38 33  1  0  0  0
 10 11  1  0  0  0
 26 29  1  0  0  0
M  END
> <minimizedAffinity>
-7.87627

> <CNNscore>
0.1599116921

> <CNNaffinity>
5.9674482346

> <CNN_VS>
0.9542647600

> <CNNaffinity_variance>
0.2528304756

$$$$
[H]c1nc2c([H])c([H])c([H])c([H])n2c1C(=O)N([H])c1c([H])c(N([H])C(=O)c2c([H])c([H])c(C([H])([H])N3C([H])([H])C([H])([H])N(C([H])([H])[H])C([H])([H])C3([H])[H])c([H])c2[H])c([H])c([H])c1C([H])([H])[H]


 38 42  0  0  0  0  0  0  0  0999 V2000
    0.7619  -52.1087  -23.7226 C   0  0  0  0  0  0  0  0  0  0  0  0
    0.3209  -53.2380  -24.3622 C   0  0  0  0  0  0  0  0  0  0  0  0
    0.5230  -53.4579  -25.7232 C   0  0  0  0  0  0  0  0  0  0  0  0
    1.1813  -52.5389  -26.4865 C   0  0  0  0  0  0  0  0  0  0  0  0
    1.3876  -52.7921  -27.9396 C   0  0  0  0  0  0  0  0  0  0  0  0
    1.6558  -51.3620  -25.8823 C   0  0  0  0  0  0  0  0  0  0  0  0
    1.4392  -51.1825  -24.5513 C   0  0  0  0  0  0  0  0  0  0  0  0
    0.0785  -52.6726  -21.3964 C   0  0  0  0  0  0  0  0  0  0  0  0
   -0.3121  -53.8563  -21.5797 O   0  0  0  0  0  0  0  0  0  0  0  0
    0.5908  -51.8071  -22.3602 N   0  0  0  0  0  0  0  0  0  0  0  0
    0.8856  -50.8424  -22.0399 H   0  0  0  0  0  0  0  0  0  0  0  0
   -0.2326  -51.3136  -17.3888 C   0  0  0  0  0  0  0  0  0  0  0  0
    0.3611  -50.5425  -18.3719 C   0  0  0  0  0  0  0  0  0  0  0  0
    0.4600  -50.9814  -19.6746 C   0  0  0  0  0  0  0  0  0  0  0  0
   -0.0385  -52.2078  -20.0115 C   0  0  0  0  0  0  0  0  0  0  0  0
   -0.6300  -52.9985  -19.0753 C   0  0  0  0  0  0  0  0  0  0  0  0
   -0.7223  -52.5395  -17.7603 C   0  0  0  0  0  0  0  0  0  0  0  0
   -0.3311  -50.8344  -15.9987 C   0  0  0  0  0  0  0  0  0  0  0  0
    3.1606  -49.9169  -12.7338 C   0  0  0  0  0  0  0  0  0  0  0  0
    2.4850  -51.1671  -13.0173 N   0  0  0  0  0  0  0  0  0  0  0  0
    1.0776  -51.0426  -12.8232 C   0  0  0  0  0  0  0  0  0  0  0  0
    0.2103  -51.7257  -13.8196 C   0  0  0  0  0  0  0  0  0  0  0  0
    0.6044  -51.5388  -15.1873 N   0  0  0  0  0  0  0  0  0  0  0  0
    1.9613  -51.1415  -15.3573 C   0  0  0  0  0  0  0  0  0  0  0  0
    2.8754  -51.7172  -14.2971 C   0  0  0  0  0  0  0  0  0  0  0  0
    2.3334  -50.4371  -26.7043 N   0  0  0  0  0  0  0  0  0  0  0  0
    3.3743  -49.5507  -26.3482 C   0  0  0  0  0  0  0  0  0  0  0  0
    3.8486  -49.4697  -25.2062 O   0  0  0  0  0  0  0  0  0  0  0  0
    2.0447  -50.3715  -27.7465 H   0  0  0  0  0  0  0  0  0  0  0  0
    3.9559  -48.6539  -27.3683 C   0  0  0  0  0  0  0  0  0  0  0  0
    4.8019  -49.0416  -28.3963 C   0  0  0  0  0  0  0  0  0  0  0  0
    5.0945  -47.9354  -29.0811 N   0  0  0  0  0  0  0  0  0  0  0  0
    4.4815  -46.8719  -28.5435 C   0  0  0  0  0  0  0  0  0  0  0  0
    4.4742  -45.5396  -28.8861 C   0  0  0  0  0  0  0  0  0  0  0  0
    3.7454  -44.6594  -28.1442 C   0  0  0  0  0  0  0  0  0  0  0  0
    3.0386  -45.1294  -27.0748 C   0  0  0  0  0  0  0  0  0  0  0  0
    3.0452  -46.4545  -26.7333 C   0  0  0  0  0  0  0  0  0  0  0  0
    3.7718  -47.3366  -27.4716 N   0  0  0  0  0  0  0  0  0  0  0  0
 19 20  1  0  0  0
 20 21  1  0  0  0
 21 22  1  0  0  0
 22 23  1  0  0  0
 23 18  1  0  0  0
 18 12  1  0  0  0
 12 13  2  0  0  0
 13 14  1  0  0  0
 14 15  2  0  0  0
 15 16  1  0  0  0
 16 17  2  0  0  0
 15  8  1  0  0  0
  8  9  2  0  0  0
  8 10  1  0  0  0
 10  1  1  0  0  0
  1  2  2  0  0  0
  2  3  1  0  0  0
  3  4  2  0  0  0
  4  5  1  0  0  0
  4  6  1  0  0  0
  6 26  1  0  0  0
 26 27  1  0  0  0
 27 28  2  0  0  0
 27 30  1  0  0  0
 30 31  2  0  0  0
 31 32  1  0  0  0
 32 33  2  0  0  0
 33 34  1  0  0  0
 34 35  2  0  0  0
 35 36  1  0  0  0
 36 37  2  0  0  0
 37 38  1  0  0  0
  6  7  2  0  0  0
 23 24  1  0  0  0
 24 25  1  0  0  0
 25 20  1  0  0  0
 17 12  1  0  0  0
  7  1  1  0  0  0
 38 30  1  0  0  0
 38 33  1  0  0  0
 10 11  1  0  0  0
 26 29  1  0  0  0
M  END
> <minimizedAffinity>
-7.40808

> <CNNscore>
0.1492956281

> <CNNaffinity>
6.2438554764

> <CNN_VS>
0.9321803451

> <CNNaffinity_variance>
0.2543936372

$$$$
[H]c1nc2c([H])c([H])c([H])c([H])n2c1C(=O)N([H])c1c([H])c(N([H])C(=O)c2c([H])c([H])c(C([H])([H])N3C([H])([H])C([H])([H])N(C([H])([H])[H])C([H])([H])C3([H])[H])c([H])c2[H])c([H])c([H])c1C([H])([H])[H]


 38 42  0  0  0  0  0  0  0  0999 V2000
    1.3867  -51.5310  -24.3352 C   0  0  0  0  0  0  0  0  0  0  0  0
    0.9978  -52.6878  -24.9592 C   0  0  0  0  0  0  0  0  0  0  0  0
    0.2083  -53.6501  -24.3328 C   0  0  0  0  0  0  0  0  0  0  0  0
   -0.2164  -53.4737  -23.0487 C   0  0  0  0  0  0  0  0  0  0  0  0
   -1.0598  -54.5138  -22.3965 C   0  0  0  0  0  0  0  0  0  0  0  0
    0.1527  -52.3051  -22.3608 C   0  0  0  0  0  0  0  0  0  0  0  0
    0.9244  -51.3886  -23.0052 C   0  0  0  0  0  0  0  0  0  0  0  0
    3.5782  -50.5361  -24.9710 C   0  0  0  0  0  0  0  0  0  0  0  0
    4.3432  -51.4511  -24.5649 O   0  0  0  0  0  0  0  0  0  0  0  0
    2.1876  -50.5180  -24.8912 N   0  0  0  0  0  0  0  0  0  0  0  0
    1.6886  -49.6747  -25.2909 H   0  0  0  0  0  0  0  0  0  0  0  0
    5.5737  -47.2500  -26.7665 C   0  0  0  0  0  0  0  0  0  0  0  0
    4.2977  -47.6214  -27.1507 C   0  0  0  0  0  0  0  0  0  0  0  0
    3.6473  -48.6865  -26.5662 C   0  0  0  0  0  0  0  0  0  0  0  0
    4.2716  -49.3987  -25.5817 C   0  0  0  0  0  0  0  0  0  0  0  0
    5.5268  -49.0674  -25.1739 C   0  0  0  0  0  0  0  0  0  0  0  0
    6.1721  -47.9858  -25.7759 C   0  0  0  0  0  0  0  0  0  0  0  0
    6.2599  -46.1100  -27.4000 C   0  0  0  0  0  0  0  0  0  0  0  0
    5.5135  -49.4558  -30.8556 C   0  0  0  0  0  0  0  0  0  0  0  0
    6.3125  -48.2484  -30.9148 N   0  0  0  0  0  0  0  0  0  0  0  0
    5.5154  -47.0950  -30.6537 C   0  0  0  0  0  0  0  0  0  0  0  0
    6.1374  -46.0388  -29.8116 C   0  0  0  0  0  0  0  0  0  0  0  0
    6.8171  -46.5243  -28.6440 N   0  0  0  0  0  0  0  0  0  0  0  0
    7.1817  -47.8995  -28.7073 C   0  0  0  0  0  0  0  0  0  0  0  0
    7.5125  -48.3516  -30.1134 C   0  0  0  0  0  0  0  0  0  0  0  0
   -0.3078  -52.1582  -21.0355 N   0  0  0  0  0  0  0  0  0  0  0  0
    0.4191  -52.3209  -19.8350 C   0  0  0  0  0  0  0  0  0  0  0  0
    1.6183  -52.6304  -19.7933 O   0  0  0  0  0  0  0  0  0  0  0  0
   -1.3454  -51.8867  -20.8814 H   0  0  0  0  0  0  0  0  0  0  0  0
   -0.2548  -52.1186  -18.5357 C   0  0  0  0  0  0  0  0  0  0  0  0
   -1.1792  -52.9788  -17.9629 C   0  0  0  0  0  0  0  0  0  0  0  0
   -1.5393  -52.4275  -16.8034 N   0  0  0  0  0  0  0  0  0  0  0  0
   -0.8949  -51.2681  -16.6122 C   0  0  0  0  0  0  0  0  0  0  0  0
   -0.9300  -50.3504  -15.5880 C   0  0  0  0  0  0  0  0  0  0  0  0
   -0.1513  -49.2347  -15.6591 C   0  0  0  0  0  0  0  0  0  0  0  0
    0.6469  -49.0594  -16.7528 C   0  0  0  0  0  0  0  0  0  0  0  0
    0.6825  -49.9718  -17.7720 C   0  0  0  0  0  0  0  0  0  0  0  0
   -0.0937  -51.0872  -17.7048 N   0  0  0  0  0  0  0  0  0  0  0  0
 19 20  1  0  0  0
 20 21  1  0  0  0
 21 22  1  0  0  0
 22 23  1  0  0  0
 23 18  1  0  0  0
 18 12  1  0  0  0
 12 13  2  0  0  0
 13 14  1  0  0  0
 14 15  2  0  0  0
 15 16  1  0  0  0
 16 17  2  0  0  0
 15  8  1  0  0  0
  8  9  2  0  0  0
  8 10  1  0  0  0
 10  1  1  0  0  0
  1  2  2  0  0  0
  2  3  1  0  0  0
  3  4  2  0  0  0
  4  5  1  0  0  0
  4  6  1  0  0  0
  6 26  1  0  0  0
 26 27  1  0  0  0
 27 28  2  0  0  0
 27 30  1  0  0  0
 30 31  2  0  0  0
 31 32  1  0  0  0
 32 33  2  0  0  0
 33 34  1  0  0  0
 34 35  2  0  0  0
 35 36  1  0  0  0
 36 37  2  0  0  0
 37 38  1  0  0  0
  6  7  2  0  0  0
 23 24  1  0  0  0
 24 25  1  0  0  0
 25 20  1  0  0  0
 17 12  1  0  0  0
  7  1  1  0  0  0
 38 30  1  0  0  0
 38 33  1  0  0  0
 10 11  1  0  0  0
 26 29  1  0  0  0
M  END
> <minimizedAffinity>
-7.41698

> <CNNscore>
0.1217057183

> <CNNaffinity>
5.6911015511

> <CNN_VS>
0.6926395893

> <CNNaffinity_variance>
0.2167967558

$$$$
[H]c1nc2c([H])c([H])c([H])c([H])n2c1C(=O)N([H])c1c([H])c(N([H])C(=O)c2c([H])c([H])c(C([H])([H])N3C([H])([H])C([H])([H])N(C([H])([H])[H])C([H])([H])C3([H])[H])c([H])c2[H])c([H])c([H])c1C([H])([H])[H]


 38 42  0  0  0  0  0  0  0  0999 V2000
    0.4752  -51.8107  -19.2101 C   0  0  0  0  0  0  0  0  0  0  0  0
   -0.6278  -52.3987  -18.6473 C   0  0  0  0  0  0  0  0  0  0  0  0
   -1.4351  -53.2985  -19.3403 C   0  0  0  0  0  0  0  0  0  0  0  0
   -1.1525  -53.6356  -20.6314 C   0  0  0  0  0  0  0  0  0  0  0  0
   -2.0274  -54.5994  -21.3553 C   0  0  0  0  0  0  0  0  0  0  0  0
   -0.0328  -53.0626  -21.2584 C   0  0  0  0  0  0  0  0  0  0  0  0
    0.7315  -52.1881  -20.5499 C   0  0  0  0  0  0  0  0  0  0  0  0
    1.5571  -49.5786  -19.0016 C   0  0  0  0  0  0  0  0  0  0  0  0
    1.0356  -49.0053  -19.9950 O   0  0  0  0  0  0  0  0  0  0  0  0
    1.3330  -50.8888  -18.5850 N   0  0  0  0  0  0  0  0  0  0  0  0
    1.8443  -51.2177  -17.7188 H   0  0  0  0  0  0  0  0  0  0  0  0
    4.2285  -47.1493  -16.7729 C   0  0  0  0  0  0  0  0  0  0  0  0
    3.6478  -48.2794  -16.2257 C   0  0  0  0  0  0  0  0  0  0  0  0
    2.7824  -49.0709  -16.9495 C   0  0  0  0  0  0  0  0  0  0  0  0
    2.4856  -48.7380  -18.2406 C   0  0  0  0  0  0  0  0  0  0  0  0
    3.0345  -47.6346  -18.8175 C   0  0  0  0  0  0  0  0  0  0  0  0
    3.9092  -46.8432  -18.0710 C   0  0  0  0  0  0  0  0  0  0  0  0
    5.1512  -46.3095  -15.9886 C   0  0  0  0  0  0  0  0  0  0  0  0
    0.7705  -46.1764  -13.8709 C   0  0  0  0  0  0  0  0  0  0  0  0
    1.9654  -45.4268  -13.5390 N   0  0  0  0  0  0  0  0  0  0  0  0
    3.0448  -46.3020  -13.2183 C   0  0  0  0  0  0  0  0  0  0  0  0
    4.3853  -45.9134  -13.7320 C   0  0  0  0  0  0  0  0  0  0  0  0
    4.4023  -45.4837  -15.1016 N   0  0  0  0  0  0  0  0  0  0  0  0
    3.1358  -45.0653  -15.6005 C   0  0  0  0  0  0  0  0  0  0  0  0
    2.2718  -44.4242  -14.5359 C   0  0  0  0  0  0  0  0  0  0  0  0
    0.2275  -53.4377  -22.5932 N   0  0  0  0  0  0  0  0  0  0  0  0
    0.1991  -52.6270  -23.7498 C   0  0  0  0  0  0  0  0  0  0  0  0
   -0.0735  -51.4182  -23.7363 O   0  0  0  0  0  0  0  0  0  0  0  0
    0.4852  -54.4710  -22.7933 H   0  0  0  0  0  0  0  0  0  0  0  0
    0.5064  -53.2184  -25.0685 C   0  0  0  0  0  0  0  0  0  0  0  0
   -0.0971  -54.3435  -25.6094 C   0  0  0  0  0  0  0  0  0  0  0  0
    0.4669  -54.5373  -26.8020 N   0  0  0  0  0  0  0  0  0  0  0  0
    1.3922  -53.5987  -27.0443 C   0  0  0  0  0  0  0  0  0  0  0  0
    2.2262  -53.3794  -28.1161 C   0  0  0  0  0  0  0  0  0  0  0  0
    3.0873  -52.3238  -28.0920 C   0  0  0  0  0  0  0  0  0  0  0  0
    3.0968  -51.5089  -26.9966 C   0  0  0  0  0  0  0  0  0  0  0  0
    2.2675  -51.7262  -25.9301 C   0  0  0  0  0  0  0  0  0  0  0  0
    1.4063  -52.7793  -25.9503 N   0  0  0  0  0  0  0  0  0  0  0  0
 19 20  1  0  0  0
 20 21  1  0  0  0
 21 22  1  0  0  0
 22 23  1  0  0  0
 23 18  1  0  0  0
 18 12  1  0  0  0
 12 13  2  0  0  0
 13 14  1  0  0  0
 14 15  2  0  0  0
 15 16  1  0  0  0
 16 17  2  0  0  0
 15  8  1  0  0  0
  8  9  2  0  0  0
  8 10  1  0  0  0
 10  1  1  0  0  0
  1  2  2  0  0  0
  2  3  1  0  0  0
  3  4  2  0  0  0
  4  5  1  0  0  0
  4  6  1  0  0  0
  6 26  1  0  0  0
 26 27  1  0  0  0
 27 28  2  0  0  0
 27 30  1  0  0  0
 30 31  2  0  0  0
 31 32  1  0  0  0
 32 33  2  0  0  0
 33 34  1  0  0  0
 34 35  2  0  0  0
 35 36  1  0  0  0
 36 37  2  0  0  0
 37 38  1  0  0  0
  6  7  2  0  0  0
 23 24  1  0  0  0
 24 25  1  0  0  0
 25 20  1  0  0  0
 17 12  1  0  0  0
  7  1  1  0  0  0
 38 30  1  0  0  0
 38 33  1  0  0  0
 10 11  1  0  0  0
 26 29  1  0  0  0
M  END
> <minimizedAffinity>
-6.12436

> <CNNscore>
0.1160734892

> <CNNaffinity>
5.9426240921

> <CNN_VS>
0.6897811294

> <CNNaffinity_variance>
0.0463238247

$$$$
[H]O[C@]([H])(C([H])([H])[H])[C@@]([H])(C(=O)N([H])S(=O)(=O)c1c([H])c([H])c([H])c(-c2nc(C([H])([H])[H])nc(N([H])[H])c2[H])c1[H])N([H])[H]


 31 32  0  0  0  0  0  0  0  0999 V2000
    2.9255  -50.4924  -23.7461 C   0  0  0  0  0  0  0  0  0  0  0  0
    2.8303  -49.2533  -23.1568 C   0  0  0  0  0  0  0  0  0  0  0  0
    1.9114  -49.0041  -22.1429 C   0  0  0  0  0  0  0  0  0  0  0  0
    1.1080  -50.0560  -21.7628 C   0  0  0  0  0  0  0  0  0  0  0  0
    1.1755  -51.3194  -22.3334 C   0  0  0  0  0  0  0  0  0  0  0  0
    2.0835  -51.5218  -23.3178 C   0  0  0  0  0  0  0  0  0  0  0  0
    0.2759  -52.3694  -21.8604 C   0  0  0  0  0  0  0  0  0  0  0  0
   -0.1911  -52.4139  -20.5663 C   0  0  0  0  0  0  0  0  0  0  0  0
   -1.0511  -53.4264  -20.1470 C   0  0  0  0  0  0  0  0  0  0  0  0
   -1.5545  -53.5007  -18.8158 N   0  0  0  0  0  0  0  0  0  0  0  0
   -1.3977  -54.3497  -21.0622 N   0  0  0  0  0  0  0  0  0  0  0  0
   -0.9686  -54.3412  -22.3189 C   0  0  0  0  0  0  0  0  0  0  0  0
   -1.4159  -55.4140  -23.2431 C   0  0  0  0  0  0  0  0  0  0  0  0
   -0.1412  -53.3528  -22.6942 N   0  0  0  0  0  0  0  0  0  0  0  0
   -2.5854  -53.3898  -18.6904 H   0  0  0  0  0  0  0  0  0  0  0  0
   -0.9113  -53.6565  -18.0318 H   0  0  0  0  0  0  0  0  0  0  0  0
    4.1008  -50.7769  -25.0338 S   0  0  0  0  0  0  0  0  0  0  0  0
    4.8890  -49.5260  -25.2128 O   0  0  0  0  0  0  0  0  0  0  0  0
    4.9340  -51.9490  -24.5992 O   0  0  0  0  0  0  0  0  0  0  0  0
    2.7135  -52.4895  -26.6953 C   0  0  0  0  0  0  0  0  0  0  0  0
    2.9855  -53.3803  -25.8481 O   0  0  0  0  0  0  0  0  0  0  0  0
    3.1812  -51.1931  -26.4380 N   0  0  0  0  0  0  0  0  0  0  0  0
    2.9756  -50.4276  -27.1136 H   0  0  0  0  0  0  0  0  0  0  0  0
    1.9313  -52.7765  -27.9243 C   0  0  0  0  0  0  0  0  0  0  0  0
    2.3937  -53.9367  -28.6171 N   0  0  0  0  0  0  0  0  0  0  0  0
    2.8271  -53.7213  -29.5489 H   0  0  0  0  0  0  0  0  0  0  0  0
    1.6781  -54.7016  -28.7022 H   0  0  0  0  0  0  0  0  0  0  0  0
   -0.2816  -52.7400  -28.9677 C   0  0  0  0  0  0  0  0  0  0  0  0
    0.4477  -52.8626  -27.6469 C   0  0  0  0  0  0  0  0  0  0  0  0
    0.0828  -54.0617  -27.0549 O   0  0  0  0  0  0  0  0  0  0  0  0
   -0.8570  -53.9897  -26.7766 H   0  0  0  0  0  0  0  0  0  0  0  0
 28 29  1  0  0  0
 29 30  1  0  0  0
 29 24  1  0  0  0
 24 25  1  0  0  0
 24 20  1  0  0  0
 20 21  2  0  0  0
 20 22  1  0  0  0
 22 17  1  0  0  0
 17 18  2  0  0  0
 17 19  2  0  0  0
 17  1  1  0  0  0
  1  2  2  0  0  0
  2  3  1  0  0  0
  3  4  2  0  0  0
  4  5  1  0  0  0
  5  6  2  0  0  0
  5  7  1  0  0  0
  7  8  2  0  0  0
  8  9  1  0  0  0
  9 10  1  0  0  0
  9 11  2  0  0  0
 11 12  1  0  0  0
 12 13  1  0  0  0
 12 14  2  0  0  0
  6  1  1  0  0  0
 14  7  1  0  0  0
 30 31  1  0  0  0
 25 26  1  0  0  0
 25 27  1  0  0  0
 22 23  1  0  0  0
 10 15  1  0  0  0
 10 16  1  0  0  0
M  END
> <minimizedAffinity>
-8.44835

> <CNNscore>
0.5918548703

> <CNNaffinity>
6.1424317360

> <CNN_VS>
3.6354281902

> <CNNaffinity_variance>
0.0694281906

$$$$
[H]O[C@]([H])(C([H])([H])[H])[C@@]([H])(C(=O)N([H])S(=O)(=O)c1c([H])c([H])c([H])c(-c2nc(C([H])([H])[H])nc(N([H])[H])c2[H])c1[H])N([H])[H]


 31 32  0  0  0  0  0  0  0  0999 V2000
    0.0186  -52.9713  -21.9986 C   0  0  0  0  0  0  0  0  0  0  0  0
   -0.6806  -54.0891  -21.6067 C   0  0  0  0  0  0  0  0  0  0  0  0
   -1.1860  -54.9890  -22.5391 C   0  0  0  0  0  0  0  0  0  0  0  0
   -0.9507  -54.7039  -23.8657 C   0  0  0  0  0  0  0  0  0  0  0  0
   -0.2496  -53.5871  -24.2989 C   0  0  0  0  0  0  0  0  0  0  0  0
    0.2263  -52.7350  -23.3599 C   0  0  0  0  0  0  0  0  0  0  0  0
   -0.0555  -53.3728  -25.7313 C   0  0  0  0  0  0  0  0  0  0  0  0
    1.1821  -53.4520  -26.3286 C   0  0  0  0  0  0  0  0  0  0  0  0
    1.3337  -53.2460  -27.6980 C   0  0  0  0  0  0  0  0  0  0  0  0
    2.5996  -53.3227  -28.3481 N   0  0  0  0  0  0  0  0  0  0  0  0
    0.2199  -52.9678  -28.3996 N   0  0  0  0  0  0  0  0  0  0  0  0
   -0.9906  -52.8827  -27.8602 C   0  0  0  0  0  0  0  0  0  0  0  0
   -2.1504  -52.5674  -28.7324 C   0  0  0  0  0  0  0  0  0  0  0  0
   -1.1058  -53.0866  -26.5383 N   0  0  0  0  0  0  0  0  0  0  0  0
    2.7272  -54.0834  -29.0522 H   0  0  0  0  0  0  0  0  0  0  0  0
    3.3372  -52.6483  -28.1163 H   0  0  0  0  0  0  0  0  0  0  0  0
    0.6453  -51.8454  -20.7904 S   0  0  0  0  0  0  0  0  0  0  0  0
    2.1095  -52.0858  -20.6629 O   0  0  0  0  0  0  0  0  0  0  0  0
    0.3085  -50.4652  -21.2787 O   0  0  0  0  0  0  0  0  0  0  0  0
    0.0327  -51.5205  -18.1188 C   0  0  0  0  0  0  0  0  0  0  0  0
    0.9311  -50.6383  -18.1172 O   0  0  0  0  0  0  0  0  0  0  0  0
   -0.2163  -52.1824  -19.3292 N   0  0  0  0  0  0  0  0  0  0  0  0
   -0.9529  -52.9174  -19.3726 H   0  0  0  0  0  0  0  0  0  0  0  0
   -0.7442  -51.8631  -16.9007 C   0  0  0  0  0  0  0  0  0  0  0  0
   -1.2364  -53.2038  -16.9163 N   0  0  0  0  0  0  0  0  0  0  0  0
   -2.2822  -53.2636  -16.9892 H   0  0  0  0  0  0  0  0  0  0  0  0
   -0.8785  -53.8035  -16.1311 H   0  0  0  0  0  0  0  0  0  0  0  0
   -0.6375  -50.4241  -14.9247 C   0  0  0  0  0  0  0  0  0  0  0  0
    0.0313  -51.5822  -15.6338 C   0  0  0  0  0  0  0  0  0  0  0  0
    0.0584  -52.6670  -14.7714 O   0  0  0  0  0  0  0  0  0  0  0  0
    0.6904  -52.4635  -14.0468 H   0  0  0  0  0  0  0  0  0  0  0  0
 28 29  1  0  0  0
 29 30  1  0  0  0
 29 24  1  0  0  0
 24 25  1  0  0  0
 24 20  1  0  0  0
 20 21  2  0  0  0
 20 22  1  0  0  0
 22 17  1  0  0  0
 17 18  2  0  0  0
 17 19  2  0  0  0
 17  1  1  0  0  0
  1  2  2  0  0  0
  2  3  1  0  0  0
  3  4  2  0  0  0
  4  5  1  0  0  0
  5  6  2  0  0  0
  5  7  1  0  0  0
  7  8  2  0  0  0
  8  9  1  0  0  0
  9 10  1  0  0  0
  9 11  2  0  0  0
 11 12  1  0  0  0
 12 13  1  0  0  0
 12 14  2  0  0  0
  6  1  1  0  0  0
 14  7  1  0  0  0
 30 31  1  0  0  0
 25 26  1  0  0  0
 25 27  1  0  0  0
 22 23  1  0  0  0
 10 15  1  0  0  0
 10 16  1  0  0  0
M  END
> <minimizedAffinity>
-8.76917

> <CNNscore>
0.5497549772

> <CNNaffinity>
6.2043805122

> <CNN_VS>
3.4108891487

> <CNNaffinity_variance>
0.0592024811

$$$$
[H]O[C@]([H])(C([H])([H])[H])[C@@]([H])(C(=O)N([H])S(=O)(=O)c1c([H])c([H])c([H])c(-c2nc(C([H])([H])[H])nc(N([H])[H])c2[H])c1[H])N([H])[H]


 31 32  0  0  0  0  0  0  0  0999 V2000
    0.3544  -52.7858  -22.0690 C   0  0  0  0  0  0  0  0  0  0  0  0
   -0.3529  -53.8296  -21.5195 C   0  0  0  0  0  0  0  0  0  0  0  0
   -1.0118  -54.7567  -22.3202 C   0  0  0  0  0  0  0  0  0  0  0  0
   -0.9189  -54.5756  -23.6822 C   0  0  0  0  0  0  0  0  0  0  0  0
   -0.2146  -53.5356  -24.2727 C   0  0  0  0  0  0  0  0  0  0  0  0
    0.4132  -52.6538  -23.4586 C   0  0  0  0  0  0  0  0  0  0  0  0
   -0.1788  -53.4294  -25.7297 C   0  0  0  0  0  0  0  0  0  0  0  0
    0.9481  -53.7225  -26.4638 C   0  0  0  0  0  0  0  0  0  0  0  0
    0.9491  -53.6149  -27.8528 C   0  0  0  0  0  0  0  0  0  0  0  0
    2.0974  -53.9126  -28.6427 N   0  0  0  0  0  0  0  0  0  0  0  0
   -0.1959  -53.2133  -28.4339 N   0  0  0  0  0  0  0  0  0  0  0  0
   -1.3029  -52.9215  -27.7608 C   0  0  0  0  0  0  0  0  0  0  0  0
   -2.5099  -52.4857  -28.5081 C   0  0  0  0  0  0  0  0  0  0  0  0
   -1.2740  -53.0349  -26.4234 N   0  0  0  0  0  0  0  0  0  0  0  0
    2.0255  -54.7204  -29.3006 H   0  0  0  0  0  0  0  0  0  0  0  0
    2.9457  -53.3430  -28.5500 H   0  0  0  0  0  0  0  0  0  0  0  0
    1.1781  -51.6227  -21.0253 S   0  0  0  0  0  0  0  0  0  0  0  0
    0.5187  -50.3003  -21.2111 O   0  0  0  0  0  0  0  0  0  0  0  0
    1.0656  -52.1529  -19.6242 O   0  0  0  0  0  0  0  0  0  0  0  0
    3.3308  -50.7837  -22.5352 C   0  0  0  0  0  0  0  0  0  0  0  0
    2.5153  -50.0025  -23.0921 O   0  0  0  0  0  0  0  0  0  0  0  0
    2.8336  -51.6193  -21.5253 N   0  0  0  0  0  0  0  0  0  0  0  0
    3.4766  -52.2785  -21.0388 H   0  0  0  0  0  0  0  0  0  0  0  0
    4.7650  -50.8358  -22.9160 C   0  0  0  0  0  0  0  0  0  0  0  0
    5.5413  -51.6551  -22.0409 N   0  0  0  0  0  0  0  0  0  0  0  0
    6.2326  -51.1132  -21.4656 H   0  0  0  0  0  0  0  0  0  0  0  0
    6.0026  -52.4731  -22.5125 H   0  0  0  0  0  0  0  0  0  0  0  0
    4.1734  -52.5212  -24.5882 C   0  0  0  0  0  0  0  0  0  0  0  0
    4.9559  -51.2459  -24.3586 C   0  0  0  0  0  0  0  0  0  0  0  0
    4.5031  -50.2874  -25.2517 O   0  0  0  0  0  0  0  0  0  0  0  0
    4.7863  -50.5549  -26.1540 H   0  0  0  0  0  0  0  0  0  0  0  0
 28 29  1  0  0  0
 29 30  1  0  0  0
 29 24  1  0  0  0
 24 25  1  0  0  0
 24 20  1  0  0  0
 20 21  2  0  0  0
 20 22  1  0  0  0
 22 17  1  0  0  0
 17 18  2  0  0  0
 17 19  2  0  0  0
 17  1  1  0  0  0
  1  2  2  0  0  0
  2  3  1  0  0  0
  3  4  2  0  0  0
  4  5  1  0  0  0
  5  6  2  0  0  0
  5  7  1  0  0  0
  7  8  2  0  0  0
  8  9  1  0  0  0
  9 10  1  0  0  0
  9 11  2  0  0  0
 11 12  1  0  0  0
 12 13  1  0  0  0
 12 14  2  0  0  0
  6  1  1  0  0  0
 14  7  1  0  0  0
 30 31  1  0  0  0
 25 26  1  0  0  0
 25 27  1  0  0  0
 22 23  1  0  0  0
 10 15  1  0  0  0
 10 16  1  0  0  0
M  END
> <minimizedAffinity>
-8.21719

> <CNNscore>
0.4096994102

> <CNNaffinity>
6.0359239578

> <CNN_VS>
2.4729144573

> <CNNaffinity_variance>
0.2015590221

$$$$
[H]O[C@]([H])(C([H])([H])[H])[C@@]([H])(C(=O)N([H])S(=O)(=O)c1c([H])c([H])c([H])c(-c2nc(C([H])([H])[H])nc(N([H])[H])c2[H])c1[H])N([H])[H]


 31 32  0  0  0  0  0  0  0  0999 V2000
    0.7494  -52.6775  -22.3248 C   0  0  0  0  0  0  0  0  0  0  0  0
    1.9831  -52.1252  -22.0707 C   0  0  0  0  0  0  0  0  0  0  0  0
    2.8630  -51.8165  -23.1027 C   0  0  0  0  0  0  0  0  0  0  0  0
    2.4365  -52.0908  -24.3831 C   0  0  0  0  0  0  0  0  0  0  0  0
    1.1996  -52.6468  -24.6783 C   0  0  0  0  0  0  0  0  0  0  0  0
    0.3715  -52.9331  -23.6454 C   0  0  0  0  0  0  0  0  0  0  0  0
    0.8417  -52.9021  -26.0719 C   0  0  0  0  0  0  0  0  0  0  0  0
    1.7288  -53.4432  -26.9747 C   0  0  0  0  0  0  0  0  0  0  0  0
    1.3557  -53.6780  -28.2962 C   0  0  0  0  0  0  0  0  0  0  0  0
    2.2483  -54.2387  -29.2554 N   0  0  0  0  0  0  0  0  0  0  0  0
    0.0970  -53.3516  -28.6416 N   0  0  0  0  0  0  0  0  0  0  0  0
   -0.7873  -52.8280  -27.8004 C   0  0  0  0  0  0  0  0  0  0  0  0
   -2.1504  -52.5047  -28.2930 C   0  0  0  0  0  0  0  0  0  0  0  0
   -0.3993  -52.6134  -26.5333 N   0  0  0  0  0  0  0  0  0  0  0  0
    2.0006  -55.1756  -29.6447 H   0  0  0  0  0  0  0  0  0  0  0  0
    3.0910  -53.7243  -29.5343 H   0  0  0  0  0  0  0  0  0  0  0  0
   -0.3448  -53.0614  -20.9922 S   0  0  0  0  0  0  0  0  0  0  0  0
   -1.6585  -52.4244  -21.2863 O   0  0  0  0  0  0  0  0  0  0  0  0
   -0.4133  -54.5602  -20.9151 O   0  0  0  0  0  0  0  0  0  0  0  0
    0.5416  -51.0572  -19.3142 C   0  0  0  0  0  0  0  0  0  0  0  0
    0.0973  -50.2622  -20.1837 O   0  0  0  0  0  0  0  0  0  0  0  0
    0.3990  -52.4292  -19.5646 N   0  0  0  0  0  0  0  0  0  0  0  0
    0.7518  -53.1193  -18.8691 H   0  0  0  0  0  0  0  0  0  0  0  0
    1.1941  -50.5843  -18.0671 C   0  0  0  0  0  0  0  0  0  0  0  0
    0.7301  -51.2713  -16.9041 N   0  0  0  0  0  0  0  0  0  0  0  0
    0.1795  -50.6611  -16.2507 H   0  0  0  0  0  0  0  0  0  0  0  0
    1.4785  -51.7978  -16.3873 H   0  0  0  0  0  0  0  0  0  0  0  0
    3.2548  -50.7304  -16.7561 C   0  0  0  0  0  0  0  0  0  0  0  0
    2.7022  -50.6300  -18.1617 C   0  0  0  0  0  0  0  0  0  0  0  0
    3.1598  -51.7164  -18.8908 O   0  0  0  0  0  0  0  0  0  0  0  0
    4.1261  -51.6036  -19.0302 H   0  0  0  0  0  0  0  0  0  0  0  0
 28 29  1  0  0  0
 29 30  1  0  0  0
 29 24  1  0  0  0
 24 25  1  0  0  0
 24 20  1  0  0  0
 20 21  2  0  0  0
 20 22  1  0  0  0
 22 17  1  0  0  0
 17 18  2  0  0  0
 17 19  2  0  0  0
 17  1  1  0  0  0
  1  2  2  0  0  0
  2  3  1  0  0  0
  3  4  2  0  0  0
  4  5  1  0  0  0
  5  6  2  0  0  0
  5  7  1  0  0  0
  7  8  2  0  0  0
  8  9  1  0  0  0
  9 10  1  0  0  0
  9 11  2  0  0  0
 11 12  1  0  0  0
 12 13  1  0  0  0
 12 14  2  0  0  0
  6  1  1  0  0  0
 14  7  1  0  0  0
 30 31  1  0  0  0
 25 26  1  0  0  0
 25 27  1  0  0  0
 22 23  1  0  0  0
 10 15  1  0  0  0
 10 16  1  0  0  0
M  END
> <minimizedAffinity>
-7.14308

> <CNNscore>
0.3266228139

> <CNNaffinity>
5.9552545547

> <CNN_VS>
1.9451220036

> <CNNaffinity_variance>
0.1228798181

$$$$
[H]O[C@]([H])(C([H])([H])[H])[C@@]([H])(C(=O)N([H])S(=O)(=O)c1c([H])c([H])c([H])c(-c2nc(C([H])([H])[H])nc(N([H])[H])c2[H])c1[H])N([H])[H]


 31 32  0  0  0  0  0  0  0  0999 V2000
    0.3746  -52.7950  -21.9478 C   0  0  0  0  0  0  0  0  0  0  0  0
   -0.3418  -53.8472  -21.4269 C   0  0  0  0  0  0  0  0  0  0  0  0
   -0.9952  -54.7557  -22.2529 C   0  0  0  0  0  0  0  0  0  0  0  0
   -0.8873  -54.5478  -23.6100 C   0  0  0  0  0  0  0  0  0  0  0  0
   -0.1735  -53.4985  -24.1721 C   0  0  0  0  0  0  0  0  0  0  0  0
    0.4486  -52.6354  -23.3339 C   0  0  0  0  0  0  0  0  0  0  0  0
   -0.1219  -53.3634  -25.6262 C   0  0  0  0  0  0  0  0  0  0  0  0
    1.0287  -53.5863  -26.3480 C   0  0  0  0  0  0  0  0  0  0  0  0
    1.0445  -53.4528  -27.7346 C   0  0  0  0  0  0  0  0  0  0  0  0
    2.2175  -53.6782  -28.5120 N   0  0  0  0  0  0  0  0  0  0  0  0
   -0.1105  -53.0976  -28.3260 N   0  0  0  0  0  0  0  0  0  0  0  0
   -1.2403  -52.8737  -27.6648 C   0  0  0  0  0  0  0  0  0  0  0  0
   -2.4566  -52.4843  -28.4226 C   0  0  0  0  0  0  0  0  0  0  0  0
   -1.2252  -53.0107  -26.3294 N   0  0  0  0  0  0  0  0  0  0  0  0
    2.1955  -54.4761  -29.1854 H   0  0  0  0  0  0  0  0  0  0  0  0
    3.0350  -53.0692  -28.3959 H   0  0  0  0  0  0  0  0  0  0  0  0
    1.1910  -51.6559  -20.8725 S   0  0  0  0  0  0  0  0  0  0  0  0
    0.1542  -50.7587  -20.2909 O   0  0  0  0  0  0  0  0  0  0  0  0
    1.9096  -52.4814  -19.8434 O   0  0  0  0  0  0  0  0  0  0  0  0
    3.2145  -49.8399  -21.3474 C   0  0  0  0  0  0  0  0  0  0  0  0
    3.1548  -49.5937  -20.1140 O   0  0  0  0  0  0  0  0  0  0  0  0
    2.3345  -50.8068  -21.8534 N   0  0  0  0  0  0  0  0  0  0  0  0
    2.3539  -51.0406  -22.8681 H   0  0  0  0  0  0  0  0  0  0  0  0
    4.1695  -49.1470  -22.2488 C   0  0  0  0  0  0  0  0  0  0  0  0
    4.7123  -50.0095  -23.2494 N   0  0  0  0  0  0  0  0  0  0  0  0
    5.7390  -50.1939  -23.1291 H   0  0  0  0  0  0  0  0  0  0  0  0
    4.4950  -49.7167  -24.2350 H   0  0  0  0  0  0  0  0  0  0  0  0
    3.4929  -48.1197  -24.3639 C   0  0  0  0  0  0  0  0  0  0  0  0
    3.5687  -47.9052  -22.8674 C   0  0  0  0  0  0  0  0  0  0  0  0
    2.2922  -47.6376  -22.3981 O   0  0  0  0  0  0  0  0  0  0  0  0
    2.0260  -46.7517  -22.7298 H   0  0  0  0  0  0  0  0  0  0  0  0
 28 29  1  0  0  0
 29 30  1  0  0  0
 29 24  1  0  0  0
 24 25  1  0  0  0
 24 20  1  0  0  0
 20 21  2  0  0  0
 20 22  1  0  0  0
 22 17  1  0  0  0
 17 18  2  0  0  0
 17 19  2  0  0  0
 17  1  1  0  0  0
  1  2  2  0  0  0
  2  3  1  0  0  0
  3  4  2  0  0  0
  4  5  1  0  0  0
  5  6  2  0  0  0
  5  7  1  0  0  0
  7  8  2  0  0  0
  8  9  1  0  0  0
  9 10  1  0  0  0
  9 11  2  0  0  0
 11 12  1  0  0  0
 12 13  1  0  0  0
 12 14  2  0  0  0
  6  1  1  0  0  0
 14  7  1  0  0  0
 30 31  1  0  0  0
 25 26  1  0  0  0
 25 27  1  0  0  0
 22 23  1  0  0  0
 10 15  1  0  0  0
 10 16  1  0  0  0
M  END
> <minimizedAffinity>
-7.63583

> <CNNscore>
0.2985336781

> <CNNaffinity>
5.9190864563

> <CNN_VS>
1.7670466900

> <CNNaffinity_variance>
0.0864683390

$$$$
[H]O[C@]([H])(C([H])([H])[H])[C@@]([H])(C(=O)N([H])S(=O)(=O)c1c([H])c([H])c([H])c(-c2nc(C([H])([H])[H])nc(N([H])[H])c2[H])c1[H])N([H])[H]


 31 32  0  0  0  0  0  0  0  0999 V2000
   -0.4708  -53.3096  -22.1615 C   0  0  0  0  0  0  0  0  0  0  0  0
   -1.0323  -54.5566  -22.0145 C   0  0  0  0  0  0  0  0  0  0  0  0
   -1.1694  -55.4194  -23.0968 C   0  0  0  0  0  0  0  0  0  0  0  0
   -0.7162  -54.9627  -24.3143 C   0  0  0  0  0  0  0  0  0  0  0  0
   -0.1441  -53.7120  -24.5012 C   0  0  0  0  0  0  0  0  0  0  0  0
   -0.0285  -52.9013  -23.4224 C   0  0  0  0  0  0  0  0  0  0  0  0
    0.3037  -53.3199  -25.8357 C   0  0  0  0  0  0  0  0  0  0  0  0
    1.6162  -53.0116  -26.1132 C   0  0  0  0  0  0  0  0  0  0  0  0
    2.0123  -52.6447  -27.3974 C   0  0  0  0  0  0  0  0  0  0  0  0
    3.3626  -52.3216  -27.7189 N   0  0  0  0  0  0  0  0  0  0  0  0
    1.0558  -52.6068  -28.3428 N   0  0  0  0  0  0  0  0  0  0  0  0
   -0.2199  -52.8967  -28.1147 C   0  0  0  0  0  0  0  0  0  0  0  0
   -1.1907  -52.8194  -29.2358 C   0  0  0  0  0  0  0  0  0  0  0  0
   -0.5718  -53.2475  -26.8675 N   0  0  0  0  0  0  0  0  0  0  0  0
    3.8551  -52.9513  -28.3908 H   0  0  0  0  0  0  0  0  0  0  0  0
    3.8088  -51.5008  -27.2949 H   0  0  0  0  0  0  0  0  0  0  0  0
   -0.3133  -52.2353  -20.7682 S   0  0  0  0  0  0  0  0  0  0  0  0
   -0.9100  -50.9219  -21.1386 O   0  0  0  0  0  0  0  0  0  0  0  0
   -1.0202  -52.9102  -19.6274 O   0  0  0  0  0  0  0  0  0  0  0  0
    1.9295  -51.2144  -19.5249 C   0  0  0  0  0  0  0  0  0  0  0  0
    1.1325  -50.4425  -18.9296 O   0  0  0  0  0  0  0  0  0  0  0  0
    1.3803  -52.1287  -20.4347 N   0  0  0  0  0  0  0  0  0  0  0  0
    2.0059  -52.7858  -20.9461 H   0  0  0  0  0  0  0  0  0  0  0  0
    3.3950  -51.1760  -19.2895 C   0  0  0  0  0  0  0  0  0  0  0  0
    4.1441  -50.9803  -20.4896 N   0  0  0  0  0  0  0  0  0  0  0  0
    4.7179  -51.8156  -20.7644 H   0  0  0  0  0  0  0  0  0  0  0  0
    4.7255  -50.1049  -20.4970 H   0  0  0  0  0  0  0  0  0  0  0  0
    3.7819  -50.8572  -16.8946 C   0  0  0  0  0  0  0  0  0  0  0  0
    3.7756  -50.1590  -18.2376 C   0  0  0  0  0  0  0  0  0  0  0  0
    5.0307  -49.6113  -18.4524 O   0  0  0  0  0  0  0  0  0  0  0  0
    5.1491  -48.8663  -17.8224 H   0  0  0  0  0  0  0  0  0  0  0  0
 28 29  1  0  0  0
 29 30  1  0  0  0
 29 24  1  0  0  0
 24 25  1  0  0  0
 24 20  1  0  0  0
 20 21  2  0  0  0
 20 22  1  0  0  0
 22 17  1  0  0  0
 17 18  2  0  0  0
 17 19  2  0  0  0
 17  1  1  0  0  0
  1  2  2  0  0  0
  2  3  1  0  0  0
  3  4  2  0  0  0
  4  5  1  0  0  0
  5  6  2  0  0  0
  5  7  1  0  0  0
  7  8  2  0  0  0
  8  9  1  0  0  0
  9 10  1  0  0  0
  9 11  2  0  0  0
 11 12  1  0  0  0
 12 13  1  0  0  0
 12 14  2  0  0  0
  6  1  1  0  0  0
 14  7  1  0  0  0
 30 31  1  0  0  0
 25 26  1  0  0  0
 25 27  1  0  0  0
 22 23  1  0  0  0
 10 15  1  0  0  0
 10 16  1  0  0  0
M  END
> <minimizedAffinity>
-7.59022

> <CNNscore>
0.2658432722

> <CNNaffinity>
5.7036085129

> <CNN_VS>
1.5162659883

> <CNNaffinity_variance>
0.1298843920

$$$$
[H]O[C@]([H])(C([H])([H])[H])[C@@]([H])(C(=O)N([H])S(=O)(=O)c1c([H])c([H])c([H])c(-c2nc(C([H])([H])[H])nc(N([H])[H])c2[H])c1[H])N([H])[H]


 31 32  0  0  0  0  0  0  0  0999 V2000
    1.4141  -52.3654  -26.0426 C   0  0  0  0  0  0  0  0  0  0  0  0
    0.2528  -52.4623  -26.7732 C   0  0  0  0  0  0  0  0  0  0  0  0
   -0.9924  -52.4665  -26.1535 C   0  0  0  0  0  0  0  0  0  0  0  0
   -1.0011  -52.3689  -24.7799 C   0  0  0  0  0  0  0  0  0  0  0  0
    0.1492  -52.2691  -24.0096 C   0  0  0  0  0  0  0  0  0  0  0  0
    1.3423  -52.2685  -24.6506 C   0  0  0  0  0  0  0  0  0  0  0  0
    0.0333  -52.1726  -22.5561 C   0  0  0  0  0  0  0  0  0  0  0  0
   -0.6991  -53.0701  -21.8126 C   0  0  0  0  0  0  0  0  0  0  0  0
   -0.7871  -52.9529  -20.4272 C   0  0  0  0  0  0  0  0  0  0  0  0
   -1.5346  -53.8658  -19.6278 N   0  0  0  0  0  0  0  0  0  0  0  0
   -0.1268  -51.9276  -19.8590 N   0  0  0  0  0  0  0  0  0  0  0  0
    0.5895  -51.0417  -20.5415 C   0  0  0  0  0  0  0  0  0  0  0  0
    1.2758  -49.9478  -19.8083 C   0  0  0  0  0  0  0  0  0  0  0  0
    0.6563  -51.1804  -21.8751 N   0  0  0  0  0  0  0  0  0  0  0  0
   -0.9996  -54.4504  -18.9475 H   0  0  0  0  0  0  0  0  0  0  0  0
   -2.5530  -53.9272  -19.7353 H   0  0  0  0  0  0  0  0  0  0  0  0
    2.9808  -52.3659  -26.8586 S   0  0  0  0  0  0  0  0  0  0  0  0
    3.0851  -53.6300  -27.6391 O   0  0  0  0  0  0  0  0  0  0  0  0
    3.0157  -51.1322  -27.7151 O   0  0  0  0  0  0  0  0  0  0  0  0
    4.4850  -51.0550  -24.9514 C   0  0  0  0  0  0  0  0  0  0  0  0
    3.8554  -50.0221  -25.3009 O   0  0  0  0  0  0  0  0  0  0  0  0
    4.1713  -52.2525  -25.6094 N   0  0  0  0  0  0  0  0  0  0  0  0
    4.6685  -53.1296  -25.3480 H   0  0  0  0  0  0  0  0  0  0  0  0
    5.5217  -51.0300  -23.8888 C   0  0  0  0  0  0  0  0  0  0  0  0
    6.1284  -49.7460  -23.7366 N   0  0  0  0  0  0  0  0  0  0  0  0
    7.1386  -49.7252  -24.0224 H   0  0  0  0  0  0  0  0  0  0  0  0
    5.9967  -49.3170  -22.7864 H   0  0  0  0  0  0  0  0  0  0  0  0
    5.6889  -50.7804  -21.4606 C   0  0  0  0  0  0  0  0  0  0  0  0
    4.9950  -51.5438  -22.5682 C   0  0  0  0  0  0  0  0  0  0  0  0
    3.6270  -51.3660  -22.4322 O   0  0  0  0  0  0  0  0  0  0  0  0
    3.3370  -51.8456  -21.6249 H   0  0  0  0  0  0  0  0  0  0  0  0
 28 29  1  0  0  0
 29 30  1  0  0  0
 29 24  1  0  0  0
 24 25  1  0  0  0
 24 20  1  0  0  0
 20 21  2  0  0  0
 20 22  1  0  0  0
 22 17  1  0  0  0
 17 18  2  0  0  0
 17 19  2  0  0  0
 17  1  1  0  0  0
  1  2  2  0  0  0
  2  3  1  0  0  0
  3  4  2  0  0  0
  4  5  1  0  0  0
  5  6  2  0  0  0
  5  7  1  0  0  0
  7  8  2  0  0  0
  8  9  1  0  0  0
  9 10  1  0  0  0
  9 11  2  0  0  0
 11 12  1  0  0  0
 12 13  1  0  0  0
 12 14  2  0  0  0
  6  1  1  0  0  0
 14  7  1  0  0  0
 30 31  1  0  0  0
 25 26  1  0  0  0
 25 27  1  0  0  0
 22 23  1  0  0  0
 10 15  1  0  0  0
 10 16  1  0  0  0
M  END
> <minimizedAffinity>
-7.34124

> <CNNscore>
0.2623558342

> <CNNaffinity>
5.7414569855

> <CNN_VS>
1.5063047409

> <CNNaffinity_variance>
0.1981475204

$$$$
[H]O[C@]([H])(C([H])([H])[H])[C@@]([H])(C(=O)N([H])S(=O)(=O)c1c([H])c([H])c([H])c(-c2nc(C([H])([H])[H])nc(N([H])[H])c2[H])c1[H])N([H])[H]


 31 32  0  0  0  0  0  0  0  0999 V2000
    0.4184  -52.6632  -22.4419 C   0  0  0  0  0  0  0  0  0  0  0  0
   -0.3417  -53.8002  -22.5876 C   0  0  0  0  0  0  0  0  0  0  0  0
   -1.0394  -54.3453  -21.5148 C   0  0  0  0  0  0  0  0  0  0  0  0
   -0.9298  -53.6910  -20.3080 C   0  0  0  0  0  0  0  0  0  0  0  0
   -0.1735  -52.5421  -20.1230 C   0  0  0  0  0  0  0  0  0  0  0  0
    0.4910  -52.0425  -21.1923 C   0  0  0  0  0  0  0  0  0  0  0  0
   -0.1199  -51.9236  -18.8001 C   0  0  0  0  0  0  0  0  0  0  0  0
   -0.8254  -52.4161  -17.7257 C   0  0  0  0  0  0  0  0  0  0  0  0
   -0.7503  -51.8056  -16.4758 C   0  0  0  0  0  0  0  0  0  0  0  0
   -1.4657  -52.2908  -15.3427 N   0  0  0  0  0  0  0  0  0  0  0  0
    0.0386  -50.7206  -16.3737 N   0  0  0  0  0  0  0  0  0  0  0  0
    0.7342  -50.2155  -17.3859 C   0  0  0  0  0  0  0  0  0  0  0  0
    1.5721  -49.0109  -17.1578 C   0  0  0  0  0  0  0  0  0  0  0  0
    0.6424  -50.8254  -18.5784 N   0  0  0  0  0  0  0  0  0  0  0  0
   -0.9002  -52.6481  -14.5407 H   0  0  0  0  0  0  0  0  0  0  0  0
   -2.4916  -52.2793  -15.3400 H   0  0  0  0  0  0  0  0  0  0  0  0
    1.2954  -51.9968  -23.8229 S   0  0  0  0  0  0  0  0  0  0  0  0
    1.4822  -50.5392  -23.5808 O   0  0  0  0  0  0  0  0  0  0  0  0
    2.5885  -52.7561  -23.9133 O   0  0  0  0  0  0  0  0  0  0  0  0
    0.5852  -53.3647  -26.1125 C   0  0  0  0  0  0  0  0  0  0  0  0
    1.5881  -54.0889  -25.8776 O   0  0  0  0  0  0  0  0  0  0  0  0
    0.3194  -52.3230  -25.2127 N   0  0  0  0  0  0  0  0  0  0  0  0
   -0.5021  -51.7027  -25.3707 H   0  0  0  0  0  0  0  0  0  0  0  0
   -0.2944  -53.5857  -27.2881 C   0  0  0  0  0  0  0  0  0  0  0  0
   -1.5134  -52.8450  -27.2151 N   0  0  0  0  0  0  0  0  0  0  0  0
   -2.3633  -53.4505  -27.0984 H   0  0  0  0  0  0  0  0  0  0  0  0
   -1.6463  -52.1556  -27.9970 H   0  0  0  0  0  0  0  0  0  0  0  0
   -0.5566  -52.6720  -29.5427 C   0  0  0  0  0  0  0  0  0  0  0  0
    0.4239  -53.3257  -28.5927 C   0  0  0  0  0  0  0  0  0  0  0  0
    1.5161  -52.4852  -28.4438 O   0  0  0  0  0  0  0  0  0  0  0  0
    2.0110  -52.4768  -29.2928 H   0  0  0  0  0  0  0  0  0  0  0  0
 28 29  1  0  0  0
 29 30  1  0  0  0
 29 24  1  0  0  0
 24 25  1  0  0  0
 24 20  1  0  0  0
 20 21  2  0  0  0
 20 22  1  0  0  0
 22 17  1  0  0  0
 17 18  2  0  0  0
 17 19  2  0  0  0
 17  1  1  0  0  0
  1  2  2  0  0  0
  2  3  1  0  0  0
  3  4  2  0  0  0
  4  5  1  0  0  0
  5  6  2  0  0  0
  5  7  1  0  0  0
  7  8  2  0  0  0
  8  9  1  0  0  0
  9 10  1  0  0  0
  9 11  2  0  0  0
 11 12  1  0  0  0
 12 13  1  0  0  0
 12 14  2  0  0  0
  6  1  1  0  0  0
 14  7  1  0  0  0
 30 31  1  0  0  0
 25 26  1  0  0  0
 25 27  1  0  0  0
 22 23  1  0  0  0
 10 15  1  0  0  0
 10 16  1  0  0  0
M  END
> <minimizedAffinity>
-8.43244

> <CNNscore>
0.2609881461

> <CNNaffinity>
5.7386364937

> <CNN_VS>
1.4977160692

> <CNNaffinity_variance>
0.2265728265

$$$$
[H]O[C@]([H])(C([H])([H])[H])[C@@]([H])(C(=O)N([H])S(=O)(=O)c1c([H])c([H])c([H])c(-c2nc(C([H])([H])[H])nc(N([H])[H])c2[H])c1[H])N([H])[H]


 31 32  0  0  0  0  0  0  0  0999 V2000
   -0.1146  -53.4941  -24.1209 C   0  0  0  0  0  0  0  0  0  0  0  0
   -0.8212  -54.6731  -24.0703 C   0  0  0  0  0  0  0  0  0  0  0  0
   -1.3395  -55.1539  -22.8726 C   0  0  0  0  0  0  0  0  0  0  0  0
   -1.1099  -54.3926  -21.7482 C   0  0  0  0  0  0  0  0  0  0  0  0
   -0.4025  -53.1985  -21.7604 C   0  0  0  0  0  0  0  0  0  0  0  0
    0.0861  -52.7642  -22.9466 C   0  0  0  0  0  0  0  0  0  0  0  0
   -0.2110  -52.4652  -20.5110 C   0  0  0  0  0  0  0  0  0  0  0  0
   -0.6818  -52.9286  -19.3033 C   0  0  0  0  0  0  0  0  0  0  0  0
   -0.4796  -52.2075  -18.1287 C   0  0  0  0  0  0  0  0  0  0  0  0
   -0.9516  -52.6595  -16.8622 N   0  0  0  0  0  0  0  0  0  0  0  0
    0.1920  -51.0465  -18.2340 N   0  0  0  0  0  0  0  0  0  0  0  0
    0.6613  -50.5662  -19.3797 C   0  0  0  0  0  0  0  0  0  0  0  0
    1.3876  -49.2709  -19.3775 C   0  0  0  0  0  0  0  0  0  0  0  0
    0.4516  -51.2833  -20.4951 N   0  0  0  0  0  0  0  0  0  0  0  0
   -0.2321  -52.8894  -16.1410 H   0  0  0  0  0  0  0  0  0  0  0  0
   -1.9595  -52.7471  -16.6917 H   0  0  0  0  0  0  0  0  0  0  0  0
    0.5340  -52.9111  -25.6571 S   0  0  0  0  0  0  0  0  0  0  0  0
    1.1879  -54.0623  -26.3392 O   0  0  0  0  0  0  0  0  0  0  0  0
   -0.6281  -52.3464  -26.4236 O   0  0  0  0  0  0  0  0  0  0  0  0
    2.5031  -51.0538  -26.1965 C   0  0  0  0  0  0  0  0  0  0  0  0
    2.4386  -51.4697  -27.3832 O   0  0  0  0  0  0  0  0  0  0  0  0
    1.6486  -51.6503  -25.2587 N   0  0  0  0  0  0  0  0  0  0  0  0
    1.6701  -51.3331  -24.2670 H   0  0  0  0  0  0  0  0  0  0  0  0
    3.4383  -49.9770  -25.7834 C   0  0  0  0  0  0  0  0  0  0  0  0
    4.7030  -50.4781  -25.3484 N   0  0  0  0  0  0  0  0  0  0  0  0
    4.8791  -50.3331  -24.3234 H   0  0  0  0  0  0  0  0  0  0  0  0
    5.5186  -50.1458  -25.9216 H   0  0  0  0  0  0  0  0  0  0  0  0
    4.4901  -47.8300  -26.3038 C   0  0  0  0  0  0  0  0  0  0  0  0
    3.6085  -48.9281  -26.8588 C   0  0  0  0  0  0  0  0  0  0  0  0
    4.2034  -49.4297  -28.0059 O   0  0  0  0  0  0  0  0  0  0  0  0
    4.1513  -48.7383  -28.7025 H   0  0  0  0  0  0  0  0  0  0  0  0
 28 29  1  0  0  0
 29 30  1  0  0  0
 29 24  1  0  0  0
 24 25  1  0  0  0
 24 20  1  0  0  0
 20 21  2  0  0  0
 20 22  1  0  0  0
 22 17  1  0  0  0
 17 18  2  0  0  0
 17 19  2  0  0  0
 17  1  1  0  0  0
  1  2  2  0  0  0
  2  3  1  0  0  0
  3  4  2  0  0  0
  4  5  1  0  0  0
  5  6  2  0  0  0
  5  7  1  0  0  0
  7  8  2  0  0  0
  8  9  1  0  0  0
  9 10  1  0  0  0
  9 11  2  0  0  0
 11 12  1  0  0  0
 12 13  1  0  0  0
 12 14  2  0  0  0
  6  1  1  0  0  0
 14  7  1  0  0  0
 30 31  1  0  0  0
 25 26  1  0  0  0
 25 27  1  0  0  0
 22 23  1  0  0  0
 10 15  1  0  0  0
 10 16  1  0  0  0
M  END
> <minimizedAffinity>
-7.85715

> <CNNscore>
0.2270724922

> <CNNaffinity>
5.7526311874

> <CNN_VS>
1.3062642813

> <CNNaffinity_variance>
0.0546177812

$$$$
[H]c1c([H])c([H])c(C(=O)N(C([H])([H])C([H])([H])[H])C([H])([H])[C@]23c4nnc(-c5c(F)c([H])c([H])c([H])c5F)c([H])c4[C@]([H])(C([H])([H])C2([H])[H])C3(C([H])([H])[H])C([H])([H])[H])c([H])c1[H]


 33 37  0  0  0  0  0  0  0  0999 V2000
    3.6344  -50.8610  -22.6265 C   0  0  0  0  0  0  0  0  0  0  0  0
    4.6490  -51.9707  -22.7293 C   0  0  0  0  0  0  0  0  0  0  0  0
    5.1500  -51.9497  -24.2029 C   0  0  0  0  0  0  0  0  0  0  0  0
    4.4419  -50.7598  -24.7398 C   0  0  0  0  0  0  0  0  0  0  0  0
    2.9965  -51.1905  -24.8207 C   0  0  0  0  0  0  0  0  0  0  0  0
    2.2287  -51.5013  -25.9073 C   0  0  0  0  0  0  0  0  0  0  0  0
    0.9335  -51.9220  -25.7194 C   0  0  0  0  0  0  0  0  0  0  0  0
    0.4868  -52.0053  -24.4490 N   0  0  0  0  0  0  0  0  0  0  0  0
    1.2547  -51.6970  -23.4310 N   0  0  0  0  0  0  0  0  0  0  0  0
    2.5214  -51.2801  -23.5286 C   0  0  0  0  0  0  0  0  0  0  0  0
    4.3212  -49.8325  -23.5699 C   0  0  0  0  0  0  0  0  0  0  0  0
    5.5762  -49.2846  -23.0520 C   0  0  0  0  0  0  0  0  0  0  0  0
    3.3277  -48.7432  -23.9238 C   0  0  0  0  0  0  0  0  0  0  0  0
    0.1169  -52.2521  -26.8666 C   0  0  0  0  0  0  0  0  0  0  0  0
    0.7268  -52.7306  -28.0032 C   0  0  0  0  0  0  0  0  0  0  0  0
    2.0792  -52.8943  -28.0572 F   0  0  0  0  0  0  0  0  0  0  0  0
   -0.0227  -53.0602  -29.1289 C   0  0  0  0  0  0  0  0  0  0  0  0
   -1.3890  -52.9108  -29.1185 C   0  0  0  0  0  0  0  0  0  0  0  0
   -2.0138  -52.4300  -27.9797 C   0  0  0  0  0  0  0  0  0  0  0  0
   -1.2462  -52.1043  -26.8595 C   0  0  0  0  0  0  0  0  0  0  0  0
   -1.8968  -51.6420  -25.7789 F   0  0  0  0  0  0  0  0  0  0  0  0
    3.3368  -50.2737  -21.3490 C   0  0  0  0  0  0  0  0  0  0  0  0
    2.0476  -50.3381  -20.6922 N   0  0  0  0  0  0  0  0  0  0  0  0
    1.7778  -51.3789  -19.8126 C   0  0  0  0  0  0  0  0  0  0  0  0
    2.8027  -52.2256  -19.6241 O   0  0  0  0  0  0  0  0  0  0  0  0
    0.6556  -51.8178  -19.0140 C   0  0  0  0  0  0  0  0  0  0  0  0
    0.3723  -51.3060  -17.7933 C   0  0  0  0  0  0  0  0  0  0  0  0
   -0.7111  -51.7520  -17.0410 C   0  0  0  0  0  0  0  0  0  0  0  0
   -1.5245  -52.7255  -17.5170 C   0  0  0  0  0  0  0  0  0  0  0  0
   -1.2512  -53.2556  -18.7541 C   0  0  0  0  0  0  0  0  0  0  0  0
   -0.1931  -52.8225  -19.4929 C   0  0  0  0  0  0  0  0  0  0  0  0
    1.9245  -47.9703  -20.6540 C   0  0  0  0  0  0  0  0  0  0  0  0
    1.1453  -49.2756  -21.0148 C   0  0  0  0  0  0  0  0  0  0  0  0
 32 33  1  0  0  0
 33 23  1  0  0  0
 23 22  1  0  0  0
  1 22  1  0  0  0
  1  2  1  0  0  0
  2  3  1  0  0  0
  3  4  1  0  0  0
  4  5  1  0  0  0
  5  6  2  0  0  0
  6  7  1  0  0  0
  7  8  2  0  0  0
  8  9  1  0  0  0
  9 10  2  0  0  0
  7 14  1  0  0  0
 14 15  2  0  0  0
 15 16  1  0  0  0
 15 17  1  0  0  0
 17 18  2  0  0  0
 18 19  1  0  0  0
 19 20  2  0  0  0
 20 21  1  0  0  0
  4 11  1  0  0  0
 11 12  1  0  0  0
 11 13  1  0  0  0
 23 24  1  0  0  0
 24 25  2  0  0  0
 24 26  1  0  0  0
 26 27  2  0  0  0
 27 28  1  0  0  0
 28 29  2  0  0  0
 29 30  1  0  0  0
 30 31  2  0  0  0
 10  1  1  0  0  0
 20 14  1  0  0  0
 31 26  1  0  0  0
 11  1  1  0  0  0
 10  5  1  0  0  0
M  END
> <minimizedAffinity>
-9.34368

> <CNNscore>
0.5032004118

> <CNNaffinity>
7.3270959854

> <CNN_VS>
3.6869976521

> <CNNaffinity_variance>
0.2014344931

$$$$
[H]c1c([H])c([H])c(C(=O)N(C([H])([H])C([H])([H])[H])C([H])([H])[C@]23c4nnc(-c5c(F)c([H])c([H])c([H])c5F)c([H])c4[C@]([H])(C([H])([H])C2([H])[H])C3(C([H])([H])[H])C([H])([H])[H])c([H])c1[H]


 33 37  0  0  0  0  0  0  0  0999 V2000
    3.7927  -50.8264  -22.5793 C   0  0  0  0  0  0  0  0  0  0  0  0
    4.8518  -51.8927  -22.6922 C   0  0  0  0  0  0  0  0  0  0  0  0
    5.3597  -51.8295  -24.1623 C   0  0  0  0  0  0  0  0  0  0  0  0
    4.6071  -50.6613  -24.6859 C   0  0  0  0  0  0  0  0  0  0  0  0
    3.1808  -51.1484  -24.7820 C   0  0  0  0  0  0  0  0  0  0  0  0
    2.4321  -51.4736  -25.8777 C   0  0  0  0  0  0  0  0  0  0  0  0
    1.1539  -51.9488  -25.7040 C   0  0  0  0  0  0  0  0  0  0  0  0
    0.7039  -52.0690  -24.4378 N   0  0  0  0  0  0  0  0  0  0  0  0
    1.4531  -51.7454  -23.4106 N   0  0  0  0  0  0  0  0  0  0  0  0
    2.7025  -51.2765  -23.4943 C   0  0  0  0  0  0  0  0  0  0  0  0
    4.4427  -49.7571  -23.5033 C   0  0  0  0  0  0  0  0  0  0  0  0
    5.6717  -49.1670  -22.9697 C   0  0  0  0  0  0  0  0  0  0  0  0
    3.4080  -48.7035  -23.8471 C   0  0  0  0  0  0  0  0  0  0  0  0
    0.3577  -52.2943  -26.8609 C   0  0  0  0  0  0  0  0  0  0  0  0
   -1.0060  -52.1199  -26.8075 C   0  0  0  0  0  0  0  0  0  0  0  0
   -1.6067  -51.6298  -25.6860 F   0  0  0  0  0  0  0  0  0  0  0  0
   -1.8085  -52.4400  -27.8989 C   0  0  0  0  0  0  0  0  0  0  0  0
   -1.2450  -52.9371  -29.0498 C   0  0  0  0  0  0  0  0  0  0  0  0
    0.1269  -53.1167  -29.1150 C   0  0  0  0  0  0  0  0  0  0  0  0
    0.9166  -52.7903  -28.0104 C   0  0  0  0  0  0  0  0  0  0  0  0
    2.2416  -52.9819  -28.1211 F   0  0  0  0  0  0  0  0  0  0  0  0
    3.4646  -50.2708  -21.2952 C   0  0  0  0  0  0  0  0  0  0  0  0
    2.1576  -50.3425  -20.6753 N   0  0  0  0  0  0  0  0  0  0  0  0
    1.8621  -51.3956  -19.8190 C   0  0  0  0  0  0  0  0  0  0  0  0
    2.8802  -52.2468  -19.6146 O   0  0  0  0  0  0  0  0  0  0  0  0
    0.7176  -51.8442  -19.0583 C   0  0  0  0  0  0  0  0  0  0  0  0
    0.4233  -51.3781  -17.8220 C   0  0  0  0  0  0  0  0  0  0  0  0
   -0.6817  -51.8326  -17.1072 C   0  0  0  0  0  0  0  0  0  0  0  0
   -1.5061  -52.7683  -17.6373 C   0  0  0  0  0  0  0  0  0  0  0  0
   -1.2218  -53.2517  -18.8909 C   0  0  0  0  0  0  0  0  0  0  0  0
   -0.1425  -52.8101  -19.5932 C   0  0  0  0  0  0  0  0  0  0  0  0
    1.9871  -47.9838  -20.4999 C   0  0  0  0  0  0  0  0  0  0  0  0
    1.2661  -49.2738  -21.0071 C   0  0  0  0  0  0  0  0  0  0  0  0
 32 33  1  0  0  0
 33 23  1  0  0  0
 23 22  1  0  0  0
  1 22  1  0  0  0
  1  2  1  0  0  0
  2  3  1  0  0  0
  3  4  1  0  0  0
  4  5  1  0  0  0
  5  6  2  0  0  0
  6  7  1  0  0  0
  7  8  2  0  0  0
  8  9  1  0  0  0
  9 10  2  0  0  0
  7 14  1  0  0  0
 14 15  2  0  0  0
 15 16  1  0  0  0
 15 17  1  0  0  0
 17 18  2  0  0  0
 18 19  1  0  0  0
 19 20  2  0  0  0
 20 21  1  0  0  0
  4 11  1  0  0  0
 11 12  1  0  0  0
 11 13  1  0  0  0
 23 24  1  0  0  0
 24 25  2  0  0  0
 24 26  1  0  0  0
 26 27  2  0  0  0
 27 28  1  0  0  0
 28 29  2  0  0  0
 29 30  1  0  0  0
 30 31  2  0  0  0
 10  1  1  0  0  0
 20 14  1  0  0  0
 31 26  1  0  0  0
 11  1  1  0  0  0
 10  5  1  0  0  0
M  END
> <minimizedAffinity>
-9.25336

> <CNNscore>
0.4525892735

> <CNNaffinity>
7.2788209915

> <CNN_VS>
3.2943162918

> <CNNaffinity_variance>
0.1925031692

$$$$
[H]c1c([H])c([H])c(C(=O)N(C([H])([H])C([H])([H])[H])C([H])([H])[C@]23c4nnc(-c5c(F)c([H])c([H])c([H])c5F)c([H])c4[C@]([H])(C([H])([H])C2([H])[H])C3(C([H])([H])[H])C([H])([H])[H])c([H])c1[H]


 33 37  0  0  0  0  0  0  0  0999 V2000
    0.7650  -51.2663  -21.2482 C   0  0  0  0  0  0  0  0  0  0  0  0
   -0.5089  -50.5473  -20.8854 C   0  0  0  0  0  0  0  0  0  0  0  0
   -1.6659  -51.5009  -21.3038 C   0  0  0  0  0  0  0  0  0  0  0  0
   -0.9137  -52.6986  -21.7567 C   0  0  0  0  0  0  0  0  0  0  0  0
   -0.2699  -52.2672  -23.0529 C   0  0  0  0  0  0  0  0  0  0  0  0
   -0.5732  -52.6024  -24.3423 C   0  0  0  0  0  0  0  0  0  0  0  0
    0.1362  -52.0312  -25.3720 C   0  0  0  0  0  0  0  0  0  0  0  0
    1.1092  -51.1561  -25.0440 N   0  0  0  0  0  0  0  0  0  0  0  0
    1.3716  -50.8601  -23.7931 N   0  0  0  0  0  0  0  0  0  0  0  0
    0.7304  -51.3712  -22.7368 C   0  0  0  0  0  0  0  0  0  0  0  0
    0.3177  -52.7158  -20.9043 C   0  0  0  0  0  0  0  0  0  0  0  0
    0.1071  -52.9582  -19.4758 C   0  0  0  0  0  0  0  0  0  0  0  0
    1.3039  -53.6960  -21.5087 C   0  0  0  0  0  0  0  0  0  0  0  0
   -0.1812  -52.3829  -26.7385 C   0  0  0  0  0  0  0  0  0  0  0  0
   -1.4759  -52.2372  -27.1807 C   0  0  0  0  0  0  0  0  0  0  0  0
   -2.4515  -51.7693  -26.3512 F   0  0  0  0  0  0  0  0  0  0  0  0
   -1.8232  -52.5641  -28.4883 C   0  0  0  0  0  0  0  0  0  0  0  0
   -0.8715  -53.0394  -29.3588 C   0  0  0  0  0  0  0  0  0  0  0  0
    0.4351  -53.1901  -28.9247 C   0  0  0  0  0  0  0  0  0  0  0  0
    0.7657  -52.8572  -27.6093 C   0  0  0  0  0  0  0  0  0  0  0  0
    2.0453  -53.0204  -27.2346 F   0  0  0  0  0  0  0  0  0  0  0  0
    1.9945  -50.9322  -20.5833 C   0  0  0  0  0  0  0  0  0  0  0  0
    3.1225  -50.2795  -21.2152 N   0  0  0  0  0  0  0  0  0  0  0  0
    3.0017  -48.9631  -21.6419 C   0  0  0  0  0  0  0  0  0  0  0  0
    1.8139  -48.3988  -21.3705 O   0  0  0  0  0  0  0  0  0  0  0  0
    3.8338  -47.9968  -22.3229 C   0  0  0  0  0  0  0  0  0  0  0  0
    4.1035  -46.7693  -21.8202 C   0  0  0  0  0  0  0  0  0  0  0  0
    4.9026  -45.8541  -22.5004 C   0  0  0  0  0  0  0  0  0  0  0  0
    5.4408  -46.1715  -23.7027 C   0  0  0  0  0  0  0  0  0  0  0  0
    5.1771  -47.4132  -24.2270 C   0  0  0  0  0  0  0  0  0  0  0  0
    4.3965  -48.3109  -23.5654 C   0  0  0  0  0  0  0  0  0  0  0  0
    4.1522  -51.8102  -22.7051 C   0  0  0  0  0  0  0  0  0  0  0  0
    4.3028  -51.0797  -21.3322 C   0  0  0  0  0  0  0  0  0  0  0  0
 32 33  1  0  0  0
 33 23  1  0  0  0
 23 22  1  0  0  0
  1 22  1  0  0  0
  1  2  1  0  0  0
  2  3  1  0  0  0
  3  4  1  0  0  0
  4  5  1  0  0  0
  5  6  2  0  0  0
  6  7  1  0  0  0
  7  8  2  0  0  0
  8  9  1  0  0  0
  9 10  2  0  0  0
  7 14  1  0  0  0
 14 15  2  0  0  0
 15 16  1  0  0  0
 15 17  1  0  0  0
 17 18  2  0  0  0
 18 19  1  0  0  0
 19 20  2  0  0  0
 20 21  1  0  0  0
  4 11  1  0  0  0
 11 12  1  0  0  0
 11 13  1  0  0  0
 23 24  1  0  0  0
 24 25  2  0  0  0
 24 26  1  0  0  0
 26 27  2  0  0  0
 27 28  1  0  0  0
 28 29  2  0  0  0
 29 30  1  0  0  0
 30 31  2  0  0  0
 10  1  1  0  0  0
 20 14  1  0  0  0
 31 26  1  0  0  0
 11  1  1  0  0  0
 10  5  1  0  0  0
M  END
> <minimizedAffinity>
-6.93854

> <CNNscore>
0.3489389718

> <CNNaffinity>
7.0189666748

> <CNN_VS>
2.4491910934

> <CNNaffinity_variance>
0.4477865696

$$$$
[H]c1c([H])c([H])c(C(=O)N(C([H])([H])C([H])([H])[H])C([H])([H])[C@]23c4nnc(-c5c(F)c([H])c([H])c([H])c5F)c([H])c4[C@]([H])(C([H])([H])C2([H])[H])C3(C([H])([H])[H])C([H])([H])[H])c([H])c1[H]


 33 37  0  0  0  0  0  0  0  0999 V2000
    1.4200  -51.1439  -21.0732 C   0  0  0  0  0  0  0  0  0  0  0  0
    0.6954  -49.9266  -21.5873 C   0  0  0  0  0  0  0  0  0  0  0  0
    0.9009  -48.8251  -20.5068 C   0  0  0  0  0  0  0  0  0  0  0  0
    1.8104  -49.5107  -19.5539 C   0  0  0  0  0  0  0  0  0  0  0  0
    0.9413  -50.5542  -18.8931 C   0  0  0  0  0  0  0  0  0  0  0  0
    0.4197  -50.5964  -17.6309 C   0  0  0  0  0  0  0  0  0  0  0  0
   -0.3966  -51.6432  -17.2735 C   0  0  0  0  0  0  0  0  0  0  0  0
   -0.6403  -52.5862  -18.2072 N   0  0  0  0  0  0  0  0  0  0  0  0
   -0.1199  -52.5111  -19.4092 N   0  0  0  0  0  0  0  0  0  0  0  0
    0.6821  -51.5292  -19.8341 C   0  0  0  0  0  0  0  0  0  0  0  0
    2.6302  -50.4281  -20.4080 C   0  0  0  0  0  0  0  0  0  0  0  0
    3.5420  -49.7820  -21.3538 C   0  0  0  0  0  0  0  0  0  0  0  0
    3.3500  -51.4084  -19.5025 C   0  0  0  0  0  0  0  0  0  0  0  0
   -0.9511  -51.6923  -15.9386 C   0  0  0  0  0  0  0  0  0  0  0  0
   -0.0949  -51.7195  -14.8620 C   0  0  0  0  0  0  0  0  0  0  0  0
    1.2566  -51.7010  -15.0404 F   0  0  0  0  0  0  0  0  0  0  0  0
   -0.5876  -51.7668  -13.5610 C   0  0  0  0  0  0  0  0  0  0  0  0
   -1.9433  -51.7869  -13.3349 C   0  0  0  0  0  0  0  0  0  0  0  0
   -2.8146  -51.7598  -14.4112 C   0  0  0  0  0  0  0  0  0  0  0  0
   -2.3027  -51.7125  -15.7096 C   0  0  0  0  0  0  0  0  0  0  0  0
   -3.1867  -51.6876  -16.7208 F   0  0  0  0  0  0  0  0  0  0  0  0
    1.8591  -52.1606  -21.9892 C   0  0  0  0  0  0  0  0  0  0  0  0
    1.7028  -52.0976  -23.4276 N   0  0  0  0  0  0  0  0  0  0  0  0
    0.5487  -52.6011  -24.0143 C   0  0  0  0  0  0  0  0  0  0  0  0
   -0.3568  -53.0723  -23.1419 O   0  0  0  0  0  0  0  0  0  0  0  0
    0.0343  -52.7631  -25.3555 C   0  0  0  0  0  0  0  0  0  0  0  0
   -1.0353  -52.0786  -25.8245 C   0  0  0  0  0  0  0  0  0  0  0  0
   -1.5153  -52.2590  -27.1189 C   0  0  0  0  0  0  0  0  0  0  0  0
   -0.9161  -53.1379  -27.9583 C   0  0  0  0  0  0  0  0  0  0  0  0
    0.1706  -53.8405  -27.4982 C   0  0  0  0  0  0  0  0  0  0  0  0
    0.6432  -53.6672  -26.2334 C   0  0  0  0  0  0  0  0  0  0  0  0
    3.9642  -52.5094  -24.0108 C   0  0  0  0  0  0  0  0  0  0  0  0
    2.7883  -51.4878  -24.1327 C   0  0  0  0  0  0  0  0  0  0  0  0
 32 33  1  0  0  0
 33 23  1  0  0  0
 23 22  1  0  0  0
  1 22  1  0  0  0
  1  2  1  0  0  0
  2  3  1  0  0  0
  3  4  1  0  0  0
  4  5  1  0  0  0
  5  6  2  0  0  0
  6  7  1  0  0  0
  7  8  2  0  0  0
  8  9  1  0  0  0
  9 10  2  0  0  0
  7 14  1  0  0  0
 14 15  2  0  0  0
 15 16  1  0  0  0
 15 17  1  0  0  0
 17 18  2  0  0  0
 18 19  1  0  0  0
 19 20  2  0  0  0
 20 21  1  0  0  0
  4 11  1  0  0  0
 11 12  1  0  0  0
 11 13  1  0  0  0
 23 24  1  0  0  0
 24 25  2  0  0  0
 24 26  1  0  0  0
 26 27  2  0  0  0
 27 28  1  0  0  0
 28 29  2  0  0  0
 29 30  1  0  0  0
 30 31  2  0  0  0
 10  1  1  0  0  0
 20 14  1  0  0  0
 31 26  1  0  0  0
 11  1  1  0  0  0
 10  5  1  0  0  0
M  END
> <minimizedAffinity>
-8.69665

> <CNNscore>
0.3069309592

> <CNNaffinity>
6.9443411827

> <CNN_VS>
2.1314332485

> <CNNaffinity_variance>
0.2602885067

$$$$
[H]c1c([H])c([H])c(C(=O)N(C([H])([H])C([H])([H])[H])C([H])([H])[C@]23c4nnc(-c5c(F)c([H])c([H])c([H])c5F)c([H])c4[C@]([H])(C([H])([H])C2([H])[H])C3(C([H])([H])[H])C([H])([H])[H])c([H])c1[H]


 33 37  0  0  0  0  0  0  0  0999 V2000
   -0.3200  -52.3383  -21.1973 C   0  0  0  0  0  0  0  0  0  0  0  0
   -1.6963  -52.8459  -20.8518 C   0  0  0  0  0  0  0  0  0  0  0  0
   -1.8186  -54.2367  -21.5401 C   0  0  0  0  0  0  0  0  0  0  0  0
   -0.4569  -54.4074  -22.1075 C   0  0  0  0  0  0  0  0  0  0  0  0
   -0.3968  -53.4104  -23.2405 C   0  0  0  0  0  0  0  0  0  0  0  0
   -0.4288  -53.6088  -24.5920 C   0  0  0  0  0  0  0  0  0  0  0  0
   -0.4113  -52.5219  -25.4334 C   0  0  0  0  0  0  0  0  0  0  0  0
   -0.3628  -51.2989  -24.8656 N   0  0  0  0  0  0  0  0  0  0  0  0
   -0.3324  -51.1490  -23.5626 N   0  0  0  0  0  0  0  0  0  0  0  0
   -0.3455  -52.1517  -22.6781 C   0  0  0  0  0  0  0  0  0  0  0  0
    0.4442  -53.6922  -21.1484 C   0  0  0  0  0  0  0  0  0  0  0  0
    0.5507  -54.2758  -19.8099 C   0  0  0  0  0  0  0  0  0  0  0  0
    1.8004  -53.5205  -21.8041 C   0  0  0  0  0  0  0  0  0  0  0  0
   -0.4449  -52.7268  -26.8647 C   0  0  0  0  0  0  0  0  0  0  0  0
   -1.6271  -52.5257  -27.5391 C   0  0  0  0  0  0  0  0  0  0  0  0
   -2.7547  -52.1394  -26.8774 F   0  0  0  0  0  0  0  0  0  0  0  0
   -1.7021  -52.7120  -28.9166 C   0  0  0  0  0  0  0  0  0  0  0  0
   -0.5896  -53.1012  -29.6237 C   0  0  0  0  0  0  0  0  0  0  0  0
    0.6060  -53.3065  -28.9552 C   0  0  0  0  0  0  0  0  0  0  0  0
    0.6630  -53.1150  -27.5731 C   0  0  0  0  0  0  0  0  0  0  0  0
    1.8442  -53.3263  -26.9691 F   0  0  0  0  0  0  0  0  0  0  0  0
    0.3149  -51.3549  -20.3635 C   0  0  0  0  0  0  0  0  0  0  0  0
    1.4893  -50.5931  -20.7352 N   0  0  0  0  0  0  0  0  0  0  0  0
    2.6868  -50.8095  -20.0652 C   0  0  0  0  0  0  0  0  0  0  0  0
    2.6349  -51.7757  -19.1343 O   0  0  0  0  0  0  0  0  0  0  0  0
    4.0238  -50.2608  -20.0956 C   0  0  0  0  0  0  0  0  0  0  0  0
    4.9449  -50.6096  -21.0242 C   0  0  0  0  0  0  0  0  0  0  0  0
    6.2289  -50.0713  -21.0266 C   0  0  0  0  0  0  0  0  0  0  0  0
    6.5981  -49.1694  -20.0852 C   0  0  0  0  0  0  0  0  0  0  0  0
    5.6755  -48.8044  -19.1356 C   0  0  0  0  0  0  0  0  0  0  0  0
    4.4191  -49.3282  -19.1296 C   0  0  0  0  0  0  0  0  0  0  0  0
    1.2614  -48.2635  -21.1150 C   0  0  0  0  0  0  0  0  0  0  0  0
    1.2995  -49.6640  -21.8066 C   0  0  0  0  0  0  0  0  0  0  0  0
 32 33  1  0  0  0
 33 23  1  0  0  0
 23 22  1  0  0  0
  1 22  1  0  0  0
  1  2  1  0  0  0
  2  3  1  0  0  0
  3  4  1  0  0  0
  4  5  1  0  0  0
  5  6  2  0  0  0
  6  7  1  0  0  0
  7  8  2  0  0  0
  8  9  1  0  0  0
  9 10  2  0  0  0
  7 14  1  0  0  0
 14 15  2  0  0  0
 15 16  1  0  0  0
 15 17  1  0  0  0
 17 18  2  0  0  0
 18 19  1  0  0  0
 19 20  2  0  0  0
 20 21  1  0  0  0
  4 11  1  0  0  0
 11 12  1  0  0  0
 11 13  1  0  0  0
 23 24  1  0  0  0
 24 25  2  0  0  0
 24 26  1  0  0  0
 26 27  2  0  0  0
 27 28  1  0  0  0
 28 29  2  0  0  0
 29 30  1  0  0  0
 30 31  2  0  0  0
 10  1  1  0  0  0
 20 14  1  0  0  0
 31 26  1  0  0  0
 11  1  1  0  0  0
 10  5  1  0  0  0
M  END
> <minimizedAffinity>
-6.96663

> <CNNscore>
0.2232916504

> <CNNaffinity>
6.8099303246

> <CNN_VS>
1.5206005573

> <CNNaffinity_variance>
0.2287618667

$$$$
[H]c1c([H])c([H])c(C(=O)N(C([H])([H])C([H])([H])[H])C([H])([H])[C@]23c4nnc(-c5c(F)c([H])c([H])c([H])c5F)c([H])c4[C@]([H])(C([H])([H])C2([H])[H])C3(C([H])([H])[H])C([H])([H])[H])c([H])c1[H]


 33 37  0  0  0  0  0  0  0  0999 V2000
    1.1797  -50.9636  -20.1540 C   0  0  0  0  0  0  0  0  0  0  0  0
    2.3711  -51.8198  -19.8091 C   0  0  0  0  0  0  0  0  0  0  0  0
    3.4512  -51.4920  -20.8811 C   0  0  0  0  0  0  0  0  0  0  0  0
    2.7881  -50.4067  -21.6478 C   0  0  0  0  0  0  0  0  0  0  0  0
    1.6820  -51.1050  -22.4029 C   0  0  0  0  0  0  0  0  0  0  0  0
    1.5769  -51.4095  -23.7307 C   0  0  0  0  0  0  0  0  0  0  0  0
    0.4789  -52.1053  -24.1779 C   0  0  0  0  0  0  0  0  0  0  0  0
   -0.4491  -52.4540  -23.2627 N   0  0  0  0  0  0  0  0  0  0  0  0
   -0.3129  -52.1424  -21.9956 N   0  0  0  0  0  0  0  0  0  0  0  0
    0.7215  -51.4687  -21.4818 C   0  0  0  0  0  0  0  0  0  0  0  0
    1.9395  -49.6959  -20.6389 C   0  0  0  0  0  0  0  0  0  0  0  0
    2.6591  -48.9836  -19.5815 C   0  0  0  0  0  0  0  0  0  0  0  0
    0.9736  -48.7913  -21.3790 C   0  0  0  0  0  0  0  0  0  0  0  0
    0.3632  -52.4299  -25.5825 C   0  0  0  0  0  0  0  0  0  0  0  0
    1.3800  -53.1291  -26.1909 C   0  0  0  0  0  0  0  0  0  0  0  0
    2.4835  -53.5144  -25.4891 F   0  0  0  0  0  0  0  0  0  0  0  0
    1.3078  -53.4616  -27.5406 C   0  0  0  0  0  0  0  0  0  0  0  0
    0.2135  -53.0932  -28.2863 C   0  0  0  0  0  0  0  0  0  0  0  0
   -0.8162  -52.3891  -27.6844 C   0  0  0  0  0  0  0  0  0  0  0  0
   -0.7269  -52.0640  -26.3292 C   0  0  0  0  0  0  0  0  0  0  0  0
   -1.7500  -51.3805  -25.7900 F   0  0  0  0  0  0  0  0  0  0  0  0
    0.2137  -50.6332  -19.1425 C   0  0  0  0  0  0  0  0  0  0  0  0
   -0.0938  -51.4608  -17.9944 N   0  0  0  0  0  0  0  0  0  0  0  0
   -0.0031  -50.9221  -16.7172 C   0  0  0  0  0  0  0  0  0  0  0  0
    0.3316  -49.6222  -16.6860 O   0  0  0  0  0  0  0  0  0  0  0  0
   -0.1769  -51.3929  -15.3615 C   0  0  0  0  0  0  0  0  0  0  0  0
   -1.3311  -51.2446  -14.6700 C   0  0  0  0  0  0  0  0  0  0  0  0
   -1.4698  -51.7009  -13.3619 C   0  0  0  0  0  0  0  0  0  0  0  0
   -0.4378  -52.3158  -12.7350 C   0  0  0  0  0  0  0  0  0  0  0  0
    0.7404  -52.4746  -13.4227 C   0  0  0  0  0  0  0  0  0  0  0  0
    0.8803  -52.0299  -14.7016 C   0  0  0  0  0  0  0  0  0  0  0  0
   -1.9522  -52.9152  -17.7614 C   0  0  0  0  0  0  0  0  0  0  0  0
   -0.4892  -52.8019  -18.2980 C   0  0  0  0  0  0  0  0  0  0  0  0
 32 33  1  0  0  0
 33 23  1  0  0  0
 23 22  1  0  0  0
  1 22  1  0  0  0
  1  2  1  0  0  0
  2  3  1  0  0  0
  3  4  1  0  0  0
  4  5  1  0  0  0
  5  6  2  0  0  0
  6  7  1  0  0  0
  7  8  2  0  0  0
  8  9  1  0  0  0
  9 10  2  0  0  0
  7 14  1  0  0  0
 14 15  2  0  0  0
 15 16  1  0  0  0
 15 17  1  0  0  0
 17 18  2  0  0  0
 18 19  1  0  0  0
 19 20  2  0  0  0
 20 21  1  0  0  0
  4 11  1  0  0  0
 11 12  1  0  0  0
 11 13  1  0  0  0
 23 24  1  0  0  0
 24 25  2  0  0  0
 24 26  1  0  0  0
 26 27  2  0  0  0
 27 28  1  0  0  0
 28 29  2  0  0  0
 29 30  1  0  0  0
 30 31  2  0  0  0
 10  1  1  0  0  0
 20 14  1  0  0  0
 31 26  1  0  0  0
 11  1  1  0  0  0
 10  5  1  0  0  0
M  END
> <minimizedAffinity>
-8.48113

> <CNNscore>
0.1974576861

> <CNNaffinity>
6.8446526527

> <CNN_VS>
1.3515292406

> <CNNaffinity_variance>
0.2487885505

$$$$
[H]c1c([H])c([H])c(C(=O)N(C([H])([H])C([H])([H])[H])C([H])([H])[C@]23c4nnc(-c5c(F)c([H])c([H])c([H])c5F)c([H])c4[C@]([H])(C([H])([H])C2([H])[H])C3(C([H])([H])[H])C([H])([H])[H])c([H])c1[H]


 33 37  0  0  0  0  0  0  0  0999 V2000
    1.8320  -50.4704  -21.6617 C   0  0  0  0  0  0  0  0  0  0  0  0
    0.5344  -50.0554  -21.0174 C   0  0  0  0  0  0  0  0  0  0  0  0
   -0.4147  -51.2819  -21.1510 C   0  0  0  0  0  0  0  0  0  0  0  0
    0.4890  -52.2911  -21.7595 C   0  0  0  0  0  0  0  0  0  0  0  0
    0.7001  -51.7999  -23.1720 C   0  0  0  0  0  0  0  0  0  0  0  0
    0.2089  -52.2775  -24.3542 C   0  0  0  0  0  0  0  0  0  0  0  0
    0.5068  -51.6186  -25.5233 C   0  0  0  0  0  0  0  0  0  0  0  0
    1.2817  -50.5177  -25.4344 N   0  0  0  0  0  0  0  0  0  0  0  0
    1.7354  -50.0904  -24.2800 N   0  0  0  0  0  0  0  0  0  0  0  0
    1.4928  -50.6730  -23.1012 C   0  0  0  0  0  0  0  0  0  0  0  0
    1.8448  -51.9605  -21.2157 C   0  0  0  0  0  0  0  0  0  0  0  0
    2.0252  -52.1568  -19.7761 C   0  0  0  0  0  0  0  0  0  0  0  0
    2.8818  -52.7124  -22.0270 C   0  0  0  0  0  0  0  0  0  0  0  0
   -0.0109  -52.1204  -26.7771 C   0  0  0  0  0  0  0  0  0  0  0  0
    0.8704  -52.6052  -27.7158 C   0  0  0  0  0  0  0  0  0  0  0  0
    2.2127  -52.6166  -27.4771 F   0  0  0  0  0  0  0  0  0  0  0  0
    0.4134  -53.0972  -28.9350 C   0  0  0  0  0  0  0  0  0  0  0  0
   -0.9317  -53.1047  -29.2176 C   0  0  0  0  0  0  0  0  0  0  0  0
   -1.8282  -52.6191  -28.2801 C   0  0  0  0  0  0  0  0  0  0  0  0
   -1.3520  -52.1293  -27.0621 C   0  0  0  0  0  0  0  0  0  0  0  0
   -2.2594  -51.6691  -26.1850 F   0  0  0  0  0  0  0  0  0  0  0  0
    3.0575  -49.8115  -21.3018 C   0  0  0  0  0  0  0  0  0  0  0  0
    3.1386  -48.5380  -20.6167 N   0  0  0  0  0  0  0  0  0  0  0  0
    3.4700  -48.5052  -19.2681 C   0  0  0  0  0  0  0  0  0  0  0  0
    3.7346  -49.7077  -18.7325 O   0  0  0  0  0  0  0  0  0  0  0  0
    3.6145  -47.4951  -18.2441 C   0  0  0  0  0  0  0  0  0  0  0  0
    3.0721  -47.6117  -17.0094 C   0  0  0  0  0  0  0  0  0  0  0  0
    3.2201  -46.6200  -16.0433 C   0  0  0  0  0  0  0  0  0  0  0  0
    3.9219  -45.4936  -16.3160 C   0  0  0  0  0  0  0  0  0  0  0  0
    4.4790  -45.3595  -17.5642 C   0  0  0  0  0  0  0  0  0  0  0  0
    4.3367  -46.3264  -18.5117 C   0  0  0  0  0  0  0  0  0  0  0  0
    4.1783  -47.1803  -22.2595 C   0  0  0  0  0  0  0  0  0  0  0  0
    2.8717  -47.3908  -21.4290 C   0  0  0  0  0  0  0  0  0  0  0  0
 32 33  1  0  0  0
 33 23  1  0  0  0
 23 22  1  0  0  0
  1 22  1  0  0  0
  1  2  1  0  0  0
  2  3  1  0  0  0
  3  4  1  0  0  0
  4  5  1  0  0  0
  5  6  2  0  0  0
  6  7  1  0  0  0
  7  8  2  0  0  0
  8  9  1  0  0  0
  9 10  2  0  0  0
  7 14  1  0  0  0
 14 15  2  0  0  0
 15 16  1  0  0  0
 15 17  1  0  0  0
 17 18  2  0  0  0
 18 19  1  0  0  0
 19 20  2  0  0  0
 20 21  1  0  0  0
  4 11  1  0  0  0
 11 12  1  0  0  0
 11 13  1  0  0  0
 23 24  1  0  0  0
 24 25  2  0  0  0
 24 26  1  0  0  0
 26 27  2  0  0  0
 27 28  1  0  0  0
 28 29  2  0  0  0
 29 30  1  0  0  0
 30 31  2  0  0  0
 10  1  1  0  0  0
 20 14  1  0  0  0
 31 26  1  0  0  0
 11  1  1  0  0  0
 10  5  1  0  0  0
M  END
> <minimizedAffinity>
-6.95677

> <CNNscore>
0.1961627454

> <CNNaffinity>
6.6313209534

> <CNN_VS>
1.3008180857

> <CNNaffinity_variance>
0.4473302364

$$$$
[H]c1c([H])c([H])c(C(=O)N(C([H])([H])C([H])([H])[H])C([H])([H])[C@]23c4nnc(-c5c(F)c([H])c([H])c([H])c5F)c([H])c4[C@]([H])(C([H])([H])C2([H])[H])C3(C([H])([H])[H])C([H])([H])[H])c([H])c1[H]


 33 37  0  0  0  0  0  0  0  0999 V2000
    2.5171  -50.7042  -22.2222 C   0  0  0  0  0  0  0  0  0  0  0  0
    1.7590  -49.4637  -22.6198 C   0  0  0  0  0  0  0  0  0  0  0  0
    2.4161  -48.2954  -21.8284 C   0  0  0  0  0  0  0  0  0  0  0  0
    3.5425  -48.9903  -21.1548 C   0  0  0  0  0  0  0  0  0  0  0  0
    2.8774  -49.8514  -20.1074 C   0  0  0  0  0  0  0  0  0  0  0  0
    2.8268  -49.7070  -18.7496 C   0  0  0  0  0  0  0  0  0  0  0  0
    2.1050  -50.6073  -18.0024 C   0  0  0  0  0  0  0  0  0  0  0  0
    1.4762  -51.6001  -18.6652 N   0  0  0  0  0  0  0  0  0  0  0  0
    1.5492  -51.7059  -19.9708 N   0  0  0  0  0  0  0  0  0  0  0  0
    2.2290  -50.8746  -20.7676 C   0  0  0  0  0  0  0  0  0  0  0  0
    3.9366  -50.0792  -22.1047 C   0  0  0  0  0  0  0  0  0  0  0  0
    4.5104  -49.6436  -23.3793 C   0  0  0  0  0  0  0  0  0  0  0  0
    4.8456  -51.0467  -21.3723 C   0  0  0  0  0  0  0  0  0  0  0  0
    2.0486  -50.4586  -16.5648 C   0  0  0  0  0  0  0  0  0  0  0  0
    3.0927  -50.9321  -15.8044 C   0  0  0  0  0  0  0  0  0  0  0  0
    4.1683  -51.5337  -16.3875 F   0  0  0  0  0  0  0  0  0  0  0  0
    3.0777  -50.8088  -14.4180 C   0  0  0  0  0  0  0  0  0  0  0  0
    2.0132  -50.2090  -13.7883 C   0  0  0  0  0  0  0  0  0  0  0  0
    0.9565  -49.7285  -14.5437 C   0  0  0  0  0  0  0  0  0  0  0  0
    0.9884  -49.8608  -15.9336 C   0  0  0  0  0  0  0  0  0  0  0  0
   -0.0591  -49.3796  -16.6234 F   0  0  0  0  0  0  0  0  0  0  0  0
    2.5262  -51.8509  -23.0885 C   0  0  0  0  0  0  0  0  0  0  0  0
    1.3743  -52.3453  -23.8140 N   0  0  0  0  0  0  0  0  0  0  0  0
    1.1610  -51.9342  -25.1237 C   0  0  0  0  0  0  0  0  0  0  0  0
    2.1120  -51.1217  -25.6119 O   0  0  0  0  0  0  0  0  0  0  0  0
    0.1599  -52.1485  -26.1442 C   0  0  0  0  0  0  0  0  0  0  0  0
    0.4558  -52.5951  -27.3874 C   0  0  0  0  0  0  0  0  0  0  0  0
   -0.5273  -52.7861  -28.3547 C   0  0  0  0  0  0  0  0  0  0  0  0
   -1.8273  -52.5265  -28.0746 C   0  0  0  0  0  0  0  0  0  0  0  0
   -2.1447  -52.0728  -26.8178 C   0  0  0  0  0  0  0  0  0  0  0  0
   -1.1868  -51.8847  -25.8691 C   0  0  0  0  0  0  0  0  0  0  0  0
   -0.6322  -52.3749  -22.5506 C   0  0  0  0  0  0  0  0  0  0  0  0
    0.5413  -53.2549  -23.0887 C   0  0  0  0  0  0  0  0  0  0  0  0
 32 33  1  0  0  0
 33 23  1  0  0  0
 23 22  1  0  0  0
  1 22  1  0  0  0
  1  2  1  0  0  0
  2  3  1  0  0  0
  3  4  1  0  0  0
  4  5  1  0  0  0
  5  6  2  0  0  0
  6  7  1  0  0  0
  7  8  2  0  0  0
  8  9  1  0  0  0
  9 10  2  0  0  0
  7 14  1  0  0  0
 14 15  2  0  0  0
 15 16  1  0  0  0
 15 17  1  0  0  0
 17 18  2  0  0  0
 18 19  1  0  0  0
 19 20  2  0  0  0
 20 21  1  0  0  0
  4 11  1  0  0  0
 11 12  1  0  0  0
 11 13  1  0  0  0
 23 24  1  0  0  0
 24 25  2  0  0  0
 24 26  1  0  0  0
 26 27  2  0  0  0
 27 28  1  0  0  0
 28 29  2  0  0  0
 29 30  1  0  0  0
 30 31  2  0  0  0
 10  1  1  0  0  0
 20 14  1  0  0  0
 31 26  1  0  0  0
 11  1  1  0  0  0
 10  5  1  0  0  0
M  END
> <minimizedAffinity>
-7.96285

> <CNNscore>
0.1797530949

> <CNNaffinity>
6.8205742836

> <CNN_VS>
1.2260193825

> <CNNaffinity_variance>
0.1139094606

$$$$
[H]c1c([H])c([H])c(C(=O)N(C([H])([H])C([H])([H])[H])C([H])([H])[C@]23c4nnc(-c5c(F)c([H])c([H])c([H])c5F)c([H])c4[C@]([H])(C([H])([H])C2([H])[H])C3(C([H])([H])[H])C([H])([H])[H])c([H])c1[H]


 33 37  0  0  0  0  0  0  0  0999 V2000
    2.2505  -51.0066  -22.3584 C   0  0  0  0  0  0  0  0  0  0  0  0
    1.7722  -49.6526  -22.8159 C   0  0  0  0  0  0  0  0  0  0  0  0
    2.7312  -48.6203  -22.1542 C   0  0  0  0  0  0  0  0  0  0  0  0
    3.7107  -49.5128  -21.4840 C   0  0  0  0  0  0  0  0  0  0  0  0
    2.9376  -50.1232  -20.3392 C   0  0  0  0  0  0  0  0  0  0  0  0
    3.0125  -49.8812  -18.9965 C   0  0  0  0  0  0  0  0  0  0  0  0
    2.1552  -50.5363  -18.1446 C   0  0  0  0  0  0  0  0  0  0  0  0
    1.2726  -51.3964  -18.6937 N   0  0  0  0  0  0  0  0  0  0  0  0
    1.2318  -51.6028  -19.9887 N   0  0  0  0  0  0  0  0  0  0  0  0
    2.0291  -51.0081  -20.8823 C   0  0  0  0  0  0  0  0  0  0  0  0
    3.7801  -50.7242  -22.3621 C   0  0  0  0  0  0  0  0  0  0  0  0
    4.3518  -50.5203  -23.6944 C   0  0  0  0  0  0  0  0  0  0  0  0
    4.4900  -51.8265  -21.6007 C   0  0  0  0  0  0  0  0  0  0  0  0
    2.2308  -50.2835  -16.7226 C   0  0  0  0  0  0  0  0  0  0  0  0
    1.2522  -49.5204  -16.1285 C   0  0  0  0  0  0  0  0  0  0  0  0
    0.2233  -49.0062  -16.8603 F   0  0  0  0  0  0  0  0  0  0  0  0
    1.2877  -49.2537  -14.7628 C   0  0  0  0  0  0  0  0  0  0  0  0
    2.3068  -49.7522  -13.9868 C   0  0  0  0  0  0  0  0  0  0  0  0
    3.2975  -50.5217  -14.5741 C   0  0  0  0  0  0  0  0  0  0  0  0
    3.2459  -50.7792  -15.9457 C   0  0  0  0  0  0  0  0  0  0  0  0
    4.2288  -51.5302  -16.4698 F   0  0  0  0  0  0  0  0  0  0  0  0
    1.9384  -52.1786  -23.1295 C   0  0  0  0  0  0  0  0  0  0  0  0
    0.7155  -52.3691  -23.8817 N   0  0  0  0  0  0  0  0  0  0  0  0
    0.7427  -52.2809  -25.2678 C   0  0  0  0  0  0  0  0  0  0  0  0
    1.9621  -52.0630  -25.7859 O   0  0  0  0  0  0  0  0  0  0  0  0
   -0.2160  -52.3627  -26.3466 C   0  0  0  0  0  0  0  0  0  0  0  0
   -1.5393  -52.1324  -26.1783 C   0  0  0  0  0  0  0  0  0  0  0  0
   -2.4431  -52.2252  -27.2333 C   0  0  0  0  0  0  0  0  0  0  0  0
   -2.0169  -52.5534  -28.4770 C   0  0  0  0  0  0  0  0  0  0  0  0
   -0.6772  -52.7901  -28.6650 C   0  0  0  0  0  0  0  0  0  0  0  0
    0.2098  -52.7006  -27.6363 C   0  0  0  0  0  0  0  0  0  0  0  0
   -0.0832  -53.9537  -22.3087 C   0  0  0  0  0  0  0  0  0  0  0  0
   -0.4457  -52.6535  -23.0956 C   0  0  0  0  0  0  0  0  0  0  0  0
 32 33  1  0  0  0
 33 23  1  0  0  0
 23 22  1  0  0  0
  1 22  1  0  0  0
  1  2  1  0  0  0
  2  3  1  0  0  0
  3  4  1  0  0  0
  4  5  1  0  0  0
  5  6  2  0  0  0
  6  7  1  0  0  0
  7  8  2  0  0  0
  8  9  1  0  0  0
  9 10  2  0  0  0
  7 14  1  0  0  0
 14 15  2  0  0  0
 15 16  1  0  0  0
 15 17  1  0  0  0
 17 18  2  0  0  0
 18 19  1  0  0  0
 19 20  2  0  0  0
 20 21  1  0  0  0
  4 11  1  0  0  0
 11 12  1  0  0  0
 11 13  1  0  0  0
 23 24  1  0  0  0
 24 25  2  0  0  0
 24 26  1  0  0  0
 26 27  2  0  0  0
 27 28  1  0  0  0
 28 29  2  0  0  0
 29 30  1  0  0  0
 30 31  2  0  0  0
 10  1  1  0  0  0
 20 14  1  0  0  0
 31 26  1  0  0  0
 11  1  1  0  0  0
 10  5  1  0  0  0
M  END
> <minimizedAffinity>
-8.23592

> <CNNscore>
0.1525083929

> <CNNaffinity>
6.8253602982

> <CNN_VS>
1.0409247875

> <CNNaffinity_variance>
0.1027789861

$$$$
[H]c1nc(N([H])[H])c2c(C([H])([H])[H])c(-c3c([H])c(N([H])C(=O)c4c([H])c([H])c(C([H])([H])N5C([H])([H])C([H])([H])N(C([H])([H])[H])C([H])([H])C5([H])[H])c(C(F)(F)F)c4[H])c([H])c([H])c3C([H])([H])[H])c([H])n2n1


 42 46  0  0  0  0  0  0  0  0999 V2000
    2.2435  -50.5677  -20.0172 C   0  0  0  0  0  0  0  0  0  0  0  0
    3.1989  -51.1852  -20.5285 O   0  0  0  0  0  0  0  0  0  0  0  0
    0.9167  -50.8808  -20.2958 N   0  0  0  0  0  0  0  0  0  0  0  0
    0.1925  -50.2572  -19.7894 H   0  0  0  0  0  0  0  0  0  0  0  0
    0.4353  -51.8889  -21.1483 C   0  0  0  0  0  0  0  0  0  0  0  0
   -0.0822  -53.0313  -20.4784 C   0  0  0  0  0  0  0  0  0  0  0  0
   -0.5778  -54.0611  -21.2283 C   0  0  0  0  0  0  0  0  0  0  0  0
   -0.5779  -53.9992  -22.6022 C   0  0  0  0  0  0  0  0  0  0  0  0
   -1.1394  -55.1305  -23.4211 C   0  0  0  0  0  0  0  0  0  0  0  0
   -0.0795  -52.9012  -23.2634 C   0  0  0  0  0  0  0  0  0  0  0  0
    0.4240  -51.8521  -22.5137 C   0  0  0  0  0  0  0  0  0  0  0  0
   -0.0522  -52.8512  -24.7419 C   0  0  0  0  0  0  0  0  0  0  0  0
   -1.1576  -52.6487  -25.5451 C   0  0  0  0  0  0  0  0  0  0  0  0
   -0.8116  -52.6791  -26.8349 N   0  0  0  0  0  0  0  0  0  0  0  0
   -1.4584  -52.5452  -27.9908 N   0  0  0  0  0  0  0  0  0  0  0  0
   -0.8516  -52.6208  -29.1872 C   0  0  0  0  0  0  0  0  0  0  0  0
    0.4737  -52.8425  -29.2115 N   0  0  0  0  0  0  0  0  0  0  0  0
    1.2015  -52.9896  -28.0732 C   0  0  0  0  0  0  0  0  0  0  0  0
    2.5882  -53.2205  -28.0838 N   0  0  0  0  0  0  0  0  0  0  0  0
    0.5297  -52.9031  -26.8792 C   0  0  0  0  0  0  0  0  0  0  0  0
    1.0271  -53.0145  -25.5731 C   0  0  0  0  0  0  0  0  0  0  0  0
    2.4171  -53.2482  -25.1789 C   0  0  0  0  0  0  0  0  0  0  0  0
    2.9649  -54.2052  -28.2282 H   0  0  0  0  0  0  0  0  0  0  0  0
    3.3226  -52.4857  -27.9607 H   0  0  0  0  0  0  0  0  0  0  0  0
    3.2131  -47.4392  -17.3008 C   0  0  0  0  0  0  0  0  0  0  0  0
    2.7981  -48.6623  -16.8177 C   0  0  0  0  0  0  0  0  0  0  0  0
    2.4826  -49.6825  -17.7239 C   0  0  0  0  0  0  0  0  0  0  0  0
    2.5886  -49.4587  -19.0797 C   0  0  0  0  0  0  0  0  0  0  0  0
    3.0005  -48.2452  -19.5601 C   0  0  0  0  0  0  0  0  0  0  0  0
    3.3212  -47.2101  -18.6672 C   0  0  0  0  0  0  0  0  0  0  0  0
    3.7560  -45.9180  -19.1758 C   0  0  0  0  0  0  0  0  0  0  0  0
    3.0520  -44.8252  -18.7544 F   0  0  0  0  0  0  0  0  0  0  0  0
    5.1304  -45.6858  -18.9909 F   0  0  0  0  0  0  0  0  0  0  0  0
    3.6262  -45.9120  -20.5805 F   0  0  0  0  0  0  0  0  0  0  0  0
    3.6105  -46.3551  -16.3942 C   0  0  0  0  0  0  0  0  0  0  0  0
    4.6460  -49.1847  -13.2619 C   0  0  0  0  0  0  0  0  0  0  0  0
    4.7632  -47.8391  -12.7852 N   0  0  0  0  0  0  0  0  0  0  0  0
    3.5399  -47.1037  -12.7350 C   0  0  0  0  0  0  0  0  0  0  0  0
    3.3057  -46.2474  -13.9847 C   0  0  0  0  0  0  0  0  0  0  0  0
    3.9802  -46.8389  -15.0946 N   0  0  0  0  0  0  0  0  0  0  0  0
    5.4220  -46.7339  -14.8722 C   0  0  0  0  0  0  0  0  0  0  0  0
    5.7865  -47.0687  -13.4537 C   0  0  0  0  0  0  0  0  0  0  0  0
 36 37  1  0  0  0
 37 38  1  0  0  0
 38 39  1  0  0  0
 39 40  1  0  0  0
 40 35  1  0  0  0
 35 25  1  0  0  0
 25 26  2  0  0  0
 26 27  1  0  0  0
 27 28  2  0  0  0
 28 29  1  0  0  0
 29 30  2  0  0  0
 30 31  1  0  0  0
 31 32  1  0  0  0
 31 33  1  0  0  0
 31 34  1  0  0  0
 28  1  1  0  0  0
  1  2  2  0  0  0
  1  3  1  0  0  0
  3  5  1  0  0  0
  5  6  2  0  0  0
  6  7  1  0  0  0
  7  8  2  0  0  0
  8  9  1  0  0  0
  8 10  1  0  0  0
 10 11  2  0  0  0
 10 12  1  0  0  0
 12 13  2  0  0  0
 13 14  1  0  0  0
 14 15  1  0  0  0
 15 16  2  0  0  0
 16 17  1  0  0  0
 17 18  2  0  0  0
 18 19  1  0  0  0
 18 20  1  0  0  0
 20 21  2  0  0  0
 21 22  1  0  0  0
 40 41  1  0  0  0
 41 42  1  0  0  0
 42 37  1  0  0  0
 30 25  1  0  0  0
 11  5  1  0  0  0
 21 12  1  0  0  0
 20 14  1  0  0  0
  3  4  1  0  0  0
 19 23  1  0  0  0
 19 24  1  0  0  0
M  END
> <minimizedAffinity>
-8.76784

> <CNNscore>
0.3559614718

> <CNNaffinity>
6.7088103294

> <CNN_VS>
2.3880779743

> <CNNaffinity_variance>
0.0506536365

$$$$
[H]c1nc(N([H])[H])c2c(C([H])([H])[H])c(-c3c([H])c(N([H])C(=O)c4c([H])c([H])c(C([H])([H])N5C([H])([H])C([H])([H])N(C([H])([H])[H])C([H])([H])C5([H])[H])c(C(F)(F)F)c4[H])c([H])c([H])c3C([H])([H])[H])c([H])n2n1


 42 46  0  0  0  0  0  0  0  0999 V2000
    1.9718  -51.0383  -19.4466 C   0  0  0  0  0  0  0  0  0  0  0  0
    2.7945  -51.9747  -19.4889 O   0  0  0  0  0  0  0  0  0  0  0  0
    0.7993  -51.0396  -20.1956 N   0  0  0  0  0  0  0  0  0  0  0  0
    0.1839  -50.1594  -20.0678 H   0  0  0  0  0  0  0  0  0  0  0  0
    0.3495  -52.0338  -21.0810 C   0  0  0  0  0  0  0  0  0  0  0  0
   -0.1649  -53.1988  -20.4487 C   0  0  0  0  0  0  0  0  0  0  0  0
   -0.6305  -54.2174  -21.2322 C   0  0  0  0  0  0  0  0  0  0  0  0
   -0.6039  -54.1231  -22.6040 C   0  0  0  0  0  0  0  0  0  0  0  0
   -1.1326  -55.2425  -23.4604 C   0  0  0  0  0  0  0  0  0  0  0  0
   -0.1083  -53.0031  -23.2292 C   0  0  0  0  0  0  0  0  0  0  0  0
    0.3651  -51.9650  -22.4452 C   0  0  0  0  0  0  0  0  0  0  0  0
   -0.0521  -52.9177  -24.7052 C   0  0  0  0  0  0  0  0  0  0  0  0
   -1.1399  -52.6854  -25.5242 C   0  0  0  0  0  0  0  0  0  0  0  0
   -0.7695  -52.6881  -26.8075 N   0  0  0  0  0  0  0  0  0  0  0  0
   -1.3927  -52.5202  -27.9719 N   0  0  0  0  0  0  0  0  0  0  0  0
   -0.7638  -52.5728  -29.1581 C   0  0  0  0  0  0  0  0  0  0  0  0
    0.5596  -52.8067  -29.1625 N   0  0  0  0  0  0  0  0  0  0  0  0
    1.2641  -52.9882  -28.0145 C   0  0  0  0  0  0  0  0  0  0  0  0
    2.6485  -53.2321  -28.0044 N   0  0  0  0  0  0  0  0  0  0  0  0
    0.5703  -52.9239  -26.8318 C   0  0  0  0  0  0  0  0  0  0  0  0
    1.0414  -53.0714  -25.5195 C   0  0  0  0  0  0  0  0  0  0  0  0
    2.4214  -53.3280  -25.1047 C   0  0  0  0  0  0  0  0  0  0  0  0
    3.0188  -54.2167  -28.1655 H   0  0  0  0  0  0  0  0  0  0  0  0
    3.3871  -52.5076  -27.8496 H   0  0  0  0  0  0  0  0  0  0  0  0
    2.8968  -47.8102  -16.8331 C   0  0  0  0  0  0  0  0  0  0  0  0
    2.3199  -48.9566  -16.3288 C   0  0  0  0  0  0  0  0  0  0  0  0
    2.0213  -50.0108  -17.2011 C   0  0  0  0  0  0  0  0  0  0  0  0
    2.3041  -49.8960  -18.5451 C   0  0  0  0  0  0  0  0  0  0  0  0
    2.8767  -48.7585  -19.0466 C   0  0  0  0  0  0  0  0  0  0  0  0
    3.1834  -47.6909  -18.1877 C   0  0  0  0  0  0  0  0  0  0  0  0
    3.7891  -46.4793  -18.7193 C   0  0  0  0  0  0  0  0  0  0  0  0
    3.0529  -45.3322  -18.6207 F   0  0  0  0  0  0  0  0  0  0  0  0
    5.0837  -46.2456  -18.2230 F   0  0  0  0  0  0  0  0  0  0  0  0
    4.0122  -46.6480  -20.1019 F   0  0  0  0  0  0  0  0  0  0  0  0
    3.2821  -46.6991  -15.9544 C   0  0  0  0  0  0  0  0  0  0  0  0
   -0.8401  -46.0196  -14.7564 C   0  0  0  0  0  0  0  0  0  0  0  0
    0.0043  -44.9657  -14.2789 N   0  0  0  0  0  0  0  0  0  0  0  0
    0.6144  -44.1686  -15.2949 C   0  0  0  0  0  0  0  0  0  0  0  0
    2.0291  -44.6377  -15.6534 C   0  0  0  0  0  0  0  0  0  0  0  0
    2.1448  -46.0345  -15.3848 N   0  0  0  0  0  0  0  0  0  0  0  0
    2.0728  -46.2373  -13.9381 C   0  0  0  0  0  0  0  0  0  0  0  0
    0.9923  -45.3980  -13.3173 C   0  0  0  0  0  0  0  0  0  0  0  0
 36 37  1  0  0  0
 37 38  1  0  0  0
 38 39  1  0  0  0
 39 40  1  0  0  0
 40 35  1  0  0  0
 35 25  1  0  0  0
 25 26  2  0  0  0
 26 27  1  0  0  0
 27 28  2  0  0  0
 28 29  1  0  0  0
 29 30  2  0  0  0
 30 31  1  0  0  0
 31 32  1  0  0  0
 31 33  1  0  0  0
 31 34  1  0  0  0
 28  1  1  0  0  0
  1  2  2  0  0  0
  1  3  1  0  0  0
  3  5  1  0  0  0
  5  6  2  0  0  0
  6  7  1  0  0  0
  7  8  2  0  0  0
  8  9  1  0  0  0
  8 10  1  0  0  0
 10 11  2  0  0  0
 10 12  1  0  0  0
 12 13  2  0  0  0
 13 14  1  0  0  0
 14 15  1  0  0  0
 15 16  2  0  0  0
 16 17  1  0  0  0
 17 18  2  0  0  0
 18 19  1  0  0  0
 18 20  1  0  0  0
 20 21  2  0  0  0
 21 22  1  0  0  0
 40 41  1  0  0  0
 41 42  1  0  0  0
 42 37  1  0  0  0
 30 25  1  0  0  0
 11  5  1  0  0  0
 21 12  1  0  0  0
 20 14  1  0  0  0
  3  4  1  0  0  0
 19 23  1  0  0  0
 19 24  1  0  0  0
M  END
> <minimizedAffinity>
-9.05074

> <CNNscore>
0.3406095803

> <CNNaffinity>
6.6654152870

> <CNN_VS>
2.2703042030

> <CNNaffinity_variance>
0.0906351060

$$$$
[H]c1nc(N([H])[H])c2c(C([H])([H])[H])c(-c3c([H])c(N([H])C(=O)c4c([H])c([H])c(C([H])([H])N5C([H])([H])C([H])([H])N(C([H])([H])[H])C([H])([H])C5([H])[H])c(C(F)(F)F)c4[H])c([H])c([H])c3C([H])([H])[H])c([H])n2n1


 42 46  0  0  0  0  0  0  0  0999 V2000
    1.5241  -51.2634  -19.3327 C   0  0  0  0  0  0  0  0  0  0  0  0
    2.4536  -52.0853  -19.4582 O   0  0  0  0  0  0  0  0  0  0  0  0
    0.3441  -51.3525  -20.0644 N   0  0  0  0  0  0  0  0  0  0  0  0
   -0.3710  -50.5670  -19.8606 H   0  0  0  0  0  0  0  0  0  0  0  0
   -0.0009  -52.3248  -21.0185 C   0  0  0  0  0  0  0  0  0  0  0  0
   -0.5015  -53.5378  -20.4711 C   0  0  0  0  0  0  0  0  0  0  0  0
   -0.8678  -54.5396  -21.3258 C   0  0  0  0  0  0  0  0  0  0  0  0
   -0.7560  -54.3833  -22.6876 C   0  0  0  0  0  0  0  0  0  0  0  0
   -1.1758  -55.4852  -23.6233 C   0  0  0  0  0  0  0  0  0  0  0  0
   -0.2724  -53.2163  -23.2310 C   0  0  0  0  0  0  0  0  0  0  0  0
    0.1006  -52.1947  -22.3745 C   0  0  0  0  0  0  0  0  0  0  0  0
   -0.1240  -53.0631  -24.6951 C   0  0  0  0  0  0  0  0  0  0  0  0
   -1.1647  -52.8350  -25.5742 C   0  0  0  0  0  0  0  0  0  0  0  0
   -0.7119  -52.7666  -26.8290 N   0  0  0  0  0  0  0  0  0  0  0  0
   -1.2643  -52.5701  -28.0242 N   0  0  0  0  0  0  0  0  0  0  0  0
   -0.5580  -52.5464  -29.1670 C   0  0  0  0  0  0  0  0  0  0  0  0
    0.7712  -52.7305  -29.0931 N   0  0  0  0  0  0  0  0  0  0  0  0
    1.4062  -52.9368  -27.9093 C   0  0  0  0  0  0  0  0  0  0  0  0
    2.7957  -53.1293  -27.8172 N   0  0  0  0  0  0  0  0  0  0  0  0
    0.6350  -52.9512  -26.7738 C   0  0  0  0  0  0  0  0  0  0  0  0
    1.0255  -53.1396  -25.4404 C   0  0  0  0  0  0  0  0  0  0  0  0
    2.3847  -53.3630  -24.9458 C   0  0  0  0  0  0  0  0  0  0  0  0
    3.2148  -54.0913  -27.9946 H   0  0  0  0  0  0  0  0  0  0  0  0
    3.4931  -52.3855  -27.5832 H   0  0  0  0  0  0  0  0  0  0  0  0
    2.1752  -48.1079  -16.5531 C   0  0  0  0  0  0  0  0  0  0  0  0
    3.1143  -48.3659  -17.5295 C   0  0  0  0  0  0  0  0  0  0  0  0
    2.8861  -49.4076  -18.4374 C   0  0  0  0  0  0  0  0  0  0  0  0
    1.7348  -50.1602  -18.3495 C   0  0  0  0  0  0  0  0  0  0  0  0
    0.8022  -49.9048  -17.3809 C   0  0  0  0  0  0  0  0  0  0  0  0
    1.0133  -48.8646  -16.4616 C   0  0  0  0  0  0  0  0  0  0  0  0
    0.0247  -48.5936  -15.4289 C   0  0  0  0  0  0  0  0  0  0  0  0
    0.4021  -48.8418  -14.1392 F   0  0  0  0  0  0  0  0  0  0  0  0
   -0.5218  -47.3008  -15.5132 F   0  0  0  0  0  0  0  0  0  0  0  0
   -1.0984  -49.4200  -15.6423 F   0  0  0  0  0  0  0  0  0  0  0  0
    2.3380  -46.9922  -15.6130 C   0  0  0  0  0  0  0  0  0  0  0  0
    6.5031  -46.3092  -16.6502 C   0  0  0  0  0  0  0  0  0  0  0  0
    6.2274  -45.8315  -15.3283 N   0  0  0  0  0  0  0  0  0  0  0  0
    5.8619  -46.8376  -14.3827 C   0  0  0  0  0  0  0  0  0  0  0  0
    4.3443  -47.0004  -14.2401 C   0  0  0  0  0  0  0  0  0  0  0  0
    3.7115  -46.6064  -15.4570 N   0  0  0  0  0  0  0  0  0  0  0  0
    3.8871  -45.1643  -15.6267 C   0  0  0  0  0  0  0  0  0  0  0  0
    5.2864  -44.7359  -15.2866 C   0  0  0  0  0  0  0  0  0  0  0  0
 36 37  1  0  0  0
 37 38  1  0  0  0
 38 39  1  0  0  0
 39 40  1  0  0  0
 40 35  1  0  0  0
 35 25  1  0  0  0
 25 26  2  0  0  0
 26 27  1  0  0  0
 27 28  2  0  0  0
 28 29  1  0  0  0
 29 30  2  0  0  0
 30 31  1  0  0  0
 31 32  1  0  0  0
 31 33  1  0  0  0
 31 34  1  0  0  0
 28  1  1  0  0  0
  1  2  2  0  0  0
  1  3  1  0  0  0
  3  5  1  0  0  0
  5  6  2  0  0  0
  6  7  1  0  0  0
  7  8  2  0  0  0
  8  9  1  0  0  0
  8 10  1  0  0  0
 10 11  2  0  0  0
 10 12  1  0  0  0
 12 13  2  0  0  0
 13 14  1  0  0  0
 14 15  1  0  0  0
 15 16  2  0  0  0
 16 17  1  0  0  0
 17 18  2  0  0  0
 18 19  1  0  0  0
 18 20  1  0  0  0
 20 21  2  0  0  0
 21 22  1  0  0  0
 40 41  1  0  0  0
 41 42  1  0  0  0
 42 37  1  0  0  0
 30 25  1  0  0  0
 11  5  1  0  0  0
 21 12  1  0  0  0
 20 14  1  0  0  0
  3  4  1  0  0  0
 19 23  1  0  0  0
 19 24  1  0  0  0
M  END
> <minimizedAffinity>
-8.97628

> <CNNscore>
0.3146563470

> <CNNaffinity>
6.5686903000

> <CNN_VS>
2.0668799877

> <CNNaffinity_variance>
0.1434609592

$$$$
[H]c1nc(N([H])[H])c2c(C([H])([H])[H])c(-c3c([H])c(N([H])C(=O)c4c([H])c([H])c(C([H])([H])N5C([H])([H])C([H])([H])N(C([H])([H])[H])C([H])([H])C5([H])[H])c(C(F)(F)F)c4[H])c([H])c([H])c3C([H])([H])[H])c([H])n2n1


 42 46  0  0  0  0  0  0  0  0999 V2000
    2.2065  -51.2462  -19.2471 C   0  0  0  0  0  0  0  0  0  0  0  0
    3.0673  -52.1168  -19.4847 O   0  0  0  0  0  0  0  0  0  0  0  0
    0.9492  -51.2563  -19.8430 N   0  0  0  0  0  0  0  0  0  0  0  0
    0.3079  -50.4355  -19.5521 H   0  0  0  0  0  0  0  0  0  0  0  0
    0.4448  -52.1913  -20.7630 C   0  0  0  0  0  0  0  0  0  0  0  0
   -0.1722  -53.3276  -20.1716 C   0  0  0  0  0  0  0  0  0  0  0  0
   -0.6967  -54.2880  -20.9907 C   0  0  0  0  0  0  0  0  0  0  0  0
   -0.6312  -54.1633  -22.3588 C   0  0  0  0  0  0  0  0  0  0  0  0
   -1.2246  -55.2176  -23.2545 C   0  0  0  0  0  0  0  0  0  0  0  0
   -0.0364  -53.0705  -22.9445 C   0  0  0  0  0  0  0  0  0  0  0  0
    0.4972  -52.0913  -22.1242 C   0  0  0  0  0  0  0  0  0  0  0  0
    0.0603  -52.9546  -24.4163 C   0  0  0  0  0  0  0  0  0  0  0  0
   -1.0111  -52.7501  -25.2638 C   0  0  0  0  0  0  0  0  0  0  0  0
   -0.6027  -52.7133  -26.5350 N   0  0  0  0  0  0  0  0  0  0  0  0
   -1.1971  -52.5480  -27.7147 N   0  0  0  0  0  0  0  0  0  0  0  0
   -0.5314  -52.5527  -28.8819 C   0  0  0  0  0  0  0  0  0  0  0  0
    0.7999  -52.7334  -28.8500 N   0  0  0  0  0  0  0  0  0  0  0  0
    1.4765  -52.9088  -27.6845 C   0  0  0  0  0  0  0  0  0  0  0  0
    2.8687  -53.0974  -27.6364 N   0  0  0  0  0  0  0  0  0  0  0  0
    0.7456  -52.8950  -26.5225 C   0  0  0  0  0  0  0  0  0  0  0  0
    1.1830  -53.0489  -25.1993 C   0  0  0  0  0  0  0  0  0  0  0  0
    2.5592  -53.2582  -24.7472 C   0  0  0  0  0  0  0  0  0  0  0  0
    3.2833  -54.0632  -27.8038 H   0  0  0  0  0  0  0  0  0  0  0  0
    3.5725  -52.3472  -27.4460 H   0  0  0  0  0  0  0  0  0  0  0  0
    3.2911  -48.1501  -16.5371 C   0  0  0  0  0  0  0  0  0  0  0  0
    2.9733  -47.8383  -17.8422 C   0  0  0  0  0  0  0  0  0  0  0  0
    2.6180  -48.8680  -18.7226 C   0  0  0  0  0  0  0  0  0  0  0  0
    2.5885  -50.1736  -18.2819 C   0  0  0  0  0  0  0  0  0  0  0  0
    2.9036  -50.4839  -16.9868 C   0  0  0  0  0  0  0  0  0  0  0  0
    3.2623  -49.4654  -16.0893 C   0  0  0  0  0  0  0  0  0  0  0  0
    3.6011  -49.7934  -14.7128 C   0  0  0  0  0  0  0  0  0  0  0  0
    4.6347  -49.0961  -14.1533 F   0  0  0  0  0  0  0  0  0  0  0  0
    2.4932  -49.7574  -13.8478 F   0  0  0  0  0  0  0  0  0  0  0  0
    4.0007  -51.1448  -14.6496 F   0  0  0  0  0  0  0  0  0  0  0  0
    3.6144  -47.1040  -15.5592 C   0  0  0  0  0  0  0  0  0  0  0  0
   -0.5686  -46.3330  -14.6661 C   0  0  0  0  0  0  0  0  0  0  0  0
    0.2512  -45.2469  -14.2190 N   0  0  0  0  0  0  0  0  0  0  0  0
    0.9254  -44.5289  -15.2533 C   0  0  0  0  0  0  0  0  0  0  0  0
    2.3566  -45.0247  -15.4897 C   0  0  0  0  0  0  0  0  0  0  0  0
    2.4485  -46.3975  -15.1107 N   0  0  0  0  0  0  0  0  0  0  0  0
    2.2887  -46.4909  -13.6598 C   0  0  0  0  0  0  0  0  0  0  0  0
    1.1774  -45.6065  -13.1699 C   0  0  0  0  0  0  0  0  0  0  0  0
 36 37  1  0  0  0
 37 38  1  0  0  0
 38 39  1  0  0  0
 39 40  1  0  0  0
 40 35  1  0  0  0
 35 25  1  0  0  0
 25 26  2  0  0  0
 26 27  1  0  0  0
 27 28  2  0  0  0
 28 29  1  0  0  0
 29 30  2  0  0  0
 30 31  1  0  0  0
 31 32  1  0  0  0
 31 33  1  0  0  0
 31 34  1  0  0  0
 28  1  1  0  0  0
  1  2  2  0  0  0
  1  3  1  0  0  0
  3  5  1  0  0  0
  5  6  2  0  0  0
  6  7  1  0  0  0
  7  8  2  0  0  0
  8  9  1  0  0  0
  8 10  1  0  0  0
 10 11  2  0  0  0
 10 12  1  0  0  0
 12 13  2  0  0  0
 13 14  1  0  0  0
 14 15  1  0  0  0
 15 16  2  0  0  0
 16 17  1  0  0  0
 17 18  2  0  0  0
 18 19  1  0  0  0
 18 20  1  0  0  0
 20 21  2  0  0  0
 21 22  1  0  0  0
 40 41  1  0  0  0
 41 42  1  0  0  0
 42 37  1  0  0  0
 30 25  1  0  0  0
 11  5  1  0  0  0
 21 12  1  0  0  0
 20 14  1  0  0  0
  3  4  1  0  0  0
 19 23  1  0  0  0
 19 24  1  0  0  0
M  END
> <minimizedAffinity>
-9.34001

> <CNNscore>
0.2881873548

> <CNNaffinity>
6.6004028320

> <CNN_VS>
1.9021526575

> <CNNaffinity_variance>
0.1041150317

$$$$
[H]c1nc(N([H])[H])c2c(C([H])([H])[H])c(-c3c([H])c(N([H])C(=O)c4c([H])c([H])c(C([H])([H])N5C([H])([H])C([H])([H])N(C([H])([H])[H])C([H])([H])C5([H])[H])c(C(F)(F)F)c4[H])c([H])c([H])c3C([H])([H])[H])c([H])n2n1


 42 46  0  0  0  0  0  0  0  0999 V2000
    2.4196  -51.1879  -19.3662 C   0  0  0  0  0  0  0  0  0  0  0  0
    3.2716  -52.0556  -19.6430 O   0  0  0  0  0  0  0  0  0  0  0  0
    1.1362  -51.2028  -19.9033 N   0  0  0  0  0  0  0  0  0  0  0  0
    0.5061  -50.3840  -19.5833 H   0  0  0  0  0  0  0  0  0  0  0  0
    0.5932  -52.1399  -20.7987 C   0  0  0  0  0  0  0  0  0  0  0  0
   -0.0166  -53.2646  -20.1783 C   0  0  0  0  0  0  0  0  0  0  0  0
   -0.5767  -54.2262  -20.9720 C   0  0  0  0  0  0  0  0  0  0  0  0
   -0.5535  -54.1136  -22.3425 C   0  0  0  0  0  0  0  0  0  0  0  0
   -1.1860  -55.1688  -23.2098 C   0  0  0  0  0  0  0  0  0  0  0  0
    0.0337  -53.0321  -22.9562 C   0  0  0  0  0  0  0  0  0  0  0  0
    0.6033  -52.0518  -22.1618 C   0  0  0  0  0  0  0  0  0  0  0  0
    0.0848  -52.9294  -24.4313 C   0  0  0  0  0  0  0  0  0  0  0  0
   -1.0104  -52.7172  -25.2459 C   0  0  0  0  0  0  0  0  0  0  0  0
   -0.6425  -52.6963  -26.5298 N   0  0  0  0  0  0  0  0  0  0  0  0
   -1.2721  -52.5325  -27.6913 N   0  0  0  0  0  0  0  0  0  0  0  0
   -0.6442  -52.5556  -28.8790 C   0  0  0  0  0  0  0  0  0  0  0  0
    0.6848  -52.7542  -28.8881 N   0  0  0  0  0  0  0  0  0  0  0  0
    1.3960  -52.9293  -27.7433 C   0  0  0  0  0  0  0  0  0  0  0  0
    2.7865  -53.1365  -27.7380 N   0  0  0  0  0  0  0  0  0  0  0  0
    0.7030  -52.8962  -26.5588 C   0  0  0  0  0  0  0  0  0  0  0  0
    1.1805  -53.0453  -25.2489 C   0  0  0  0  0  0  0  0  0  0  0  0
    2.5675  -53.2696  -24.8392 C   0  0  0  0  0  0  0  0  0  0  0  0
    3.1825  -54.1091  -27.9103 H   0  0  0  0  0  0  0  0  0  0  0  0
    3.5059  -52.3944  -27.5766 H   0  0  0  0  0  0  0  0  0  0  0  0
    3.6350  -48.0912  -16.7128 C   0  0  0  0  0  0  0  0  0  0  0  0
    3.6261  -47.8642  -18.0730 C   0  0  0  0  0  0  0  0  0  0  0  0
    3.2234  -48.8928  -18.9338 C   0  0  0  0  0  0  0  0  0  0  0  0
    2.8420  -50.1135  -18.4200 C   0  0  0  0  0  0  0  0  0  0  0  0
    2.8503  -50.3398  -17.0702 C   0  0  0  0  0  0  0  0  0  0  0  0
    3.2509  -49.3207  -16.1912 C   0  0  0  0  0  0  0  0  0  0  0  0
    3.2639  -49.5602  -14.7560 C   0  0  0  0  0  0  0  0  0  0  0  0
    4.4651  -49.4136  -14.1212 F   0  0  0  0  0  0  0  0  0  0  0  0
    2.2804  -48.8302  -14.0654 F   0  0  0  0  0  0  0  0  0  0  0  0
    2.8868  -50.8974  -14.5118 F   0  0  0  0  0  0  0  0  0  0  0  0
    3.9931  -47.0300  -15.7639 C   0  0  0  0  0  0  0  0  0  0  0  0
    7.9880  -46.7135  -17.4462 C   0  0  0  0  0  0  0  0  0  0  0  0
    7.8431  -45.8374  -16.3224 N   0  0  0  0  0  0  0  0  0  0  0  0
    7.6234  -46.4875  -15.0697 C   0  0  0  0  0  0  0  0  0  0  0  0
    6.1384  -46.5967  -14.7054 C   0  0  0  0  0  0  0  0  0  0  0  0
    5.3598  -46.6139  -15.9013 N   0  0  0  0  0  0  0  0  0  0  0  0
    5.4603  -45.3021  -16.5404 C   0  0  0  0  0  0  0  0  0  0  0  0
    6.8714  -44.7867  -16.5213 C   0  0  0  0  0  0  0  0  0  0  0  0
 36 37  1  0  0  0
 37 38  1  0  0  0
 38 39  1  0  0  0
 39 40  1  0  0  0
 40 35  1  0  0  0
 35 25  1  0  0  0
 25 26  2  0  0  0
 26 27  1  0  0  0
 27 28  2  0  0  0
 28 29  1  0  0  0
 29 30  2  0  0  0
 30 31  1  0  0  0
 31 32  1  0  0  0
 31 33  1  0  0  0
 31 34  1  0  0  0
 28  1  1  0  0  0
  1  2  2  0  0  0
  1  3  1  0  0  0
  3  5  1  0  0  0
  5  6  2  0  0  0
  6  7  1  0  0  0
  7  8  2  0  0  0
  8  9  1  0  0  0
  8 10  1  0  0  0
 10 11  2  0  0  0
 10 12  1  0  0  0
 12 13  2  0  0  0
 13 14  1  0  0  0
 14 15  1  0  0  0
 15 16  2  0  0  0
 16 17  1  0  0  0
 17 18  2  0  0  0
 18 19  1  0  0  0
 18 20  1  0  0  0
 20 21  2  0  0  0
 21 22  1  0  0  0
 40 41  1  0  0  0
 41 42  1  0  0  0
 42 37  1  0  0  0
 30 25  1  0  0  0
 11  5  1  0  0  0
 21 12  1  0  0  0
 20 14  1  0  0  0
  3  4  1  0  0  0
 19 23  1  0  0  0
 19 24  1  0  0  0
M  END
> <minimizedAffinity>
-9.13661

> <CNNscore>
0.2848785222

> <CNNaffinity>
6.4186120033

> <CNN_VS>
1.8285247087

> <CNNaffinity_variance>
0.1792817414

$$$$
[H]c1nc(N([H])[H])c2c(C([H])([H])[H])c(-c3c([H])c(N([H])C(=O)c4c([H])c([H])c(C([H])([H])N5C([H])([H])C([H])([H])N(C([H])([H])[H])C([H])([H])C5([H])[H])c(C(F)(F)F)c4[H])c([H])c([H])c3C([H])([H])[H])c([H])n2n1


 42 46  0  0  0  0  0  0  0  0999 V2000
    3.1484  -49.7882  -20.8407 C   0  0  0  0  0  0  0  0  0  0  0  0
    3.9549  -50.4108  -21.5601 O   0  0  0  0  0  0  0  0  0  0  0  0
    1.8073  -50.1447  -20.7403 N   0  0  0  0  0  0  0  0  0  0  0  0
    1.2220  -49.5112  -20.0877 H   0  0  0  0  0  0  0  0  0  0  0  0
    1.1526  -51.2069  -21.3867 C   0  0  0  0  0  0  0  0  0  0  0  0
    0.6574  -52.2140  -20.5136 C   0  0  0  0  0  0  0  0  0  0  0  0
    0.0011  -53.2841  -21.0544 C   0  0  0  0  0  0  0  0  0  0  0  0
   -0.1790  -53.3899  -22.4137 C   0  0  0  0  0  0  0  0  0  0  0  0
   -0.9163  -54.5635  -23.0010 C   0  0  0  0  0  0  0  0  0  0  0  0
    0.2955  -52.4242  -23.2701 C   0  0  0  0  0  0  0  0  0  0  0  0
    0.9609  -51.3356  -22.7330 C   0  0  0  0  0  0  0  0  0  0  0  0
    0.1277  -52.5565  -24.7341 C   0  0  0  0  0  0  0  0  0  0  0  0
   -1.0624  -52.3755  -25.4115 C   0  0  0  0  0  0  0  0  0  0  0  0
   -0.8940  -52.5872  -26.7196 N   0  0  0  0  0  0  0  0  0  0  0  0
   -1.6812  -52.5495  -27.7926 N   0  0  0  0  0  0  0  0  0  0  0  0
   -1.2447  -52.8131  -29.0357 C   0  0  0  0  0  0  0  0  0  0  0  0
    0.0514  -53.1295  -29.1973 N   0  0  0  0  0  0  0  0  0  0  0  0
    0.9156  -53.1881  -28.1501 C   0  0  0  0  0  0  0  0  0  0  0  0
    2.2738  -53.5163  -28.3047 N   0  0  0  0  0  0  0  0  0  0  0  0
    0.4151  -52.9095  -26.9026 C   0  0  0  0  0  0  0  0  0  0  0  0
    1.0758  -52.8959  -25.6660 C   0  0  0  0  0  0  0  0  0  0  0  0
    2.4912  -53.1779  -25.4225 C   0  0  0  0  0  0  0  0  0  0  0  0
    2.5737  -54.5355  -28.3661 H   0  0  0  0  0  0  0  0  0  0  0  0
    3.0570  -52.8259  -28.3714 H   0  0  0  0  0  0  0  0  0  0  0  0
    4.6463  -46.4651  -18.6452 C   0  0  0  0  0  0  0  0  0  0  0  0
    3.3931  -46.9655  -18.3613 C   0  0  0  0  0  0  0  0  0  0  0  0
    2.9136  -48.0597  -19.0921 C   0  0  0  0  0  0  0  0  0  0  0  0
    3.6910  -48.6237  -20.0806 C   0  0  0  0  0  0  0  0  0  0  0  0
    4.9349  -48.1279  -20.3631 C   0  0  0  0  0  0  0  0  0  0  0  0
    5.4329  -47.0313  -19.6412 C   0  0  0  0  0  0  0  0  0  0  0  0
    6.7538  -46.5003  -19.9422 C   0  0  0  0  0  0  0  0  0  0  0  0
    6.8121  -45.1970  -20.3490 F   0  0  0  0  0  0  0  0  0  0  0  0
    7.6811  -46.7063  -18.9056 F   0  0  0  0  0  0  0  0  0  0  0  0
    7.3110  -47.2370  -21.0084 F   0  0  0  0  0  0  0  0  0  0  0  0
    5.2194  -45.3570  -17.8714 C   0  0  0  0  0  0  0  0  0  0  0  0
    2.5992  -46.1881  -14.5049 C   0  0  0  0  0  0  0  0  0  0  0  0
    3.3656  -45.0018  -14.2668 N   0  0  0  0  0  0  0  0  0  0  0  0
    3.0971  -43.9165  -15.1555 C   0  0  0  0  0  0  0  0  0  0  0  0
    4.0682  -43.8601  -16.3404 C   0  0  0  0  0  0  0  0  0  0  0  0
    4.5583  -45.1728  -16.6109 N   0  0  0  0  0  0  0  0  0  0  0  0
    5.4043  -45.5926  -15.4941 C   0  0  0  0  0  0  0  0  0  0  0  0
    4.7886  -45.2339  -14.1714 C   0  0  0  0  0  0  0  0  0  0  0  0
 36 37  1  0  0  0
 37 38  1  0  0  0
 38 39  1  0  0  0
 39 40  1  0  0  0
 40 35  1  0  0  0
 35 25  1  0  0  0
 25 26  2  0  0  0
 26 27  1  0  0  0
 27 28  2  0  0  0
 28 29  1  0  0  0
 29 30  2  0  0  0
 30 31  1  0  0  0
 31 32  1  0  0  0
 31 33  1  0  0  0
 31 34  1  0  0  0
 28  1  1  0  0  0
  1  2  2  0  0  0
  1  3  1  0  0  0
  3  5  1  0  0  0
  5  6  2  0  0  0
  6  7  1  0  0  0
  7  8  2  0  0  0
  8  9  1  0  0  0
  8 10  1  0  0  0
 10 11  2  0  0  0
 10 12  1  0  0  0
 12 13  2  0  0  0
 13 14  1  0  0  0
 14 15  1  0  0  0
 15 16  2  0  0  0
 16 17  1  0  0  0
 17 18  2  0  0  0
 18 19  1  0  0  0
 18 20  1  0  0  0
 20 21  2  0  0  0
 21 22  1  0  0  0
 40 41  1  0  0  0
 41 42  1  0  0  0
 42 37  1  0  0  0
 30 25  1  0  0  0
 11  5  1  0  0  0
 21 12  1  0  0  0
 20 14  1  0  0  0
  3  4  1  0  0  0
 19 23  1  0  0  0
 19 24  1  0  0  0
M  END
> <minimizedAffinity>
-7.86275

> <CNNscore>
0.2744036615

> <CNNaffinity>
6.6079301834

> <CNN_VS>
1.8132402897

> <CNNaffinity_variance>
0.1312544644

$$$$
[H]c1nc(N([H])[H])c2c(C([H])([H])[H])c(-c3c([H])c(N([H])C(=O)c4c([H])c([H])c(C([H])([H])N5C([H])([H])C([H])([H])N(C([H])([H])[H])C([H])([H])C5([H])[H])c(C(F)(F)F)c4[H])c([H])c([H])c3C([H])([H])[H])c([H])n2n1


 42 46  0  0  0  0  0  0  0  0999 V2000
    2.0332  -50.4357  -19.6591 C   0  0  0  0  0  0  0  0  0  0  0  0
    3.0259  -50.9952  -20.1661 O   0  0  0  0  0  0  0  0  0  0  0  0
    0.7283  -50.8164  -19.9560 N   0  0  0  0  0  0  0  0  0  0  0  0
   -0.0339  -50.2383  -19.4513 H   0  0  0  0  0  0  0  0  0  0  0  0
    0.3110  -51.8391  -20.8247 C   0  0  0  0  0  0  0  0  0  0  0  0
   -0.2067  -52.9922  -20.1735 C   0  0  0  0  0  0  0  0  0  0  0  0
   -0.6422  -54.0367  -20.9401 C   0  0  0  0  0  0  0  0  0  0  0  0
   -0.5827  -53.9793  -22.3129 C   0  0  0  0  0  0  0  0  0  0  0  0
   -1.0784  -55.1272  -23.1511 C   0  0  0  0  0  0  0  0  0  0  0  0
   -0.0834  -52.8711  -22.9562 C   0  0  0  0  0  0  0  0  0  0  0  0
    0.3595  -51.8070  -22.1894 C   0  0  0  0  0  0  0  0  0  0  0  0
    0.0084  -52.8251  -24.4322 C   0  0  0  0  0  0  0  0  0  0  0  0
   -1.0626  -52.6364  -25.2839 C   0  0  0  0  0  0  0  0  0  0  0  0
   -0.6599  -52.6670  -26.5571 N   0  0  0  0  0  0  0  0  0  0  0  0
   -1.2566  -52.5432  -27.7407 N   0  0  0  0  0  0  0  0  0  0  0  0
   -0.5971  -52.6160  -28.9091 C   0  0  0  0  0  0  0  0  0  0  0  0
    0.7302  -52.8242  -28.8743 N   0  0  0  0  0  0  0  0  0  0  0  0
    1.4087  -52.9605  -27.7047 C   0  0  0  0  0  0  0  0  0  0  0  0
    2.7968  -53.1770  -27.6536 N   0  0  0  0  0  0  0  0  0  0  0  0
    0.6842  -52.8773  -26.5417 C   0  0  0  0  0  0  0  0  0  0  0  0
    1.1248  -52.9797  -25.2146 C   0  0  0  0  0  0  0  0  0  0  0  0
    2.4984  -53.1980  -24.7589 C   0  0  0  0  0  0  0  0  0  0  0  0
    3.1895  -54.1583  -27.7780 H   0  0  0  0  0  0  0  0  0  0  0  0
    3.5175  -52.4343  -27.5008 H   0  0  0  0  0  0  0  0  0  0  0  0
    2.8577  -47.2374  -16.9762 C   0  0  0  0  0  0  0  0  0  0  0  0
    3.5486  -47.3293  -18.1661 C   0  0  0  0  0  0  0  0  0  0  0  0
    3.2662  -48.3874  -19.0391 C   0  0  0  0  0  0  0  0  0  0  0  0
    2.3081  -49.3205  -18.7059 C   0  0  0  0  0  0  0  0  0  0  0  0
    1.6218  -49.2301  -17.5252 C   0  0  0  0  0  0  0  0  0  0  0  0
    1.8910  -48.1764  -16.6370 C   0  0  0  0  0  0  0  0  0  0  0  0
    1.1649  -48.0803  -15.3797 C   0  0  0  0  0  0  0  0  0  0  0  0
    0.0213  -48.8208  -15.2744 F   0  0  0  0  0  0  0  0  0  0  0  0
    1.9755  -48.3135  -14.2547 F   0  0  0  0  0  0  0  0  0  0  0  0
    0.7497  -46.7453  -15.1920 F   0  0  0  0  0  0  0  0  0  0  0  0
    3.0740  -46.1174  -16.0522 C   0  0  0  0  0  0  0  0  0  0  0  0
    5.2894  -48.5408  -13.2045 C   0  0  0  0  0  0  0  0  0  0  0  0
    5.7482  -47.1842  -13.1769 N   0  0  0  0  0  0  0  0  0  0  0  0
    4.7859  -46.2263  -12.7336 C   0  0  0  0  0  0  0  0  0  0  0  0
    4.0320  -45.5579  -13.8890 C   0  0  0  0  0  0  0  0  0  0  0  0
    4.0024  -46.4438  -15.0075 N   0  0  0  0  0  0  0  0  0  0  0  0
    5.3634  -46.5868  -15.5236 C   0  0  0  0  0  0  0  0  0  0  0  0
    6.3603  -46.7485  -14.4111 C   0  0  0  0  0  0  0  0  0  0  0  0
 36 37  1  0  0  0
 37 38  1  0  0  0
 38 39  1  0  0  0
 39 40  1  0  0  0
 40 35  1  0  0  0
 35 25  1  0  0  0
 25 26  2  0  0  0
 26 27  1  0  0  0
 27 28  2  0  0  0
 28 29  1  0  0  0
 29 30  2  0  0  0
 30 31  1  0  0  0
 31 32  1  0  0  0
 31 33  1  0  0  0
 31 34  1  0  0  0
 28  1  1  0  0  0
  1  2  2  0  0  0
  1  3  1  0  0  0
  3  5  1  0  0  0
  5  6  2  0  0  0
  6  7  1  0  0  0
  7  8  2  0  0  0
  8  9  1  0  0  0
  8 10  1  0  0  0
 10 11  2  0  0  0
 10 12  1  0  0  0
 12 13  2  0  0  0
 13 14  1  0  0  0
 14 15  1  0  0  0
 15 16  2  0  0  0
 16 17  1  0  0  0
 17 18  2  0  0  0
 18 19  1  0  0  0
 18 20  1  0  0  0
 20 21  2  0  0  0
 21 22  1  0  0  0
 40 41  1  0  0  0
 41 42  1  0  0  0
 42 37  1  0  0  0
 30 25  1  0  0  0
 11  5  1  0  0  0
 21 12  1  0  0  0
 20 14  1  0  0  0
  3  4  1  0  0  0
 19 23  1  0  0  0
 19 24  1  0  0  0
M  END
> <minimizedAffinity>
-8.56721

> <CNNscore>
0.2508910596

> <CNNaffinity>
6.4805731773

> <CNN_VS>
1.6259179115

> <CNNaffinity_variance>
0.0776151791

$$$$
[H]c1nc(N([H])[H])c2c(C([H])([H])[H])c(-c3c([H])c(N([H])C(=O)c4c([H])c([H])c(C([H])([H])N5C([H])([H])C([H])([H])N(C([H])([H])[H])C([H])([H])C5([H])[H])c(C(F)(F)F)c4[H])c([H])c([H])c3C([H])([H])[H])c([H])n2n1


 42 46  0  0  0  0  0  0  0  0999 V2000
    2.2555  -50.5327  -19.0439 C   0  0  0  0  0  0  0  0  0  0  0  0
    2.9517  -51.5537  -18.8756 O   0  0  0  0  0  0  0  0  0  0  0  0
    1.1986  -50.4897  -19.9477 N   0  0  0  0  0  0  0  0  0  0  0  0
    0.6883  -49.5373  -19.9967 H   0  0  0  0  0  0  0  0  0  0  0  0
    0.7444  -51.5233  -20.7844 C   0  0  0  0  0  0  0  0  0  0  0  0
   -0.0361  -52.5142  -20.1283 C   0  0  0  0  0  0  0  0  0  0  0  0
   -0.5254  -53.5561  -20.8655 C   0  0  0  0  0  0  0  0  0  0  0  0
   -0.2708  -53.6493  -22.2138 C   0  0  0  0  0  0  0  0  0  0  0  0
   -0.8259  -54.7913  -23.0222 C   0  0  0  0  0  0  0  0  0  0  0  0
    0.4835  -52.6990  -22.8612 C   0  0  0  0  0  0  0  0  0  0  0  0
    0.9832  -51.6390  -22.1244 C   0  0  0  0  0  0  0  0  0  0  0  0
    0.7819  -52.8189  -24.3054 C   0  0  0  0  0  0  0  0  0  0  0  0
    2.0034  -53.1935  -24.8304 C   0  0  0  0  0  0  0  0  0  0  0  0
    1.9621  -53.1855  -26.1654 N   0  0  0  0  0  0  0  0  0  0  0  0
    2.8285  -53.4541  -27.1399 N   0  0  0  0  0  0  0  0  0  0  0  0
    2.5202  -53.3652  -28.4446 C   0  0  0  0  0  0  0  0  0  0  0  0
    1.2741  -52.9860  -28.7757 N   0  0  0  0  0  0  0  0  0  0  0  0
    0.3351  -52.6953  -27.8372 C   0  0  0  0  0  0  0  0  0  0  0  0
   -0.9722  -52.2990  -28.1693 N   0  0  0  0  0  0  0  0  0  0  0  0
    0.7053  -52.8032  -26.5198 C   0  0  0  0  0  0  0  0  0  0  0  0
   -0.0534  -52.5675  -25.3645 C   0  0  0  0  0  0  0  0  0  0  0  0
   -1.4542  -52.1478  -25.3034 C   0  0  0  0  0  0  0  0  0  0  0  0
   -1.1764  -51.2842  -28.4165 H   0  0  0  0  0  0  0  0  0  0  0  0
   -1.8042  -52.9323  -28.2020 H   0  0  0  0  0  0  0  0  0  0  0  0
    3.2565  -47.1559  -16.6559 C   0  0  0  0  0  0  0  0  0  0  0  0
    2.8875  -48.3385  -16.0502 C   0  0  0  0  0  0  0  0  0  0  0  0
    2.5611  -49.4415  -16.8492 C   0  0  0  0  0  0  0  0  0  0  0  0
    2.6109  -49.3379  -18.2227 C   0  0  0  0  0  0  0  0  0  0  0  0
    2.9771  -48.1646  -18.8247 C   0  0  0  0  0  0  0  0  0  0  0  0
    3.3079  -47.0479  -18.0405 C   0  0  0  0  0  0  0  0  0  0  0  0
    3.6942  -45.7985  -18.6785 C   0  0  0  0  0  0  0  0  0  0  0  0
    3.0326  -44.6735  -18.2734 F   0  0  0  0  0  0  0  0  0  0  0  0
    5.0799  -45.5633  -18.6384 F   0  0  0  0  0  0  0  0  0  0  0  0
    3.4350  -45.8919  -20.0619 F   0  0  0  0  0  0  0  0  0  0  0  0
    3.6634  -45.9877  -15.8655 C   0  0  0  0  0  0  0  0  0  0  0  0
    7.9526  -46.5165  -16.3279 C   0  0  0  0  0  0  0  0  0  0  0  0
    7.6433  -46.0229  -15.0194 N   0  0  0  0  0  0  0  0  0  0  0  0
    6.8784  -46.9090  -14.2010 C   0  0  0  0  0  0  0  0  0  0  0  0
    5.3729  -46.6263  -14.2591 C   0  0  0  0  0  0  0  0  0  0  0  0
    5.0543  -46.0250  -15.5135 N   0  0  0  0  0  0  0  0  0  0  0  0
    5.6552  -44.6922  -15.5561 C   0  0  0  0  0  0  0  0  0  0  0  0
    7.0570  -44.7023  -15.0157 C   0  0  0  0  0  0  0  0  0  0  0  0
 36 37  1  0  0  0
 37 38  1  0  0  0
 38 39  1  0  0  0
 39 40  1  0  0  0
 40 35  1  0  0  0
 35 25  1  0  0  0
 25 26  2  0  0  0
 26 27  1  0  0  0
 27 28  2  0  0  0
 28 29  1  0  0  0
 29 30  2  0  0  0
 30 31  1  0  0  0
 31 32  1  0  0  0
 31 33  1  0  0  0
 31 34  1  0  0  0
 28  1  1  0  0  0
  1  2  2  0  0  0
  1  3  1  0  0  0
  3  5  1  0  0  0
  5  6  2  0  0  0
  6  7  1  0  0  0
  7  8  2  0  0  0
  8  9  1  0  0  0
  8 10  1  0  0  0
 10 11  2  0  0  0
 10 12  1  0  0  0
 12 13  2  0  0  0
 13 14  1  0  0  0
 14 15  1  0  0  0
 15 16  2  0  0  0
 16 17  1  0  0  0
 17 18  2  0  0  0
 18 19  1  0  0  0
 18 20  1  0  0  0
 20 21  2  0  0  0
 21 22  1  0  0  0
 40 41  1  0  0  0
 41 42  1  0  0  0
 42 37  1  0  0  0
 30 25  1  0  0  0
 11  5  1  0  0  0
 21 12  1  0  0  0
 20 14  1  0  0  0
  3  4  1  0  0  0
 19 23  1  0  0  0
 19 24  1  0  0  0
M  END
> <minimizedAffinity>
-7.79280

> <CNNscore>
0.1841808558

> <CNNaffinity>
6.2242150307

> <CNN_VS>
1.1463812590

> <CNNaffinity_variance>
0.1051673666

$$$$
[H]c1nc(N([H])[H])c2c(C([H])([H])[H])c(-c3c([H])c(N([H])C(=O)c4c([H])c([H])c(C([H])([H])N5C([H])([H])C([H])([H])N(C([H])([H])[H])C([H])([H])C5([H])[H])c(C(F)(F)F)c4[H])c([H])c([H])c3C([H])([H])[H])c([H])n2n1


 42 46  0  0  0  0  0  0  0  0999 V2000
    4.1537  -48.4372  -25.8795 C   0  0  0  0  0  0  0  0  0  0  0  0
    4.2946  -49.6283  -26.2212 O   0  0  0  0  0  0  0  0  0  0  0  0
    3.8299  -48.0666  -24.5781 N   0  0  0  0  0  0  0  0  0  0  0  0
    3.7300  -47.0003  -24.4266 H   0  0  0  0  0  0  0  0  0  0  0  0
    3.6176  -48.9106  -23.4747 C   0  0  0  0  0  0  0  0  0  0  0  0
    4.5816  -48.7805  -22.4378 C   0  0  0  0  0  0  0  0  0  0  0  0
    4.4518  -49.5592  -21.3219 C   0  0  0  0  0  0  0  0  0  0  0  0
    3.4128  -50.4519  -21.1997 C   0  0  0  0  0  0  0  0  0  0  0  0
    3.2676  -51.2952  -19.9612 C   0  0  0  0  0  0  0  0  0  0  0  0
    2.4739  -50.5892  -22.1949 C   0  0  0  0  0  0  0  0  0  0  0  0
    2.5953  -49.8047  -23.3291 C   0  0  0  0  0  0  0  0  0  0  0  0
    1.3753  -51.5728  -22.0740 C   0  0  0  0  0  0  0  0  0  0  0  0
    0.6027  -51.7580  -20.9441 C   0  0  0  0  0  0  0  0  0  0  0  0
   -0.2887  -52.7331  -21.1405 N   0  0  0  0  0  0  0  0  0  0  0  0
   -1.2457  -53.3007  -20.4094 N   0  0  0  0  0  0  0  0  0  0  0  0
   -2.0260  -54.2963  -20.8627 C   0  0  0  0  0  0  0  0  0  0  0  0
   -1.8257  -54.7361  -22.1167 N   0  0  0  0  0  0  0  0  0  0  0  0
   -0.8683  -54.2062  -22.9228 C   0  0  0  0  0  0  0  0  0  0  0  0
   -0.6488  -54.6555  -24.2366 N   0  0  0  0  0  0  0  0  0  0  0  0
   -0.1005  -53.1916  -22.4076 C   0  0  0  0  0  0  0  0  0  0  0  0
    0.9418  -52.4750  -23.0125 C   0  0  0  0  0  0  0  0  0  0  0  0
    1.4552  -52.6496  -24.3719 C   0  0  0  0  0  0  0  0  0  0  0  0
   -0.0534  -55.5196  -24.4135 H   0  0  0  0  0  0  0  0  0  0  0  0
   -1.0327  -54.2056  -25.0996 H   0  0  0  0  0  0  0  0  0  0  0  0
    4.6552  -45.5132  -28.9299 C   0  0  0  0  0  0  0  0  0  0  0  0
    3.4342  -46.1335  -28.7692 C   0  0  0  0  0  0  0  0  0  0  0  0
    3.2842  -47.0937  -27.7608 C   0  0  0  0  0  0  0  0  0  0  0  0
    4.3483  -47.4085  -26.9434 C   0  0  0  0  0  0  0  0  0  0  0  0
    5.5605  -46.7933  -27.1020 C   0  0  0  0  0  0  0  0  0  0  0  0
    5.7303  -45.8280  -28.1075 C   0  0  0  0  0  0  0  0  0  0  0  0
    7.0192  -45.1751  -28.2802 C   0  0  0  0  0  0  0  0  0  0  0  0
    6.9951  -43.8613  -28.6551 F   0  0  0  0  0  0  0  0  0  0  0  0
    7.8682  -45.3267  -27.1696 F   0  0  0  0  0  0  0  0  0  0  0  0
    7.7304  -45.8310  -29.3067 F   0  0  0  0  0  0  0  0  0  0  0  0
    4.8501  -44.4594  -29.9332 C   0  0  0  0  0  0  0  0  0  0  0  0
    2.9084  -46.2608  -33.3791 C   0  0  0  0  0  0  0  0  0  0  0  0
    4.2066  -45.7688  -33.7315 N   0  0  0  0  0  0  0  0  0  0  0  0
    5.2997  -46.4190  -33.0817 C   0  0  0  0  0  0  0  0  0  0  0  0
    5.7699  -45.6824  -31.8222 C   0  0  0  0  0  0  0  0  0  0  0  0
    4.6791  -44.9438  -31.2733 N   0  0  0  0  0  0  0  0  0  0  0  0
    4.3390  -43.8616  -32.1965 C   0  0  0  0  0  0  0  0  0  0  0  0
    4.3378  -44.3340  -33.6227 C   0  0  0  0  0  0  0  0  0  0  0  0
 36 37  1  0  0  0
 37 38  1  0  0  0
 38 39  1  0  0  0
 39 40  1  0  0  0
 40 35  1  0  0  0
 35 25  1  0  0  0
 25 26  2  0  0  0
 26 27  1  0  0  0
 27 28  2  0  0  0
 28 29  1  0  0  0
 29 30  2  0  0  0
 30 31  1  0  0  0
 31 32  1  0  0  0
 31 33  1  0  0  0
 31 34  1  0  0  0
 28  1  1  0  0  0
  1  2  2  0  0  0
  1  3  1  0  0  0
  3  5  1  0  0  0
  5  6  2  0  0  0
  6  7  1  0  0  0
  7  8  2  0  0  0
  8  9  1  0  0  0
  8 10  1  0  0  0
 10 11  2  0  0  0
 10 12  1  0  0  0
 12 13  2  0  0  0
 13 14  1  0  0  0
 14 15  1  0  0  0
 15 16  2  0  0  0
 16 17  1  0  0  0
 17 18  2  0  0  0
 18 19  1  0  0  0
 18 20  1  0  0  0
 20 21  2  0  0  0
 21 22  1  0  0  0
 40 41  1  0  0  0
 41 42  1  0  0  0
 42 37  1  0  0  0
 30 25  1  0  0  0
 11  5  1  0  0  0
 21 12  1  0  0  0
 20 14  1  0  0  0
  3  4  1  0  0  0
 19 23  1  0  0  0
 19 24  1  0  0  0
M  END
> <minimizedAffinity>
-6.93567

> <CNNscore>
0.1740543991

> <CNNaffinity>
6.3173985481

> <CNN_VS>
1.0995709896

> <CNNaffinity_variance>
0.2151541710

$$$$
[H]c1c([H])c([H])c(S(=O)(=O)N2C([H])([H])C([H])([H])N(c3c([H])c([H])c([N+](=O)[O-])c([H])c3[H])C([H])([H])C2([H])[H])c([H])c1[H]


 24 26  0  0  0  0  0  0  0  0999 V2000
    0.6790  -52.5200  -21.8021 N   0  0  0  0  0  0  0  0  0  0  0  0
    0.0378  -53.5995  -22.5237 C   0  0  0  0  0  0  0  0  0  0  0  0
   -0.1026  -53.1281  -23.9799 C   0  0  0  0  0  0  0  0  0  0  0  0
    1.2020  -53.1427  -24.5550 N   0  0  0  0  0  0  0  0  0  0  0  0
    2.2306  -52.7008  -23.6543 C   0  0  0  0  0  0  0  0  0  0  0  0
    1.6936  -51.7800  -22.5677 C   0  0  0  0  0  0  0  0  0  0  0  0
   -0.1355  -51.4489  -17.8682 C   0  0  0  0  0  0  0  0  0  0  0  0
    0.6328  -50.6107  -18.6407 C   0  0  0  0  0  0  0  0  0  0  0  0
    0.8829  -50.9944  -19.9413 C   0  0  0  0  0  0  0  0  0  0  0  0
    0.3922  -52.1685  -20.4674 C   0  0  0  0  0  0  0  0  0  0  0  0
   -0.3737  -52.9994  -19.6892 C   0  0  0  0  0  0  0  0  0  0  0  0
   -0.6402  -52.6303  -18.3674 C   0  0  0  0  0  0  0  0  0  0  0  0
   -0.3366  -52.0087  -15.5151 O   0  0  0  0  0  0  0  0  0  0  0  0
   -0.4092  -51.0814  -16.5300 N   0  0  0  0  0  0  0  0  0  0  0  0
   -0.7192  -49.8849  -16.3027 O   0  0  0  0  0  0  0  0  0  0  0  0
    1.3185  -52.3187  -26.0529 S   0  0  0  0  0  0  0  0  0  0  0  0
    2.4731  -52.9468  -26.8170 O   0  0  0  0  0  0  0  0  0  0  0  0
    1.7026  -50.8833  -25.8002 O   0  0  0  0  0  0  0  0  0  0  0  0
   -0.1403  -52.4074  -26.9900 C   0  0  0  0  0  0  0  0  0  0  0  0
   -1.3819  -52.1322  -26.4464 C   0  0  0  0  0  0  0  0  0  0  0  0
   -2.5445  -52.2028  -27.1917 C   0  0  0  0  0  0  0  0  0  0  0  0
   -2.5007  -52.5562  -28.5241 C   0  0  0  0  0  0  0  0  0  0  0  0
   -1.2677  -52.8327  -29.0761 C   0  0  0  0  0  0  0  0  0  0  0  0
   -0.1006  -52.7605  -28.3227 C   0  0  0  0  0  0  0  0  0  0  0  0
 13 14  1  0  0  0
 14 15  2  0  0  0
 14  7  1  0  0  0
  7  8  2  0  0  0
  8  9  1  0  0  0
  9 10  2  0  0  0
 10 11  1  0  0  0
 11 12  2  0  0  0
 10  1  1  0  0  0
  1  2  1  0  0  0
  2  3  1  0  0  0
  3  4  1  0  0  0
  4  5  1  0  0  0
  5  6  1  0  0  0
  4 16  1  0  0  0
 16 17  2  0  0  0
 16 18  2  0  0  0
 16 19  1  0  0  0
 19 20  2  0  0  0
 20 21  1  0  0  0
 21 22  2  0  0  0
 22 23  1  0  0  0
 23 24  2  0  0  0
 12  7  1  0  0  0
  6  1  1  0  0  0
 24 19  1  0  0  0
M  CHG 1  13  -1
M  CHG 1  14   1
M  END
> <minimizedAffinity>
-7.86058

> <CNNscore>
0.4021167457

> <CNNaffinity>
5.8086729050

> <CNN_VS>
2.3357646465

> <CNNaffinity_variance>
0.0389825292

$$$$
[H]c1c([H])c([H])c(S(=O)(=O)N2C([H])([H])C([H])([H])N(c3c([H])c([H])c([N+](=O)[O-])c([H])c3[H])C([H])([H])C2([H])[H])c([H])c1[H]


 24 26  0  0  0  0  0  0  0  0999 V2000
    0.9681  -51.6763  -22.2112 N   0  0  0  0  0  0  0  0  0  0  0  0
    2.2073  -51.2071  -22.7953 C   0  0  0  0  0  0  0  0  0  0  0  0
    2.5467  -52.1781  -23.9374 C   0  0  0  0  0  0  0  0  0  0  0  0
    1.6246  -51.9236  -24.9947 N   0  0  0  0  0  0  0  0  0  0  0  0
    0.2918  -51.6419  -24.5377 C   0  0  0  0  0  0  0  0  0  0  0  0
    0.0082  -52.2455  -23.1694 C   0  0  0  0  0  0  0  0  0  0  0  0
    0.0183  -51.5208  -18.1665 C   0  0  0  0  0  0  0  0  0  0  0  0
   -0.3614  -52.6213  -18.8974 C   0  0  0  0  0  0  0  0  0  0  0  0
   -0.0297  -52.6422  -20.2357 C   0  0  0  0  0  0  0  0  0  0  0  0
    0.6555  -51.6110  -20.8382 C   0  0  0  0  0  0  0  0  0  0  0  0
    1.0306  -50.5162  -20.1012 C   0  0  0  0  0  0  0  0  0  0  0  0
    0.7049  -50.4735  -18.7423 C   0  0  0  0  0  0  0  0  0  0  0  0
   -1.5031  -51.9759  -16.3310 O   0  0  0  0  0  0  0  0  0  0  0  0
   -0.3078  -51.4712  -16.7910 N   0  0  0  0  0  0  0  0  0  0  0  0
    0.5284  -50.9530  -16.0090 O   0  0  0  0  0  0  0  0  0  0  0  0
    1.6016  -53.1293  -26.2121 S   0  0  0  0  0  0  0  0  0  0  0  0
    1.4585  -54.4691  -25.5080 O   0  0  0  0  0  0  0  0  0  0  0  0
    2.9367  -53.1532  -26.9110 O   0  0  0  0  0  0  0  0  0  0  0  0
    0.3141  -52.9120  -27.3563 C   0  0  0  0  0  0  0  0  0  0  0  0
    0.5267  -52.9641  -28.7219 C   0  0  0  0  0  0  0  0  0  0  0  0
   -0.4979  -52.7909  -29.6341 C   0  0  0  0  0  0  0  0  0  0  0  0
   -1.7866  -52.5566  -29.2023 C   0  0  0  0  0  0  0  0  0  0  0  0
   -2.0096  -52.5027  -27.8426 C   0  0  0  0  0  0  0  0  0  0  0  0
   -0.9760  -52.6774  -26.9284 C   0  0  0  0  0  0  0  0  0  0  0  0
 13 14  1  0  0  0
 14 15  2  0  0  0
 14  7  1  0  0  0
  7  8  2  0  0  0
  8  9  1  0  0  0
  9 10  2  0  0  0
 10 11  1  0  0  0
 11 12  2  0  0  0
 10  1  1  0  0  0
  1  2  1  0  0  0
  2  3  1  0  0  0
  3  4  1  0  0  0
  4  5  1  0  0  0
  5  6  1  0  0  0
  4 16  1  0  0  0
 16 17  2  0  0  0
 16 18  2  0  0  0
 16 19  1  0  0  0
 19 20  2  0  0  0
 20 21  1  0  0  0
 21 22  2  0  0  0
 22 23  1  0  0  0
 23 24  2  0  0  0
 12  7  1  0  0  0
  6  1  1  0  0  0
 24 19  1  0  0  0
M  CHG 1  13  -1
M  CHG 1  14   1
M  END
> <minimizedAffinity>
-7.43339

> <CNNscore>
0.2068439126

> <CNNaffinity>
5.5610318184

> <CNN_VS>
1.1502655745

> <CNNaffinity_variance>
0.0979103222

$$$$
[H]c1c([H])c([H])c(S(=O)(=O)N2C([H])([H])C([H])([H])N(c3c([H])c([H])c([N+](=O)[O-])c([H])c3[H])C([H])([H])C2([H])[H])c([H])c1[H]


 24 26  0  0  0  0  0  0  0  0999 V2000
    1.5297  -52.0578  -21.7325 N   0  0  0  0  0  0  0  0  0  0  0  0
    0.4873  -52.9077  -22.2692 C   0  0  0  0  0  0  0  0  0  0  0  0
    0.2123  -52.4119  -23.6979 C   0  0  0  0  0  0  0  0  0  0  0  0
    1.3273  -52.7961  -24.4991 N   0  0  0  0  0  0  0  0  0  0  0  0
    2.5893  -52.6683  -23.8243 C   0  0  0  0  0  0  0  0  0  0  0  0
    2.5475  -51.6355  -22.7068 C   0  0  0  0  0  0  0  0  0  0  0  0
    1.7220  -50.8258  -17.7663 C   0  0  0  0  0  0  0  0  0  0  0  0
    0.4902  -51.0379  -18.3383 C   0  0  0  0  0  0  0  0  0  0  0  0
    0.4614  -51.4474  -19.6546 C   0  0  0  0  0  0  0  0  0  0  0  0
    1.6105  -51.6427  -20.3878 C   0  0  0  0  0  0  0  0  0  0  0  0
    2.8360  -51.4287  -19.8090 C   0  0  0  0  0  0  0  0  0  0  0  0
    2.8891  -51.0131  -18.4752 C   0  0  0  0  0  0  0  0  0  0  0  0
    2.3464  -49.1956  -16.0801 O   0  0  0  0  0  0  0  0  0  0  0  0
    1.7831  -50.4056  -16.4170 N   0  0  0  0  0  0  0  0  0  0  0  0
    1.3071  -51.1724  -15.5425 O   0  0  0  0  0  0  0  0  0  0  0  0
    1.3850  -52.0355  -26.0335 S   0  0  0  0  0  0  0  0  0  0  0  0
    2.5670  -52.6318  -26.7809 O   0  0  0  0  0  0  0  0  0  0  0  0
    1.6896  -50.5709  -25.8492 O   0  0  0  0  0  0  0  0  0  0  0  0
   -0.0739  -52.2480  -26.9501 C   0  0  0  0  0  0  0  0  0  0  0  0
   -0.0604  -52.6665  -28.2682 C   0  0  0  0  0  0  0  0  0  0  0  0
   -1.2219  -52.8358  -28.9993 C   0  0  0  0  0  0  0  0  0  0  0  0
   -2.4516  -52.5880  -28.4261 C   0  0  0  0  0  0  0  0  0  0  0  0
   -2.4763  -52.1704  -27.1121 C   0  0  0  0  0  0  0  0  0  0  0  0
   -1.3056  -52.0012  -26.3803 C   0  0  0  0  0  0  0  0  0  0  0  0
 13 14  1  0  0  0
 14 15  2  0  0  0
 14  7  1  0  0  0
  7  8  2  0  0  0
  8  9  1  0  0  0
  9 10  2  0  0  0
 10 11  1  0  0  0
 11 12  2  0  0  0
 10  1  1  0  0  0
  1  2  1  0  0  0
  2  3  1  0  0  0
  3  4  1  0  0  0
  4  5  1  0  0  0
  5  6  1  0  0  0
  4 16  1  0  0  0
 16 17  2  0  0  0
 16 18  2  0  0  0
 16 19  1  0  0  0
 19 20  2  0  0  0
 20 21  1  0  0  0
 21 22  2  0  0  0
 22 23  1  0  0  0
 23 24  2  0  0  0
 12  7  1  0  0  0
  6  1  1  0  0  0
 24 19  1  0  0  0
M  CHG 1  13  -1
M  CHG 1  14   1
M  END
> <minimizedAffinity>
-7.18233

> <CNNscore>
0.1796846688

> <CNNaffinity>
5.4879522324

> <CNN_VS>
0.9861008525

> <CNNaffinity_variance>
0.0426112600

$$$$
[H]c1c([H])c([H])c(S(=O)(=O)N2C([H])([H])C([H])([H])N(c3c([H])c([H])c([N+](=O)[O-])c([H])c3[H])C([H])([H])C2([H])[H])c([H])c1[H]


 24 26  0  0  0  0  0  0  0  0999 V2000
    2.2523  -51.0975  -22.3520 N   0  0  0  0  0  0  0  0  0  0  0  0
    2.8179  -50.2483  -23.3797 C   0  0  0  0  0  0  0  0  0  0  0  0
    3.0094  -51.1341  -24.6212 C   0  0  0  0  0  0  0  0  0  0  0  0
    1.7138  -51.3959  -25.1558 N   0  0  0  0  0  0  0  0  0  0  0  0
    0.7118  -51.6143  -24.1494 C   0  0  0  0  0  0  0  0  0  0  0  0
    1.3049  -52.1118  -22.8389 C   0  0  0  0  0  0  0  0  0  0  0  0
    3.1751  -50.7917  -18.3096 C   0  0  0  0  0  0  0  0  0  0  0  0
    4.0903  -50.3520  -19.2363 C   0  0  0  0  0  0  0  0  0  0  0  0
    3.7527  -50.4662  -20.5684 C   0  0  0  0  0  0  0  0  0  0  0  0
    2.5502  -50.9975  -20.9779 C   0  0  0  0  0  0  0  0  0  0  0  0
    1.6425  -51.4341  -20.0462 C   0  0  0  0  0  0  0  0  0  0  0  0
    1.9636  -51.3279  -18.6897 C   0  0  0  0  0  0  0  0  0  0  0  0
    4.1456  -51.7087  -16.2828 O   0  0  0  0  0  0  0  0  0  0  0  0
    3.4934  -50.6870  -16.9354 N   0  0  0  0  0  0  0  0  0  0  0  0
    3.1613  -49.6338  -16.3357 O   0  0  0  0  0  0  0  0  0  0  0  0
    1.6762  -52.6481  -26.3248 S   0  0  0  0  0  0  0  0  0  0  0  0
    1.7996  -53.9630  -25.5717 O   0  0  0  0  0  0  0  0  0  0  0  0
    2.8960  -52.5420  -27.2039 O   0  0  0  0  0  0  0  0  0  0  0  0
    0.2278  -52.6380  -27.2818 C   0  0  0  0  0  0  0  0  0  0  0  0
   -1.0212  -52.4331  -26.7242 C   0  0  0  0  0  0  0  0  0  0  0  0
   -2.1755  -52.4251  -27.4855 C   0  0  0  0  0  0  0  0  0  0  0  0
   -2.1156  -52.6249  -28.8489 C   0  0  0  0  0  0  0  0  0  0  0  0
   -0.8751  -52.8301  -29.4150 C   0  0  0  0  0  0  0  0  0  0  0  0
    0.2836  -52.8374  -28.6455 C   0  0  0  0  0  0  0  0  0  0  0  0
 13 14  1  0  0  0
 14 15  2  0  0  0
 14  7  1  0  0  0
  7  8  2  0  0  0
  8  9  1  0  0  0
  9 10  2  0  0  0
 10 11  1  0  0  0
 11 12  2  0  0  0
 10  1  1  0  0  0
  1  2  1  0  0  0
  2  3  1  0  0  0
  3  4  1  0  0  0
  4  5  1  0  0  0
  5  6  1  0  0  0
  4 16  1  0  0  0
 16 17  2  0  0  0
 16 18  2  0  0  0
 16 19  1  0  0  0
 19 20  2  0  0  0
 20 21  1  0  0  0
 21 22  2  0  0  0
 22 23  1  0  0  0
 23 24  2  0  0  0
 12  7  1  0  0  0
  6  1  1  0  0  0
 24 19  1  0  0  0
M  CHG 1  13  -1
M  CHG 1  14   1
M  END
> <minimizedAffinity>
-7.10944

> <CNNscore>
0.1577536315

> <CNNaffinity>
5.3093996048

> <CNN_VS>
0.8375770450

> <CNNaffinity_variance>
0.0867052227

$$$$
[H]c1c([H])c([H])c(S(=O)(=O)N2C([H])([H])C([H])([H])N(c3c([H])c([H])c([N+](=O)[O-])c([H])c3[H])C([H])([H])C2([H])[H])c([H])c1[H]


 24 26  0  0  0  0  0  0  0  0999 V2000
    1.0879  -51.7410  -21.6511 N   0  0  0  0  0  0  0  0  0  0  0  0
    1.1206  -50.8148  -22.7639 C   0  0  0  0  0  0  0  0  0  0  0  0
    1.3152  -51.6621  -24.0314 C   0  0  0  0  0  0  0  0  0  0  0  0
    0.0881  -52.3469  -24.2728 N   0  0  0  0  0  0  0  0  0  0  0  0
   -0.5532  -52.8137  -23.0748 C   0  0  0  0  0  0  0  0  0  0  0  0
    0.4325  -53.0268  -21.9346 C   0  0  0  0  0  0  0  0  0  0  0  0
    2.6270  -50.9495  -17.8708 C   0  0  0  0  0  0  0  0  0  0  0  0
    1.2636  -50.9579  -18.0459 C   0  0  0  0  0  0  0  0  0  0  0  0
    0.7858  -51.2253  -19.3114 C   0  0  0  0  0  0  0  0  0  0  0  0
    1.6240  -51.4770  -20.3744 C   0  0  0  0  0  0  0  0  0  0  0  0
    2.9837  -51.4667  -20.1908 C   0  0  0  0  0  0  0  0  0  0  0  0
    3.4906  -51.1979  -18.9158 C   0  0  0  0  0  0  0  0  0  0  0  0
    4.0289  -51.5474  -15.9819 O   0  0  0  0  0  0  0  0  0  0  0  0
    3.1466  -50.6787  -16.5834 N   0  0  0  0  0  0  0  0  0  0  0  0
    2.7757  -49.6225  -16.0122 O   0  0  0  0  0  0  0  0  0  0  0  0
    0.2034  -53.6096  -25.4254 S   0  0  0  0  0  0  0  0  0  0  0  0
   -0.5623  -54.7963  -24.8626 O   0  0  0  0  0  0  0  0  0  0  0  0
    1.6419  -54.0444  -25.5418 O   0  0  0  0  0  0  0  0  0  0  0  0
   -0.4314  -53.1680  -26.9797 C   0  0  0  0  0  0  0  0  0  0  0  0
    0.3389  -53.2083  -28.1277 C   0  0  0  0  0  0  0  0  0  0  0  0
   -0.1657  -52.8564  -29.3661 C   0  0  0  0  0  0  0  0  0  0  0  0
   -1.4763  -52.4472  -29.4968 C   0  0  0  0  0  0  0  0  0  0  0  0
   -2.2532  -52.4036  -28.3584 C   0  0  0  0  0  0  0  0  0  0  0  0
   -1.7415  -52.7583  -27.1145 C   0  0  0  0  0  0  0  0  0  0  0  0
 13 14  1  0  0  0
 14 15  2  0  0  0
 14  7  1  0  0  0
  7  8  2  0  0  0
  8  9  1  0  0  0
  9 10  2  0  0  0
 10 11  1  0  0  0
 11 12  2  0  0  0
 10  1  1  0  0  0
  1  2  1  0  0  0
  2  3  1  0  0  0
  3  4  1  0  0  0
  4  5  1  0  0  0
  5  6  1  0  0  0
  4 16  1  0  0  0
 16 17  2  0  0  0
 16 18  2  0  0  0
 16 19  1  0  0  0
 19 20  2  0  0  0
 20 21  1  0  0  0
 21 22  2  0  0  0
 22 23  1  0  0  0
 23 24  2  0  0  0
 12  7  1  0  0  0
  6  1  1  0  0  0
 24 19  1  0  0  0
M  CHG 1  13  -1
M  CHG 1  14   1
M  END
> <minimizedAffinity>
-7.38720

> <CNNscore>
0.1338923126

> <CNNaffinity>
5.3745260239

> <CNN_VS>
0.7196077108

> <CNNaffinity_variance>
0.0872513503

$$$$
[H]c1c([H])c([H])c(S(=O)(=O)N2C([H])([H])C([H])([H])N(c3c([H])c([H])c([N+](=O)[O-])c([H])c3[H])C([H])([H])C2([H])[H])c([H])c1[H]


 24 26  0  0  0  0  0  0  0  0999 V2000
    2.9430  -49.0690  -23.0301 N   0  0  0  0  0  0  0  0  0  0  0  0
    2.0325  -48.3451  -22.1676 C   0  0  0  0  0  0  0  0  0  0  0  0
    1.3776  -49.3895  -21.2495 C   0  0  0  0  0  0  0  0  0  0  0  0
    2.3702  -49.8123  -20.3173 N   0  0  0  0  0  0  0  0  0  0  0  0
    3.6791  -49.9458  -20.8946 C   0  0  0  0  0  0  0  0  0  0  0  0
    3.6281  -50.2044  -22.3938 C   0  0  0  0  0  0  0  0  0  0  0  0
    3.6833  -48.1675  -27.0208 C   0  0  0  0  0  0  0  0  0  0  0  0
    3.4904  -49.4798  -26.6596 C   0  0  0  0  0  0  0  0  0  0  0  0
    3.2456  -49.7445  -25.3287 C   0  0  0  0  0  0  0  0  0  0  0  0
    3.1920  -48.7480  -24.3799 C   0  0  0  0  0  0  0  0  0  0  0  0
    3.3858  -47.4408  -24.7491 C   0  0  0  0  0  0  0  0  0  0  0  0
    3.6355  -47.1490  -26.0934 C   0  0  0  0  0  0  0  0  0  0  0  0
    4.5305  -48.7893  -29.2086 O   0  0  0  0  0  0  0  0  0  0  0  0
    3.9361  -47.8652  -28.3792 N   0  0  0  0  0  0  0  0  0  0  0  0
    3.6003  -46.7292  -28.7989 O   0  0  0  0  0  0  0  0  0  0  0  0
    1.9529  -51.2229  -19.4385 S   0  0  0  0  0  0  0  0  0  0  0  0
    1.3634  -50.7635  -18.1145 O   0  0  0  0  0  0  0  0  0  0  0  0
    3.2077  -51.9887  -19.1059 O   0  0  0  0  0  0  0  0  0  0  0  0
    0.8214  -52.2354  -20.2803 C   0  0  0  0  0  0  0  0  0  0  0  0
    1.0132  -52.6180  -21.5954 C   0  0  0  0  0  0  0  0  0  0  0  0
    0.1125  -53.4241  -22.2669 C   0  0  0  0  0  0  0  0  0  0  0  0
   -1.0253  -53.8796  -21.6343 C   0  0  0  0  0  0  0  0  0  0  0  0
   -1.2261  -53.5041  -20.3228 C   0  0  0  0  0  0  0  0  0  0  0  0
   -0.3175  -52.6929  -19.6510 C   0  0  0  0  0  0  0  0  0  0  0  0
 13 14  1  0  0  0
 14 15  2  0  0  0
 14  7  1  0  0  0
  7  8  2  0  0  0
  8  9  1  0  0  0
  9 10  2  0  0  0
 10 11  1  0  0  0
 11 12  2  0  0  0
 10  1  1  0  0  0
  1  2  1  0  0  0
  2  3  1  0  0  0
  3  4  1  0  0  0
  4  5  1  0  0  0
  5  6  1  0  0  0
  4 16  1  0  0  0
 16 17  2  0  0  0
 16 18  2  0  0  0
 16 19  1  0  0  0
 19 20  2  0  0  0
 20 21  1  0  0  0
 21 22  2  0  0  0
 22 23  1  0  0  0
 23 24  2  0  0  0
 12  7  1  0  0  0
  6  1  1  0  0  0
 24 19  1  0  0  0
M  CHG 1  13  -1
M  CHG 1  14   1
M  END
> <minimizedAffinity>
-6.33297

> <CNNscore>
0.1304238141

> <CNNaffinity>
4.9665570259

> <CNN_VS>
0.6477572918

> <CNNaffinity_variance>
0.2456756532

$$$$
[H]c1c([H])c([H])c(S(=O)(=O)N2C([H])([H])C([H])([H])N(c3c([H])c([H])c([N+](=O)[O-])c([H])c3[H])C([H])([H])C2([H])[H])c([H])c1[H]


 24 26  0  0  0  0  0  0  0  0999 V2000
    1.9416  -51.0515  -23.5280 N   0  0  0  0  0  0  0  0  0  0  0  0
    1.5953  -52.0868  -22.5766 C   0  0  0  0  0  0  0  0  0  0  0  0
    0.3604  -52.8052  -23.1435 C   0  0  0  0  0  0  0  0  0  0  0  0
    0.7987  -53.5821  -24.2559 N   0  0  0  0  0  0  0  0  0  0  0  0
    1.7949  -52.9257  -25.0566 C   0  0  0  0  0  0  0  0  0  0  0  0
    1.7274  -51.4096  -24.9384 C   0  0  0  0  0  0  0  0  0  0  0  0
    3.4805  -47.3186  -22.5365 C   0  0  0  0  0  0  0  0  0  0  0  0
    3.9460  -47.9522  -23.6641 C   0  0  0  0  0  0  0  0  0  0  0  0
    3.4139  -49.1880  -23.9655 C   0  0  0  0  0  0  0  0  0  0  0  0
    2.4520  -49.7841  -23.1810 C   0  0  0  0  0  0  0  0  0  0  0  0
    1.9931  -49.1447  -22.0571 C   0  0  0  0  0  0  0  0  0  0  0  0
    2.5185  -47.8905  -21.7322 C   0  0  0  0  0  0  0  0  0  0  0  0
    4.8102  -45.3638  -23.0858 O   0  0  0  0  0  0  0  0  0  0  0  0
    4.0075  -46.0492  -22.2020 N   0  0  0  0  0  0  0  0  0  0  0  0
    3.7180  -45.5730  -21.0757 O   0  0  0  0  0  0  0  0  0  0  0  0
   -0.4709  -54.1761  -25.2415 S   0  0  0  0  0  0  0  0  0  0  0  0
   -1.7752  -53.7088  -24.6157 O   0  0  0  0  0  0  0  0  0  0  0  0
   -0.4821  -55.6821  -25.1808 O   0  0  0  0  0  0  0  0  0  0  0  0
   -0.3642  -53.6294  -26.8858 C   0  0  0  0  0  0  0  0  0  0  0  0
   -1.2514  -52.7095  -27.4145 C   0  0  0  0  0  0  0  0  0  0  0  0
   -1.1676  -52.2736  -28.7241 C   0  0  0  0  0  0  0  0  0  0  0  0
   -0.1787  -52.7515  -29.5583 C   0  0  0  0  0  0  0  0  0  0  0  0
    0.7113  -53.6691  -29.0412 C   0  0  0  0  0  0  0  0  0  0  0  0
    0.6233  -54.1050  -27.7232 C   0  0  0  0  0  0  0  0  0  0  0  0
 13 14  1  0  0  0
 14 15  2  0  0  0
 14  7  1  0  0  0
  7  8  2  0  0  0
  8  9  1  0  0  0
  9 10  2  0  0  0
 10 11  1  0  0  0
 11 12  2  0  0  0
 10  1  1  0  0  0
  1  2  1  0  0  0
  2  3  1  0  0  0
  3  4  1  0  0  0
  4  5  1  0  0  0
  5  6  1  0  0  0
  4 16  1  0  0  0
 16 17  2  0  0  0
 16 18  2  0  0  0
 16 19  1  0  0  0
 19 20  2  0  0  0
 20 21  1  0  0  0
 21 22  2  0  0  0
 22 23  1  0  0  0
 23 24  2  0  0  0
 12  7  1  0  0  0
  6  1  1  0  0  0
 24 19  1  0  0  0
M  CHG 1  13  -1
M  CHG 1  14   1
M  END
> <minimizedAffinity>
-6.09808

> <CNNscore>
0.1186489165

> <CNNaffinity>
5.4008407593

> <CNN_VS>
0.6408039331

> <CNNaffinity_variance>
0.0776179731

$$$$
[H]c1c([H])c([H])c(S(=O)(=O)N2C([H])([H])C([H])([H])N(c3c([H])c([H])c([N+](=O)[O-])c([H])c3[H])C([H])([H])C2([H])[H])c([H])c1[H]


 24 26  0  0  0  0  0  0  0  0999 V2000
   -0.0140  -52.6548  -23.6991 N   0  0  0  0  0  0  0  0  0  0  0  0
    0.6173  -53.6885  -22.9054 C   0  0  0  0  0  0  0  0  0  0  0  0
    1.4593  -52.9679  -21.8403 C   0  0  0  0  0  0  0  0  0  0  0  0
    0.5517  -52.4045  -20.8960 N   0  0  0  0  0  0  0  0  0  0  0  0
   -0.6361  -51.8621  -21.4956 C   0  0  0  0  0  0  0  0  0  0  0  0
   -0.4202  -51.4578  -22.9471 C   0  0  0  0  0  0  0  0  0  0  0  0
   -0.6627  -52.9321  -27.7965 C   0  0  0  0  0  0  0  0  0  0  0  0
    0.4113  -53.5908  -27.2466 C   0  0  0  0  0  0  0  0  0  0  0  0
    0.5973  -53.4796  -25.8848 C   0  0  0  0  0  0  0  0  0  0  0  0
   -0.2481  -52.7421  -25.0864 C   0  0  0  0  0  0  0  0  0  0  0  0
   -1.3177  -52.0878  -25.6436 C   0  0  0  0  0  0  0  0  0  0  0  0
   -1.5256  -52.1865  -27.0225 C   0  0  0  0  0  0  0  0  0  0  0  0
   -2.0873  -53.4612  -29.6889 O   0  0  0  0  0  0  0  0  0  0  0  0
   -0.8791  -53.0280  -29.1910 N   0  0  0  0  0  0  0  0  0  0  0  0
    0.0658  -52.7053  -29.9541 O   0  0  0  0  0  0  0  0  0  0  0  0
    1.2629  -51.2657  -19.8314 S   0  0  0  0  0  0  0  0  0  0  0  0
    2.3431  -51.9994  -19.0528 O   0  0  0  0  0  0  0  0  0  0  0  0
    0.2349  -50.8213  -18.8226 O   0  0  0  0  0  0  0  0  0  0  0  0
    1.9423  -49.8984  -20.6577 C   0  0  0  0  0  0  0  0  0  0  0  0
    3.2757  -49.8464  -21.0213 C   0  0  0  0  0  0  0  0  0  0  0  0
    3.8180  -48.7578  -21.6792 C   0  0  0  0  0  0  0  0  0  0  0  0
    3.0315  -47.6707  -21.9988 C   0  0  0  0  0  0  0  0  0  0  0  0
    1.7005  -47.7123  -21.6408 C   0  0  0  0  0  0  0  0  0  0  0  0
    1.1591  -48.8095  -20.9790 C   0  0  0  0  0  0  0  0  0  0  0  0
 13 14  1  0  0  0
 14 15  2  0  0  0
 14  7  1  0  0  0
  7  8  2  0  0  0
  8  9  1  0  0  0
  9 10  2  0  0  0
 10 11  1  0  0  0
 11 12  2  0  0  0
 10  1  1  0  0  0
  1  2  1  0  0  0
  2  3  1  0  0  0
  3  4  1  0  0  0
  4  5  1  0  0  0
  5  6  1  0  0  0
  4 16  1  0  0  0
 16 17  2  0  0  0
 16 18  2  0  0  0
 16 19  1  0  0  0
 19 20  2  0  0  0
 20 21  1  0  0  0
 21 22  2  0  0  0
 22 23  1  0  0  0
 23 24  2  0  0  0
 12  7  1  0  0  0
  6  1  1  0  0  0
 24 19  1  0  0  0
M  CHG 1  13  -1
M  CHG 1  14   1
M  END
> <minimizedAffinity>
-5.59939

> <CNNscore>
0.1177993566

> <CNNaffinity>
5.6863307953

> <CNN_VS>
0.6698461175

> <CNNaffinity_variance>
0.1007291302

$$$$
[H]c1c([H])c([H])c(S(=O)(=O)N2C([H])([H])C([H])([H])N(c3c([H])c([H])c([N+](=O)[O-])c([H])c3[H])C([H])([H])C2([H])[H])c([H])c1[H]


 24 26  0  0  0  0  0  0  0  0999 V2000
    0.5670  -51.6820  -23.0738 N   0  0  0  0  0  0  0  0  0  0  0  0
   -0.4985  -52.1585  -22.2166 C   0  0  0  0  0  0  0  0  0  0  0  0
    0.0782  -52.2133  -20.7929 C   0  0  0  0  0  0  0  0  0  0  0  0
    0.2188  -50.8675  -20.3434 N   0  0  0  0  0  0  0  0  0  0  0  0
    0.6682  -49.9651  -21.3671 C   0  0  0  0  0  0  0  0  0  0  0  0
    1.4489  -50.6750  -22.4641 C   0  0  0  0  0  0  0  0  0  0  0  0
    1.1566  -52.9544  -26.9878 C   0  0  0  0  0  0  0  0  0  0  0  0
   -0.0769  -52.4683  -26.6247 C   0  0  0  0  0  0  0  0  0  0  0  0
   -0.2388  -52.0533  -25.3197 C   0  0  0  0  0  0  0  0  0  0  0  0
    0.7824  -52.1143  -24.3981 C   0  0  0  0  0  0  0  0  0  0  0  0
    2.0105  -52.6009  -24.7691 C   0  0  0  0  0  0  0  0  0  0  0  0
    2.1974  -53.0274  -26.0873 C   0  0  0  0  0  0  0  0  0  0  0  0
    2.3019  -54.3381  -28.6201 O   0  0  0  0  0  0  0  0  0  0  0  0
    1.3527  -53.3873  -28.3201 N   0  0  0  0  0  0  0  0  0  0  0  0
    0.6331  -52.8756  -29.2143 O   0  0  0  0  0  0  0  0  0  0  0  0
    1.1702  -50.6953  -18.9287 S   0  0  0  0  0  0  0  0  0  0  0  0
    2.0255  -49.4526  -19.1169 O   0  0  0  0  0  0  0  0  0  0  0  0
    2.1225  -51.8592  -18.8274 O   0  0  0  0  0  0  0  0  0  0  0  0
    0.2172  -50.5552  -17.4844 C   0  0  0  0  0  0  0  0  0  0  0  0
   -0.5986  -51.5793  -17.0388 C   0  0  0  0  0  0  0  0  0  0  0  0
   -1.3583  -51.4686  -15.8887 C   0  0  0  0  0  0  0  0  0  0  0  0
   -1.3252  -50.3126  -15.1371 C   0  0  0  0  0  0  0  0  0  0  0  0
   -0.5150  -49.2853  -15.5725 C   0  0  0  0  0  0  0  0  0  0  0  0
    0.2476  -49.4008  -16.7301 C   0  0  0  0  0  0  0  0  0  0  0  0
 13 14  1  0  0  0
 14 15  2  0  0  0
 14  7  1  0  0  0
  7  8  2  0  0  0
  8  9  1  0  0  0
  9 10  2  0  0  0
 10 11  1  0  0  0
 11 12  2  0  0  0
 10  1  1  0  0  0
  1  2  1  0  0  0
  2  3  1  0  0  0
  3  4  1  0  0  0
  4  5  1  0  0  0
  5  6  1  0  0  0
  4 16  1  0  0  0
 16 17  2  0  0  0
 16 18  2  0  0  0
 16 19  1  0  0  0
 19 20  2  0  0  0
 20 21  1  0  0  0
 21 22  2  0  0  0
 22 23  1  0  0  0
 23 24  2  0  0  0
 12  7  1  0  0  0
  6  1  1  0  0  0
 24 19  1  0  0  0
M  CHG 1  13  -1
M  CHG 1  14   1
M  END
> <minimizedAffinity>
-7.43273

> <CNNscore>
0.1175173894

> <CNNaffinity>
5.2464499474

> <CNN_VS>
0.6165490746

> <CNNaffinity_variance>
0.0858348832

$$$$
[H]OC([H])([H])C([H])(n1nc([H])c(-c2c([H])c(OC([H])([H])[H])c([H])c3c2-c2c([H])c([H])c([H])c([H])c2C3(O[H])C(F)(F)F)c1[H])C([H])([H])O[H]


 33 36  0  0  0  0  0  0  0  0999 V2000
   -0.4941  -53.1412  -22.3040 C   0  0  0  0  0  0  0  0  0  0  0  0
   -0.1393  -53.3043  -23.5941 C   0  0  0  0  0  0  0  0  0  0  0  0
    0.7488  -52.4319  -24.2407 C   0  0  0  0  0  0  0  0  0  0  0  0
    1.2821  -51.3694  -23.5411 C   0  0  0  0  0  0  0  0  0  0  0  0
    2.1557  -50.6252  -24.4515 C   0  0  0  0  0  0  0  0  0  0  0  0
    2.9065  -49.4832  -24.2378 C   0  0  0  0  0  0  0  0  0  0  0  0
    3.6543  -48.9724  -25.2967 C   0  0  0  0  0  0  0  0  0  0  0  0
    3.6743  -49.5513  -26.5302 C   0  0  0  0  0  0  0  0  0  0  0  0
    2.9155  -50.6826  -26.7026 C   0  0  0  0  0  0  0  0  0  0  0  0
    2.1422  -51.2479  -25.6829 C   0  0  0  0  0  0  0  0  0  0  0  0
    1.2664  -52.4056  -25.6077 C   0  0  0  0  0  0  0  0  0  0  0  0
    2.0116  -53.5703  -25.7914 O   0  0  0  0  0  0  0  0  0  0  0  0
    0.9389  -51.1752  -22.2130 C   0  0  0  0  0  0  0  0  0  0  0  0
    0.0385  -52.0865  -21.6161 C   0  0  0  0  0  0  0  0  0  0  0  0
    2.9194  -53.3453  -26.0631 H   0  0  0  0  0  0  0  0  0  0  0  0
    1.4843  -50.1246  -21.3757 C   0  0  0  0  0  0  0  0  0  0  0  0
    0.9173  -48.8946  -21.1654 C   0  0  0  0  0  0  0  0  0  0  0  0
    1.7174  -48.2535  -20.2662 N   0  0  0  0  0  0  0  0  0  0  0  0
    2.7312  -49.0083  -19.9152 N   0  0  0  0  0  0  0  0  0  0  0  0
    2.6137  -50.1729  -20.5860 C   0  0  0  0  0  0  0  0  0  0  0  0
    3.7578  -48.6059  -18.9727 C   0  0  0  0  0  0  0  0  0  0  0  0
    3.4387  -49.1072  -17.5805 C   0  0  0  0  0  0  0  0  0  0  0  0
    4.1188  -50.2840  -17.2848 O   0  0  0  0  0  0  0  0  0  0  0  0
    4.1419  -50.3373  -16.2834 H   0  0  0  0  0  0  0  0  0  0  0  0
    5.0703  -49.2161  -19.4016 C   0  0  0  0  0  0  0  0  0  0  0  0
    6.1284  -48.7586  -18.6403 O   0  0  0  0  0  0  0  0  0  0  0  0
    6.0025  -47.8270  -18.3178 H   0  0  0  0  0  0  0  0  0  0  0  0
    0.1668  -52.3910  -26.6503 C   0  0  0  0  0  0  0  0  0  0  0  0
    0.6454  -52.2088  -27.9148 F   0  0  0  0  0  0  0  0  0  0  0  0
   -0.5205  -53.5988  -26.5273 F   0  0  0  0  0  0  0  0  0  0  0  0
   -0.7317  -51.4140  -26.3066 F   0  0  0  0  0  0  0  0  0  0  0  0
   -1.7517  -53.7764  -20.2784 C   0  0  0  0  0  0  0  0  0  0  0  0
   -1.3676  -53.9677  -21.6081 O   0  0  0  0  0  0  0  0  0  0  0  0
 32 33  1  0  0  0
 33  1  1  0  0  0
  1  2  2  0  0  0
  2  3  1  0  0  0
  3  4  2  0  0  0
  4  5  1  0  0  0
  5  6  2  0  0  0
  6  7  1  0  0  0
  7  8  2  0  0  0
  8  9  1  0  0  0
  9 10  2  0  0  0
 10 11  1  0  0  0
 11 12  1  0  0  0
 11 28  1  0  0  0
 28 29  1  0  0  0
 28 30  1  0  0  0
 28 31  1  0  0  0
  4 13  1  0  0  0
 13 14  2  0  0  0
 13 16  1  0  0  0
 16 17  1  0  0  0
 17 18  2  0  0  0
 18 19  1  0  0  0
 19 20  1  0  0  0
 19 21  1  0  0  0
 21 22  1  0  0  0
 22 23  1  0  0  0
 21 25  1  0  0  0
 25 26  1  0  0  0
 14  1  1  0  0  0
 20 16  2  0  0  0
 11  3  1  0  0  0
 10  5  1  0  0  0
 12 15  1  0  0  0
 23 24  1  0  0  0
 26 27  1  0  0  0
M  END
> <minimizedAffinity>
-8.05949

> <CNNscore>
0.3989393711

> <CNNaffinity>
6.0783715248

> <CNN_VS>
2.4249017239

> <CNNaffinity_variance>
0.4951548576

$$$$
[H]OC([H])([H])C([H])(n1nc([H])c(-c2c([H])c(OC([H])([H])[H])c([H])c3c2-c2c([H])c([H])c([H])c([H])c2C3(O[H])C(F)(F)F)c1[H])C([H])([H])O[H]


 33 36  0  0  0  0  0  0  0  0999 V2000
    3.7460  -49.2389  -15.6253 C   0  0  0  0  0  0  0  0  0  0  0  0
    3.9413  -49.5580  -16.9202 C   0  0  0  0  0  0  0  0  0  0  0  0
    2.8748  -49.7596  -17.8090 C   0  0  0  0  0  0  0  0  0  0  0  0
    1.5799  -49.6286  -17.3518 C   0  0  0  0  0  0  0  0  0  0  0  0
    0.6778  -49.9023  -18.4730 C   0  0  0  0  0  0  0  0  0  0  0  0
   -0.7045  -49.9118  -18.5279 C   0  0  0  0  0  0  0  0  0  0  0  0
   -1.3186  -50.2175  -19.7407 C   0  0  0  0  0  0  0  0  0  0  0  0
   -0.6135  -50.5072  -20.8703 C   0  0  0  0  0  0  0  0  0  0  0  0
    0.7561  -50.4882  -20.7748 C   0  0  0  0  0  0  0  0  0  0  0  0
    1.4364  -50.1895  -19.5893 C   0  0  0  0  0  0  0  0  0  0  0  0
    2.8421  -50.1108  -19.2277 C   0  0  0  0  0  0  0  0  0  0  0  0
    3.4487  -49.0676  -19.9272 O   0  0  0  0  0  0  0  0  0  0  0  0
    1.3455  -49.2996  -16.0265 C   0  0  0  0  0  0  0  0  0  0  0  0
    2.4602  -49.1100  -15.1786 C   0  0  0  0  0  0  0  0  0  0  0  0
    2.8359  -48.7156  -20.5974 H   0  0  0  0  0  0  0  0  0  0  0  0
    0.0278  -49.0849  -15.4611 C   0  0  0  0  0  0  0  0  0  0  0  0
   -0.5801  -47.8685  -15.2898 C   0  0  0  0  0  0  0  0  0  0  0  0
   -1.8244  -48.1290  -14.7962 N   0  0  0  0  0  0  0  0  0  0  0  0
   -2.0151  -49.4193  -14.6558 N   0  0  0  0  0  0  0  0  0  0  0  0
   -0.8856  -50.0367  -15.0594 C   0  0  0  0  0  0  0  0  0  0  0  0
   -3.2402  -50.0110  -14.1526 C   0  0  0  0  0  0  0  0  0  0  0  0
   -3.7273  -51.1090  -15.0737 C   0  0  0  0  0  0  0  0  0  0  0  0
   -5.1162  -51.1679  -15.1210 O   0  0  0  0  0  0  0  0  0  0  0  0
   -5.3369  -51.6370  -15.9797 H   0  0  0  0  0  0  0  0  0  0  0  0
   -2.9591  -50.6227  -12.8013 C   0  0  0  0  0  0  0  0  0  0  0  0
   -1.7768  -51.3374  -12.7913 O   0  0  0  0  0  0  0  0  0  0  0  0
   -1.5651  -51.7530  -13.6689 H   0  0  0  0  0  0  0  0  0  0  0  0
    3.6095  -51.3809  -19.5346 C   0  0  0  0  0  0  0  0  0  0  0  0
    4.4442  -51.2438  -20.6050 F   0  0  0  0  0  0  0  0  0  0  0  0
    4.3077  -51.7194  -18.3753 F   0  0  0  0  0  0  0  0  0  0  0  0
    2.7013  -52.3892  -19.7307 F   0  0  0  0  0  0  0  0  0  0  0  0
    5.2780  -47.7754  -14.3607 C   0  0  0  0  0  0  0  0  0  0  0  0
    4.7574  -49.0278  -14.6963 O   0  0  0  0  0  0  0  0  0  0  0  0
 32 33  1  0  0  0
 33  1  1  0  0  0
  1  2  2  0  0  0
  2  3  1  0  0  0
  3  4  2  0  0  0
  4  5  1  0  0  0
  5  6  2  0  0  0
  6  7  1  0  0  0
  7  8  2  0  0  0
  8  9  1  0  0  0
  9 10  2  0  0  0
 10 11  1  0  0  0
 11 12  1  0  0  0
 11 28  1  0  0  0
 28 29  1  0  0  0
 28 30  1  0  0  0
 28 31  1  0  0  0
  4 13  1  0  0  0
 13 14  2  0  0  0
 13 16  1  0  0  0
 16 17  1  0  0  0
 17 18  2  0  0  0
 18 19  1  0  0  0
 19 20  1  0  0  0
 19 21  1  0  0  0
 21 22  1  0  0  0
 22 23  1  0  0  0
 21 25  1  0  0  0
 25 26  1  0  0  0
 14  1  1  0  0  0
 20 16  2  0  0  0
 11  3  1  0  0  0
 10  5  1  0  0  0
 12 15  1  0  0  0
 23 24  1  0  0  0
 26 27  1  0  0  0
M  END
> <minimizedAffinity>
4.32721

> <CNNscore>
0.3676228225

> <CNNaffinity>
4.9347548485

> <CNN_VS>
1.8141285181

> <CNNaffinity_variance>
0.7644295692

$$$$
[H]OC([H])([H])C([H])(n1nc([H])c(-c2c([H])c(OC([H])([H])[H])c([H])c3c2-c2c([H])c([H])c([H])c([H])c2C3(O[H])C(F)(F)F)c1[H])C([H])([H])O[H]


 33 36  0  0  0  0  0  0  0  0999 V2000
   -0.4240  -52.9538  -20.9446 C   0  0  0  0  0  0  0  0  0  0  0  0
    0.4267  -52.1054  -20.3337 C   0  0  0  0  0  0  0  0  0  0  0  0
    1.2531  -51.2292  -21.0530 C   0  0  0  0  0  0  0  0  0  0  0  0
    1.1999  -51.2283  -22.4314 C   0  0  0  0  0  0  0  0  0  0  0  0
    2.1639  -50.2383  -22.9176 C   0  0  0  0  0  0  0  0  0  0  0  0
    2.4946  -49.8703  -24.2094 C   0  0  0  0  0  0  0  0  0  0  0  0
    3.4680  -48.8902  -24.3919 C   0  0  0  0  0  0  0  0  0  0  0  0
    4.1051  -48.2828  -23.3516 C   0  0  0  0  0  0  0  0  0  0  0  0
    3.7496  -48.6761  -22.0850 C   0  0  0  0  0  0  0  0  0  0  0  0
    2.7810  -49.6533  -21.8308 C   0  0  0  0  0  0  0  0  0  0  0  0
    2.2393  -50.2420  -20.6172 C   0  0  0  0  0  0  0  0  0  0  0  0
    1.5571  -49.2684  -19.8876 O   0  0  0  0  0  0  0  0  0  0  0  0
    0.3346  -52.0872  -23.0895 C   0  0  0  0  0  0  0  0  0  0  0  0
   -0.4723  -52.9476  -22.3110 C   0  0  0  0  0  0  0  0  0  0  0  0
    1.7103  -48.3902  -20.2798 H   0  0  0  0  0  0  0  0  0  0  0  0
    0.1632  -52.1260  -24.5287 C   0  0  0  0  0  0  0  0  0  0  0  0
   -0.9586  -51.7328  -25.2111 C   0  0  0  0  0  0  0  0  0  0  0  0
   -0.6676  -51.8698  -26.5364 N   0  0  0  0  0  0  0  0  0  0  0  0
    0.5531  -52.3189  -26.7069 N   0  0  0  0  0  0  0  0  0  0  0  0
    1.0922  -52.4869  -25.4818 C   0  0  0  0  0  0  0  0  0  0  0  0
    1.1549  -52.5685  -28.0030 C   0  0  0  0  0  0  0  0  0  0  0  0
    2.3262  -53.5195  -27.8801 C   0  0  0  0  0  0  0  0  0  0  0  0
    2.4626  -54.3222  -29.0079 O   0  0  0  0  0  0  0  0  0  0  0  0
    3.4160  -54.6336  -29.0030 H   0  0  0  0  0  0  0  0  0  0  0  0
    0.1216  -53.2101  -28.8974 C   0  0  0  0  0  0  0  0  0  0  0  0
    0.2122  -52.7601  -30.2004 O   0  0  0  0  0  0  0  0  0  0  0  0
    0.5310  -51.8212  -30.2673 H   0  0  0  0  0  0  0  0  0  0  0  0
    3.3028  -50.8351  -19.7152 C   0  0  0  0  0  0  0  0  0  0  0  0
    4.3181  -49.9613  -19.4565 F   0  0  0  0  0  0  0  0  0  0  0  0
    2.6588  -51.2393  -18.5455 F   0  0  0  0  0  0  0  0  0  0  0  0
    3.7654  -51.9844  -20.3025 F   0  0  0  0  0  0  0  0  0  0  0  0
   -1.8893  -53.5946  -19.0657 C   0  0  0  0  0  0  0  0  0  0  0  0
   -1.2659  -53.8449  -20.2909 O   0  0  0  0  0  0  0  0  0  0  0  0
 32 33  1  0  0  0
 33  1  1  0  0  0
  1  2  2  0  0  0
  2  3  1  0  0  0
  3  4  2  0  0  0
  4  5  1  0  0  0
  5  6  2  0  0  0
  6  7  1  0  0  0
  7  8  2  0  0  0
  8  9  1  0  0  0
  9 10  2  0  0  0
 10 11  1  0  0  0
 11 12  1  0  0  0
 11 28  1  0  0  0
 28 29  1  0  0  0
 28 30  1  0  0  0
 28 31  1  0  0  0
  4 13  1  0  0  0
 13 14  2  0  0  0
 13 16  1  0  0  0
 16 17  1  0  0  0
 17 18  2  0  0  0
 18 19  1  0  0  0
 19 20  1  0  0  0
 19 21  1  0  0  0
 21 22  1  0  0  0
 22 23  1  0  0  0
 21 25  1  0  0  0
 25 26  1  0  0  0
 14  1  1  0  0  0
 20 16  2  0  0  0
 11  3  1  0  0  0
 10  5  1  0  0  0
 12 15  1  0  0  0
 23 24  1  0  0  0
 26 27  1  0  0  0
M  END
> <minimizedAffinity>
-7.50956

> <CNNscore>
0.3675079644

> <CNNaffinity>
6.3246054649

> <CNN_VS>
2.3243429661

> <CNNaffinity_variance>
0.1459454596

$$$$
[H]OC([H])([H])C([H])(n1nc([H])c(-c2c([H])c(OC([H])([H])[H])c([H])c3c2-c2c([H])c([H])c([H])c([H])c2C3(O[H])C(F)(F)F)c1[H])C([H])([H])O[H]


 33 36  0  0  0  0  0  0  0  0999 V2000
   -0.5136  -53.1753  -22.2735 C   0  0  0  0  0  0  0  0  0  0  0  0
   -0.1449  -53.3371  -23.5598 C   0  0  0  0  0  0  0  0  0  0  0  0
    0.7399  -52.4564  -24.1997 C   0  0  0  0  0  0  0  0  0  0  0  0
    1.2552  -51.3868  -23.4972 C   0  0  0  0  0  0  0  0  0  0  0  0
    2.1293  -50.6351  -24.4008 C   0  0  0  0  0  0  0  0  0  0  0  0
    2.8658  -49.4846  -24.1823 C   0  0  0  0  0  0  0  0  0  0  0  0
    3.6181  -48.9679  -25.2351 C   0  0  0  0  0  0  0  0  0  0  0  0
    3.6560  -49.5489  -26.4672 C   0  0  0  0  0  0  0  0  0  0  0  0
    2.9110  -50.6886  -26.6445 C   0  0  0  0  0  0  0  0  0  0  0  0
    2.1342  -51.2603  -25.6310 C   0  0  0  0  0  0  0  0  0  0  0  0
    1.2702  -52.4272  -25.5618 C   0  0  0  0  0  0  0  0  0  0  0  0
    2.0296  -53.5841  -25.7360 O   0  0  0  0  0  0  0  0  0  0  0  0
    0.8972  -51.1938  -22.1728 C   0  0  0  0  0  0  0  0  0  0  0  0
    0.0011  -52.1136  -21.5827 C   0  0  0  0  0  0  0  0  0  0  0  0
    2.9375  -53.3499  -25.9995 H   0  0  0  0  0  0  0  0  0  0  0  0
    1.4234  -50.1358  -21.3326 C   0  0  0  0  0  0  0  0  0  0  0  0
    0.9373  -48.8563  -21.2600 C   0  0  0  0  0  0  0  0  0  0  0  0
    1.6748  -48.2208  -20.3050 N   0  0  0  0  0  0  0  0  0  0  0  0
    2.5753  -49.0251  -19.7921 N   0  0  0  0  0  0  0  0  0  0  0  0
    2.4437  -50.2177  -20.4086 C   0  0  0  0  0  0  0  0  0  0  0  0
    3.5124  -48.6411  -18.7536 C   0  0  0  0  0  0  0  0  0  0  0  0
    3.9121  -47.1882  -18.8974 C   0  0  0  0  0  0  0  0  0  0  0  0
    2.9134  -46.3292  -18.4505 O   0  0  0  0  0  0  0  0  0  0  0  0
    3.3755  -45.4631  -18.2447 H   0  0  0  0  0  0  0  0  0  0  0  0
    2.8406  -48.8122  -17.4124 C   0  0  0  0  0  0  0  0  0  0  0  0
    1.4930  -48.5125  -17.4654 O   0  0  0  0  0  0  0  0  0  0  0  0
    1.2757  -47.8111  -18.1351 H   0  0  0  0  0  0  0  0  0  0  0  0
    0.1805  -52.4264  -26.6148 C   0  0  0  0  0  0  0  0  0  0  0  0
   -0.5275  -53.5924  -26.6378 F   0  0  0  0  0  0  0  0  0  0  0  0
   -0.6389  -51.3300  -26.3453 F   0  0  0  0  0  0  0  0  0  0  0  0
    0.7629  -52.1674  -27.8287 F   0  0  0  0  0  0  0  0  0  0  0  0
   -1.7813  -53.8216  -20.2577 C   0  0  0  0  0  0  0  0  0  0  0  0
   -1.3848  -54.0098  -21.5842 O   0  0  0  0  0  0  0  0  0  0  0  0
 32 33  1  0  0  0
 33  1  1  0  0  0
  1  2  2  0  0  0
  2  3  1  0  0  0
  3  4  2  0  0  0
  4  5  1  0  0  0
  5  6  2  0  0  0
  6  7  1  0  0  0
  7  8  2  0  0  0
  8  9  1  0  0  0
  9 10  2  0  0  0
 10 11  1  0  0  0
 11 12  1  0  0  0
 11 28  1  0  0  0
 28 29  1  0  0  0
 28 30  1  0  0  0
 28 31  1  0  0  0
  4 13  1  0  0  0
 13 14  2  0  0  0
 13 16  1  0  0  0
 16 17  1  0  0  0
 17 18  2  0  0  0
 18 19  1  0  0  0
 19 20  1  0  0  0
 19 21  1  0  0  0
 21 22  1  0  0  0
 22 23  1  0  0  0
 21 25  1  0  0  0
 25 26  1  0  0  0
 14  1  1  0  0  0
 20 16  2  0  0  0
 11  3  1  0  0  0
 10  5  1  0  0  0
 12 15  1  0  0  0
 23 24  1  0  0  0
 26 27  1  0  0  0
M  END
> <minimizedAffinity>
-7.93602

> <CNNscore>
0.2979004383

> <CNNaffinity>
5.9994115829

> <CNN_VS>
1.7872273922

> <CNNaffinity_variance>
0.5040812492

$$$$
[H]OC([H])([H])C([H])(n1nc([H])c(-c2c([H])c(OC([H])([H])[H])c([H])c3c2-c2c([H])c([H])c([H])c([H])c2C3(O[H])C(F)(F)F)c1[H])C([H])([H])O[H]


 33 36  0  0  0  0  0  0  0  0999 V2000
    3.4635  -49.9210  -23.5515 C   0  0  0  0  0  0  0  0  0  0  0  0
    3.1247  -50.1566  -22.2683 C   0  0  0  0  0  0  0  0  0  0  0  0
    2.1382  -51.0894  -21.9152 C   0  0  0  0  0  0  0  0  0  0  0  0
    1.4882  -51.7940  -22.9071 C   0  0  0  0  0  0  0  0  0  0  0  0
    0.5124  -52.6776  -22.2647 C   0  0  0  0  0  0  0  0  0  0  0  0
   -0.3874  -53.5704  -22.8186 C   0  0  0  0  0  0  0  0  0  0  0  0
   -1.2191  -54.2911  -21.9640 C   0  0  0  0  0  0  0  0  0  0  0  0
   -1.1813  -54.1509  -20.6090 C   0  0  0  0  0  0  0  0  0  0  0  0
   -0.2754  -53.2545  -20.0980 C   0  0  0  0  0  0  0  0  0  0  0  0
    0.5885  -52.4992  -20.8985 C   0  0  0  0  0  0  0  0  0  0  0  0
    1.6084  -51.5025  -20.6168 C   0  0  0  0  0  0  0  0  0  0  0  0
    2.6566  -52.0909  -19.9093 O   0  0  0  0  0  0  0  0  0  0  0  0
    1.8147  -51.5763  -24.2359 C   0  0  0  0  0  0  0  0  0  0  0  0
    2.8159  -50.6231  -24.5298 C   0  0  0  0  0  0  0  0  0  0  0  0
    2.4127  -52.9957  -19.6443 H   0  0  0  0  0  0  0  0  0  0  0  0
    1.2315  -52.3019  -25.3475 C   0  0  0  0  0  0  0  0  0  0  0  0
    1.6699  -53.5058  -25.8343 C   0  0  0  0  0  0  0  0  0  0  0  0
    0.8016  -53.8563  -26.8258 N   0  0  0  0  0  0  0  0  0  0  0  0
   -0.1341  -52.9491  -26.9754 N   0  0  0  0  0  0  0  0  0  0  0  0
    0.1059  -51.9747  -26.0739 C   0  0  0  0  0  0  0  0  0  0  0  0
   -1.2041  -53.0366  -27.9509 C   0  0  0  0  0  0  0  0  0  0  0  0
   -2.4097  -52.2384  -27.5027 C   0  0  0  0  0  0  0  0  0  0  0  0
   -3.6000  -52.8021  -27.9500 O   0  0  0  0  0  0  0  0  0  0  0  0
   -4.3117  -52.4503  -27.3369 H   0  0  0  0  0  0  0  0  0  0  0  0
   -0.7146  -52.4546  -29.2550 C   0  0  0  0  0  0  0  0  0  0  0  0
    0.5855  -52.8290  -29.5346 O   0  0  0  0  0  0  0  0  0  0  0  0
    1.1368  -52.9623  -28.7185 H   0  0  0  0  0  0  0  0  0  0  0  0
    1.0936  -50.3370  -19.7965 C   0  0  0  0  0  0  0  0  0  0  0  0
    2.0998  -49.5705  -19.2853 F   0  0  0  0  0  0  0  0  0  0  0  0
    0.2538  -49.5979  -20.6299 F   0  0  0  0  0  0  0  0  0  0  0  0
    0.2891  -50.8375  -18.8054 F   0  0  0  0  0  0  0  0  0  0  0  0
    5.5182  -49.3275  -24.7818 C   0  0  0  0  0  0  0  0  0  0  0  0
    4.4289  -49.0118  -23.9658 O   0  0  0  0  0  0  0  0  0  0  0  0
 32 33  1  0  0  0
 33  1  1  0  0  0
  1  2  2  0  0  0
  2  3  1  0  0  0
  3  4  2  0  0  0
  4  5  1  0  0  0
  5  6  2  0  0  0
  6  7  1  0  0  0
  7  8  2  0  0  0
  8  9  1  0  0  0
  9 10  2  0  0  0
 10 11  1  0  0  0
 11 12  1  0  0  0
 11 28  1  0  0  0
 28 29  1  0  0  0
 28 30  1  0  0  0
 28 31  1  0  0  0
  4 13  1  0  0  0
 13 14  2  0  0  0
 13 16  1  0  0  0
 16 17  1  0  0  0
 17 18  2  0  0  0
 18 19  1  0  0  0
 19 20  1  0  0  0
 19 21  1  0  0  0
 21 22  1  0  0  0
 22 23  1  0  0  0
 21 25  1  0  0  0
 25 26  1  0  0  0
 14  1  1  0  0  0
 20 16  2  0  0  0
 11  3  1  0  0  0
 10  5  1  0  0  0
 12 15  1  0  0  0
 23 24  1  0  0  0
 26 27  1  0  0  0
M  END
> <minimizedAffinity>
-9.43319

> <CNNscore>
0.2687731683

> <CNNaffinity>
6.4868192673

> <CNN_VS>
1.7434829473

> <CNNaffinity_variance>
0.1020502299

$$$$
[H]OC([H])([H])C([H])(n1nc([H])c(-c2c([H])c(OC([H])([H])[H])c([H])c3c2-c2c([H])c([H])c([H])c([H])c2C3(O[H])C(F)(F)F)c1[H])C([H])([H])O[H]


 33 36  0  0  0  0  0  0  0  0999 V2000
   -0.3429  -53.8545  -22.3935 C   0  0  0  0  0  0  0  0  0  0  0  0
    0.1488  -53.6487  -23.6315 C   0  0  0  0  0  0  0  0  0  0  0  0
    1.1915  -52.7437  -23.8802 C   0  0  0  0  0  0  0  0  0  0  0  0
    1.7382  -52.0368  -22.8293 C   0  0  0  0  0  0  0  0  0  0  0  0
    2.7859  -51.1673  -23.3696 C   0  0  0  0  0  0  0  0  0  0  0  0
    3.6146  -50.2617  -22.7318 C   0  0  0  0  0  0  0  0  0  0  0  0
    4.5331  -49.5479  -23.4988 C   0  0  0  0  0  0  0  0  0  0  0  0
    4.6461  -49.7059  -24.8476 C   0  0  0  0  0  0  0  0  0  0  0  0
    3.8055  -50.6134  -25.4436 C   0  0  0  0  0  0  0  0  0  0  0  0
    2.8612  -51.3627  -24.7335 C   0  0  0  0  0  0  0  0  0  0  0  0
    1.8722  -52.3574  -25.1150 C   0  0  0  0  0  0  0  0  0  0  0  0
    2.5150  -53.4933  -25.6070 O   0  0  0  0  0  0  0  0  0  0  0  0
    1.2562  -52.2270  -21.5444 C   0  0  0  0  0  0  0  0  0  0  0  0
    0.2037  -53.1513  -21.3562 C   0  0  0  0  0  0  0  0  0  0  0  0
    3.4670  -53.3174  -25.7132 H   0  0  0  0  0  0  0  0  0  0  0  0
    1.7969  -51.5764  -20.3669 C   0  0  0  0  0  0  0  0  0  0  0  0
    2.8863  -51.9979  -19.6499 C   0  0  0  0  0  0  0  0  0  0  0  0
    3.0865  -51.0656  -18.6750 N   0  0  0  0  0  0  0  0  0  0  0  0
    2.1945  -50.1066  -18.7496 N   0  0  0  0  0  0  0  0  0  0  0  0
    1.3826  -50.3956  -19.7875 C   0  0  0  0  0  0  0  0  0  0  0  0
    2.1443  -48.9699  -17.8499 C   0  0  0  0  0  0  0  0  0  0  0  0
    1.3110  -49.2864  -16.6264 C   0  0  0  0  0  0  0  0  0  0  0  0
    1.3618  -50.6376  -16.3000 O   0  0  0  0  0  0  0  0  0  0  0  0
    1.1084  -50.6902  -15.3309 H   0  0  0  0  0  0  0  0  0  0  0  0
    3.5484  -48.6561  -17.3927 C   0  0  0  0  0  0  0  0  0  0  0  0
    3.9315  -49.4378  -16.3200 O   0  0  0  0  0  0  0  0  0  0  0  0
    3.1729  -49.6856  -15.7276 H   0  0  0  0  0  0  0  0  0  0  0  0
    0.9151  -51.8685  -26.1833 C   0  0  0  0  0  0  0  0  0  0  0  0
    1.5526  -51.5139  -27.3361 F   0  0  0  0  0  0  0  0  0  0  0  0
   -0.0068  -52.8934  -26.3973 F   0  0  0  0  0  0  0  0  0  0  0  0
    0.1964  -50.8229  -25.6636 F   0  0  0  0  0  0  0  0  0  0  0  0
   -2.0282  -55.5484  -23.0088 C   0  0  0  0  0  0  0  0  0  0  0  0
   -1.3726  -54.7338  -22.0821 O   0  0  0  0  0  0  0  0  0  0  0  0
 32 33  1  0  0  0
 33  1  1  0  0  0
  1  2  2  0  0  0
  2  3  1  0  0  0
  3  4  2  0  0  0
  4  5  1  0  0  0
  5  6  2  0  0  0
  6  7  1  0  0  0
  7  8  2  0  0  0
  8  9  1  0  0  0
  9 10  2  0  0  0
 10 11  1  0  0  0
 11 12  1  0  0  0
 11 28  1  0  0  0
 28 29  1  0  0  0
 28 30  1  0  0  0
 28 31  1  0  0  0
  4 13  1  0  0  0
 13 14  2  0  0  0
 13 16  1  0  0  0
 16 17  1  0  0  0
 17 18  2  0  0  0
 18 19  1  0  0  0
 19 20  1  0  0  0
 19 21  1  0  0  0
 21 22  1  0  0  0
 22 23  1  0  0  0
 21 25  1  0  0  0
 25 26  1  0  0  0
 14  1  1  0  0  0
 20 16  2  0  0  0
 11  3  1  0  0  0
 10  5  1  0  0  0
 12 15  1  0  0  0
 23 24  1  0  0  0
 26 27  1  0  0  0
M  END
> <minimizedAffinity>
-6.61945

> <CNNscore>
0.2617886066

> <CNNaffinity>
5.9368042946

> <CNN_VS>
1.5541877747

> <CNNaffinity_variance>
0.3926060796

$$$$
[H]OC([H])([H])C([H])(n1nc([H])c(-c2c([H])c(OC([H])([H])[H])c([H])c3c2-c2c([H])c([H])c([H])c([H])c2C3(O[H])C(F)(F)F)c1[H])C([H])([H])O[H]


 33 36  0  0  0  0  0  0  0  0999 V2000
   -0.0897  -53.4968  -22.3127 C   0  0  0  0  0  0  0  0  0  0  0  0
    0.5743  -53.1667  -23.4383 C   0  0  0  0  0  0  0  0  0  0  0  0
    1.4922  -52.1067  -23.4806 C   0  0  0  0  0  0  0  0  0  0  0  0
    1.7300  -51.3725  -22.3373 C   0  0  0  0  0  0  0  0  0  0  0  0
    2.7096  -50.3341  -22.6659 C   0  0  0  0  0  0  0  0  0  0  0  0
    3.2637  -49.3437  -21.8748 C   0  0  0  0  0  0  0  0  0  0  0  0
    4.1815  -48.4687  -22.4522 C   0  0  0  0  0  0  0  0  0  0  0  0
    4.5527  -48.5496  -23.7609 C   0  0  0  0  0  0  0  0  0  0  0  0
    3.9801  -49.5455  -24.5131 C   0  0  0  0  0  0  0  0  0  0  0  0
    3.0527  -50.4570  -23.9968 C   0  0  0  0  0  0  0  0  0  0  0  0
    2.3115  -51.5704  -24.5661 C   0  0  0  0  0  0  0  0  0  0  0  0
    3.1981  -52.5756  -24.9521 O   0  0  0  0  0  0  0  0  0  0  0  0
    1.0649  -51.6876  -21.1635 C   0  0  0  0  0  0  0  0  0  0  0  0
    0.1510  -52.7655  -21.1829 C   0  0  0  0  0  0  0  0  0  0  0  0
    4.1152  -52.2555  -24.8822 H   0  0  0  0  0  0  0  0  0  0  0  0
    1.2833  -51.0153  -19.8976 C   0  0  0  0  0  0  0  0  0  0  0  0
    0.5555  -49.9573  -19.4184 C   0  0  0  0  0  0  0  0  0  0  0  0
    1.0487  -49.6853  -18.1764 N   0  0  0  0  0  0  0  0  0  0  0  0
    2.0257  -50.5044  -17.8674 N   0  0  0  0  0  0  0  0  0  0  0  0
    2.1937  -51.3392  -18.9138 C   0  0  0  0  0  0  0  0  0  0  0  0
    2.7529  -50.4674  -16.6128 C   0  0  0  0  0  0  0  0  0  0  0  0
    3.4186  -49.1224  -16.4143 C   0  0  0  0  0  0  0  0  0  0  0  0
    2.5041  -48.1405  -16.0476 O   0  0  0  0  0  0  0  0  0  0  0  0
    3.0442  -47.4227  -15.6013 H   0  0  0  0  0  0  0  0  0  0  0  0
    1.7737  -50.6773  -15.4831 C   0  0  0  0  0  0  0  0  0  0  0  0
    0.6272  -51.3233  -15.9037 O   0  0  0  0  0  0  0  0  0  0  0  0
    0.3868  -51.1170  -16.8457 H   0  0  0  0  0  0  0  0  0  0  0  0
    1.4934  -51.1837  -25.7816 C   0  0  0  0  0  0  0  0  0  0  0  0
    0.1738  -50.9992  -25.4886 F   0  0  0  0  0  0  0  0  0  0  0  0
    2.0725  -50.0277  -26.3054 F   0  0  0  0  0  0  0  0  0  0  0  0
    1.6662  -52.1528  -26.7360 F   0  0  0  0  0  0  0  0  0  0  0  0
   -1.4280  -55.3353  -23.2703 C   0  0  0  0  0  0  0  0  0  0  0  0
   -1.0100  -54.5322  -22.2061 O   0  0  0  0  0  0  0  0  0  0  0  0
 32 33  1  0  0  0
 33  1  1  0  0  0
  1  2  2  0  0  0
  2  3  1  0  0  0
  3  4  2  0  0  0
  4  5  1  0  0  0
  5  6  2  0  0  0
  6  7  1  0  0  0
  7  8  2  0  0  0
  8  9  1  0  0  0
  9 10  2  0  0  0
 10 11  1  0  0  0
 11 12  1  0  0  0
 11 28  1  0  0  0
 28 29  1  0  0  0
 28 30  1  0  0  0
 28 31  1  0  0  0
  4 13  1  0  0  0
 13 14  2  0  0  0
 13 16  1  0  0  0
 16 17  1  0  0  0
 17 18  2  0  0  0
 18 19  1  0  0  0
 19 20  1  0  0  0
 19 21  1  0  0  0
 21 22  1  0  0  0
 22 23  1  0  0  0
 21 25  1  0  0  0
 25 26  1  0  0  0
 14  1  1  0  0  0
 20 16  2  0  0  0
 11  3  1  0  0  0
 10  5  1  0  0  0
 12 15  1  0  0  0
 23 24  1  0  0  0
 26 27  1  0  0  0
M  END
> <minimizedAffinity>
-6.43403

> <CNNscore>
0.2279090881

> <CNNaffinity>
5.7775087357

> <CNN_VS>
1.3167467117

> <CNNaffinity_variance>
0.3181431293

$$$$
[H]OC([H])([H])C([H])(n1nc([H])c(-c2c([H])c(OC([H])([H])[H])c([H])c3c2-c2c([H])c([H])c([H])c([H])c2C3(O[H])C(F)(F)F)c1[H])C([H])([H])O[H]


 33 36  0  0  0  0  0  0  0  0999 V2000
   -0.5131  -52.6049  -21.4121 C   0  0  0  0  0  0  0  0  0  0  0  0
    0.3199  -51.5740  -21.1668 C   0  0  0  0  0  0  0  0  0  0  0  0
    1.0948  -50.9832  -22.1759 C   0  0  0  0  0  0  0  0  0  0  0  0
    1.0079  -51.4663  -23.4652 C   0  0  0  0  0  0  0  0  0  0  0  0
    1.9218  -50.6837  -24.3007 C   0  0  0  0  0  0  0  0  0  0  0  0
    2.2066  -50.7823  -25.6508 C   0  0  0  0  0  0  0  0  0  0  0  0
    3.1377  -49.9025  -26.1989 C   0  0  0  0  0  0  0  0  0  0  0  0
    3.7768  -48.9527  -25.4596 C   0  0  0  0  0  0  0  0  0  0  0  0
    3.4675  -48.8872  -24.1234 C   0  0  0  0  0  0  0  0  0  0  0  0
    2.5429  -49.7391  -23.5094 C   0  0  0  0  0  0  0  0  0  0  0  0
    2.0536  -49.8800  -22.1479 C   0  0  0  0  0  0  0  0  0  0  0  0
    1.3534  -48.7312  -21.7798 O   0  0  0  0  0  0  0  0  0  0  0  0
    0.1596  -52.5239  -23.7505 C   0  0  0  0  0  0  0  0  0  0  0  0
   -0.5950  -53.0786  -22.6921 C   0  0  0  0  0  0  0  0  0  0  0  0
    1.4638  -48.0420  -22.4591 H   0  0  0  0  0  0  0  0  0  0  0  0
   -0.0454  -53.0684  -25.0785 C   0  0  0  0  0  0  0  0  0  0  0  0
    0.3650  -54.3036  -25.5081 C   0  0  0  0  0  0  0  0  0  0  0  0
   -0.0905  -54.4345  -26.7868 N   0  0  0  0  0  0  0  0  0  0  0  0
   -0.7493  -53.3648  -27.1642 N   0  0  0  0  0  0  0  0  0  0  0  0
   -0.7380  -52.5016  -26.1275 C   0  0  0  0  0  0  0  0  0  0  0  0
   -1.3557  -53.2015  -28.4718 C   0  0  0  0  0  0  0  0  0  0  0  0
   -2.5167  -52.2320  -28.4111 C   0  0  0  0  0  0  0  0  0  0  0  0
   -3.6611  -52.8258  -27.8890 O   0  0  0  0  0  0  0  0  0  0  0  0
   -4.2294  -52.0690  -27.5565 H   0  0  0  0  0  0  0  0  0  0  0  0
   -0.3211  -52.6358  -29.4145 C   0  0  0  0  0  0  0  0  0  0  0  0
    0.9656  -52.9481  -29.0203 O   0  0  0  0  0  0  0  0  0  0  0  0
    1.0634  -53.0254  -28.0343 H   0  0  0  0  0  0  0  0  0  0  0  0
    3.1604  -50.0913  -21.1347 C   0  0  0  0  0  0  0  0  0  0  0  0
    4.1647  -49.1760  -21.2563 F   0  0  0  0  0  0  0  0  0  0  0  0
    2.5663  -50.0416  -19.8734 F   0  0  0  0  0  0  0  0  0  0  0  0
    3.6275  -51.3726  -21.2767 F   0  0  0  0  0  0  0  0  0  0  0  0
   -1.0693  -53.1950  -19.0818 C   0  0  0  0  0  0  0  0  0  0  0  0
   -1.3046  -53.2330  -20.4585 O   0  0  0  0  0  0  0  0  0  0  0  0
 32 33  1  0  0  0
 33  1  1  0  0  0
  1  2  2  0  0  0
  2  3  1  0  0  0
  3  4  2  0  0  0
  4  5  1  0  0  0
  5  6  2  0  0  0
  6  7  1  0  0  0
  7  8  2  0  0  0
  8  9  1  0  0  0
  9 10  2  0  0  0
 10 11  1  0  0  0
 11 12  1  0  0  0
 11 28  1  0  0  0
 28 29  1  0  0  0
 28 30  1  0  0  0
 28 31  1  0  0  0
  4 13  1  0  0  0
 13 14  2  0  0  0
 13 16  1  0  0  0
 16 17  1  0  0  0
 17 18  2  0  0  0
 18 19  1  0  0  0
 19 20  1  0  0  0
 19 21  1  0  0  0
 21 22  1  0  0  0
 22 23  1  0  0  0
 21 25  1  0  0  0
 25 26  1  0  0  0
 14  1  1  0  0  0
 20 16  2  0  0  0
 11  3  1  0  0  0
 10  5  1  0  0  0
 12 15  1  0  0  0
 23 24  1  0  0  0
 26 27  1  0  0  0
M  END
> <minimizedAffinity>
-8.99991

> <CNNscore>
0.2270698994

> <CNNaffinity>
6.3564586639

> <CNN_VS>
1.4433604479

> <CNNaffinity_variance>
0.1261638850

$$$$
[H]OC([H])([H])C([H])(n1nc([H])c(-c2c([H])c(OC([H])([H])[H])c([H])c3c2-c2c([H])c([H])c([H])c([H])c2C3(O[H])C(F)(F)F)c1[H])C([H])([H])O[H]


 33 36  0  0  0  0  0  0  0  0999 V2000
   -1.8146  -52.5222  -17.3089 C   0  0  0  0  0  0  0  0  0  0  0  0
   -1.1013  -51.5680  -16.6785 C   0  0  0  0  0  0  0  0  0  0  0  0
   -0.0094  -50.9286  -17.2843 C   0  0  0  0  0  0  0  0  0  0  0  0
    0.3535  -51.2812  -18.5676 C   0  0  0  0  0  0  0  0  0  0  0  0
    1.5180  -50.4756  -18.9425 C   0  0  0  0  0  0  0  0  0  0  0  0
    2.2578  -50.4613  -20.1114 C   0  0  0  0  0  0  0  0  0  0  0  0
    3.3392  -49.5874  -20.2021 C   0  0  0  0  0  0  0  0  0  0  0  0
    3.6957  -48.7499  -19.1879 C   0  0  0  0  0  0  0  0  0  0  0  0
    2.9373  -48.7943  -18.0442 C   0  0  0  0  0  0  0  0  0  0  0  0
    1.8393  -49.6471  -17.8868 C   0  0  0  0  0  0  0  0  0  0  0  0
    0.8996  -49.8890  -16.8045 C   0  0  0  0  0  0  0  0  0  0  0  0
    0.1372  -48.7427  -16.5803 O   0  0  0  0  0  0  0  0  0  0  0  0
   -0.3606  -52.2572  -19.2436 C   0  0  0  0  0  0  0  0  0  0  0  0
   -1.4501  -52.8666  -18.5809 C   0  0  0  0  0  0  0  0  0  0  0  0
    0.4930  -47.9994  -17.0993 H   0  0  0  0  0  0  0  0  0  0  0  0
   -0.0958  -52.6606  -20.6108 C   0  0  0  0  0  0  0  0  0  0  0  0
    0.0966  -53.9475  -21.0416 C   0  0  0  0  0  0  0  0  0  0  0  0
    0.2431  -53.8795  -22.3957 N   0  0  0  0  0  0  0  0  0  0  0  0
    0.1531  -52.6407  -22.8179 N   0  0  0  0  0  0  0  0  0  0  0  0
   -0.0566  -51.8636  -21.7354 C   0  0  0  0  0  0  0  0  0  0  0  0
    0.2671  -52.2445  -24.2087 C   0  0  0  0  0  0  0  0  0  0  0  0
    1.5396  -52.7884  -24.8222 C   0  0  0  0  0  0  0  0  0  0  0  0
    2.6100  -52.7267  -23.9361 O   0  0  0  0  0  0  0  0  0  0  0  0
    3.2722  -53.4039  -24.2661 H   0  0  0  0  0  0  0  0  0  0  0  0
   -0.9033  -52.8189  -24.9698 C   0  0  0  0  0  0  0  0  0  0  0  0
   -0.7946  -54.1863  -25.1339 O   0  0  0  0  0  0  0  0  0  0  0  0
    0.1470  -54.4972  -25.2014 H   0  0  0  0  0  0  0  0  0  0  0  0
    1.5747  -50.2579  -15.4990 C   0  0  0  0  0  0  0  0  0  0  0  0
    2.4204  -51.3207  -15.6278 F   0  0  0  0  0  0  0  0  0  0  0  0
    2.2433  -49.1168  -15.0551 F   0  0  0  0  0  0  0  0  0  0  0  0
    0.5970  -50.5027  -14.5694 F   0  0  0  0  0  0  0  0  0  0  0  0
   -4.0292  -52.5680  -16.2220 C   0  0  0  0  0  0  0  0  0  0  0  0
   -2.9032  -53.1923  -16.7647 O   0  0  0  0  0  0  0  0  0  0  0  0
 32 33  1  0  0  0
 33  1  1  0  0  0
  1  2  2  0  0  0
  2  3  1  0  0  0
  3  4  2  0  0  0
  4  5  1  0  0  0
  5  6  2  0  0  0
  6  7  1  0  0  0
  7  8  2  0  0  0
  8  9  1  0  0  0
  9 10  2  0  0  0
 10 11  1  0  0  0
 11 12  1  0  0  0
 11 28  1  0  0  0
 28 29  1  0  0  0
 28 30  1  0  0  0
 28 31  1  0  0  0
  4 13  1  0  0  0
 13 14  2  0  0  0
 13 16  1  0  0  0
 16 17  1  0  0  0
 17 18  2  0  0  0
 18 19  1  0  0  0
 19 20  1  0  0  0
 19 21  1  0  0  0
 21 22  1  0  0  0
 22 23  1  0  0  0
 21 25  1  0  0  0
 25 26  1  0  0  0
 14  1  1  0  0  0
 20 16  2  0  0  0
 11  3  1  0  0  0
 10  5  1  0  0  0
 12 15  1  0  0  0
 23 24  1  0  0  0
 26 27  1  0  0  0
M  END
> <minimizedAffinity>
-6.67984

> <CNNscore>
0.1948994845

> <CNNaffinity>
5.7302680016

> <CNN_VS>
1.1168262959

> <CNNaffinity_variance>
0.0998950079

$$$$
[H]c1nc(N([H])C(=O)c2c([H])c([H])c(C3([H])C([H])([H])C([H])([H])N(C([H])(C([H])([H])[H])C([H])([H])[H])C([H])([H])C3([H])[H])c([H])c2[H])c([H])c(Oc2c(OC([H])([H])[H])c([H])c3c(c2[H])c([H])c([H])n3C(=O)N([H])C([H])([H])[H])c1[H]


 42 46  0  0  0  0  0  0  0  0999 V2000
   -0.1557  -53.5771  -24.2014 C   0  0  0  0  0  0  0  0  0  0  0  0
   -0.6122  -54.8754  -24.2847 C   0  0  0  0  0  0  0  0  0  0  0  0
   -1.2682  -55.4779  -23.2134 C   0  0  0  0  0  0  0  0  0  0  0  0
   -1.4522  -54.7700  -22.0869 N   0  0  0  0  0  0  0  0  0  0  0  0
   -1.0169  -53.4959  -21.9744 C   0  0  0  0  0  0  0  0  0  0  0  0
   -0.3652  -52.8724  -23.0137 C   0  0  0  0  0  0  0  0  0  0  0  0
   -1.2080  -52.7548  -20.7805 N   0  0  0  0  0  0  0  0  0  0  0  0
   -0.2141  -52.8476  -19.7627 C   0  0  0  0  0  0  0  0  0  0  0  0
    0.8061  -53.5510  -19.9054 O   0  0  0  0  0  0  0  0  0  0  0  0
   -2.0625  -52.1663  -20.6648 H   0  0  0  0  0  0  0  0  0  0  0  0
   -0.3625  -52.1037  -18.4933 C   0  0  0  0  0  0  0  0  0  0  0  0
    0.2787  -50.9050  -18.2682 C   0  0  0  0  0  0  0  0  0  0  0  0
    0.1084  -50.2614  -17.0546 C   0  0  0  0  0  0  0  0  0  0  0  0
   -0.6771  -50.7543  -16.0401 C   0  0  0  0  0  0  0  0  0  0  0  0
   -1.3086  -51.9613  -16.2973 C   0  0  0  0  0  0  0  0  0  0  0  0
   -1.1628  -52.6281  -17.4892 C   0  0  0  0  0  0  0  0  0  0  0  0
   -0.7994  -49.9930  -14.7889 C   0  0  0  0  0  0  0  0  0  0  0  0
   -2.0468  -49.1287  -14.7661 C   0  0  0  0  0  0  0  0  0  0  0  0
   -1.7326  -47.6619  -14.9326 C   0  0  0  0  0  0  0  0  0  0  0  0
   -0.9961  -47.1911  -13.8018 N   0  0  0  0  0  0  0  0  0  0  0  0
    0.0125  -48.1640  -13.3847 C   0  0  0  0  0  0  0  0  0  0  0  0
    0.3744  -49.1085  -14.5126 C   0  0  0  0  0  0  0  0  0  0  0  0
   -1.8249  -46.9462  -12.6418 C   0  0  0  0  0  0  0  0  0  0  0  0
   -1.2415  -47.6544  -11.4416 C   0  0  0  0  0  0  0  0  0  0  0  0
   -2.0653  -45.5060  -12.3466 C   0  0  0  0  0  0  0  0  0  0  0  0
    0.4991  -52.9426  -25.2409 O   0  0  0  0  0  0  0  0  0  0  0  0
    8.1307  -49.3780  -25.5163 C   0  0  0  0  0  0  0  0  0  0  0  0
    6.7333  -49.8834  -25.3352 N   0  0  0  0  0  0  0  0  0  0  0  0
    5.9263  -49.2195  -24.4369 C   0  0  0  0  0  0  0  0  0  0  0  0
    6.5062  -48.2062  -23.8444 O   0  0  0  0  0  0  0  0  0  0  0  0
    4.5952  -49.4574  -24.0621 N   0  0  0  0  0  0  0  0  0  0  0  0
    3.9177  -48.6876  -23.1326 C   0  0  0  0  0  0  0  0  0  0  0  0
    2.6502  -49.1677  -22.9944 C   0  0  0  0  0  0  0  0  0  0  0  0
    2.5174  -50.2464  -23.8373 C   0  0  0  0  0  0  0  0  0  0  0  0
    1.4620  -51.0892  -24.0945 C   0  0  0  0  0  0  0  0  0  0  0  0
    1.5711  -52.1200  -25.0027 C   0  0  0  0  0  0  0  0  0  0  0  0
    2.7788  -52.2724  -25.6420 C   0  0  0  0  0  0  0  0  0  0  0  0
    3.8460  -51.4378  -25.3964 C   0  0  0  0  0  0  0  0  0  0  0  0
    3.7517  -50.4031  -24.4919 C   0  0  0  0  0  0  0  0  0  0  0  0
    6.5235  -50.6933  -25.9182 H   0  0  0  0  0  0  0  0  0  0  0  0
    2.9096  -53.2998  -26.5584 O   0  0  0  0  0  0  0  0  0  0  0  0
    2.6739  -53.1098  -27.9440 C   0  0  0  0  0  0  0  0  0  0  0  0
 27 28  1  0  0  0
 28 29  1  0  0  0
 29 30  2  0  0  0
 29 31  1  0  0  0
 31 32  1  0  0  0
 32 33  2  0  0  0
 33 34  1  0  0  0
 34 35  2  0  0  0
 35 36  1  0  0  0
 36 26  1  0  0  0
 26  1  1  0  0  0
  1  2  2  0  0  0
  2  3  1  0  0  0
  3  4  2  0  0  0
  4  5  1  0  0  0
  5  7  1  0  0  0
  7  8  1  0  0  0
  8  9  2  0  0  0
  8 11  1  0  0  0
 11 12  2  0  0  0
 12 13  1  0  0  0
 13 14  2  0  0  0
 14 15  1  0  0  0
 15 16  2  0  0  0
 14 17  1  0  0  0
 17 18  1  0  0  0
 18 19  1  0  0  0
 19 20  1  0  0  0
 20 21  1  0  0  0
 21 22  1  0  0  0
 20 23  1  0  0  0
 23 24  1  0  0  0
 23 25  1  0  0  0
  5  6  2  0  0  0
 36 37  2  0  0  0
 37 41  1  0  0  0
 41 42  1  0  0  0
 37 38  1  0  0  0
 38 39  2  0  0  0
 39 31  1  0  0  0
 39 34  1  0  0  0
  6  1  1  0  0  0
 16 11  1  0  0  0
 22 17  1  0  0  0
 28 40  1  0  0  0
  7 10  1  0  0  0
M  END
> <minimizedAffinity>
-8.67463

> <CNNscore>
0.2892589271

> <CNNaffinity>
6.8578214645

> <CNN_VS>
1.9836860895

> <CNNaffinity_variance>
0.1343387663

$$$$
[H]c1nc(N([H])C(=O)c2c([H])c([H])c(C3([H])C([H])([H])C([H])([H])N(C([H])(C([H])([H])[H])C([H])([H])[H])C([H])([H])C3([H])[H])c([H])c2[H])c([H])c(Oc2c(OC([H])([H])[H])c([H])c3c(c2[H])c([H])c([H])n3C(=O)N([H])C([H])([H])[H])c1[H]


 42 46  0  0  0  0  0  0  0  0999 V2000
   -0.4048  -53.0395  -19.6324 C   0  0  0  0  0  0  0  0  0  0  0  0
   -1.4136  -53.6282  -20.3652 C   0  0  0  0  0  0  0  0  0  0  0  0
   -1.5424  -53.3918  -21.7322 C   0  0  0  0  0  0  0  0  0  0  0  0
   -0.6618  -52.5747  -22.3331 N   0  0  0  0  0  0  0  0  0  0  0  0
    0.3377  -51.9832  -21.6425 C   0  0  0  0  0  0  0  0  0  0  0  0
    0.4920  -52.1956  -20.2917 C   0  0  0  0  0  0  0  0  0  0  0  0
    1.2611  -51.1162  -22.2803 N   0  0  0  0  0  0  0  0  0  0  0  0
    1.2844  -49.7467  -21.8847 C   0  0  0  0  0  0  0  0  0  0  0  0
    0.5253  -49.3081  -20.9975 O   0  0  0  0  0  0  0  0  0  0  0  0
    1.8957  -51.4868  -23.0218 H   0  0  0  0  0  0  0  0  0  0  0  0
    2.2204  -48.7940  -22.5195 C   0  0  0  0  0  0  0  0  0  0  0  0
    3.1171  -49.1855  -23.4898 C   0  0  0  0  0  0  0  0  0  0  0  0
    3.9753  -48.2484  -24.0389 C   0  0  0  0  0  0  0  0  0  0  0  0
    3.9879  -46.9249  -23.6685 C   0  0  0  0  0  0  0  0  0  0  0  0
    3.0743  -46.5626  -22.6908 C   0  0  0  0  0  0  0  0  0  0  0  0
    2.2079  -47.4648  -22.1236 C   0  0  0  0  0  0  0  0  0  0  0  0
    4.9343  -46.0049  -24.3152 C   0  0  0  0  0  0  0  0  0  0  0  0
    4.3825  -44.5944  -24.4135 C   0  0  0  0  0  0  0  0  0  0  0  0
    3.9845  -44.2301  -25.8231 C   0  0  0  0  0  0  0  0  0  0  0  0
    5.1435  -44.1796  -26.6578 N   0  0  0  0  0  0  0  0  0  0  0  0
    6.0561  -45.2836  -26.3639 C   0  0  0  0  0  0  0  0  0  0  0  0
    5.3379  -46.4344  -25.6896 C   0  0  0  0  0  0  0  0  0  0  0  0
    5.9128  -42.9655  -26.4944 C   0  0  0  0  0  0  0  0  0  0  0  0
    7.3744  -43.3086  -26.3256 C   0  0  0  0  0  0  0  0  0  0  0  0
    5.7222  -41.9621  -27.5788 C   0  0  0  0  0  0  0  0  0  0  0  0
   -0.2419  -53.2481  -18.2753 O   0  0  0  0  0  0  0  0  0  0  0  0
   -2.3369  -47.5015  -12.4778 C   0  0  0  0  0  0  0  0  0  0  0  0
   -2.1411  -48.5868  -13.4901 N   0  0  0  0  0  0  0  0  0  0  0  0
   -3.2230  -49.3881  -13.7835 C   0  0  0  0  0  0  0  0  0  0  0  0
   -4.3092  -49.0848  -13.1184 O   0  0  0  0  0  0  0  0  0  0  0  0
   -3.3411  -50.4664  -14.6736 N   0  0  0  0  0  0  0  0  0  0  0  0
   -4.5146  -51.1771  -14.8558 C   0  0  0  0  0  0  0  0  0  0  0  0
   -4.3064  -52.1517  -15.7848 C   0  0  0  0  0  0  0  0  0  0  0  0
   -2.9972  -52.0635  -16.1973 C   0  0  0  0  0  0  0  0  0  0  0  0
   -2.2680  -52.7908  -17.1081 C   0  0  0  0  0  0  0  0  0  0  0  0
   -0.9428  -52.5067  -17.3578 C   0  0  0  0  0  0  0  0  0  0  0  0
   -0.3781  -51.4659  -16.6590 C   0  0  0  0  0  0  0  0  0  0  0  0
   -1.0935  -50.7274  -15.7433 C   0  0  0  0  0  0  0  0  0  0  0  0
   -2.4187  -50.9993  -15.4835 C   0  0  0  0  0  0  0  0  0  0  0  0
   -1.1936  -48.6152  -13.8660 H   0  0  0  0  0  0  0  0  0  0  0  0
    0.9503  -51.1629  -16.8953 O   0  0  0  0  0  0  0  0  0  0  0  0
    1.8364  -50.7897  -15.8525 C   0  0  0  0  0  0  0  0  0  0  0  0
 27 28  1  0  0  0
 28 29  1  0  0  0
 29 30  2  0  0  0
 29 31  1  0  0  0
 31 32  1  0  0  0
 32 33  2  0  0  0
 33 34  1  0  0  0
 34 35  2  0  0  0
 35 36  1  0  0  0
 36 26  1  0  0  0
 26  1  1  0  0  0
  1  2  2  0  0  0
  2  3  1  0  0  0
  3  4  2  0  0  0
  4  5  1  0  0  0
  5  7  1  0  0  0
  7  8  1  0  0  0
  8  9  2  0  0  0
  8 11  1  0  0  0
 11 12  2  0  0  0
 12 13  1  0  0  0
 13 14  2  0  0  0
 14 15  1  0  0  0
 15 16  2  0  0  0
 14 17  1  0  0  0
 17 18  1  0  0  0
 18 19  1  0  0  0
 19 20  1  0  0  0
 20 21  1  0  0  0
 21 22  1  0  0  0
 20 23  1  0  0  0
 23 24  1  0  0  0
 23 25  1  0  0  0
  5  6  2  0  0  0
 36 37  2  0  0  0
 37 41  1  0  0  0
 41 42  1  0  0  0
 37 38  1  0  0  0
 38 39  2  0  0  0
 39 31  1  0  0  0
 39 34  1  0  0  0
  6  1  1  0  0  0
 16 11  1  0  0  0
 22 17  1  0  0  0
 28 40  1  0  0  0
  7 10  1  0  0  0
M  END
> <minimizedAffinity>
-7.27157

> <CNNscore>
0.2424466014

> <CNNaffinity>
6.3114991188

> <CNN_VS>
1.5302015543

> <CNNaffinity_variance>
0.0992356390

$$$$
[H]c1nc(N([H])C(=O)c2c([H])c([H])c(C3([H])C([H])([H])C([H])([H])N(C([H])(C([H])([H])[H])C([H])([H])[H])C([H])([H])C3([H])[H])c([H])c2[H])c([H])c(Oc2c(OC([H])([H])[H])c([H])c3c(c2[H])c([H])c([H])n3C(=O)N([H])C([H])([H])[H])c1[H]


 42 46  0  0  0  0  0  0  0  0999 V2000
    0.7226  -50.8098  -17.7073 C   0  0  0  0  0  0  0  0  0  0  0  0
    0.7549  -49.5180  -17.2266 C   0  0  0  0  0  0  0  0  0  0  0  0
   -0.1426  -49.0906  -16.2504 C   0  0  0  0  0  0  0  0  0  0  0  0
   -1.0489  -49.9626  -15.7788 N   0  0  0  0  0  0  0  0  0  0  0  0
   -1.1056  -51.2351  -16.2294 C   0  0  0  0  0  0  0  0  0  0  0  0
   -0.2340  -51.6882  -17.1930 C   0  0  0  0  0  0  0  0  0  0  0  0
   -2.0686  -52.1502  -15.7329 N   0  0  0  0  0  0  0  0  0  0  0  0
   -3.3869  -51.6705  -15.4790 C   0  0  0  0  0  0  0  0  0  0  0  0
   -3.7037  -50.4827  -15.6899 O   0  0  0  0  0  0  0  0  0  0  0  0
   -1.8003  -53.1439  -15.5584 H   0  0  0  0  0  0  0  0  0  0  0  0
   -4.4311  -52.5763  -14.9537 C   0  0  0  0  0  0  0  0  0  0  0  0
   -5.0000  -53.5642  -15.7277 C   0  0  0  0  0  0  0  0  0  0  0  0
   -5.9810  -54.3739  -15.1819 C   0  0  0  0  0  0  0  0  0  0  0  0
   -6.4314  -54.2506  -13.8892 C   0  0  0  0  0  0  0  0  0  0  0  0
   -5.8395  -53.2481  -13.1364 C   0  0  0  0  0  0  0  0  0  0  0  0
   -4.8637  -52.4260  -13.6445 C   0  0  0  0  0  0  0  0  0  0  0  0
   -7.4740  -55.1634  -13.3995 C   0  0  0  0  0  0  0  0  0  0  0  0
   -6.9925  -56.6015  -13.3415 C   0  0  0  0  0  0  0  0  0  0  0  0
   -7.5939  -57.4532  -14.4328 C   0  0  0  0  0  0  0  0  0  0  0  0
   -9.0031  -57.5789  -14.2304 N   0  0  0  0  0  0  0  0  0  0  0  0
   -9.5939  -56.3071  -13.8165 C   0  0  0  0  0  0  0  0  0  0  0  0
   -8.7250  -55.1331  -14.2184 C   0  0  0  0  0  0  0  0  0  0  0  0
   -9.3498  -58.5380  -13.2045 C   0  0  0  0  0  0  0  0  0  0  0  0
  -10.5937  -58.0800  -12.4798 C   0  0  0  0  0  0  0  0  0  0  0  0
   -9.5013  -59.9374  -13.6922 C   0  0  0  0  0  0  0  0  0  0  0  0
    1.5951  -51.2737  -18.6746 O   0  0  0  0  0  0  0  0  0  0  0  0
   -0.2621  -51.9654  -26.8658 C   0  0  0  0  0  0  0  0  0  0  0  0
   -0.0186  -52.0087  -25.3893 N   0  0  0  0  0  0  0  0  0  0  0  0
   -0.4547  -53.1214  -24.7034 C   0  0  0  0  0  0  0  0  0  0  0  0
   -1.0410  -54.0180  -25.4560 O   0  0  0  0  0  0  0  0  0  0  0  0
   -0.3697  -53.4399  -23.3394 N   0  0  0  0  0  0  0  0  0  0  0  0
   -0.8631  -54.6155  -22.8009 C   0  0  0  0  0  0  0  0  0  0  0  0
   -0.6218  -54.6279  -21.4601 C   0  0  0  0  0  0  0  0  0  0  0  0
    0.0272  -53.4578  -21.1411 C   0  0  0  0  0  0  0  0  0  0  0  0
    0.4995  -52.9628  -19.9486 C   0  0  0  0  0  0  0  0  0  0  0  0
    1.1311  -51.7399  -19.8788 C   0  0  0  0  0  0  0  0  0  0  0  0
    1.2702  -51.0337  -21.0503 C   0  0  0  0  0  0  0  0  0  0  0  0
    0.8031  -51.5144  -22.2530 C   0  0  0  0  0  0  0  0  0  0  0  0
    0.1703  -52.7349  -22.3385 C   0  0  0  0  0  0  0  0  0  0  0  0
    0.4614  -51.1797  -25.0399 H   0  0  0  0  0  0  0  0  0  0  0  0
    1.9023  -49.8046  -21.0030 O   0  0  0  0  0  0  0  0  0  0  0  0
    1.1799  -48.5873  -20.9135 C   0  0  0  0  0  0  0  0  0  0  0  0
 27 28  1  0  0  0
 28 29  1  0  0  0
 29 30  2  0  0  0
 29 31  1  0  0  0
 31 32  1  0  0  0
 32 33  2  0  0  0
 33 34  1  0  0  0
 34 35  2  0  0  0
 35 36  1  0  0  0
 36 26  1  0  0  0
 26  1  1  0  0  0
  1  2  2  0  0  0
  2  3  1  0  0  0
  3  4  2  0  0  0
  4  5  1  0  0  0
  5  7  1  0  0  0
  7  8  1  0  0  0
  8  9  2  0  0  0
  8 11  1  0  0  0
 11 12  2  0  0  0
 12 13  1  0  0  0
 13 14  2  0  0  0
 14 15  1  0  0  0
 15 16  2  0  0  0
 14 17  1  0  0  0
 17 18  1  0  0  0
 18 19  1  0  0  0
 19 20  1  0  0  0
 20 21  1  0  0  0
 21 22  1  0  0  0
 20 23  1  0  0  0
 23 24  1  0  0  0
 23 25  1  0  0  0
  5  6  2  0  0  0
 36 37  2  0  0  0
 37 41  1  0  0  0
 41 42  1  0  0  0
 37 38  1  0  0  0
 38 39  2  0  0  0
 39 31  1  0  0  0
 39 34  1  0  0  0
  6  1  1  0  0  0
 16 11  1  0  0  0
 22 17  1  0  0  0
 28 40  1  0  0  0
  7 10  1  0  0  0
M  END
> <minimizedAffinity>
-8.72150

> <CNNscore>
0.2092185169

> <CNNaffinity>
6.4775109291

> <CNN_VS>
1.3552151918

> <CNNaffinity_variance>
0.1349850297

$$$$
[H]c1nc(N([H])C(=O)c2c([H])c([H])c(C3([H])C([H])([H])C([H])([H])N(C([H])(C([H])([H])[H])C([H])([H])[H])C([H])([H])C3([H])[H])c([H])c2[H])c([H])c(Oc2c(OC([H])([H])[H])c([H])c3c(c2[H])c([H])c([H])n3C(=O)N([H])C([H])([H])[H])c1[H]


 42 46  0  0  0  0  0  0  0  0999 V2000
   -0.0625  -52.9380  -19.8881 C   0  0  0  0  0  0  0  0  0  0  0  0
   -1.1858  -53.0735  -20.6761 C   0  0  0  0  0  0  0  0  0  0  0  0
   -1.1632  -52.7323  -22.0267 C   0  0  0  0  0  0  0  0  0  0  0  0
   -0.0208  -52.2649  -22.5566 N   0  0  0  0  0  0  0  0  0  0  0  0
    1.0967  -52.1211  -21.8108 C   0  0  0  0  0  0  0  0  0  0  0  0
    1.1071  -52.4486  -20.4744 C   0  0  0  0  0  0  0  0  0  0  0  0
    2.2985  -51.6211  -22.3736 N   0  0  0  0  0  0  0  0  0  0  0  0
    2.4511  -50.2087  -22.4926 C   0  0  0  0  0  0  0  0  0  0  0  0
    1.5644  -49.4194  -22.1099 O   0  0  0  0  0  0  0  0  0  0  0  0
    3.0391  -52.2845  -22.6920 H   0  0  0  0  0  0  0  0  0  0  0  0
    3.6792  -49.6293  -23.0784 C   0  0  0  0  0  0  0  0  0  0  0  0
    4.1030  -49.9461  -24.3507 C   0  0  0  0  0  0  0  0  0  0  0  0
    5.2672  -49.3788  -24.8394 C   0  0  0  0  0  0  0  0  0  0  0  0
    6.0418  -48.5012  -24.1190 C   0  0  0  0  0  0  0  0  0  0  0  0
    5.5888  -48.2026  -22.8433 C   0  0  0  0  0  0  0  0  0  0  0  0
    4.4387  -48.7463  -22.3255 C   0  0  0  0  0  0  0  0  0  0  0  0
    7.2592  -47.9473  -24.7284 C   0  0  0  0  0  0  0  0  0  0  0  0
    7.5409  -48.5516  -26.0918 C   0  0  0  0  0  0  0  0  0  0  0  0
    8.7055  -49.5113  -26.0654 C   0  0  0  0  0  0  0  0  0  0  0  0
    9.9122  -48.8034  -25.7733 N   0  0  0  0  0  0  0  0  0  0  0  0
    9.6995  -47.8035  -24.7279 C   0  0  0  0  0  0  0  0  0  0  0  0
    8.4821  -48.1283  -23.8869 C   0  0  0  0  0  0  0  0  0  0  0  0
   10.4457  -48.0892  -26.9126 C   0  0  0  0  0  0  0  0  0  0  0  0
   10.8505  -46.6950  -26.4944 C   0  0  0  0  0  0  0  0  0  0  0  0
   11.5649  -48.7834  -27.6088 C   0  0  0  0  0  0  0  0  0  0  0  0
   -0.0428  -53.2655  -18.5449 O   0  0  0  0  0  0  0  0  0  0  0  0
   -2.2731  -47.4607  -12.8569 C   0  0  0  0  0  0  0  0  0  0  0  0
   -2.0491  -48.5647  -13.8428 N   0  0  0  0  0  0  0  0  0  0  0  0
   -3.0957  -49.4288  -14.0815 C   0  0  0  0  0  0  0  0  0  0  0  0
   -4.1774  -49.1614  -13.3941 O   0  0  0  0  0  0  0  0  0  0  0  0
   -3.1820  -50.5382  -14.9364 N   0  0  0  0  0  0  0  0  0  0  0  0
   -4.3215  -51.3131  -15.0638 C   0  0  0  0  0  0  0  0  0  0  0  0
   -4.0886  -52.3034  -15.9700 C   0  0  0  0  0  0  0  0  0  0  0  0
   -2.7976  -52.1610  -16.4227 C   0  0  0  0  0  0  0  0  0  0  0  0
   -2.0571  -52.8773  -17.3330 C   0  0  0  0  0  0  0  0  0  0  0  0
   -0.7558  -52.5335  -17.6292 C   0  0  0  0  0  0  0  0  0  0  0  0
   -0.2269  -51.4445  -16.9774 C   0  0  0  0  0  0  0  0  0  0  0  0
   -0.9542  -50.7161  -16.0629 C   0  0  0  0  0  0  0  0  0  0  0  0
   -2.2558  -51.0474  -15.7570 C   0  0  0  0  0  0  0  0  0  0  0  0
   -1.1122  -48.5560  -14.2451 H   0  0  0  0  0  0  0  0  0  0  0  0
    1.0770  -51.0812  -17.2608 O   0  0  0  0  0  0  0  0  0  0  0  0
    1.3975  -49.8553  -17.8981 C   0  0  0  0  0  0  0  0  0  0  0  0
 27 28  1  0  0  0
 28 29  1  0  0  0
 29 30  2  0  0  0
 29 31  1  0  0  0
 31 32  1  0  0  0
 32 33  2  0  0  0
 33 34  1  0  0  0
 34 35  2  0  0  0
 35 36  1  0  0  0
 36 26  1  0  0  0
 26  1  1  0  0  0
  1  2  2  0  0  0
  2  3  1  0  0  0
  3  4  2  0  0  0
  4  5  1  0  0  0
  5  7  1  0  0  0
  7  8  1  0  0  0
  8  9  2  0  0  0
  8 11  1  0  0  0
 11 12  2  0  0  0
 12 13  1  0  0  0
 13 14  2  0  0  0
 14 15  1  0  0  0
 15 16  2  0  0  0
 14 17  1  0  0  0
 17 18  1  0  0  0
 18 19  1  0  0  0
 19 20  1  0  0  0
 20 21  1  0  0  0
 21 22  1  0  0  0
 20 23  1  0  0  0
 23 24  1  0  0  0
 23 25  1  0  0  0
  5  6  2  0  0  0
 36 37  2  0  0  0
 37 41  1  0  0  0
 41 42  1  0  0  0
 37 38  1  0  0  0
 38 39  2  0  0  0
 39 31  1  0  0  0
 39 34  1  0  0  0
  6  1  1  0  0  0
 16 11  1  0  0  0
 22 17  1  0  0  0
 28 40  1  0  0  0
  7 10  1  0  0  0
M  END
> <minimizedAffinity>
-7.35925

> <CNNscore>
0.1617209166

> <CNNaffinity>
6.0651011467

> <CNN_VS>
0.9808537364

> <CNNaffinity_variance>
0.1010629758

$$$$
[H]c1nc(N([H])C(=O)c2c([H])c([H])c(C3([H])C([H])([H])C([H])([H])N(C([H])(C([H])([H])[H])C([H])([H])[H])C([H])([H])C3([H])[H])c([H])c2[H])c([H])c(Oc2c(OC([H])([H])[H])c([H])c3c(c2[H])c([H])c([H])n3C(=O)N([H])C([H])([H])[H])c1[H]


 42 46  0  0  0  0  0  0  0  0999 V2000
   -0.2464  -53.1437  -19.8995 C   0  0  0  0  0  0  0  0  0  0  0  0
   -1.0429  -54.0530  -20.5627 C   0  0  0  0  0  0  0  0  0  0  0  0
   -1.2841  -53.9360  -21.9299 C   0  0  0  0  0  0  0  0  0  0  0  0
   -0.7246  -52.9155  -22.6004 N   0  0  0  0  0  0  0  0  0  0  0  0
    0.0608  -52.0084  -21.9790 C   0  0  0  0  0  0  0  0  0  0  0  0
    0.3182  -52.0956  -20.6300 C   0  0  0  0  0  0  0  0  0  0  0  0
    0.6441  -50.9290  -22.6901 N   0  0  0  0  0  0  0  0  0  0  0  0
    1.8091  -51.1864  -23.4705 C   0  0  0  0  0  0  0  0  0  0  0  0
    2.3103  -52.3263  -23.5430 O   0  0  0  0  0  0  0  0  0  0  0  0
    0.2214  -49.9764  -22.6280 H   0  0  0  0  0  0  0  0  0  0  0  0
    2.4655  -50.0988  -24.2275 C   0  0  0  0  0  0  0  0  0  0  0  0
    2.9411  -48.9618  -23.6111 C   0  0  0  0  0  0  0  0  0  0  0  0
    3.5368  -47.9737  -24.3758 C   0  0  0  0  0  0  0  0  0  0  0  0
    3.6862  -48.0588  -25.7395 C   0  0  0  0  0  0  0  0  0  0  0  0
    3.1980  -49.2144  -26.3295 C   0  0  0  0  0  0  0  0  0  0  0  0
    2.6012  -50.2154  -25.6028 C   0  0  0  0  0  0  0  0  0  0  0  0
    4.3385  -46.9581  -26.4628 C   0  0  0  0  0  0  0  0  0  0  0  0
    4.6180  -45.7694  -25.5616 C   0  0  0  0  0  0  0  0  0  0  0  0
    3.6914  -44.6100  -25.8359 C   0  0  0  0  0  0  0  0  0  0  0  0
    3.9406  -44.0871  -27.1425 N   0  0  0  0  0  0  0  0  0  0  0  0
    4.1558  -45.1616  -28.1105 C   0  0  0  0  0  0  0  0  0  0  0  0
    3.5516  -46.4672  -27.6359 C   0  0  0  0  0  0  0  0  0  0  0  0
    5.1149  -43.2448  -27.2065 C   0  0  0  0  0  0  0  0  0  0  0  0
    5.8033  -43.4327  -28.5381 C   0  0  0  0  0  0  0  0  0  0  0  0
    4.8567  -41.8025  -26.9383 C   0  0  0  0  0  0  0  0  0  0  0  0
    0.0182  -53.2242  -18.5447 O   0  0  0  0  0  0  0  0  0  0  0  0
   -2.3088  -47.3503  -12.9676 C   0  0  0  0  0  0  0  0  0  0  0  0
   -2.0655  -48.4702  -13.9306 N   0  0  0  0  0  0  0  0  0  0  0  0
   -3.0922  -49.3651  -14.1407 C   0  0  0  0  0  0  0  0  0  0  0  0
   -4.1745  -49.1092  -13.4499 O   0  0  0  0  0  0  0  0  0  0  0  0
   -3.1579  -50.4952  -14.9699 N   0  0  0  0  0  0  0  0  0  0  0  0
   -4.2788  -51.3008  -15.0700 C   0  0  0  0  0  0  0  0  0  0  0  0
   -4.0288  -52.3051  -15.9560 C   0  0  0  0  0  0  0  0  0  0  0  0
   -2.7456  -52.1409  -16.4232 C   0  0  0  0  0  0  0  0  0  0  0  0
   -1.9950  -52.8589  -17.3239 C   0  0  0  0  0  0  0  0  0  0  0  0
   -0.7052  -52.4897  -17.6392 C   0  0  0  0  0  0  0  0  0  0  0  0
   -0.1982  -51.3736  -17.0165 C   0  0  0  0  0  0  0  0  0  0  0  0
   -0.9359  -50.6432  -16.1120 C   0  0  0  0  0  0  0  0  0  0  0  0
   -2.2262  -50.9997  -15.7872 C   0  0  0  0  0  0  0  0  0  0  0  0
   -1.1325  -48.4474  -14.3413 H   0  0  0  0  0  0  0  0  0  0  0  0
    1.0938  -50.9847  -17.3195 O   0  0  0  0  0  0  0  0  0  0  0  0
    1.3972  -49.6867  -17.8039 C   0  0  0  0  0  0  0  0  0  0  0  0
 27 28  1  0  0  0
 28 29  1  0  0  0
 29 30  2  0  0  0
 29 31  1  0  0  0
 31 32  1  0  0  0
 32 33  2  0  0  0
 33 34  1  0  0  0
 34 35  2  0  0  0
 35 36  1  0  0  0
 36 26  1  0  0  0
 26  1  1  0  0  0
  1  2  2  0  0  0
  2  3  1  0  0  0
  3  4  2  0  0  0
  4  5  1  0  0  0
  5  7  1  0  0  0
  7  8  1  0  0  0
  8  9  2  0  0  0
  8 11  1  0  0  0
 11 12  2  0  0  0
 12 13  1  0  0  0
 13 14  2  0  0  0
 14 15  1  0  0  0
 15 16  2  0  0  0
 14 17  1  0  0  0
 17 18  1  0  0  0
 18 19  1  0  0  0
 19 20  1  0  0  0
 20 21  1  0  0  0
 21 22  1  0  0  0
 20 23  1  0  0  0
 23 24  1  0  0  0
 23 25  1  0  0  0
  5  6  2  0  0  0
 36 37  2  0  0  0
 37 41  1  0  0  0
 41 42  1  0  0  0
 37 38  1  0  0  0
 38 39  2  0  0  0
 39 31  1  0  0  0
 39 34  1  0  0  0
  6  1  1  0  0  0
 16 11  1  0  0  0
 22 17  1  0  0  0
 28 40  1  0  0  0
  7 10  1  0  0  0
M  END
> <minimizedAffinity>
-7.90036

> <CNNscore>
0.1464580894

> <CNNaffinity>
6.1386480331

> <CNN_VS>
0.8990546465

> <CNNaffinity_variance>
0.0884882435

$$$$
[H]c1nc(N([H])C(=O)c2c([H])c([H])c(C3([H])C([H])([H])C([H])([H])N(C([H])(C([H])([H])[H])C([H])([H])[H])C([H])([H])C3([H])[H])c([H])c2[H])c([H])c(Oc2c(OC([H])([H])[H])c([H])c3c(c2[H])c([H])c([H])n3C(=O)N([H])C([H])([H])[H])c1[H]


 42 46  0  0  0  0  0  0  0  0999 V2000
    5.1347  -48.6226  -21.0666 C   0  0  0  0  0  0  0  0  0  0  0  0
    5.2512  -47.5260  -20.2391 C   0  0  0  0  0  0  0  0  0  0  0  0
    5.3103  -46.2348  -20.7592 C   0  0  0  0  0  0  0  0  0  0  0  0
    5.2514  -46.0707  -22.0910 N   0  0  0  0  0  0  0  0  0  0  0  0
    5.1368  -47.1251  -22.9281 C   0  0  0  0  0  0  0  0  0  0  0  0
    5.0764  -48.4127  -22.4463 C   0  0  0  0  0  0  0  0  0  0  0  0
    5.0814  -46.9470  -24.3339 N   0  0  0  0  0  0  0  0  0  0  0  0
    3.8557  -46.5014  -24.9096 C   0  0  0  0  0  0  0  0  0  0  0  0
    2.8516  -46.2624  -24.2092 O   0  0  0  0  0  0  0  0  0  0  0  0
    5.9240  -47.1470  -24.9171 H   0  0  0  0  0  0  0  0  0  0  0  0
    3.7358  -46.3050  -26.3704 C   0  0  0  0  0  0  0  0  0  0  0  0
    3.4879  -45.0680  -26.9246 C   0  0  0  0  0  0  0  0  0  0  0  0
    3.3757  -44.9501  -28.2992 C   0  0  0  0  0  0  0  0  0  0  0  0
    3.4991  -46.0124  -29.1625 C   0  0  0  0  0  0  0  0  0  0  0  0
    3.7484  -47.2428  -28.5744 C   0  0  0  0  0  0  0  0  0  0  0  0
    3.8657  -47.3975  -27.2148 C   0  0  0  0  0  0  0  0  0  0  0  0
    3.3694  -45.7842  -30.6087 C   0  0  0  0  0  0  0  0  0  0  0  0
    3.5442  -47.0635  -31.4064 C   0  0  0  0  0  0  0  0  0  0  0  0
    4.8657  -47.1108  -32.1341 C   0  0  0  0  0  0  0  0  0  0  0  0
    4.9025  -46.0975  -33.1414 N   0  0  0  0  0  0  0  0  0  0  0  0
    4.3222  -44.8466  -32.6553 C   0  0  0  0  0  0  0  0  0  0  0  0
    4.3377  -44.7771  -31.1421 C   0  0  0  0  0  0  0  0  0  0  0  0
    4.1622  -46.4497  -34.3333 C   0  0  0  0  0  0  0  0  0  0  0  0
    4.1365  -47.9520  -34.4904 C   0  0  0  0  0  0  0  0  0  0  0  0
    2.7860  -45.8830  -34.3964 C   0  0  0  0  0  0  0  0  0  0  0  0
    5.0724  -49.9195  -20.5911 O   0  0  0  0  0  0  0  0  0  0  0  0
   -2.0027  -53.3588  -17.5682 C   0  0  0  0  0  0  0  0  0  0  0  0
   -0.8003  -52.8129  -18.2736 N   0  0  0  0  0  0  0  0  0  0  0  0
   -0.7219  -52.9980  -19.6368 C   0  0  0  0  0  0  0  0  0  0  0  0
   -1.7386  -53.6454  -20.1480 O   0  0  0  0  0  0  0  0  0  0  0  0
    0.2664  -52.6055  -20.5523 N   0  0  0  0  0  0  0  0  0  0  0  0
    0.1951  -52.8712  -21.9087 C   0  0  0  0  0  0  0  0  0  0  0  0
    1.2980  -52.3582  -22.5225 C   0  0  0  0  0  0  0  0  0  0  0  0
    2.0756  -51.7634  -21.5564 C   0  0  0  0  0  0  0  0  0  0  0  0
    3.2784  -51.1008  -21.6220 C   0  0  0  0  0  0  0  0  0  0  0  0
    3.8731  -50.5789  -20.4937 C   0  0  0  0  0  0  0  0  0  0  0  0
    3.2151  -50.7476  -19.2982 C   0  0  0  0  0  0  0  0  0  0  0  0
    2.0101  -51.4085  -19.2144 C   0  0  0  0  0  0  0  0  0  0  0  0
    1.4035  -51.9350  -20.3334 C   0  0  0  0  0  0  0  0  0  0  0  0
   -0.1469  -52.3463  -17.6450 H   0  0  0  0  0  0  0  0  0  0  0  0
    3.7937  -50.2305  -18.1535 O   0  0  0  0  0  0  0  0  0  0  0  0
    3.2165  -50.4074  -16.8701 C   0  0  0  0  0  0  0  0  0  0  0  0
 27 28  1  0  0  0
 28 29  1  0  0  0
 29 30  2  0  0  0
 29 31  1  0  0  0
 31 32  1  0  0  0
 32 33  2  0  0  0
 33 34  1  0  0  0
 34 35  2  0  0  0
 35 36  1  0  0  0
 36 26  1  0  0  0
 26  1  1  0  0  0
  1  2  2  0  0  0
  2  3  1  0  0  0
  3  4  2  0  0  0
  4  5  1  0  0  0
  5  7  1  0  0  0
  7  8  1  0  0  0
  8  9  2  0  0  0
  8 11  1  0  0  0
 11 12  2  0  0  0
 12 13  1  0  0  0
 13 14  2  0  0  0
 14 15  1  0  0  0
 15 16  2  0  0  0
 14 17  1  0  0  0
 17 18  1  0  0  0
 18 19  1  0  0  0
 19 20  1  0  0  0
 20 21  1  0  0  0
 21 22  1  0  0  0
 20 23  1  0  0  0
 23 24  1  0  0  0
 23 25  1  0  0  0
  5  6  2  0  0  0
 36 37  2  0  0  0
 37 41  1  0  0  0
 41 42  1  0  0  0
 37 38  1  0  0  0
 38 39  2  0  0  0
 39 31  1  0  0  0
 39 34  1  0  0  0
  6  1  1  0  0  0
 16 11  1  0  0  0
 22 17  1  0  0  0
 28 40  1  0  0  0
  7 10  1  0  0  0
M  END
> <minimizedAffinity>
-7.69366

> <CNNscore>
0.1379742920

> <CNNaffinity>
6.2095971107

> <CNN_VS>
0.8567647934

> <CNNaffinity_variance>
0.2156370133

$$$$
[H]c1nc(N([H])C(=O)c2c([H])c([H])c(C3([H])C([H])([H])C([H])([H])N(C([H])(C([H])([H])[H])C([H])([H])[H])C([H])([H])C3([H])[H])c([H])c2[H])c([H])c(Oc2c(OC([H])([H])[H])c([H])c3c(c2[H])c([H])c([H])n3C(=O)N([H])C([H])([H])[H])c1[H]


 42 46  0  0  0  0  0  0  0  0999 V2000
    4.6320  -48.5424  -20.3150 C   0  0  0  0  0  0  0  0  0  0  0  0
    4.6424  -47.5094  -19.4019 C   0  0  0  0  0  0  0  0  0  0  0  0
    4.6480  -46.1801  -19.8190 C   0  0  0  0  0  0  0  0  0  0  0  0
    4.6430  -45.9153  -21.1358 N   0  0  0  0  0  0  0  0  0  0  0  0
    4.6325  -46.9055  -22.0552 C   0  0  0  0  0  0  0  0  0  0  0  0
    4.6271  -48.2283  -21.6761 C   0  0  0  0  0  0  0  0  0  0  0  0
    4.6336  -46.6208  -23.4444 N   0  0  0  0  0  0  0  0  0  0  0  0
    3.4020  -46.2470  -24.0574 C   0  0  0  0  0  0  0  0  0  0  0  0
    2.3440  -46.1603  -23.4024 O   0  0  0  0  0  0  0  0  0  0  0  0
    5.5211  -46.6935  -23.9895 H   0  0  0  0  0  0  0  0  0  0  0  0
    3.3401  -45.9458  -25.5039 C   0  0  0  0  0  0  0  0  0  0  0  0
    2.9292  -46.8806  -26.4291 C   0  0  0  0  0  0  0  0  0  0  0  0
    2.9028  -46.5417  -27.7709 C   0  0  0  0  0  0  0  0  0  0  0  0
    3.2685  -45.3050  -28.2465 C   0  0  0  0  0  0  0  0  0  0  0  0
    3.6766  -44.3871  -27.2912 C   0  0  0  0  0  0  0  0  0  0  0  0
    3.7156  -44.6880  -25.9517 C   0  0  0  0  0  0  0  0  0  0  0  0
    3.2004  -45.0396  -29.6905 C   0  0  0  0  0  0  0  0  0  0  0  0
    2.8438  -46.2836  -30.4834 C   0  0  0  0  0  0  0  0  0  0  0  0
    4.0238  -46.8383  -31.2436 C   0  0  0  0  0  0  0  0  0  0  0  0
    4.4254  -45.9156  -32.2586 N   0  0  0  0  0  0  0  0  0  0  0  0
    4.3895  -44.5391  -31.7668 C   0  0  0  0  0  0  0  0  0  0  0  0
    4.4698  -44.4862  -30.2550 C   0  0  0  0  0  0  0  0  0  0  0  0
    3.5761  -45.9485  -33.4291 C   0  0  0  0  0  0  0  0  0  0  0  0
    4.0138  -44.8815  -34.4049 C   0  0  0  0  0  0  0  0  0  0  0  0
    3.4923  -47.2784  -34.0950 C   0  0  0  0  0  0  0  0  0  0  0  0
    4.6256  -49.8741  -19.9430 O   0  0  0  0  0  0  0  0  0  0  0  0
   -1.2936  -55.1138  -22.8639 C   0  0  0  0  0  0  0  0  0  0  0  0
   -0.3520  -54.1627  -22.1932 N   0  0  0  0  0  0  0  0  0  0  0  0
   -0.6945  -53.7036  -20.9399 C   0  0  0  0  0  0  0  0  0  0  0  0
   -1.8305  -54.1738  -20.4900 O   0  0  0  0  0  0  0  0  0  0  0  0
   -0.0234  -52.8206  -20.0803 N   0  0  0  0  0  0  0  0  0  0  0  0
   -0.5072  -52.4559  -18.8359 C   0  0  0  0  0  0  0  0  0  0  0  0
    0.3724  -51.5965  -18.2495 C   0  0  0  0  0  0  0  0  0  0  0  0
    1.4205  -51.4116  -19.1209 C   0  0  0  0  0  0  0  0  0  0  0  0
    2.5667  -50.6572  -19.0352 C   0  0  0  0  0  0  0  0  0  0  0  0
    3.4891  -50.6341  -20.0588 C   0  0  0  0  0  0  0  0  0  0  0  0
    3.2172  -51.3962  -21.1706 C   0  0  0  0  0  0  0  0  0  0  0  0
    2.0744  -52.1573  -21.2730 C   0  0  0  0  0  0  0  0  0  0  0  0
    1.1437  -52.1907  -20.2580 C   0  0  0  0  0  0  0  0  0  0  0  0
    0.4703  -53.9511  -22.7578 H   0  0  0  0  0  0  0  0  0  0  0  0
    4.1304  -51.3885  -22.2091 O   0  0  0  0  0  0  0  0  0  0  0  0
    3.9040  -52.0942  -23.4184 C   0  0  0  0  0  0  0  0  0  0  0  0
 27 28  1  0  0  0
 28 29  1  0  0  0
 29 30  2  0  0  0
 29 31  1  0  0  0
 31 32  1  0  0  0
 32 33  2  0  0  0
 33 34  1  0  0  0
 34 35  2  0  0  0
 35 36  1  0  0  0
 36 26  1  0  0  0
 26  1  1  0  0  0
  1  2  2  0  0  0
  2  3  1  0  0  0
  3  4  2  0  0  0
  4  5  1  0  0  0
  5  7  1  0  0  0
  7  8  1  0  0  0
  8  9  2  0  0  0
  8 11  1  0  0  0
 11 12  2  0  0  0
 12 13  1  0  0  0
 13 14  2  0  0  0
 14 15  1  0  0  0
 15 16  2  0  0  0
 14 17  1  0  0  0
 17 18  1  0  0  0
 18 19  1  0  0  0
 19 20  1  0  0  0
 20 21  1  0  0  0
 21 22  1  0  0  0
 20 23  1  0  0  0
 23 24  1  0  0  0
 23 25  1  0  0  0
  5  6  2  0  0  0
 36 37  2  0  0  0
 37 41  1  0  0  0
 41 42  1  0  0  0
 37 38  1  0  0  0
 38 39  2  0  0  0
 39 31  1  0  0  0
 39 34  1  0  0  0
  6  1  1  0  0  0
 16 11  1  0  0  0
 22 17  1  0  0  0
 28 40  1  0  0  0
  7 10  1  0  0  0
M  END
> <minimizedAffinity>
-7.89712

> <CNNscore>
0.1343563944

> <CNNaffinity>
6.1547985077

> <CNN_VS>
0.8269365430

> <CNNaffinity_variance>
0.1121240482

$$$$
[H]c1nc(N([H])C(=O)c2c([H])c([H])c(C3([H])C([H])([H])C([H])([H])N(C([H])(C([H])([H])[H])C([H])([H])[H])C([H])([H])C3([H])[H])c([H])c2[H])c([H])c(Oc2c(OC([H])([H])[H])c([H])c3c(c2[H])c([H])c([H])n3C(=O)N([H])C([H])([H])[H])c1[H]


 42 46  0  0  0  0  0  0  0  0999 V2000
    4.5410  -48.6012  -22.1156 C   0  0  0  0  0  0  0  0  0  0  0  0
    4.3641  -47.7253  -21.0655 C   0  0  0  0  0  0  0  0  0  0  0  0
    4.3659  -46.3471  -21.2697 C   0  0  0  0  0  0  0  0  0  0  0  0
    4.5437  -45.8781  -22.5157 N   0  0  0  0  0  0  0  0  0  0  0  0
    4.7192  -46.7107  -23.5653 C   0  0  0  0  0  0  0  0  0  0  0  0
    4.7231  -48.0764  -23.3972 C   0  0  0  0  0  0  0  0  0  0  0  0
    4.9130  -46.2104  -24.8780 N   0  0  0  0  0  0  0  0  0  0  0  0
    3.7618  -45.9537  -25.6788 C   0  0  0  0  0  0  0  0  0  0  0  0
    2.6076  -46.1509  -25.2490 O   0  0  0  0  0  0  0  0  0  0  0  0
    5.8804  -46.0456  -25.2343 H   0  0  0  0  0  0  0  0  0  0  0  0
    3.9017  -45.4386  -27.0579 C   0  0  0  0  0  0  0  0  0  0  0  0
    2.9877  -45.7343  -28.0458 C   0  0  0  0  0  0  0  0  0  0  0  0
    3.1794  -45.2307  -29.3208 C   0  0  0  0  0  0  0  0  0  0  0  0
    4.2467  -44.4376  -29.6688 C   0  0  0  0  0  0  0  0  0  0  0  0
    5.1480  -44.1582  -28.6532 C   0  0  0  0  0  0  0  0  0  0  0  0
    4.9902  -44.6405  -27.3769 C   0  0  0  0  0  0  0  0  0  0  0  0
    4.3592  -43.9463  -31.0495 C   0  0  0  0  0  0  0  0  0  0  0  0
    5.5449  -44.5535  -31.7766 C   0  0  0  0  0  0  0  0  0  0  0  0
    6.6711  -43.5662  -31.9638 C   0  0  0  0  0  0  0  0  0  0  0  0
    6.2579  -42.5186  -32.8438 N   0  0  0  0  0  0  0  0  0  0  0  0
    4.8877  -42.0962  -32.5572 C   0  0  0  0  0  0  0  0  0  0  0  0
    4.4778  -42.4586  -31.1446 C   0  0  0  0  0  0  0  0  0  0  0  0
    6.2788  -42.9022  -34.2384 C   0  0  0  0  0  0  0  0  0  0  0  0
    4.9624  -42.5401  -34.8850 C   0  0  0  0  0  0  0  0  0  0  0  0
    7.4242  -42.3500  -35.0145 C   0  0  0  0  0  0  0  0  0  0  0  0
    4.5453  -49.9747  -21.9558 O   0  0  0  0  0  0  0  0  0  0  0  0
    0.1320  -55.2223  -26.8555 C   0  0  0  0  0  0  0  0  0  0  0  0
    0.7598  -54.2758  -25.8804 N   0  0  0  0  0  0  0  0  0  0  0  0
   -0.0060  -53.8579  -24.8138 C   0  0  0  0  0  0  0  0  0  0  0  0
   -1.2156  -54.3586  -24.7951 O   0  0  0  0  0  0  0  0  0  0  0  0
    0.3045  -52.9891  -23.7566 N   0  0  0  0  0  0  0  0  0  0  0  0
   -0.5885  -52.6675  -22.7493 C   0  0  0  0  0  0  0  0  0  0  0  0
    0.0127  -51.8113  -21.8766 C   0  0  0  0  0  0  0  0  0  0  0  0
    1.2925  -51.5853  -22.3270 C   0  0  0  0  0  0  0  0  0  0  0  0
    2.3195  -50.8156  -21.8339 C   0  0  0  0  0  0  0  0  0  0  0  0
    3.5381  -50.7489  -22.4740 C   0  0  0  0  0  0  0  0  0  0  0  0
    3.6862  -51.4834  -23.6270 C   0  0  0  0  0  0  0  0  0  0  0  0
    2.6683  -52.2592  -24.1348 C   0  0  0  0  0  0  0  0  0  0  0  0
    1.4452  -52.3361  -23.5058 C   0  0  0  0  0  0  0  0  0  0  0  0
    1.7212  -54.0353  -26.1207 H   0  0  0  0  0  0  0  0  0  0  0  0
    4.9015  -51.4319  -24.2847 O   0  0  0  0  0  0  0  0  0  0  0  0
    5.8210  -52.5114  -24.2571 C   0  0  0  0  0  0  0  0  0  0  0  0
 27 28  1  0  0  0
 28 29  1  0  0  0
 29 30  2  0  0  0
 29 31  1  0  0  0
 31 32  1  0  0  0
 32 33  2  0  0  0
 33 34  1  0  0  0
 34 35  2  0  0  0
 35 36  1  0  0  0
 36 26  1  0  0  0
 26  1  1  0  0  0
  1  2  2  0  0  0
  2  3  1  0  0  0
  3  4  2  0  0  0
  4  5  1  0  0  0
  5  7  1  0  0  0
  7  8  1  0  0  0
  8  9  2  0  0  0
  8 11  1  0  0  0
 11 12  2  0  0  0
 12 13  1  0  0  0
 13 14  2  0  0  0
 14 15  1  0  0  0
 15 16  2  0  0  0
 14 17  1  0  0  0
 17 18  1  0  0  0
 18 19  1  0  0  0
 19 20  1  0  0  0
 20 21  1  0  0  0
 21 22  1  0  0  0
 20 23  1  0  0  0
 23 24  1  0  0  0
 23 25  1  0  0  0
  5  6  2  0  0  0
 36 37  2  0  0  0
 37 41  1  0  0  0
 41 42  1  0  0  0
 37 38  1  0  0  0
 38 39  2  0  0  0
 39 31  1  0  0  0
 39 34  1  0  0  0
  6  1  1  0  0  0
 16 11  1  0  0  0
 22 17  1  0  0  0
 28 40  1  0  0  0
  7 10  1  0  0  0
M  END
> <minimizedAffinity>
-6.80687

> <CNNscore>
0.1308993101

> <CNNaffinity>
6.2980904579

> <CNN_VS>
0.8244156837

> <CNNaffinity_variance>
0.2304550707

$$$$
[H]c1nc(N([H])C(=O)c2c([H])c([H])c(C3([H])C([H])([H])C([H])([H])N(C([H])(C([H])([H])[H])C([H])([H])[H])C([H])([H])C3([H])[H])c([H])c2[H])c([H])c(Oc2c(OC([H])([H])[H])c([H])c3c(c2[H])c([H])c([H])n3C(=O)N([H])C([H])([H])[H])c1[H]


 42 46  0  0  0  0  0  0  0  0999 V2000
    1.4734  -52.0675  -22.1098 C   0  0  0  0  0  0  0  0  0  0  0  0
    0.1756  -52.3697  -22.4639 C   0  0  0  0  0  0  0  0  0  0  0  0
   -0.2800  -52.1719  -23.7656 C   0  0  0  0  0  0  0  0  0  0  0  0
    0.5705  -51.6781  -24.6805 N   0  0  0  0  0  0  0  0  0  0  0  0
    1.8482  -51.3725  -24.3646 C   0  0  0  0  0  0  0  0  0  0  0  0
    2.3288  -51.5557  -23.0883 C   0  0  0  0  0  0  0  0  0  0  0  0
    2.7405  -50.8453  -25.3326 N   0  0  0  0  0  0  0  0  0  0  0  0
    3.2853  -49.5466  -25.1113 C   0  0  0  0  0  0  0  0  0  0  0  0
    3.0015  -48.8816  -24.0950 O   0  0  0  0  0  0  0  0  0  0  0  0
    2.9767  -51.4050  -26.1817 H   0  0  0  0  0  0  0  0  0  0  0  0
    4.2151  -48.9419  -26.0894 C   0  0  0  0  0  0  0  0  0  0  0  0
    3.8042  -48.5528  -27.3458 C   0  0  0  0  0  0  0  0  0  0  0  0
    4.7246  -48.0022  -28.2209 C   0  0  0  0  0  0  0  0  0  0  0  0
    6.0498  -47.8159  -27.9071 C   0  0  0  0  0  0  0  0  0  0  0  0
    6.4316  -48.2170  -26.6362 C   0  0  0  0  0  0  0  0  0  0  0  0
    5.5463  -48.7670  -25.7418 C   0  0  0  0  0  0  0  0  0  0  0  0
    6.9487  -47.2169  -28.9037 C   0  0  0  0  0  0  0  0  0  0  0  0
    6.5953  -47.6390  -30.3180 C   0  0  0  0  0  0  0  0  0  0  0  0
    7.5869  -48.6236  -30.8885 C   0  0  0  0  0  0  0  0  0  0  0  0
    8.8593  -47.9934  -31.0508 N   0  0  0  0  0  0  0  0  0  0  0  0
    9.1762  -47.1384  -29.9078 C   0  0  0  0  0  0  0  0  0  0  0  0
    8.3908  -47.5417  -28.6768 C   0  0  0  0  0  0  0  0  0  0  0  0
    8.9322  -47.1463  -32.2211 C   0  0  0  0  0  0  0  0  0  0  0  0
    9.5948  -45.8373  -31.8607 C   0  0  0  0  0  0  0  0  0  0  0  0
    9.5956  -47.7736  -33.3981 C   0  0  0  0  0  0  0  0  0  0  0  0
    1.9649  -52.2492  -20.8302 O   0  0  0  0  0  0  0  0  0  0  0  0
   -0.6814  -46.9792  -14.8096 C   0  0  0  0  0  0  0  0  0  0  0  0
   -0.3232  -48.0441  -15.7989 N   0  0  0  0  0  0  0  0  0  0  0  0
   -0.9441  -49.2677  -15.6716 C   0  0  0  0  0  0  0  0  0  0  0  0
   -1.7886  -49.3378  -14.6736 O   0  0  0  0  0  0  0  0  0  0  0  0
   -0.8139  -50.4373  -16.4360 N   0  0  0  0  0  0  0  0  0  0  0  0
   -1.5193  -51.5990  -16.1746 C   0  0  0  0  0  0  0  0  0  0  0  0
   -1.1768  -52.5452  -17.0930 C   0  0  0  0  0  0  0  0  0  0  0  0
   -0.2507  -51.9870  -17.9431 C   0  0  0  0  0  0  0  0  0  0  0  0
    0.4175  -52.4896  -19.0345 C   0  0  0  0  0  0  0  0  0  0  0  0
    1.3157  -51.7210  -19.7429 C   0  0  0  0  0  0  0  0  0  0  0  0
    1.5174  -50.4302  -19.3143 C   0  0  0  0  0  0  0  0  0  0  0  0
    0.8569  -49.9110  -18.2234 C   0  0  0  0  0  0  0  0  0  0  0  0
   -0.0438  -50.6669  -17.5059 C   0  0  0  0  0  0  0  0  0  0  0  0
    0.3661  -47.7362  -16.4843 H   0  0  0  0  0  0  0  0  0  0  0  0
    2.4136  -49.6410  -20.0117 O   0  0  0  0  0  0  0  0  0  0  0  0
    2.0467  -48.3847  -20.5581 C   0  0  0  0  0  0  0  0  0  0  0  0
 27 28  1  0  0  0
 28 29  1  0  0  0
 29 30  2  0  0  0
 29 31  1  0  0  0
 31 32  1  0  0  0
 32 33  2  0  0  0
 33 34  1  0  0  0
 34 35  2  0  0  0
 35 36  1  0  0  0
 36 26  1  0  0  0
 26  1  1  0  0  0
  1  2  2  0  0  0
  2  3  1  0  0  0
  3  4  2  0  0  0
  4  5  1  0  0  0
  5  7  1  0  0  0
  7  8  1  0  0  0
  8  9  2  0  0  0
  8 11  1  0  0  0
 11 12  2  0  0  0
 12 13  1  0  0  0
 13 14  2  0  0  0
 14 15  1  0  0  0
 15 16  2  0  0  0
 14 17  1  0  0  0
 17 18  1  0  0  0
 18 19  1  0  0  0
 19 20  1  0  0  0
 20 21  1  0  0  0
 21 22  1  0  0  0
 20 23  1  0  0  0
 23 24  1  0  0  0
 23 25  1  0  0  0
  5  6  2  0  0  0
 36 37  2  0  0  0
 37 41  1  0  0  0
 41 42  1  0  0  0
 37 38  1  0  0  0
 38 39  2  0  0  0
 39 31  1  0  0  0
 39 34  1  0  0  0
  6  1  1  0  0  0
 16 11  1  0  0  0
 22 17  1  0  0  0
 28 40  1  0  0  0
  7 10  1  0  0  0
M  END
> <minimizedAffinity>
-7.13599

> <CNNscore>
0.1273216754

> <CNNaffinity>
5.9592924118

> <CNN_VS>
0.7587471008

> <CNNaffinity_variance>
0.3223706484

$$$$
[H]c1nc(N([H])C(=O)c2c([H])c([H])c(-c3nc([C@]4([H])C([H])([H])N5C(=O)C([H])([H])C([H])([H])[C@]5([H])C([H])([H])C4([H])[H])n4c([H])c([H])nc(N([H])[H])c34)c([H])c2[H])c([H])c(C(F)(F)F)c1[H]


 42 47  0  0  0  0  0  0  0  0999 V2000
   -0.2827  -53.9136  -24.1721 N   0  0  0  0  0  0  0  0  0  0  0  0
   -0.5764  -53.7155  -22.8031 C   0  0  0  0  0  0  0  0  0  0  0  0
   -1.4847  -54.5739  -22.2178 N   0  0  0  0  0  0  0  0  0  0  0  0
   -1.8305  -54.4730  -20.9399 C   0  0  0  0  0  0  0  0  0  0  0  0
   -1.2748  -53.4711  -20.1349 C   0  0  0  0  0  0  0  0  0  0  0  0
   -0.3994  -52.6332  -20.6811 N   0  0  0  0  0  0  0  0  0  0  0  0
    0.2688  -51.5980  -20.1047 C   0  0  0  0  0  0  0  0  0  0  0  0
    1.0263  -51.1011  -21.0853 N   0  0  0  0  0  0  0  0  0  0  0  0
    0.9022  -51.7306  -22.2395 C   0  0  0  0  0  0  0  0  0  0  0  0
   -0.0427  -52.7395  -21.9949 C   0  0  0  0  0  0  0  0  0  0  0  0
   -0.9756  -53.5212  -24.8323 H   0  0  0  0  0  0  0  0  0  0  0  0
    0.5386  -54.3876  -24.5554 H   0  0  0  0  0  0  0  0  0  0  0  0
    0.2309  -51.1539  -18.6975 C   0  0  0  0  0  0  0  0  0  0  0  0
   -0.4867  -52.1900  -17.8421 C   0  0  0  0  0  0  0  0  0  0  0  0
   -0.8178  -51.5867  -16.4935 C   0  0  0  0  0  0  0  0  0  0  0  0
   -0.0269  -50.3327  -16.1775 C   0  0  0  0  0  0  0  0  0  0  0  0
    0.3168  -50.2894  -14.7208 C   0  0  0  0  0  0  0  0  0  0  0  0
    1.3260  -49.1217  -14.7448 C   0  0  0  0  0  0  0  0  0  0  0  0
    2.0438  -49.3703  -16.0339 C   0  0  0  0  0  0  0  0  0  0  0  0
    3.1653  -48.8260  -16.3080 O   0  0  0  0  0  0  0  0  0  0  0  0
    1.2740  -50.2527  -16.8012 N   0  0  0  0  0  0  0  0  0  0  0  0
    1.5774  -51.0187  -18.0467 C   0  0  0  0  0  0  0  0  0  0  0  0
    1.6704  -51.6735  -23.4963 C   0  0  0  0  0  0  0  0  0  0  0  0
    2.9393  -52.0140  -23.6983 C   0  0  0  0  0  0  0  0  0  0  0  0
    3.5797  -51.6727  -24.9093 C   0  0  0  0  0  0  0  0  0  0  0  0
    2.9196  -50.9986  -25.8841 C   0  0  0  0  0  0  0  0  0  0  0  0
    1.5762  -50.6484  -25.6866 C   0  0  0  0  0  0  0  0  0  0  0  0
    0.9868  -50.9827  -24.5288 C   0  0  0  0  0  0  0  0  0  0  0  0
    3.5385  -50.3650  -27.0450 C   0  0  0  0  0  0  0  0  0  0  0  0
    3.4954  -50.9192  -28.1712 O   0  0  0  0  0  0  0  0  0  0  0  0
    4.1656  -49.1199  -26.9138 N   0  0  0  0  0  0  0  0  0  0  0  0
    4.2489  -48.6430  -26.0182 H   0  0  0  0  0  0  0  0  0  0  0  0
    4.4791  -48.3758  -28.1288 C   0  0  0  0  0  0  0  0  0  0  0  0
    3.6386  -47.4600  -28.6209 C   0  0  0  0  0  0  0  0  0  0  0  0
    3.9083  -46.9156  -29.8871 C   0  0  0  0  0  0  0  0  0  0  0  0
    5.0257  -47.3401  -30.5586 C   0  0  0  0  0  0  0  0  0  0  0  0
    5.8699  -48.2596  -30.0434 C   0  0  0  0  0  0  0  0  0  0  0  0
    5.5766  -48.7602  -28.8315 N   0  0  0  0  0  0  0  0  0  0  0  0
    2.9692  -45.8927  -30.4811 C   0  0  0  0  0  0  0  0  0  0  0  0
    3.6296  -44.6748  -30.4548 F   0  0  0  0  0  0  0  0  0  0  0  0
    2.6637  -46.3394  -31.7205 F   0  0  0  0  0  0  0  0  0  0  0  0
    1.8445  -45.8688  -29.6761 F   0  0  0  0  0  0  0  0  0  0  0  0
  1  2  1  0  0  0
  2  3  2  0  0  0
  3  4  1  0  0  0
  4  5  2  0  0  0
  5  6  1  0  0  0
  6  7  1  0  0  0
  7  8  2  0  0  0
  8  9  1  0  0  0
  9 23  1  0  0  0
 23 24  2  0  0  0
 24 25  1  0  0  0
 25 26  2  0  0  0
 26 27  1  0  0  0
 27 28  2  0  0  0
 26 29  1  0  0  0
 29 30  2  0  0  0
 29 31  1  0  0  0
 31 33  1  0  0  0
 33 34  2  0  0  0
 34 35  1  0  0  0
 35 36  2  0  0  0
 36 37  1  0  0  0
 37 38  2  0  0  0
 35 39  1  0  0  0
 39 40  1  0  0  0
 39 41  1  0  0  0
 39 42  1  0  0  0
  9 10  2  0  0  0
  7 13  1  0  0  0
 13 14  1  0  0  0
 14 15  1  0  0  0
 15 16  1  0  0  0
 16 17  1  0  0  0
 17 18  1  0  0  0
 18 19  1  0  0  0
 19 20  2  0  0  0
 19 21  1  0  0  0
 21 22  1  0  0  0
 10  2  1  0  0  0
 22 13  1  0  0  0
 10  6  1  0  0  0
 21 16  1  0  0  0
 28 23  1  0  0  0
 38 33  1  0  0  0
  1 11  1  0  0  0
  1 12  1  0  0  0
 31 32  1  0  0  0
M  END
> <minimizedAffinity>
-8.38604

> <CNNscore>
0.2272808999

> <CNNaffinity>
7.0261163712

> <CNN_VS>
1.5969020128

> <CNNaffinity_variance>
0.3716061711

$$$$
[H]c1nc(N([H])C(=O)c2c([H])c([H])c(-c3nc([C@]4([H])C([H])([H])N5C(=O)C([H])([H])C([H])([H])[C@]5([H])C([H])([H])C4([H])[H])n4c([H])c([H])nc(N([H])[H])c34)c([H])c2[H])c([H])c(C(F)(F)F)c1[H]


 42 47  0  0  0  0  0  0  0  0999 V2000
   -0.3295  -53.2902  -23.4647 N   0  0  0  0  0  0  0  0  0  0  0  0
   -0.3513  -53.1624  -22.0566 C   0  0  0  0  0  0  0  0  0  0  0  0
   -1.3150  -53.8720  -21.3694 N   0  0  0  0  0  0  0  0  0  0  0  0
   -1.4222  -53.8204  -20.0470 C   0  0  0  0  0  0  0  0  0  0  0  0
   -0.5452  -53.0266  -19.2979 C   0  0  0  0  0  0  0  0  0  0  0  0
    0.3888  -52.3340  -19.9419 N   0  0  0  0  0  0  0  0  0  0  0  0
    1.3446  -51.5094  -19.4354 C   0  0  0  0  0  0  0  0  0  0  0  0
    2.0230  -51.0866  -20.5047 N   0  0  0  0  0  0  0  0  0  0  0  0
    1.5850  -51.5716  -21.6522 C   0  0  0  0  0  0  0  0  0  0  0  0
    0.4996  -52.3898  -21.3018 C   0  0  0  0  0  0  0  0  0  0  0  0
   -1.0202  -52.7094  -23.9702 H   0  0  0  0  0  0  0  0  0  0  0  0
    0.3004  -53.8816  -24.0120 H   0  0  0  0  0  0  0  0  0  0  0  0
    1.6278  -51.1961  -18.0210 C   0  0  0  0  0  0  0  0  0  0  0  0
    3.0931  -50.8153  -17.8537 C   0  0  0  0  0  0  0  0  0  0  0  0
    3.4513  -50.8276  -16.3827 C   0  0  0  0  0  0  0  0  0  0  0  0
    2.2467  -50.7888  -15.4631 C   0  0  0  0  0  0  0  0  0  0  0  0
    2.5444  -49.9590  -14.2529 C   0  0  0  0  0  0  0  0  0  0  0  0
    1.1170  -49.8532  -13.6748 C   0  0  0  0  0  0  0  0  0  0  0  0
    0.2968  -49.7224  -14.9194 C   0  0  0  0  0  0  0  0  0  0  0  0
   -0.9083  -49.3022  -14.9031 O   0  0  0  0  0  0  0  0  0  0  0  0
    1.0800  -50.1311  -16.0055 N   0  0  0  0  0  0  0  0  0  0  0  0
    0.8828  -50.0095  -17.4807 C   0  0  0  0  0  0  0  0  0  0  0  0
    2.1362  -51.5550  -23.0193 C   0  0  0  0  0  0  0  0  0  0  0  0
    3.3156  -52.0072  -23.4337 C   0  0  0  0  0  0  0  0  0  0  0  0
    3.7763  -51.6970  -24.7317 C   0  0  0  0  0  0  0  0  0  0  0  0
    3.0315  -50.9403  -25.5762 C   0  0  0  0  0  0  0  0  0  0  0  0
    1.7793  -50.4716  -25.1537 C   0  0  0  0  0  0  0  0  0  0  0  0
    1.3605  -50.7782  -23.9167 C   0  0  0  0  0  0  0  0  0  0  0  0
    3.5074  -50.3386  -26.8186 C   0  0  0  0  0  0  0  0  0  0  0  0
    3.2853  -50.8960  -27.9220 O   0  0  0  0  0  0  0  0  0  0  0  0
    4.1964  -49.1199  -26.7891 N   0  0  0  0  0  0  0  0  0  0  0  0
    4.4230  -48.6425  -25.9189 H   0  0  0  0  0  0  0  0  0  0  0  0
    4.3671  -48.3953  -28.0438 C   0  0  0  0  0  0  0  0  0  0  0  0
    3.5357  -47.4099  -28.3975 C   0  0  0  0  0  0  0  0  0  0  0  0
    3.6385  -46.8804  -29.6941 C   0  0  0  0  0  0  0  0  0  0  0  0
    4.5922  -47.3904  -30.5368 C   0  0  0  0  0  0  0  0  0  0  0  0
    5.4307  -48.3800  -30.1609 C   0  0  0  0  0  0  0  0  0  0  0  0
    5.2994  -48.8636  -28.9142 N   0  0  0  0  0  0  0  0  0  0  0  0
    2.7023  -45.7793  -30.1328 C   0  0  0  0  0  0  0  0  0  0  0  0
    3.4630  -44.6277  -30.2562 F   0  0  0  0  0  0  0  0  0  0  0  0
    2.1368  -46.2051  -31.2852 F   0  0  0  0  0  0  0  0  0  0  0  0
    1.7503  -45.6452  -29.1381 F   0  0  0  0  0  0  0  0  0  0  0  0
  1  2  1  0  0  0
  2  3  2  0  0  0
  3  4  1  0  0  0
  4  5  2  0  0  0
  5  6  1  0  0  0
  6  7  1  0  0  0
  7  8  2  0  0  0
  8  9  1  0  0  0
  9 23  1  0  0  0
 23 24  2  0  0  0
 24 25  1  0  0  0
 25 26  2  0  0  0
 26 27  1  0  0  0
 27 28  2  0  0  0
 26 29  1  0  0  0
 29 30  2  0  0  0
 29 31  1  0  0  0
 31 33  1  0  0  0
 33 34  2  0  0  0
 34 35  1  0  0  0
 35 36  2  0  0  0
 36 37  1  0  0  0
 37 38  2  0  0  0
 35 39  1  0  0  0
 39 40  1  0  0  0
 39 41  1  0  0  0
 39 42  1  0  0  0
  9 10  2  0  0  0
  7 13  1  0  0  0
 13 14  1  0  0  0
 14 15  1  0  0  0
 15 16  1  0  0  0
 16 17  1  0  0  0
 17 18  1  0  0  0
 18 19  1  0  0  0
 19 20  2  0  0  0
 19 21  1  0  0  0
 21 22  1  0  0  0
 10  2  1  0  0  0
 22 13  1  0  0  0
 10  6  1  0  0  0
 21 16  1  0  0  0
 28 23  1  0  0  0
 38 33  1  0  0  0
  1 11  1  0  0  0
  1 12  1  0  0  0
 31 32  1  0  0  0
M  END
> <minimizedAffinity>
-8.40295

> <CNNscore>
0.1901226193

> <CNNaffinity>
6.9105515480

> <CNN_VS>
1.3138521910

> <CNNaffinity_variance>
0.2197347581

$$$$
[H]c1nc(N([H])C(=O)c2c([H])c([H])c(-c3nc([C@]4([H])C([H])([H])N5C(=O)C([H])([H])C([H])([H])[C@]5([H])C([H])([H])C4([H])[H])n4c([H])c([H])nc(N([H])[H])c34)c([H])c2[H])c([H])c(C(F)(F)F)c1[H]


 42 47  0  0  0  0  0  0  0  0999 V2000
   -2.2098  -53.1126  -17.7458 N   0  0  0  0  0  0  0  0  0  0  0  0
   -1.4775  -52.3081  -16.8423 C   0  0  0  0  0  0  0  0  0  0  0  0
   -1.9116  -52.2671  -15.5330 N   0  0  0  0  0  0  0  0  0  0  0  0
   -1.2960  -51.5422  -14.6066 C   0  0  0  0  0  0  0  0  0  0  0  0
   -0.1685  -50.7815  -14.9391 C   0  0  0  0  0  0  0  0  0  0  0  0
    0.2640  -50.8064  -16.1957 N   0  0  0  0  0  0  0  0  0  0  0  0
    1.3278  -50.1632  -16.7477 C   0  0  0  0  0  0  0  0  0  0  0  0
    1.3217  -50.5433  -18.0274 N   0  0  0  0  0  0  0  0  0  0  0  0
    0.3466  -51.3764  -18.3418 C   0  0  0  0  0  0  0  0  0  0  0  0
   -0.3686  -51.5543  -17.1471 C   0  0  0  0  0  0  0  0  0  0  0  0
   -3.0738  -52.6823  -18.1176 H   0  0  0  0  0  0  0  0  0  0  0  0
   -1.9598  -54.0520  -18.0638 H   0  0  0  0  0  0  0  0  0  0  0  0
    2.3178  -49.2936  -16.0825 C   0  0  0  0  0  0  0  0  0  0  0  0
    3.2296  -50.1269  -15.1912 C   0  0  0  0  0  0  0  0  0  0  0  0
    4.0049  -49.2109  -14.2681 C   0  0  0  0  0  0  0  0  0  0  0  0
    4.0159  -47.7629  -14.7166 C   0  0  0  0  0  0  0  0  0  0  0  0
    5.3433  -47.1376  -14.4190 C   0  0  0  0  0  0  0  0  0  0  0  0
    5.1769  -45.8256  -15.2150 C   0  0  0  0  0  0  0  0  0  0  0  0
    4.4345  -46.2993  -16.4247 C   0  0  0  0  0  0  0  0  0  0  0  0
    4.3546  -45.6055  -17.4931 O   0  0  0  0  0  0  0  0  0  0  0  0
    3.8949  -47.5599  -16.1421 N   0  0  0  0  0  0  0  0  0  0  0  0
    3.2651  -48.5950  -17.0149 C   0  0  0  0  0  0  0  0  0  0  0  0
    0.0810  -52.1984  -19.5363 C   0  0  0  0  0  0  0  0  0  0  0  0
    0.4893  -53.4385  -19.7860 C   0  0  0  0  0  0  0  0  0  0  0  0
    0.3416  -53.9856  -21.0791 C   0  0  0  0  0  0  0  0  0  0  0  0
   -0.2168  -53.2652  -22.0840 C   0  0  0  0  0  0  0  0  0  0  0  0
   -0.6646  -51.9616  -21.8265 C   0  0  0  0  0  0  0  0  0  0  0  0
   -0.5150  -51.4612  -20.5908 C   0  0  0  0  0  0  0  0  0  0  0  0
   -0.1790  -53.6158  -23.5009 C   0  0  0  0  0  0  0  0  0  0  0  0
   -0.8340  -54.5970  -23.9317 O   0  0  0  0  0  0  0  0  0  0  0  0
    0.5719  -52.8430  -24.3952 N   0  0  0  0  0  0  0  0  0  0  0  0
    1.1394  -52.0544  -24.0911 H   0  0  0  0  0  0  0  0  0  0  0  0
    0.3325  -53.0165  -25.8238 C   0  0  0  0  0  0  0  0  0  0  0  0
   -0.7819  -52.5589  -26.4037 C   0  0  0  0  0  0  0  0  0  0  0  0
   -1.0394  -52.9192  -27.7364 C   0  0  0  0  0  0  0  0  0  0  0  0
   -0.1332  -53.7163  -28.3868 C   0  0  0  0  0  0  0  0  0  0  0  0
    0.9926  -54.1628  -27.7894 C   0  0  0  0  0  0  0  0  0  0  0  0
    1.2026  -53.8003  -26.5128 N   0  0  0  0  0  0  0  0  0  0  0  0
   -2.2984  -52.4352  -28.4160 C   0  0  0  0  0  0  0  0  0  0  0  0
   -3.1645  -52.0233  -27.4158 F   0  0  0  0  0  0  0  0  0  0  0  0
   -1.9134  -51.4551  -29.2645 F   0  0  0  0  0  0  0  0  0  0  0  0
   -2.8156  -53.5131  -29.1121 F   0  0  0  0  0  0  0  0  0  0  0  0
  1  2  1  0  0  0
  2  3  2  0  0  0
  3  4  1  0  0  0
  4  5  2  0  0  0
  5  6  1  0  0  0
  6  7  1  0  0  0
  7  8  2  0  0  0
  8  9  1  0  0  0
  9 23  1  0  0  0
 23 24  2  0  0  0
 24 25  1  0  0  0
 25 26  2  0  0  0
 26 27  1  0  0  0
 27 28  2  0  0  0
 26 29  1  0  0  0
 29 30  2  0  0  0
 29 31  1  0  0  0
 31 33  1  0  0  0
 33 34  2  0  0  0
 34 35  1  0  0  0
 35 36  2  0  0  0
 36 37  1  0  0  0
 37 38  2  0  0  0
 35 39  1  0  0  0
 39 40  1  0  0  0
 39 41  1  0  0  0
 39 42  1  0  0  0
  9 10  2  0  0  0
  7 13  1  0  0  0
 13 14  1  0  0  0
 14 15  1  0  0  0
 15 16  1  0  0  0
 16 17  1  0  0  0
 17 18  1  0  0  0
 18 19  1  0  0  0
 19 20  2  0  0  0
 19 21  1  0  0  0
 21 22  1  0  0  0
 10  2  1  0  0  0
 22 13  1  0  0  0
 10  6  1  0  0  0
 21 16  1  0  0  0
 28 23  1  0  0  0
 38 33  1  0  0  0
  1 11  1  0  0  0
  1 12  1  0  0  0
 31 32  1  0  0  0
M  END
> <minimizedAffinity>
-8.99585

> <CNNscore>
0.1387745291

> <CNNaffinity>
6.9683980942

> <CNN_VS>
0.9670361876

> <CNNaffinity_variance>
0.2008342296

$$$$
[H]c1nc(N([H])C(=O)c2c([H])c([H])c(-c3nc([C@]4([H])C([H])([H])N5C(=O)C([H])([H])C([H])([H])[C@]5([H])C([H])([H])C4([H])[H])n4c([H])c([H])nc(N([H])[H])c34)c([H])c2[H])c([H])c(C(F)(F)F)c1[H]


 42 47  0  0  0  0  0  0  0  0999 V2000
   -0.3299  -53.5290  -23.6149 N   0  0  0  0  0  0  0  0  0  0  0  0
   -0.3632  -53.3178  -22.2170 C   0  0  0  0  0  0  0  0  0  0  0  0
   -1.2925  -54.0322  -21.4888 N   0  0  0  0  0  0  0  0  0  0  0  0
   -1.4069  -53.9064  -20.1720 C   0  0  0  0  0  0  0  0  0  0  0  0
   -0.5736  -53.0257  -19.4717 C   0  0  0  0  0  0  0  0  0  0  0  0
    0.3267  -52.3271  -20.1559 N   0  0  0  0  0  0  0  0  0  0  0  0
    1.2381  -51.4263  -19.6995 C   0  0  0  0  0  0  0  0  0  0  0  0
    1.8982  -51.0353  -20.7920 N   0  0  0  0  0  0  0  0  0  0  0  0
    1.4894  -51.6100  -21.9084 C   0  0  0  0  0  0  0  0  0  0  0  0
    0.4451  -52.4591  -21.5098 C   0  0  0  0  0  0  0  0  0  0  0  0
   -1.0470  -53.0152  -24.1550 H   0  0  0  0  0  0  0  0  0  0  0  0
    0.3310  -54.1199  -24.1250 H   0  0  0  0  0  0  0  0  0  0  0  0
    1.5000  -51.0144  -18.3065 C   0  0  0  0  0  0  0  0  0  0  0  0
    3.0001  -50.8952  -18.0704 C   0  0  0  0  0  0  0  0  0  0  0  0
    3.2699  -50.8087  -16.5831 C   0  0  0  0  0  0  0  0  0  0  0  0
    2.0478  -50.4448  -15.7634 C   0  0  0  0  0  0  0  0  0  0  0  0
    2.4339  -49.5542  -14.6234 C   0  0  0  0  0  0  0  0  0  0  0  0
    1.0246  -49.1220  -14.1657 C   0  0  0  0  0  0  0  0  0  0  0  0
    0.3126  -48.9819  -15.4742 C   0  0  0  0  0  0  0  0  0  0  0  0
   -0.7886  -48.3467  -15.5889 O   0  0  0  0  0  0  0  0  0  0  0  0
    1.0597  -49.6475  -16.4533 N   0  0  0  0  0  0  0  0  0  0  0  0
    0.9688  -49.6576  -17.9438 C   0  0  0  0  0  0  0  0  0  0  0  0
    2.0441  -51.6482  -23.2736 C   0  0  0  0  0  0  0  0  0  0  0  0
    3.1852  -52.1954  -23.6804 C   0  0  0  0  0  0  0  0  0  0  0  0
    3.6726  -51.9332  -24.9791 C   0  0  0  0  0  0  0  0  0  0  0  0
    2.9923  -51.1271  -25.8323 C   0  0  0  0  0  0  0  0  0  0  0  0
    1.7798  -50.5576  -25.4178 C   0  0  0  0  0  0  0  0  0  0  0  0
    1.3346  -50.8199  -24.1798 C   0  0  0  0  0  0  0  0  0  0  0  0
    3.5177  -50.5750  -27.0777 C   0  0  0  0  0  0  0  0  0  0  0  0
    3.3809  -51.1995  -28.1587 O   0  0  0  0  0  0  0  0  0  0  0  0
    4.1590  -49.3302  -27.0781 N   0  0  0  0  0  0  0  0  0  0  0  0
    4.3169  -48.7979  -26.2247 H   0  0  0  0  0  0  0  0  0  0  0  0
    4.3762  -48.6683  -28.3599 C   0  0  0  0  0  0  0  0  0  0  0  0
    5.4172  -48.9819  -29.1379 C   0  0  0  0  0  0  0  0  0  0  0  0
    5.6756  -48.1838  -30.2642 C   0  0  0  0  0  0  0  0  0  0  0  0
    4.8444  -47.1244  -30.5215 C   0  0  0  0  0  0  0  0  0  0  0  0
    3.7912  -46.8264  -29.7304 C   0  0  0  0  0  0  0  0  0  0  0  0
    3.5784  -47.6103  -28.6602 N   0  0  0  0  0  0  0  0  0  0  0  0
    6.8547  -48.4986  -31.1540 C   0  0  0  0  0  0  0  0  0  0  0  0
    7.9871  -48.4477  -30.3570 F   0  0  0  0  0  0  0  0  0  0  0  0
    6.6027  -49.7121  -31.6950 F   0  0  0  0  0  0  0  0  0  0  0  0
    6.8881  -47.5213  -32.1326 F   0  0  0  0  0  0  0  0  0  0  0  0
  1  2  1  0  0  0
  2  3  2  0  0  0
  3  4  1  0  0  0
  4  5  2  0  0  0
  5  6  1  0  0  0
  6  7  1  0  0  0
  7  8  2  0  0  0
  8  9  1  0  0  0
  9 23  1  0  0  0
 23 24  2  0  0  0
 24 25  1  0  0  0
 25 26  2  0  0  0
 26 27  1  0  0  0
 27 28  2  0  0  0
 26 29  1  0  0  0
 29 30  2  0  0  0
 29 31  1  0  0  0
 31 33  1  0  0  0
 33 34  2  0  0  0
 34 35  1  0  0  0
 35 36  2  0  0  0
 36 37  1  0  0  0
 37 38  2  0  0  0
 35 39  1  0  0  0
 39 40  1  0  0  0
 39 41  1  0  0  0
 39 42  1  0  0  0
  9 10  2  0  0  0
  7 13  1  0  0  0
 13 14  1  0  0  0
 14 15  1  0  0  0
 15 16  1  0  0  0
 16 17  1  0  0  0
 17 18  1  0  0  0
 18 19  1  0  0  0
 19 20  2  0  0  0
 19 21  1  0  0  0
 21 22  1  0  0  0
 10  2  1  0  0  0
 22 13  1  0  0  0
 10  6  1  0  0  0
 21 16  1  0  0  0
 28 23  1  0  0  0
 38 33  1  0  0  0
  1 11  1  0  0  0
  1 12  1  0  0  0
 31 32  1  0  0  0
M  END
> <minimizedAffinity>
-7.94490

> <CNNscore>
0.1196873337

> <CNNaffinity>
6.7336173058

> <CNN_VS>
0.8059287071

> <CNNaffinity_variance>
0.3119078577

$$$$
[H]c1nc(N([H])C(=O)c2c([H])c([H])c(-c3nc([C@]4([H])C([H])([H])N5C(=O)C([H])([H])C([H])([H])[C@]5([H])C([H])([H])C4([H])[H])n4c([H])c([H])nc(N([H])[H])c34)c([H])c2[H])c([H])c(C(F)(F)F)c1[H]


 42 47  0  0  0  0  0  0  0  0999 V2000
    3.0009  -51.8281  -22.5947 N   0  0  0  0  0  0  0  0  0  0  0  0
    2.9691  -51.4301  -23.9514 C   0  0  0  0  0  0  0  0  0  0  0  0
    2.7970  -52.4183  -24.8991 N   0  0  0  0  0  0  0  0  0  0  0  0
    2.7544  -52.1513  -26.1990 C   0  0  0  0  0  0  0  0  0  0  0  0
    2.8886  -50.8340  -26.6541 C   0  0  0  0  0  0  0  0  0  0  0  0
    3.0570  -49.8682  -25.7565 N   0  0  0  0  0  0  0  0  0  0  0  0
    3.2022  -48.5305  -25.9556 C   0  0  0  0  0  0  0  0  0  0  0  0
    3.3213  -48.0202  -24.7277 N   0  0  0  0  0  0  0  0  0  0  0  0
    3.2625  -48.9160  -23.7593 C   0  0  0  0  0  0  0  0  0  0  0  0
    3.0983  -50.1438  -24.4197 C   0  0  0  0  0  0  0  0  0  0  0  0
    3.9071  -52.2045  -22.2675 H   0  0  0  0  0  0  0  0  0  0  0  0
    2.2306  -51.7664  -21.9247 H   0  0  0  0  0  0  0  0  0  0  0  0
    3.1677  -47.7854  -27.2294 C   0  0  0  0  0  0  0  0  0  0  0  0
    2.9137  -46.3073  -26.9630 C   0  0  0  0  0  0  0  0  0  0  0  0
    2.5458  -45.6184  -28.2601 C   0  0  0  0  0  0  0  0  0  0  0  0
    2.9188  -46.4115  -29.4970 C   0  0  0  0  0  0  0  0  0  0  0  0
    3.3775  -45.4907  -30.5850 C   0  0  0  0  0  0  0  0  0  0  0  0
    3.9488  -46.5385  -31.5639 C   0  0  0  0  0  0  0  0  0  0  0  0
    4.5724  -47.5211  -30.6235 C   0  0  0  0  0  0  0  0  0  0  0  0
    5.4245  -48.3899  -31.0084 O   0  0  0  0  0  0  0  0  0  0  0  0
    4.0535  -47.2927  -29.3434 N   0  0  0  0  0  0  0  0  0  0  0  0
    4.4580  -47.7970  -27.9973 C   0  0  0  0  0  0  0  0  0  0  0  0
    3.1360  -48.7979  -22.2954 C   0  0  0  0  0  0  0  0  0  0  0  0
    2.0553  -48.4834  -21.5882 C   0  0  0  0  0  0  0  0  0  0  0  0
    2.1712  -48.1850  -20.2132 C   0  0  0  0  0  0  0  0  0  0  0  0
    3.3759  -48.2149  -19.5899 C   0  0  0  0  0  0  0  0  0  0  0  0
    4.5195  -48.5606  -20.3240 C   0  0  0  0  0  0  0  0  0  0  0  0
    4.3870  -48.8408  -21.6292 C   0  0  0  0  0  0  0  0  0  0  0  0
    3.6575  -47.6745  -18.2630 C   0  0  0  0  0  0  0  0  0  0  0  0
    4.8387  -47.4317  -17.9119 O   0  0  0  0  0  0  0  0  0  0  0  0
    2.6064  -47.4005  -17.3793 N   0  0  0  0  0  0  0  0  0  0  0  0
    1.6352  -47.6036  -17.6074 H   0  0  0  0  0  0  0  0  0  0  0  0
    2.8870  -46.5721  -16.2117 C   0  0  0  0  0  0  0  0  0  0  0  0
    2.9626  -45.2405  -16.3047 C   0  0  0  0  0  0  0  0  0  0  0  0
    3.4182  -44.5165  -15.1909 C   0  0  0  0  0  0  0  0  0  0  0  0
    3.7566  -45.2054  -14.0549 C   0  0  0  0  0  0  0  0  0  0  0  0
    3.6658  -46.5504  -13.9742 C   0  0  0  0  0  0  0  0  0  0  0  0
    3.2295  -47.2086  -15.0613 N   0  0  0  0  0  0  0  0  0  0  0  0
    3.5338  -43.0126  -15.2681 C   0  0  0  0  0  0  0  0  0  0  0  0
    2.3949  -42.5523  -15.9091 F   0  0  0  0  0  0  0  0  0  0  0  0
    3.6743  -42.5815  -13.9939 F   0  0  0  0  0  0  0  0  0  0  0  0
    4.6696  -42.7372  -16.0082 F   0  0  0  0  0  0  0  0  0  0  0  0
  1  2  1  0  0  0
  2  3  2  0  0  0
  3  4  1  0  0  0
  4  5  2  0  0  0
  5  6  1  0  0  0
  6  7  1  0  0  0
  7  8  2  0  0  0
  8  9  1  0  0  0
  9 23  1  0  0  0
 23 24  2  0  0  0
 24 25  1  0  0  0
 25 26  2  0  0  0
 26 27  1  0  0  0
 27 28  2  0  0  0
 26 29  1  0  0  0
 29 30  2  0  0  0
 29 31  1  0  0  0
 31 33  1  0  0  0
 33 34  2  0  0  0
 34 35  1  0  0  0
 35 36  2  0  0  0
 36 37  1  0  0  0
 37 38  2  0  0  0
 35 39  1  0  0  0
 39 40  1  0  0  0
 39 41  1  0  0  0
 39 42  1  0  0  0
  9 10  2  0  0  0
  7 13  1  0  0  0
 13 14  1  0  0  0
 14 15  1  0  0  0
 15 16  1  0  0  0
 16 17  1  0  0  0
 17 18  1  0  0  0
 18 19  1  0  0  0
 19 20  2  0  0  0
 19 21  1  0  0  0
 21 22  1  0  0  0
 10  2  1  0  0  0
 22 13  1  0  0  0
 10  6  1  0  0  0
 21 16  1  0  0  0
 28 23  1  0  0  0
 38 33  1  0  0  0
  1 11  1  0  0  0
  1 12  1  0  0  0
 31 32  1  0  0  0
M  END
> <minimizedAffinity>
-6.06355

> <CNNscore>
0.1104496196

> <CNNaffinity>
6.1255235672

> <CNN_VS>
0.6765617728

> <CNNaffinity_variance>
0.0854836702

$$$$
[H]c1nc(N([H])C(=O)c2c([H])c([H])c(-c3nc([C@]4([H])C([H])([H])N5C(=O)C([H])([H])C([H])([H])[C@]5([H])C([H])([H])C4([H])[H])n4c([H])c([H])nc(N([H])[H])c34)c([H])c2[H])c([H])c(C(F)(F)F)c1[H]


 42 47  0  0  0  0  0  0  0  0999 V2000
    2.8287  -52.0598  -22.7475 N   0  0  0  0  0  0  0  0  0  0  0  0
    2.8927  -51.6113  -24.0871 C   0  0  0  0  0  0  0  0  0  0  0  0
    2.8583  -52.5693  -25.0798 N   0  0  0  0  0  0  0  0  0  0  0  0
    2.9139  -52.2543  -26.3684 C   0  0  0  0  0  0  0  0  0  0  0  0
    3.0142  -50.9150  -26.7642 C   0  0  0  0  0  0  0  0  0  0  0  0
    3.0507  -49.9776  -25.8225 N   0  0  0  0  0  0  0  0  0  0  0  0
    3.1386  -48.6274  -25.9619 C   0  0  0  0  0  0  0  0  0  0  0  0
    3.1224  -48.1600  -24.7115 N   0  0  0  0  0  0  0  0  0  0  0  0
    3.0294  -49.0948  -23.7835 C   0  0  0  0  0  0  0  0  0  0  0  0
    2.9910  -50.3027  -24.4976 C   0  0  0  0  0  0  0  0  0  0  0  0
    3.7224  -52.4012  -22.3543 H   0  0  0  0  0  0  0  0  0  0  0  0
    2.0010  -52.0644  -22.1467 H   0  0  0  0  0  0  0  0  0  0  0  0
    3.1737  -47.8358  -27.2073 C   0  0  0  0  0  0  0  0  0  0  0  0
    3.0532  -46.3517  -26.8864 C   0  0  0  0  0  0  0  0  0  0  0  0
    2.7513  -45.5852  -28.1567 C   0  0  0  0  0  0  0  0  0  0  0  0
    3.0536  -46.3626  -29.4225 C   0  0  0  0  0  0  0  0  0  0  0  0
    3.5954  -45.4476  -30.4765 C   0  0  0  0  0  0  0  0  0  0  0  0
    4.0719  -46.5058  -31.4942 C   0  0  0  0  0  0  0  0  0  0  0  0
    4.6028  -47.5745  -30.5915 C   0  0  0  0  0  0  0  0  0  0  0  0
    5.3739  -48.5017  -31.0094 O   0  0  0  0  0  0  0  0  0  0  0  0
    4.1041  -47.3475  -29.3031 N   0  0  0  0  0  0  0  0  0  0  0  0
    4.4592  -47.9353  -27.9770 C   0  0  0  0  0  0  0  0  0  0  0  0
    2.7701  -49.0407  -22.3334 C   0  0  0  0  0  0  0  0  0  0  0  0
    1.6033  -48.8941  -21.7136 C   0  0  0  0  0  0  0  0  0  0  0  0
    1.5664  -48.6266  -20.3279 C   0  0  0  0  0  0  0  0  0  0  0  0
    2.7098  -48.5169  -19.6058 C   0  0  0  0  0  0  0  0  0  0  0  0
    3.9451  -48.6853  -20.2477 C   0  0  0  0  0  0  0  0  0  0  0  0
    3.9574  -48.9392  -21.5649 C   0  0  0  0  0  0  0  0  0  0  0  0
    2.8080  -47.9863  -18.2491 C   0  0  0  0  0  0  0  0  0  0  0  0
    2.5620  -48.7193  -17.2594 O   0  0  0  0  0  0  0  0  0  0  0  0
    3.2014  -46.6585  -18.0417 N   0  0  0  0  0  0  0  0  0  0  0  0
    3.3866  -46.0181  -18.8112 H   0  0  0  0  0  0  0  0  0  0  0  0
    3.6004  -46.2611  -16.6959 C   0  0  0  0  0  0  0  0  0  0  0  0
    4.8128  -46.5536  -16.2142 C   0  0  0  0  0  0  0  0  0  0  0  0
    5.0694  -46.3110  -14.8550 C   0  0  0  0  0  0  0  0  0  0  0  0
    4.0693  -45.7768  -14.0842 C   0  0  0  0  0  0  0  0  0  0  0  0
    2.8526  -45.4784  -14.5884 C   0  0  0  0  0  0  0  0  0  0  0  0
    2.6436  -45.7280  -15.8920 N   0  0  0  0  0  0  0  0  0  0  0  0
    6.4222  -46.6474  -14.2737 C   0  0  0  0  0  0  0  0  0  0  0  0
    6.7805  -45.5938  -13.4482 F   0  0  0  0  0  0  0  0  0  0  0  0
    6.2735  -47.8326  -13.6394 F   0  0  0  0  0  0  0  0  0  0  0  0
    7.2960  -46.7665  -15.3396 F   0  0  0  0  0  0  0  0  0  0  0  0
  1  2  1  0  0  0
  2  3  2  0  0  0
  3  4  1  0  0  0
  4  5  2  0  0  0
  5  6  1  0  0  0
  6  7  1  0  0  0
  7  8  2  0  0  0
  8  9  1  0  0  0
  9 23  1  0  0  0
 23 24  2  0  0  0
 24 25  1  0  0  0
 25 26  2  0  0  0
 26 27  1  0  0  0
 27 28  2  0  0  0
 26 29  1  0  0  0
 29 30  2  0  0  0
 29 31  1  0  0  0
 31 33  1  0  0  0
 33 34  2  0  0  0
 34 35  1  0  0  0
 35 36  2  0  0  0
 36 37  1  0  0  0
 37 38  2  0  0  0
 35 39  1  0  0  0
 39 40  1  0  0  0
 39 41  1  0  0  0
 39 42  1  0  0  0
  9 10  2  0  0  0
  7 13  1  0  0  0
 13 14  1  0  0  0
 14 15  1  0  0  0
 15 16  1  0  0  0
 16 17  1  0  0  0
 17 18  1  0  0  0
 18 19  1  0  0  0
 19 20  2  0  0  0
 19 21  1  0  0  0
 21 22  1  0  0  0
 10  2  1  0  0  0
 22 13  1  0  0  0
 10  6  1  0  0  0
 21 16  1  0  0  0
 28 23  1  0  0  0
 38 33  1  0  0  0
  1 11  1  0  0  0
  1 12  1  0  0  0
 31 32  1  0  0  0
M  END
> <minimizedAffinity>
-6.44604

> <CNNscore>
0.0777230039

> <CNNaffinity>
5.9481282234

> <CNN_VS>
0.4623063803

> <CNNaffinity_variance>
0.0955436975

$$$$
[H]c1nc(N([H])C(=O)c2c([H])c([H])c(-c3nc([C@]4([H])C([H])([H])N5C(=O)C([H])([H])C([H])([H])[C@]5([H])C([H])([H])C4([H])[H])n4c([H])c([H])nc(N([H])[H])c34)c([H])c2[H])c([H])c(C(F)(F)F)c1[H]


 42 47  0  0  0  0  0  0  0  0999 V2000
    0.5030  -51.6238  -22.9313 N   0  0  0  0  0  0  0  0  0  0  0  0
    0.0562  -52.0526  -21.6600 C   0  0  0  0  0  0  0  0  0  0  0  0
   -0.8100  -53.1261  -21.6201 N   0  0  0  0  0  0  0  0  0  0  0  0
   -1.2891  -53.6057  -20.4785 C   0  0  0  0  0  0  0  0  0  0  0  0
   -0.9242  -53.0225  -19.2590 C   0  0  0  0  0  0  0  0  0  0  0  0
   -0.0922  -51.9861  -19.2768 N   0  0  0  0  0  0  0  0  0  0  0  0
    0.4031  -51.2681  -18.2331 C   0  0  0  0  0  0  0  0  0  0  0  0
    1.1973  -50.3571  -18.8003 N   0  0  0  0  0  0  0  0  0  0  0  0
    1.2548  -50.4315  -20.1174 C   0  0  0  0  0  0  0  0  0  0  0  0
    0.4018  -51.4952  -20.4514 C   0  0  0  0  0  0  0  0  0  0  0  0
   -0.1587  -51.0216  -23.4504 H   0  0  0  0  0  0  0  0  0  0  0  0
    1.4034  -51.8416  -23.3647 H   0  0  0  0  0  0  0  0  0  0  0  0
    0.1799  -51.4785  -16.7892 C   0  0  0  0  0  0  0  0  0  0  0  0
    1.3651  -50.9455  -15.9945 C   0  0  0  0  0  0  0  0  0  0  0  0
    1.2895  -51.4601  -14.5725 C   0  0  0  0  0  0  0  0  0  0  0  0
   -0.0795  -51.9851  -14.1877 C   0  0  0  0  0  0  0  0  0  0  0  0
   -0.3831  -51.6461  -12.7613 C   0  0  0  0  0  0  0  0  0  0  0  0
   -1.8811  -52.0175  -12.7377 C   0  0  0  0  0  0  0  0  0  0  0  0
   -2.3259  -51.5618  -14.0917 C   0  0  0  0  0  0  0  0  0  0  0  0
   -3.5564  -51.3940  -14.3866 O   0  0  0  0  0  0  0  0  0  0  0  0
   -1.1892  -51.3807  -14.8886 N   0  0  0  0  0  0  0  0  0  0  0  0
   -0.9969  -50.7377  -16.2225 C   0  0  0  0  0  0  0  0  0  0  0  0
    2.1331  -49.7965  -21.1166 C   0  0  0  0  0  0  0  0  0  0  0  0
    1.8842  -48.7271  -21.8660 C   0  0  0  0  0  0  0  0  0  0  0  0
    2.7427  -48.3980  -22.9372 C   0  0  0  0  0  0  0  0  0  0  0  0
    3.8308  -49.1573  -23.2206 C   0  0  0  0  0  0  0  0  0  0  0  0
    4.1103  -50.2785  -22.4262 C   0  0  0  0  0  0  0  0  0  0  0  0
    3.2817  -50.5731  -21.4132 C   0  0  0  0  0  0  0  0  0  0  0  0
    4.6261  -49.0765  -24.4424 C   0  0  0  0  0  0  0  0  0  0  0  0
    4.7186  -50.0673  -25.2086 O   0  0  0  0  0  0  0  0  0  0  0  0
    5.2735  -47.8817  -24.7806 N   0  0  0  0  0  0  0  0  0  0  0  0
    5.2497  -47.0598  -24.1803 H   0  0  0  0  0  0  0  0  0  0  0  0
    5.7780  -47.7337  -26.1414 C   0  0  0  0  0  0  0  0  0  0  0  0
    5.0227  -47.2068  -27.1106 C   0  0  0  0  0  0  0  0  0  0  0  0
    5.4943  -47.2632  -28.4322 C   0  0  0  0  0  0  0  0  0  0  0  0
    6.7117  -47.8473  -28.6694 C   0  0  0  0  0  0  0  0  0  0  0  0
    7.4669  -48.3669  -27.6777 C   0  0  0  0  0  0  0  0  0  0  0  0
    6.9806  -48.2977  -26.4271 N   0  0  0  0  0  0  0  0  0  0  0  0
    4.6577  -46.6944  -29.5538 C   0  0  0  0  0  0  0  0  0  0  0  0
    5.3736  -46.8798  -30.7256 F   0  0  0  0  0  0  0  0  0  0  0  0
    3.4751  -47.3490  -29.5084 F   0  0  0  0  0  0  0  0  0  0  0  0
    4.4859  -45.3492  -29.2807 F   0  0  0  0  0  0  0  0  0  0  0  0
  1  2  1  0  0  0
  2  3  2  0  0  0
  3  4  1  0  0  0
  4  5  2  0  0  0
  5  6  1  0  0  0
  6  7  1  0  0  0
  7  8  2  0  0  0
  8  9  1  0  0  0
  9 23  1  0  0  0
 23 24  2  0  0  0
 24 25  1  0  0  0
 25 26  2  0  0  0
 26 27  1  0  0  0
 27 28  2  0  0  0
 26 29  1  0  0  0
 29 30  2  0  0  0
 29 31  1  0  0  0
 31 33  1  0  0  0
 33 34  2  0  0  0
 34 35  1  0  0  0
 35 36  2  0  0  0
 36 37  1  0  0  0
 37 38  2  0  0  0
 35 39  1  0  0  0
 39 40  1  0  0  0
 39 41  1  0  0  0
 39 42  1  0  0  0
  9 10  2  0  0  0
  7 13  1  0  0  0
 13 14  1  0  0  0
 14 15  1  0  0  0
 15 16  1  0  0  0
 16 17  1  0  0  0
 17 18  1  0  0  0
 18 19  1  0  0  0
 19 20  2  0  0  0
 19 21  1  0  0  0
 21 22  1  0  0  0
 10  2  1  0  0  0
 22 13  1  0  0  0
 10  6  1  0  0  0
 21 16  1  0  0  0
 28 23  1  0  0  0
 38 33  1  0  0  0
  1 11  1  0  0  0
  1 12  1  0  0  0
 31 32  1  0  0  0
M  END
> <minimizedAffinity>
-7.12983

> <CNNscore>
0.0737052038

> <CNNaffinity>
6.5048246384

> <CNN_VS>
0.4794394374

> <CNNaffinity_variance>
0.1983040124

$$$$
[H]c1nc(N([H])C(=O)c2c([H])c([H])c(-c3nc([C@]4([H])C([H])([H])N5C(=O)C([H])([H])C([H])([H])[C@]5([H])C([H])([H])C4([H])[H])n4c([H])c([H])nc(N([H])[H])c34)c([H])c2[H])c([H])c(C(F)(F)F)c1[H]


 42 47  0  0  0  0  0  0  0  0999 V2000
    0.5382  -52.9230  -23.8974 N   0  0  0  0  0  0  0  0  0  0  0  0
    0.1953  -53.0035  -22.5278 C   0  0  0  0  0  0  0  0  0  0  0  0
   -0.8060  -53.8850  -22.1746 N   0  0  0  0  0  0  0  0  0  0  0  0
   -1.2041  -54.0354  -20.9170 C   0  0  0  0  0  0  0  0  0  0  0  0
   -0.6096  -53.2870  -19.8938 C   0  0  0  0  0  0  0  0  0  0  0  0
    0.3555  -52.4311  -20.2143 N   0  0  0  0  0  0  0  0  0  0  0  0
    1.0758  -51.6104  -19.4032 C   0  0  0  0  0  0  0  0  0  0  0  0
    1.9172  -50.9805  -20.2263 N   0  0  0  0  0  0  0  0  0  0  0  0
    1.7992  -51.3291  -21.4945 C   0  0  0  0  0  0  0  0  0  0  0  0
    0.7658  -52.2790  -21.5078 C   0  0  0  0  0  0  0  0  0  0  0  0
   -0.0882  -52.3359  -24.4743 H   0  0  0  0  0  0  0  0  0  0  0  0
    1.3365  -53.3728  -24.3519 H   0  0  0  0  0  0  0  0  0  0  0  0
    1.0056  -51.4829  -17.9343 C   0  0  0  0  0  0  0  0  0  0  0  0
    2.1778  -50.6541  -17.4254 C   0  0  0  0  0  0  0  0  0  0  0  0
    2.2900  -50.8103  -15.9236 C   0  0  0  0  0  0  0  0  0  0  0  0
    1.0361  -51.3618  -15.2742 C   0  0  0  0  0  0  0  0  0  0  0  0
    0.8157  -50.7169  -13.9410 C   0  0  0  0  0  0  0  0  0  0  0  0
   -0.6160  -51.2218  -13.6616 C   0  0  0  0  0  0  0  0  0  0  0  0
   -1.2291  -51.1586  -15.0250 C   0  0  0  0  0  0  0  0  0  0  0  0
   -2.4916  -51.1942  -15.2092 O   0  0  0  0  0  0  0  0  0  0  0  0
   -0.1969  -51.0633  -15.9659 N   0  0  0  0  0  0  0  0  0  0  0  0
   -0.2023  -50.7498  -17.4260 C   0  0  0  0  0  0  0  0  0  0  0  0
    2.6294  -51.0672  -22.6840 C   0  0  0  0  0  0  0  0  0  0  0  0
    3.6965  -51.7396  -23.1038 C   0  0  0  0  0  0  0  0  0  0  0  0
    4.5090  -51.2094  -24.1294 C   0  0  0  0  0  0  0  0  0  0  0  0
    4.2196  -50.0152  -24.7045 C   0  0  0  0  0  0  0  0  0  0  0  0
    3.0873  -49.3057  -24.2792 C   0  0  0  0  0  0  0  0  0  0  0  0
    2.3288  -49.8277  -23.3036 C   0  0  0  0  0  0  0  0  0  0  0  0
    5.1154  -49.2506  -25.5675 C   0  0  0  0  0  0  0  0  0  0  0  0
    4.6516  -48.5013  -26.4624 O   0  0  0  0  0  0  0  0  0  0  0  0
    6.5017  -49.3303  -25.3864 N   0  0  0  0  0  0  0  0  0  0  0  0
    6.9267  -49.9422  -24.6925 H   0  0  0  0  0  0  0  0  0  0  0  0
    7.3390  -48.3253  -26.0323 C   0  0  0  0  0  0  0  0  0  0  0  0
    7.6085  -47.1578  -25.4391 C   0  0  0  0  0  0  0  0  0  0  0  0
    8.2606  -46.1627  -26.1852 C   0  0  0  0  0  0  0  0  0  0  0  0
    8.6004  -46.4349  -27.4852 C   0  0  0  0  0  0  0  0  0  0  0  0
    8.3292  -47.6231  -28.0669 C   0  0  0  0  0  0  0  0  0  0  0  0
    7.7009  -48.5486  -27.3227 N   0  0  0  0  0  0  0  0  0  0  0  0
    8.5633  -44.8254  -25.5518 C   0  0  0  0  0  0  0  0  0  0  0  0
    7.7140  -44.6918  -24.4651 F   0  0  0  0  0  0  0  0  0  0  0  0
    9.8784  -44.8485  -25.2375 F   0  0  0  0  0  0  0  0  0  0  0  0
    8.3037  -43.8622  -26.5102 F   0  0  0  0  0  0  0  0  0  0  0  0
  1  2  1  0  0  0
  2  3  2  0  0  0
  3  4  1  0  0  0
  4  5  2  0  0  0
  5  6  1  0  0  0
  6  7  1  0  0  0
  7  8  2  0  0  0
  8  9  1  0  0  0
  9 23  1  0  0  0
 23 24  2  0  0  0
 24 25  1  0  0  0
 25 26  2  0  0  0
 26 27  1  0  0  0
 27 28  2  0  0  0
 26 29  1  0  0  0
 29 30  2  0  0  0
 29 31  1  0  0  0
 31 33  1  0  0  0
 33 34  2  0  0  0
 34 35  1  0  0  0
 35 36  2  0  0  0
 36 37  1  0  0  0
 37 38  2  0  0  0
 35 39  1  0  0  0
 39 40  1  0  0  0
 39 41  1  0  0  0
 39 42  1  0  0  0
  9 10  2  0  0  0
  7 13  1  0  0  0
 13 14  1  0  0  0
 14 15  1  0  0  0
 15 16  1  0  0  0
 16 17  1  0  0  0
 17 18  1  0  0  0
 18 19  1  0  0  0
 19 20  2  0  0  0
 19 21  1  0  0  0
 21 22  1  0  0  0
 10  2  1  0  0  0
 22 13  1  0  0  0
 10  6  1  0  0  0
 21 16  1  0  0  0
 28 23  1  0  0  0
 38 33  1  0  0  0
  1 11  1  0  0  0
  1 12  1  0  0  0
 31 32  1  0  0  0
M  END
> <minimizedAffinity>
-6.65940

> <CNNscore>
0.0727251023

> <CNNaffinity>
6.5143165588

> <CNN_VS>
0.4737543464

> <CNNaffinity_variance>
0.0902224630

$$$$
[H]c1nc(N([H])C(=O)c2c([H])c([H])c(-c3nc([C@]4([H])C([H])([H])N5C(=O)C([H])([H])C([H])([H])[C@]5([H])C([H])([H])C4([H])[H])n4c([H])c([H])nc(N([H])[H])c34)c([H])c2[H])c([H])c(C(F)(F)F)c1[H]


 42 47  0  0  0  0  0  0  0  0999 V2000
    6.5998  -48.6497  -22.7807 N   0  0  0  0  0  0  0  0  0  0  0  0
    6.2215  -48.7039  -21.4191 C   0  0  0  0  0  0  0  0  0  0  0  0
    7.1733  -48.3587  -20.4814 N   0  0  0  0  0  0  0  0  0  0  0  0
    6.9208  -48.3775  -19.1781 C   0  0  0  0  0  0  0  0  0  0  0  0
    5.6578  -48.7585  -18.7088 C   0  0  0  0  0  0  0  0  0  0  0  0
    4.7282  -49.0964  -19.5966 N   0  0  0  0  0  0  0  0  0  0  0  0
    3.4437  -49.4899  -19.3832 C   0  0  0  0  0  0  0  0  0  0  0  0
    2.9477  -49.6917  -20.6061 N   0  0  0  0  0  0  0  0  0  0  0  0
    3.8036  -49.4590  -21.5844 C   0  0  0  0  0  0  0  0  0  0  0  0
    4.9882  -49.0744  -20.9370 C   0  0  0  0  0  0  0  0  0  0  0  0
    7.1339  -49.4671  -23.1220 H   0  0  0  0  0  0  0  0  0  0  0  0
    6.3866  -47.8988  -23.4416 H   0  0  0  0  0  0  0  0  0  0  0  0
    2.7227  -49.6055  -18.1003 C   0  0  0  0  0  0  0  0  0  0  0  0
    1.2193  -49.5533  -18.3397 C   0  0  0  0  0  0  0  0  0  0  0  0
    0.5075  -49.3320  -17.0219 C   0  0  0  0  0  0  0  0  0  0  0  0
    1.3658  -49.6324  -15.8091 C   0  0  0  0  0  0  0  0  0  0  0  0
    0.5372  -50.2543  -14.7281 C   0  0  0  0  0  0  0  0  0  0  0  0
    1.6712  -50.7060  -13.7834 C   0  0  0  0  0  0  0  0  0  0  0  0
    2.7157  -51.1515  -14.7577 C   0  0  0  0  0  0  0  0  0  0  0  0
    3.7020  -51.8855  -14.4149 O   0  0  0  0  0  0  0  0  0  0  0  0
    2.3951  -50.6254  -16.0149 N   0  0  0  0  0  0  0  0  0  0  0  0
    2.9284  -50.9074  -17.3810 C   0  0  0  0  0  0  0  0  0  0  0  0
    3.6440  -49.3445  -23.0453 C   0  0  0  0  0  0  0  0  0  0  0  0
    3.8743  -50.2706  -23.9708 C   0  0  0  0  0  0  0  0  0  0  0  0
    3.8953  -49.9161  -25.3372 C   0  0  0  0  0  0  0  0  0  0  0  0
    3.6807  -48.6357  -25.7312 C   0  0  0  0  0  0  0  0  0  0  0  0
    3.4217  -47.6546  -24.7634 C   0  0  0  0  0  0  0  0  0  0  0  0
    3.4059  -48.0130  -23.4708 C   0  0  0  0  0  0  0  0  0  0  0  0
    3.9392  -48.1051  -27.0667 C   0  0  0  0  0  0  0  0  0  0  0  0
    3.6427  -46.9176  -27.3485 O   0  0  0  0  0  0  0  0  0  0  0  0
    4.5432  -48.9130  -28.0380 N   0  0  0  0  0  0  0  0  0  0  0  0
    4.7785  -49.8885  -27.8664 H   0  0  0  0  0  0  0  0  0  0  0  0
    5.0773  -48.2695  -29.2334 C   0  0  0  0  0  0  0  0  0  0  0  0
    4.2981  -47.9987  -30.2856 C   0  0  0  0  0  0  0  0  0  0  0  0
    4.9052  -47.5528  -31.4708 C   0  0  0  0  0  0  0  0  0  0  0  0
    6.2680  -47.4058  -31.4943 C   0  0  0  0  0  0  0  0  0  0  0  0
    7.0402  -47.6749  -30.4195 C   0  0  0  0  0  0  0  0  0  0  0  0
    6.4238  -48.1030  -29.3050 N   0  0  0  0  0  0  0  0  0  0  0  0
    4.0564  -47.2559  -32.6844 C   0  0  0  0  0  0  0  0  0  0  0  0
    2.7646  -47.6548  -32.3811 F   0  0  0  0  0  0  0  0  0  0  0  0
    4.1941  -45.9320  -32.9234 F   0  0  0  0  0  0  0  0  0  0  0  0
    4.5774  -48.0006  -33.7274 F   0  0  0  0  0  0  0  0  0  0  0  0
  1  2  1  0  0  0
  2  3  2  0  0  0
  3  4  1  0  0  0
  4  5  2  0  0  0
  5  6  1  0  0  0
  6  7  1  0  0  0
  7  8  2  0  0  0
  8  9  1  0  0  0
  9 23  1  0  0  0
 23 24  2  0  0  0
 24 25  1  0  0  0
 25 26  2  0  0  0
 26 27  1  0  0  0
 27 28  2  0  0  0
 26 29  1  0  0  0
 29 30  2  0  0  0
 29 31  1  0  0  0
 31 33  1  0  0  0
 33 34  2  0  0  0
 34 35  1  0  0  0
 35 36  2  0  0  0
 36 37  1  0  0  0
 37 38  2  0  0  0
 35 39  1  0  0  0
 39 40  1  0  0  0
 39 41  1  0  0  0
 39 42  1  0  0  0
  9 10  2  0  0  0
  7 13  1  0  0  0
 13 14  1  0  0  0
 14 15  1  0  0  0
 15 16  1  0  0  0
 16 17  1  0  0  0
 17 18  1  0  0  0
 18 19  1  0  0  0
 19 20  2  0  0  0
 19 21  1  0  0  0
 21 22  1  0  0  0
 10  2  1  0  0  0
 22 13  1  0  0  0
 10  6  1  0  0  0
 21 16  1  0  0  0
 28 23  1  0  0  0
 38 33  1  0  0  0
  1 11  1  0  0  0
  1 12  1  0  0  0
 31 32  1  0  0  0
M  END
> <minimizedAffinity>
-6.38439

> <CNNscore>
0.0687920898

> <CNNaffinity>
5.8981842995

> <CNN_VS>
0.4057484269

> <CNNaffinity_variance>
0.2988606095

$$$$
[H]c1sc(N2C([H])([H])C([H])([H])[C@@]([H])(N([H])C(=O)c3c([H])c([H])c(F)c([H])c3[H])C2([H])[H])nc1-c1c([H])c([H])c([H])c([H])c1[H]


 27 30  0  0  0  0  0  0  0  0999 V2000
    0.9159  -50.4692  -20.1929 C   0  0  0  0  0  0  0  0  0  0  0  0
    0.4606  -51.3743  -19.0910 C   0  0  0  0  0  0  0  0  0  0  0  0
    0.5880  -52.7745  -19.6420 C   0  0  0  0  0  0  0  0  0  0  0  0
    0.6684  -52.5558  -21.0623 N   0  0  0  0  0  0  0  0  0  0  0  0
    1.5030  -51.4003  -21.2631 C   0  0  0  0  0  0  0  0  0  0  0  0
    0.0685  -53.2973  -22.1474 C   0  0  0  0  0  0  0  0  0  0  0  0
    0.1524  -53.0534  -23.4351 N   0  0  0  0  0  0  0  0  0  0  0  0
   -0.4560  -53.8327  -24.2961 C   0  0  0  0  0  0  0  0  0  0  0  0
   -1.1650  -54.8896  -23.7690 C   0  0  0  0  0  0  0  0  0  0  0  0
   -0.9120  -54.6929  -22.0978 S   0  0  0  0  0  0  0  0  0  0  0  0
   -0.3817  -53.5783  -25.7642 C   0  0  0  0  0  0  0  0  0  0  0  0
   -1.0550  -52.5410  -26.3656 C   0  0  0  0  0  0  0  0  0  0  0  0
   -0.9822  -52.3077  -27.7276 C   0  0  0  0  0  0  0  0  0  0  0  0
   -0.2120  -53.1365  -28.5174 C   0  0  0  0  0  0  0  0  0  0  0  0
    0.4659  -54.1736  -27.9410 C   0  0  0  0  0  0  0  0  0  0  0  0
    0.3794  -54.3922  -26.5655 C   0  0  0  0  0  0  0  0  0  0  0  0
    2.0150  -48.2894  -20.3959 C   0  0  0  0  0  0  0  0  0  0  0  0
    1.1486  -47.9005  -21.2468 O   0  0  0  0  0  0  0  0  0  0  0  0
    1.9766  -49.5629  -19.8147 N   0  0  0  0  0  0  0  0  0  0  0  0
    2.6712  -49.8714  -19.1330 H   0  0  0  0  0  0  0  0  0  0  0  0
    6.0653  -44.6965  -18.8813 F   0  0  0  0  0  0  0  0  0  0  0  0
    5.0936  -45.5596  -19.2772 C   0  0  0  0  0  0  0  0  0  0  0  0
    4.8629  -45.8323  -20.6060 C   0  0  0  0  0  0  0  0  0  0  0  0
    3.8589  -46.7215  -20.9712 C   0  0  0  0  0  0  0  0  0  0  0  0
    3.0802  -47.3437  -20.0320 C   0  0  0  0  0  0  0  0  0  0  0  0
    3.3180  -47.0638  -18.6888 C   0  0  0  0  0  0  0  0  0  0  0  0
    4.2998  -46.1950  -18.3410 C   0  0  0  0  0  0  0  0  0  0  0  0
 21 22  1  0  0  0
 22 23  2  0  0  0
 23 24  1  0  0  0
 24 25  2  0  0  0
 25 26  1  0  0  0
 26 27  2  0  0  0
 25 17  1  0  0  0
 17 18  2  0  0  0
 17 19  1  0  0  0
 19  1  1  0  0  0
  1  2  1  0  0  0
  2  3  1  0  0  0
  3  4  1  0  0  0
  4  5  1  0  0  0
  4  6  1  0  0  0
  6  7  2  0  0  0
  7  8  1  0  0  0
  8  9  2  0  0  0
  9 10  1  0  0  0
  8 11  1  0  0  0
 11 12  2  0  0  0
 12 13  1  0  0  0
 13 14  2  0  0  0
 14 15  1  0  0  0
 15 16  2  0  0  0
 27 22  1  0  0  0
  5  1  1  0  0  0
 10  6  1  0  0  0
 16 11  1  0  0  0
 19 20  1  0  0  0
M  END
> <minimizedAffinity>
-7.01290

> <CNNscore>
0.4223457873

> <CNNaffinity>
5.9908299446

> <CNN_VS>
2.5302016735

> <CNNaffinity_variance>
0.1836089790

$$$$
[H]c1sc(N2C([H])([H])C([H])([H])[C@@]([H])(N([H])C(=O)c3c([H])c([H])c(F)c([H])c3[H])C2([H])[H])nc1-c1c([H])c([H])c([H])c([H])c1[H]


 27 30  0  0  0  0  0  0  0  0999 V2000
    0.4289  -50.9692  -19.4249 C   0  0  0  0  0  0  0  0  0  0  0  0
    0.0092  -52.1047  -18.5444 C   0  0  0  0  0  0  0  0  0  0  0  0
    0.3088  -53.3572  -19.3330 C   0  0  0  0  0  0  0  0  0  0  0  0
    0.4436  -52.8660  -20.6791 N   0  0  0  0  0  0  0  0  0  0  0  0
    1.1654  -51.6230  -20.6027 C   0  0  0  0  0  0  0  0  0  0  0  0
   -0.0176  -53.4385  -21.9228 C   0  0  0  0  0  0  0  0  0  0  0  0
    0.3993  -53.1695  -23.1388 N   0  0  0  0  0  0  0  0  0  0  0  0
   -0.1277  -53.7856  -24.1692 C   0  0  0  0  0  0  0  0  0  0  0  0
   -1.1163  -54.7039  -23.8921 C   0  0  0  0  0  0  0  0  0  0  0  0
   -1.2185  -54.6195  -22.1956 S   0  0  0  0  0  0  0  0  0  0  0  0
    0.3229  -53.4980  -25.5620 C   0  0  0  0  0  0  0  0  0  0  0  0
    0.9818  -52.3384  -25.8970 C   0  0  0  0  0  0  0  0  0  0  0  0
    1.3992  -52.0763  -27.1899 C   0  0  0  0  0  0  0  0  0  0  0  0
    1.1516  -53.0015  -28.1833 C   0  0  0  0  0  0  0  0  0  0  0  0
    0.4984  -54.1610  -27.8730 C   0  0  0  0  0  0  0  0  0  0  0  0
    0.0854  -54.4066  -26.5629 C   0  0  0  0  0  0  0  0  0  0  0  0
    1.0435  -49.4852  -17.5754 C   0  0  0  0  0  0  0  0  0  0  0  0
   -0.0527  -49.7351  -16.9738 O   0  0  0  0  0  0  0  0  0  0  0  0
    1.3693  -50.0596  -18.8103 N   0  0  0  0  0  0  0  0  0  0  0  0
    2.2481  -49.8584  -19.2894 H   0  0  0  0  0  0  0  0  0  0  0  0
    4.5353  -45.9192  -14.9872 F   0  0  0  0  0  0  0  0  0  0  0  0
    3.7129  -46.7854  -15.6348 C   0  0  0  0  0  0  0  0  0  0  0  0
    4.0954  -47.4192  -16.7947 C   0  0  0  0  0  0  0  0  0  0  0  0
    3.2252  -48.2987  -17.4281 C   0  0  0  0  0  0  0  0  0  0  0  0
    1.9785  -48.5568  -16.9234 C   0  0  0  0  0  0  0  0  0  0  0  0
    1.5968  -47.9124  -15.7494 C   0  0  0  0  0  0  0  0  0  0  0  0
    2.4520  -47.0557  -15.1375 C   0  0  0  0  0  0  0  0  0  0  0  0
 21 22  1  0  0  0
 22 23  2  0  0  0
 23 24  1  0  0  0
 24 25  2  0  0  0
 25 26  1  0  0  0
 26 27  2  0  0  0
 25 17  1  0  0  0
 17 18  2  0  0  0
 17 19  1  0  0  0
 19  1  1  0  0  0
  1  2  1  0  0  0
  2  3  1  0  0  0
  3  4  1  0  0  0
  4  5  1  0  0  0
  4  6  1  0  0  0
  6  7  2  0  0  0
  7  8  1  0  0  0
  8  9  2  0  0  0
  9 10  1  0  0  0
  8 11  1  0  0  0
 11 12  2  0  0  0
 12 13  1  0  0  0
 13 14  2  0  0  0
 14 15  1  0  0  0
 15 16  2  0  0  0
 27 22  1  0  0  0
  5  1  1  0  0  0
 10  6  1  0  0  0
 16 11  1  0  0  0
 19 20  1  0  0  0
M  END
> <minimizedAffinity>
-6.24032

> <CNNscore>
0.3406827152

> <CNNaffinity>
5.8477482796

> <CNN_VS>
1.9922267199

> <CNNaffinity_variance>
0.3794101477

$$$$
[H]c1sc(N2C([H])([H])C([H])([H])[C@@]([H])(N([H])C(=O)c3c([H])c([H])c(F)c([H])c3[H])C2([H])[H])nc1-c1c([H])c([H])c([H])c([H])c1[H]


 27 30  0  0  0  0  0  0  0  0999 V2000
    4.4189  -49.4438  -24.3844 C   0  0  0  0  0  0  0  0  0  0  0  0
    4.6165  -50.9272  -24.3488 C   0  0  0  0  0  0  0  0  0  0  0  0
    3.8791  -51.4019  -23.1195 C   0  0  0  0  0  0  0  0  0  0  0  0
    3.7119  -50.1927  -22.3571 N   0  0  0  0  0  0  0  0  0  0  0  0
    3.3819  -49.1487  -23.2914 C   0  0  0  0  0  0  0  0  0  0  0  0
    3.8283  -49.9736  -20.9338 C   0  0  0  0  0  0  0  0  0  0  0  0
    2.9297  -50.2071  -20.0050 N   0  0  0  0  0  0  0  0  0  0  0  0
    3.1980  -49.9522  -18.7473 C   0  0  0  0  0  0  0  0  0  0  0  0
    4.4484  -49.4392  -18.4809 C   0  0  0  0  0  0  0  0  0  0  0  0
    5.1413  -49.3600  -20.0331 S   0  0  0  0  0  0  0  0  0  0  0  0
    2.1959  -50.2037  -17.6711 C   0  0  0  0  0  0  0  0  0  0  0  0
    2.5423  -50.7462  -16.4559 C   0  0  0  0  0  0  0  0  0  0  0  0
    1.6097  -50.9765  -15.4600 C   0  0  0  0  0  0  0  0  0  0  0  0
    0.2864  -50.6551  -15.6825 C   0  0  0  0  0  0  0  0  0  0  0  0
   -0.0806  -50.1147  -16.8828 C   0  0  0  0  0  0  0  0  0  0  0  0
    0.8752  -49.8903  -17.8746 C   0  0  0  0  0  0  0  0  0  0  0  0
    4.1214  -47.6287  -26.0024 C   0  0  0  0  0  0  0  0  0  0  0  0
    4.8371  -46.8444  -25.2962 O   0  0  0  0  0  0  0  0  0  0  0  0
    3.8583  -48.9506  -25.6221 N   0  0  0  0  0  0  0  0  0  0  0  0
    3.2855  -49.5766  -26.1899 H   0  0  0  0  0  0  0  0  0  0  0  0
    1.9138  -45.5296  -30.7276 F   0  0  0  0  0  0  0  0  0  0  0  0
    2.4691  -46.0513  -29.6027 C   0  0  0  0  0  0  0  0  0  0  0  0
    3.5879  -46.8509  -29.6496 C   0  0  0  0  0  0  0  0  0  0  0  0
    4.1263  -47.3661  -28.4762 C   0  0  0  0  0  0  0  0  0  0  0  0
    3.5668  -47.0967  -27.2556 C   0  0  0  0  0  0  0  0  0  0  0  0
    2.4346  -46.2870  -27.2142 C   0  0  0  0  0  0  0  0  0  0  0  0
    1.9155  -45.7883  -28.3638 C   0  0  0  0  0  0  0  0  0  0  0  0
 21 22  1  0  0  0
 22 23  2  0  0  0
 23 24  1  0  0  0
 24 25  2  0  0  0
 25 26  1  0  0  0
 26 27  2  0  0  0
 25 17  1  0  0  0
 17 18  2  0  0  0
 17 19  1  0  0  0
 19  1  1  0  0  0
  1  2  1  0  0  0
  2  3  1  0  0  0
  3  4  1  0  0  0
  4  5  1  0  0  0
  4  6  1  0  0  0
  6  7  2  0  0  0
  7  8  1  0  0  0
  8  9  2  0  0  0
  9 10  1  0  0  0
  8 11  1  0  0  0
 11 12  2  0  0  0
 12 13  1  0  0  0
 13 14  2  0  0  0
 14 15  1  0  0  0
 15 16  2  0  0  0
 27 22  1  0  0  0
  5  1  1  0  0  0
 10  6  1  0  0  0
 16 11  1  0  0  0
 19 20  1  0  0  0
M  END
> <minimizedAffinity>
-5.31710

> <CNNscore>
0.3147045374

> <CNNaffinity>
5.3103742599

> <CNN_VS>
1.6711988449

> <CNNaffinity_variance>
0.3883953094

$$$$
[H]c1sc(N2C([H])([H])C([H])([H])[C@@]([H])(N([H])C(=O)c3c([H])c([H])c(F)c([H])c3[H])C2([H])[H])nc1-c1c([H])c([H])c([H])c([H])c1[H]


 27 30  0  0  0  0  0  0  0  0999 V2000
   -0.0725  -52.3834  -22.0587 C   0  0  0  0  0  0  0  0  0  0  0  0
    1.0470  -53.2738  -21.6175 C   0  0  0  0  0  0  0  0  0  0  0  0
    0.5887  -53.8796  -20.3124 C   0  0  0  0  0  0  0  0  0  0  0  0
   -0.4829  -53.0067  -19.9107 N   0  0  0  0  0  0  0  0  0  0  0  0
   -1.2310  -52.6856  -21.0977 C   0  0  0  0  0  0  0  0  0  0  0  0
   -0.8221  -52.5016  -18.6003 C   0  0  0  0  0  0  0  0  0  0  0  0
   -0.2826  -51.4893  -17.9610 N   0  0  0  0  0  0  0  0  0  0  0  0
   -0.7124  -51.1568  -16.7678 C   0  0  0  0  0  0  0  0  0  0  0  0
   -1.7359  -51.9209  -16.2521 C   0  0  0  0  0  0  0  0  0  0  0  0
   -2.0056  -53.0471  -17.4988 S   0  0  0  0  0  0  0  0  0  0  0  0
   -0.1163  -50.0142  -16.0162 C   0  0  0  0  0  0  0  0  0  0  0  0
    1.1725  -50.0415  -15.5374 C   0  0  0  0  0  0  0  0  0  0  0  0
    1.7219  -48.9790  -14.8419 C   0  0  0  0  0  0  0  0  0  0  0  0
    0.9610  -47.8503  -14.6158 C   0  0  0  0  0  0  0  0  0  0  0  0
   -0.3224  -47.8012  -15.0827 C   0  0  0  0  0  0  0  0  0  0  0  0
   -0.8582  -48.8835  -15.7819 C   0  0  0  0  0  0  0  0  0  0  0  0
    0.0237  -52.0047  -24.4770 C   0  0  0  0  0  0  0  0  0  0  0  0
    0.9742  -51.1663  -24.3360 O   0  0  0  0  0  0  0  0  0  0  0  0
   -0.5628  -52.6636  -23.3893 N   0  0  0  0  0  0  0  0  0  0  0  0
   -1.3231  -53.3350  -23.5051 H   0  0  0  0  0  0  0  0  0  0  0  0
   -1.6764  -53.0537  -29.7321 F   0  0  0  0  0  0  0  0  0  0  0  0
   -1.2946  -52.7914  -28.4549 C   0  0  0  0  0  0  0  0  0  0  0  0
   -2.1862  -52.3391  -27.5095 C   0  0  0  0  0  0  0  0  0  0  0  0
   -1.7567  -52.0817  -26.2129 C   0  0  0  0  0  0  0  0  0  0  0  0
   -0.4513  -52.2680  -25.8431 C   0  0  0  0  0  0  0  0  0  0  0  0
    0.4466  -52.7257  -26.8040 C   0  0  0  0  0  0  0  0  0  0  0  0
    0.0193  -52.9745  -28.0671 C   0  0  0  0  0  0  0  0  0  0  0  0
 21 22  1  0  0  0
 22 23  2  0  0  0
 23 24  1  0  0  0
 24 25  2  0  0  0
 25 26  1  0  0  0
 26 27  2  0  0  0
 25 17  1  0  0  0
 17 18  2  0  0  0
 17 19  1  0  0  0
 19  1  1  0  0  0
  1  2  1  0  0  0
  2  3  1  0  0  0
  3  4  1  0  0  0
  4  5  1  0  0  0
  4  6  1  0  0  0
  6  7  2  0  0  0
  7  8  1  0  0  0
  8  9  2  0  0  0
  9 10  1  0  0  0
  8 11  1  0  0  0
 11 12  2  0  0  0
 12 13  1  0  0  0
 13 14  2  0  0  0
 14 15  1  0  0  0
 15 16  2  0  0  0
 27 22  1  0  0  0
  5  1  1  0  0  0
 10  6  1  0  0  0
 16 11  1  0  0  0
 19 20  1  0  0  0
M  END
> <minimizedAffinity>
-7.13710

> <CNNscore>
0.3007548749

> <CNNaffinity>
5.8471269608

> <CNN_VS>
1.7585519552

> <CNNaffinity_variance>
0.0883337110

$$$$
[H]c1sc(N2C([H])([H])C([H])([H])[C@@]([H])(N([H])C(=O)c3c([H])c([H])c(F)c([H])c3[H])C2([H])[H])nc1-c1c([H])c([H])c([H])c([H])c1[H]


 27 30  0  0  0  0  0  0  0  0999 V2000
    3.7550  -48.4219  -23.5659 C   0  0  0  0  0  0  0  0  0  0  0  0
    4.6488  -49.6088  -23.3838 C   0  0  0  0  0  0  0  0  0  0  0  0
    3.9610  -50.4765  -22.3570 C   0  0  0  0  0  0  0  0  0  0  0  0
    3.0258  -49.5705  -21.7438 N   0  0  0  0  0  0  0  0  0  0  0  0
    2.4701  -48.7629  -22.7978 C   0  0  0  0  0  0  0  0  0  0  0  0
    2.6507  -49.4282  -20.3559 C   0  0  0  0  0  0  0  0  0  0  0  0
    1.6924  -50.0528  -19.7108 N   0  0  0  0  0  0  0  0  0  0  0  0
    1.4829  -49.8078  -18.4400 C   0  0  0  0  0  0  0  0  0  0  0  0
    2.3132  -48.8793  -17.8517 C   0  0  0  0  0  0  0  0  0  0  0  0
    3.3220  -48.4296  -19.1461 S   0  0  0  0  0  0  0  0  0  0  0  0
    0.3995  -50.4990  -17.6822 C   0  0  0  0  0  0  0  0  0  0  0  0
   -0.2097  -49.9313  -16.5878 C   0  0  0  0  0  0  0  0  0  0  0  0
   -1.2152  -50.5754  -15.8887 C   0  0  0  0  0  0  0  0  0  0  0  0
   -1.6279  -51.8281  -16.2939 C   0  0  0  0  0  0  0  0  0  0  0  0
   -1.0364  -52.4114  -17.3790 C   0  0  0  0  0  0  0  0  0  0  0  0
   -0.0239  -51.7454  -18.0708 C   0  0  0  0  0  0  0  0  0  0  0  0
    3.7063  -46.9655  -25.5350 C   0  0  0  0  0  0  0  0  0  0  0  0
    4.3574  -46.0604  -24.9162 O   0  0  0  0  0  0  0  0  0  0  0  0
    3.3598  -48.1829  -24.9357 N   0  0  0  0  0  0  0  0  0  0  0  0
    2.8392  -48.9062  -25.4337 H   0  0  0  0  0  0  0  0  0  0  0  0
    2.3228  -45.9958  -30.8972 F   0  0  0  0  0  0  0  0  0  0  0  0
    2.6334  -46.2122  -29.5923 C   0  0  0  0  0  0  0  0  0  0  0  0
    1.8928  -45.6648  -28.5700 C   0  0  0  0  0  0  0  0  0  0  0  0
    2.2427  -45.9094  -27.2472 C   0  0  0  0  0  0  0  0  0  0  0  0
    3.3202  -46.6916  -26.9268 C   0  0  0  0  0  0  0  0  0  0  0  0
    4.0661  -47.2428  -27.9656 C   0  0  0  0  0  0  0  0  0  0  0  0
    3.7179  -46.9992  -29.2537 C   0  0  0  0  0  0  0  0  0  0  0  0
 21 22  1  0  0  0
 22 23  2  0  0  0
 23 24  1  0  0  0
 24 25  2  0  0  0
 25 26  1  0  0  0
 26 27  2  0  0  0
 25 17  1  0  0  0
 17 18  2  0  0  0
 17 19  1  0  0  0
 19  1  1  0  0  0
  1  2  1  0  0  0
  2  3  1  0  0  0
  3  4  1  0  0  0
  4  5  1  0  0  0
  4  6  1  0  0  0
  6  7  2  0  0  0
  7  8  1  0  0  0
  8  9  2  0  0  0
  9 10  1  0  0  0
  8 11  1  0  0  0
 11 12  2  0  0  0
 12 13  1  0  0  0
 13 14  2  0  0  0
 14 15  1  0  0  0
 15 16  2  0  0  0
 27 22  1  0  0  0
  5  1  1  0  0  0
 10  6  1  0  0  0
 16 11  1  0  0  0
 19 20  1  0  0  0
M  END
> <minimizedAffinity>
-6.05264

> <CNNscore>
0.2380577922

> <CNNaffinity>
5.1622977257

> <CNN_VS>
1.2289252281

> <CNNaffinity_variance>
0.3130330443

$$$$
[H]c1sc(N2C([H])([H])C([H])([H])[C@@]([H])(N([H])C(=O)c3c([H])c([H])c(F)c([H])c3[H])C2([H])[H])nc1-c1c([H])c([H])c([H])c([H])c1[H]


 27 30  0  0  0  0  0  0  0  0999 V2000
    2.5992  -51.0073  -25.0119 C   0  0  0  0  0  0  0  0  0  0  0  0
    3.1002  -52.3661  -25.3908 C   0  0  0  0  0  0  0  0  0  0  0  0
    1.9750  -53.3168  -25.0585 C   0  0  0  0  0  0  0  0  0  0  0  0
    1.1546  -52.5445  -24.1629 N   0  0  0  0  0  0  0  0  0  0  0  0
    1.1125  -51.2029  -24.6827 C   0  0  0  0  0  0  0  0  0  0  0  0
    0.4658  -52.9491  -22.9591 C   0  0  0  0  0  0  0  0  0  0  0  0
    0.4919  -52.3698  -21.7808 N   0  0  0  0  0  0  0  0  0  0  0  0
   -0.1988  -52.8684  -20.7842 C   0  0  0  0  0  0  0  0  0  0  0  0
   -0.9287  -54.0049  -21.0546 C   0  0  0  0  0  0  0  0  0  0  0  0
   -0.5769  -54.2742  -22.6975 S   0  0  0  0  0  0  0  0  0  0  0  0
   -0.1854  -52.2343  -19.4338 C   0  0  0  0  0  0  0  0  0  0  0  0
   -0.8497  -52.7782  -18.3596 C   0  0  0  0  0  0  0  0  0  0  0  0
   -0.8335  -52.1875  -17.1084 C   0  0  0  0  0  0  0  0  0  0  0  0
   -0.1312  -51.0146  -16.9211 C   0  0  0  0  0  0  0  0  0  0  0  0
    0.5365  -50.4564  -17.9747 C   0  0  0  0  0  0  0  0  0  0  0  0
    0.5078  -51.0676  -19.2289 C   0  0  0  0  0  0  0  0  0  0  0  0
    3.1474  -48.7546  -25.8029 C   0  0  0  0  0  0  0  0  0  0  0  0
    3.5466  -48.4135  -24.6408 O   0  0  0  0  0  0  0  0  0  0  0  0
    2.6557  -50.0360  -26.0810 N   0  0  0  0  0  0  0  0  0  0  0  0
    2.3375  -50.3067  -27.0125 H   0  0  0  0  0  0  0  0  0  0  0  0
    3.3527  -44.8098  -29.8033 F   0  0  0  0  0  0  0  0  0  0  0  0
    3.3208  -45.7816  -28.8544 C   0  0  0  0  0  0  0  0  0  0  0  0
    3.9806  -46.9778  -29.0185 C   0  0  0  0  0  0  0  0  0  0  0  0
    3.9236  -47.9476  -28.0244 C   0  0  0  0  0  0  0  0  0  0  0  0
    3.2187  -47.7440  -26.8681 C   0  0  0  0  0  0  0  0  0  0  0  0
    2.5528  -46.5315  -26.7075 C   0  0  0  0  0  0  0  0  0  0  0  0
    2.6135  -45.5905  -27.6824 C   0  0  0  0  0  0  0  0  0  0  0  0
 21 22  1  0  0  0
 22 23  2  0  0  0
 23 24  1  0  0  0
 24 25  2  0  0  0
 25 26  1  0  0  0
 26 27  2  0  0  0
 25 17  1  0  0  0
 17 18  2  0  0  0
 17 19  1  0  0  0
 19  1  1  0  0  0
  1  2  1  0  0  0
  2  3  1  0  0  0
  3  4  1  0  0  0
  4  5  1  0  0  0
  4  6  1  0  0  0
  6  7  2  0  0  0
  7  8  1  0  0  0
  8  9  2  0  0  0
  9 10  1  0  0  0
  8 11  1  0  0  0
 11 12  2  0  0  0
 12 13  1  0  0  0
 13 14  2  0  0  0
 14 15  1  0  0  0
 15 16  2  0  0  0
 27 22  1  0  0  0
  5  1  1  0  0  0
 10  6  1  0  0  0
 16 11  1  0  0  0
 19 20  1  0  0  0
M  END
> <minimizedAffinity>
-7.15198

> <CNNscore>
0.2325569689

> <CNNaffinity>
5.7128586769

> <CNN_VS>
1.3285651207

> <CNNaffinity_variance>
0.0659385473

$$$$
[H]c1sc(N2C([H])([H])C([H])([H])[C@@]([H])(N([H])C(=O)c3c([H])c([H])c(F)c([H])c3[H])C2([H])[H])nc1-c1c([H])c([H])c([H])c([H])c1[H]


 27 30  0  0  0  0  0  0  0  0999 V2000
    3.4695  -52.0379  -24.1120 C   0  0  0  0  0  0  0  0  0  0  0  0
    2.8551  -53.0172  -25.0629 C   0  0  0  0  0  0  0  0  0  0  0  0
    1.3843  -53.0408  -24.7216 C   0  0  0  0  0  0  0  0  0  0  0  0
    1.3496  -52.4593  -23.4054 N   0  0  0  0  0  0  0  0  0  0  0  0
    2.2848  -51.3651  -23.4044 C   0  0  0  0  0  0  0  0  0  0  0  0
    0.5629  -52.8294  -22.2516 C   0  0  0  0  0  0  0  0  0  0  0  0
    0.5362  -52.2500  -21.0734 N   0  0  0  0  0  0  0  0  0  0  0  0
   -0.2428  -52.7141  -20.1265 C   0  0  0  0  0  0  0  0  0  0  0  0
   -1.0049  -53.8159  -20.4473 C   0  0  0  0  0  0  0  0  0  0  0  0
   -0.5557  -54.1041  -22.0631 S   0  0  0  0  0  0  0  0  0  0  0  0
   -0.2914  -52.0791  -18.7774 C   0  0  0  0  0  0  0  0  0  0  0  0
    0.3605  -50.9017  -18.4950 C   0  0  0  0  0  0  0  0  0  0  0  0
    0.3117  -50.3154  -17.2426 C   0  0  0  0  0  0  0  0  0  0  0  0
   -0.4116  -50.9232  -16.2369 C   0  0  0  0  0  0  0  0  0  0  0  0
   -1.0675  -52.0939  -16.4951 C   0  0  0  0  0  0  0  0  0  0  0  0
   -1.0058  -52.6693  -17.7649 C   0  0  0  0  0  0  0  0  0  0  0  0
    3.5391  -50.0929  -25.5997 C   0  0  0  0  0  0  0  0  0  0  0  0
    2.2877  -50.1865  -25.8262 O   0  0  0  0  0  0  0  0  0  0  0  0
    4.2164  -50.9791  -24.7528 N   0  0  0  0  0  0  0  0  0  0  0  0
    5.2182  -50.9014  -24.5725 H   0  0  0  0  0  0  0  0  0  0  0  0
    6.2457  -45.9336  -28.2419 F   0  0  0  0  0  0  0  0  0  0  0  0
    5.6122  -46.9369  -27.5801 C   0  0  0  0  0  0  0  0  0  0  0  0
    6.0421  -47.3794  -26.3502 C   0  0  0  0  0  0  0  0  0  0  0  0
    5.3671  -48.4088  -25.7047 C   0  0  0  0  0  0  0  0  0  0  0  0
    4.2693  -49.0049  -26.2660 C   0  0  0  0  0  0  0  0  0  0  0  0
    3.8388  -48.5530  -27.5108 C   0  0  0  0  0  0  0  0  0  0  0  0
    4.5031  -47.5479  -28.1340 C   0  0  0  0  0  0  0  0  0  0  0  0
 21 22  1  0  0  0
 22 23  2  0  0  0
 23 24  1  0  0  0
 24 25  2  0  0  0
 25 26  1  0  0  0
 26 27  2  0  0  0
 25 17  1  0  0  0
 17 18  2  0  0  0
 17 19  1  0  0  0
 19  1  1  0  0  0
  1  2  1  0  0  0
  2  3  1  0  0  0
  3  4  1  0  0  0
  4  5  1  0  0  0
  4  6  1  0  0  0
  6  7  2  0  0  0
  7  8  1  0  0  0
  8  9  2  0  0  0
  9 10  1  0  0  0
  8 11  1  0  0  0
 11 12  2  0  0  0
 12 13  1  0  0  0
 13 14  2  0  0  0
 14 15  1  0  0  0
 15 16  2  0  0  0
 27 22  1  0  0  0
  5  1  1  0  0  0
 10  6  1  0  0  0
 16 11  1  0  0  0
 19 20  1  0  0  0
M  END
> <minimizedAffinity>
-6.50670

> <CNNscore>
0.2222914994

> <CNNaffinity>
5.6392235756

> <CNN_VS>
1.2535514832

> <CNNaffinity_variance>
0.1393836886

$$$$
[H]c1sc(N2C([H])([H])C([H])([H])[C@@]([H])(N([H])C(=O)c3c([H])c([H])c(F)c([H])c3[H])C2([H])[H])nc1-c1c([H])c([H])c([H])c([H])c1[H]


 27 30  0  0  0  0  0  0  0  0999 V2000
    3.8919  -46.7761  -24.8776 C   0  0  0  0  0  0  0  0  0  0  0  0
    5.2230  -46.9030  -24.2047 C   0  0  0  0  0  0  0  0  0  0  0  0
    5.1093  -48.1171  -23.3139 C   0  0  0  0  0  0  0  0  0  0  0  0
    3.6866  -48.3084  -23.2101 N   0  0  0  0  0  0  0  0  0  0  0  0
    3.1326  -48.0603  -24.5152 C   0  0  0  0  0  0  0  0  0  0  0  0
    2.8846  -48.6793  -22.0670 C   0  0  0  0  0  0  0  0  0  0  0  0
    2.1254  -49.7413  -21.9242 N   0  0  0  0  0  0  0  0  0  0  0  0
    1.4585  -49.9318  -20.8116 C   0  0  0  0  0  0  0  0  0  0  0  0
    1.6077  -48.9696  -19.8373 C   0  0  0  0  0  0  0  0  0  0  0  0
    2.6798  -47.8743  -20.5766 S   0  0  0  0  0  0  0  0  0  0  0  0
    0.5854  -51.1266  -20.6223 C   0  0  0  0  0  0  0  0  0  0  0  0
    0.3980  -51.7129  -19.3926 C   0  0  0  0  0  0  0  0  0  0  0  0
   -0.4138  -52.8202  -19.2212 C   0  0  0  0  0  0  0  0  0  0  0  0
   -1.0614  -53.3619  -20.3126 C   0  0  0  0  0  0  0  0  0  0  0  0
   -0.8898  -52.7954  -21.5443 C   0  0  0  0  0  0  0  0  0  0  0  0
   -0.0666  -51.6789  -21.6964 C   0  0  0  0  0  0  0  0  0  0  0  0
    3.5683  -45.5651  -26.9823 C   0  0  0  0  0  0  0  0  0  0  0  0
    3.1544  -44.5334  -26.3573 O   0  0  0  0  0  0  0  0  0  0  0  0
    3.9594  -46.7359  -26.3210 N   0  0  0  0  0  0  0  0  0  0  0  0
    4.2911  -47.5602  -26.8238 H   0  0  0  0  0  0  0  0  0  0  0  0
    3.8726  -45.1886  -32.5834 F   0  0  0  0  0  0  0  0  0  0  0  0
    3.7795  -45.3037  -31.2328 C   0  0  0  0  0  0  0  0  0  0  0  0
    3.0128  -46.2798  -30.6390 C   0  0  0  0  0  0  0  0  0  0  0  0
    2.9429  -46.3648  -29.2534 C   0  0  0  0  0  0  0  0  0  0  0  0
    3.6257  -45.4915  -28.4494 C   0  0  0  0  0  0  0  0  0  0  0  0
    4.4000  -44.5056  -29.0558 C   0  0  0  0  0  0  0  0  0  0  0  0
    4.4628  -44.4296  -30.4086 C   0  0  0  0  0  0  0  0  0  0  0  0
 21 22  1  0  0  0
 22 23  2  0  0  0
 23 24  1  0  0  0
 24 25  2  0  0  0
 25 26  1  0  0  0
 26 27  2  0  0  0
 25 17  1  0  0  0
 17 18  2  0  0  0
 17 19  1  0  0  0
 19  1  1  0  0  0
  1  2  1  0  0  0
  2  3  1  0  0  0
  3  4  1  0  0  0
  4  5  1  0  0  0
  4  6  1  0  0  0
  6  7  2  0  0  0
  7  8  1  0  0  0
  8  9  2  0  0  0
  9 10  1  0  0  0
  8 11  1  0  0  0
 11 12  2  0  0  0
 12 13  1  0  0  0
 13 14  2  0  0  0
 14 15  1  0  0  0
 15 16  2  0  0  0
 27 22  1  0  0  0
  5  1  1  0  0  0
 10  6  1  0  0  0
 16 11  1  0  0  0
 19 20  1  0  0  0
M  END
> <minimizedAffinity>
-5.92878

> <CNNscore>
0.1984370053

> <CNNaffinity>
5.1581773758

> <CNN_VS>
1.0235732794

> <CNNaffinity_variance>
0.2240706384

$$$$
[H]c1sc(N2C([H])([H])C([H])([H])[C@@]([H])(N([H])C(=O)c3c([H])c([H])c(F)c([H])c3[H])C2([H])[H])nc1-c1c([H])c([H])c([H])c([H])c1[H]


 27 30  0  0  0  0  0  0  0  0999 V2000
    2.1732  -51.9173  -20.7145 C   0  0  0  0  0  0  0  0  0  0  0  0
    3.6103  -51.5265  -20.8652 C   0  0  0  0  0  0  0  0  0  0  0  0
    3.7163  -50.9043  -22.2371 C   0  0  0  0  0  0  0  0  0  0  0  0
    2.5203  -51.3641  -22.8927 N   0  0  0  0  0  0  0  0  0  0  0  0
    1.4579  -51.2983  -21.9237 C   0  0  0  0  0  0  0  0  0  0  0  0
    2.3265  -51.8180  -24.2505 C   0  0  0  0  0  0  0  0  0  0  0  0
    1.2049  -51.8705  -24.9316 N   0  0  0  0  0  0  0  0  0  0  0  0
    1.2020  -52.3105  -26.1666 C   0  0  0  0  0  0  0  0  0  0  0  0
    2.4196  -52.7001  -26.6794 C   0  0  0  0  0  0  0  0  0  0  0  0
    3.4684  -52.4114  -25.3709 S   0  0  0  0  0  0  0  0  0  0  0  0
   -0.0571  -52.3850  -26.9634 C   0  0  0  0  0  0  0  0  0  0  0  0
   -0.0601  -52.6702  -28.3087 C   0  0  0  0  0  0  0  0  0  0  0  0
   -1.2303  -52.7397  -29.0437 C   0  0  0  0  0  0  0  0  0  0  0  0
   -2.4393  -52.5176  -28.4167 C   0  0  0  0  0  0  0  0  0  0  0  0
   -2.4601  -52.2327  -27.0803 C   0  0  0  0  0  0  0  0  0  0  0  0
   -1.2687  -52.1670  -26.3566 C   0  0  0  0  0  0  0  0  0  0  0  0
    0.4596  -52.0726  -18.9709 C   0  0  0  0  0  0  0  0  0  0  0  0
    0.0286  -53.1715  -19.4534 O   0  0  0  0  0  0  0  0  0  0  0  0
    1.5317  -51.3733  -19.5389 N   0  0  0  0  0  0  0  0  0  0  0  0
    1.8753  -50.4941  -19.1501 H   0  0  0  0  0  0  0  0  0  0  0  0
   -2.1830  -50.1698  -14.3879 F   0  0  0  0  0  0  0  0  0  0  0  0
   -1.5273  -50.6035  -15.4961 C   0  0  0  0  0  0  0  0  0  0  0  0
   -0.5325  -49.8598  -16.0880 C   0  0  0  0  0  0  0  0  0  0  0  0
    0.1149  -50.3379  -17.2213 C   0  0  0  0  0  0  0  0  0  0  0  0
   -0.2139  -51.5467  -17.7747 C   0  0  0  0  0  0  0  0  0  0  0  0
   -1.2215  -52.2950  -17.1714 C   0  0  0  0  0  0  0  0  0  0  0  0
   -1.8482  -51.8212  -16.0657 C   0  0  0  0  0  0  0  0  0  0  0  0
 21 22  1  0  0  0
 22 23  2  0  0  0
 23 24  1  0  0  0
 24 25  2  0  0  0
 25 26  1  0  0  0
 26 27  2  0  0  0
 25 17  1  0  0  0
 17 18  2  0  0  0
 17 19  1  0  0  0
 19  1  1  0  0  0
  1  2  1  0  0  0
  2  3  1  0  0  0
  3  4  1  0  0  0
  4  5  1  0  0  0
  4  6  1  0  0  0
  6  7  2  0  0  0
  7  8  1  0  0  0
  8  9  2  0  0  0
  9 10  1  0  0  0
  8 11  1  0  0  0
 11 12  2  0  0  0
 12 13  1  0  0  0
 13 14  2  0  0  0
 14 15  1  0  0  0
 15 16  2  0  0  0
 27 22  1  0  0  0
  5  1  1  0  0  0
 10  6  1  0  0  0
 16 11  1  0  0  0
 19 20  1  0  0  0
M  END
> <minimizedAffinity>
-8.08081

> <CNNscore>
0.1927827001

> <CNNaffinity>
5.6884322166

> <CNN_VS>
1.0966312885

> <CNNaffinity_variance>
0.2621600032

$$$$
[H]OC(=O)c1c([H])c(-c2c([H])c([H])c(C(C([H])([H])[H])(C([H])([H])[H])C([H])([H])[H])c([H])c2[H])nc2c([H])c([H])c([H])c([H])c12


 24 26  0  0  0  0  0  0  0  0999 V2000
    0.3853  -52.0741  -24.7113 C   0  0  0  0  0  0  0  0  0  0  0  0
    1.4066  -52.3543  -25.5623 C   0  0  0  0  0  0  0  0  0  0  0  0
    1.2543  -52.6061  -26.9446 C   0  0  0  0  0  0  0  0  0  0  0  0
   -0.0359  -52.5597  -27.4157 C   0  0  0  0  0  0  0  0  0  0  0  0
   -0.2796  -52.8213  -28.7357 C   0  0  0  0  0  0  0  0  0  0  0  0
   -1.5974  -52.7964  -29.2029 C   0  0  0  0  0  0  0  0  0  0  0  0
   -2.6260  -52.5190  -28.3629 C   0  0  0  0  0  0  0  0  0  0  0  0
   -2.3803  -52.2583  -27.0395 C   0  0  0  0  0  0  0  0  0  0  0  0
   -1.0921  -52.2718  -26.5406 C   0  0  0  0  0  0  0  0  0  0  0  0
   -0.8568  -52.0391  -25.2409 N   0  0  0  0  0  0  0  0  0  0  0  0
    0.9076  -51.1337  -20.5882 C   0  0  0  0  0  0  0  0  0  0  0  0
    1.6988  -50.5637  -21.5603 C   0  0  0  0  0  0  0  0  0  0  0  0
    1.5540  -50.8721  -22.9060 C   0  0  0  0  0  0  0  0  0  0  0  0
    0.5928  -51.7725  -23.2899 C   0  0  0  0  0  0  0  0  0  0  0  0
   -0.2038  -52.3514  -22.3522 C   0  0  0  0  0  0  0  0  0  0  0  0
   -0.0497  -52.0359  -20.9923 C   0  0  0  0  0  0  0  0  0  0  0  0
    2.4666  -51.2592  -18.7424 C   0  0  0  0  0  0  0  0  0  0  0  0
    1.0968  -50.8075  -19.1511 C   0  0  0  0  0  0  0  0  0  0  0  0
    0.0543  -51.5092  -18.3003 C   0  0  0  0  0  0  0  0  0  0  0  0
    1.0070  -49.3300  -18.9111 C   0  0  0  0  0  0  0  0  0  0  0  0
    2.4487  -52.7806  -27.7359 C   0  0  0  0  0  0  0  0  0  0  0  0
    3.2502  -51.6685  -28.0437 O   0  0  0  0  0  0  0  0  0  0  0  0
    2.8458  -53.8622  -28.1830 O   0  0  0  0  0  0  0  0  0  0  0  0
    3.5553  -51.4978  -28.9954 H   0  0  0  0  0  0  0  0  0  0  0  0
 17 18  1  0  0  0
 18 19  1  0  0  0
 18 20  1  0  0  0
 18 11  1  0  0  0
 11 12  2  0  0  0
 12 13  1  0  0  0
 13 14  2  0  0  0
 14 15  1  0  0  0
 15 16  2  0  0  0
 14  1  1  0  0  0
  1  2  2  0  0  0
  2  3  1  0  0  0
  3 21  1  0  0  0
 21 22  1  0  0  0
 21 23  2  0  0  0
  3  4  2  0  0  0
  4  5  1  0  0  0
  5  6  2  0  0  0
  6  7  1  0  0  0
  7  8  2  0  0  0
  8  9  1  0  0  0
  9 10  2  0  0  0
 16 11  1  0  0  0
 10  1  1  0  0  0
  9  4  1  0  0  0
 22 24  1  0  0  0
M  END
> <minimizedAffinity>
-9.19355

> <CNNscore>
0.4740287662

> <CNNaffinity>
6.0277824402

> <CNN_VS>
2.8573422432

> <CNNaffinity_variance>
0.1145411953

$$$$
[H]OC(=O)c1c([H])c(-c2c([H])c([H])c(C(C([H])([H])[H])(C([H])([H])[H])C([H])([H])[H])c([H])c2[H])nc2c([H])c([H])c([H])c([H])c12


 24 26  0  0  0  0  0  0  0  0999 V2000
    4.1911  -48.9887  -24.9175 C   0  0  0  0  0  0  0  0  0  0  0  0
    4.3701  -48.2735  -26.0587 C   0  0  0  0  0  0  0  0  0  0  0  0
    4.1609  -48.7761  -27.3628 C   0  0  0  0  0  0  0  0  0  0  0  0
    3.7541  -50.0870  -27.4334 C   0  0  0  0  0  0  0  0  0  0  0  0
    3.5573  -50.6650  -28.6571 C   0  0  0  0  0  0  0  0  0  0  0  0
    3.1673  -52.0064  -28.7218 C   0  0  0  0  0  0  0  0  0  0  0  0
    2.9862  -52.7315  -27.5895 C   0  0  0  0  0  0  0  0  0  0  0  0
    3.1852  -52.1510  -26.3636 C   0  0  0  0  0  0  0  0  0  0  0  0
    3.5692  -50.8281  -26.2584 C   0  0  0  0  0  0  0  0  0  0  0  0
    3.7855  -50.2693  -25.0584 N   0  0  0  0  0  0  0  0  0  0  0  0
    4.6463  -47.2541  -21.0521 C   0  0  0  0  0  0  0  0  0  0  0  0
    5.4733  -46.9067  -22.0968 C   0  0  0  0  0  0  0  0  0  0  0  0
    5.3503  -47.4748  -23.3574 C   0  0  0  0  0  0  0  0  0  0  0  0
    4.3749  -48.4133  -23.5797 C   0  0  0  0  0  0  0  0  0  0  0  0
    3.5429  -48.7762  -22.5672 C   0  0  0  0  0  0  0  0  0  0  0  0
    3.6751  -48.1985  -21.2938 C   0  0  0  0  0  0  0  0  0  0  0  0
    4.8776  -47.7600  -18.6976 C   0  0  0  0  0  0  0  0  0  0  0  0
    4.8120  -46.6511  -19.7044 C   0  0  0  0  0  0  0  0  0  0  0  0
    3.6455  -45.7364  -19.3791 C   0  0  0  0  0  0  0  0  0  0  0  0
    6.0866  -45.8667  -19.6111 C   0  0  0  0  0  0  0  0  0  0  0  0
    4.2885  -47.8587  -28.4698 C   0  0  0  0  0  0  0  0  0  0  0  0
    5.3050  -48.0499  -29.4205 O   0  0  0  0  0  0  0  0  0  0  0  0
    3.5548  -46.8834  -28.6647 O   0  0  0  0  0  0  0  0  0  0  0  0
    5.9061  -47.2818  -29.6973 H   0  0  0  0  0  0  0  0  0  0  0  0
 17 18  1  0  0  0
 18 19  1  0  0  0
 18 20  1  0  0  0
 18 11  1  0  0  0
 11 12  2  0  0  0
 12 13  1  0  0  0
 13 14  2  0  0  0
 14 15  1  0  0  0
 15 16  2  0  0  0
 14  1  1  0  0  0
  1  2  2  0  0  0
  2  3  1  0  0  0
  3 21  1  0  0  0
 21 22  1  0  0  0
 21 23  2  0  0  0
  3  4  2  0  0  0
  4  5  1  0  0  0
  5  6  2  0  0  0
  6  7  1  0  0  0
  7  8  2  0  0  0
  8  9  1  0  0  0
  9 10  2  0  0  0
 16 11  1  0  0  0
 10  1  1  0  0  0
  9  4  1  0  0  0
 22 24  1  0  0  0
M  END
> <minimizedAffinity>
-0.44605

> <CNNscore>
0.4364193380

> <CNNaffinity>
5.0180721283

> <CNN_VS>
2.1899836063

> <CNNaffinity_variance>
1.2266798019

$$$$
[H]OC(=O)c1c([H])c(-c2c([H])c([H])c(C(C([H])([H])[H])(C([H])([H])[H])C([H])([H])[H])c([H])c2[H])nc2c([H])c([H])c([H])c([H])c12


 24 26  0  0  0  0  0  0  0  0999 V2000
    0.4634  -51.7204  -21.5783 C   0  0  0  0  0  0  0  0  0  0  0  0
    1.2487  -50.7174  -21.1059 C   0  0  0  0  0  0  0  0  0  0  0  0
    1.3446  -50.3448  -19.7460 C   0  0  0  0  0  0  0  0  0  0  0  0
    0.5664  -51.0717  -18.8772 C   0  0  0  0  0  0  0  0  0  0  0  0
    0.5734  -50.7593  -17.5458 C   0  0  0  0  0  0  0  0  0  0  0  0
   -0.2397  -51.4871  -16.6712 C   0  0  0  0  0  0  0  0  0  0  0  0
   -1.0290  -52.4902  -17.1308 C   0  0  0  0  0  0  0  0  0  0  0  0
   -1.0361  -52.8013  -18.4660 C   0  0  0  0  0  0  0  0  0  0  0  0
   -0.2457  -52.1065  -19.3610 C   0  0  0  0  0  0  0  0  0  0  0  0
   -0.2718  -52.3978  -20.6700 N   0  0  0  0  0  0  0  0  0  0  0  0
    0.2869  -52.7709  -25.7041 C   0  0  0  0  0  0  0  0  0  0  0  0
   -0.2970  -53.5584  -24.7372 C   0  0  0  0  0  0  0  0  0  0  0  0
   -0.2339  -53.2404  -23.3874 C   0  0  0  0  0  0  0  0  0  0  0  0
    0.4289  -52.1055  -22.9943 C   0  0  0  0  0  0  0  0  0  0  0  0
    1.0151  -51.3080  -23.9267 C   0  0  0  0  0  0  0  0  0  0  0  0
    0.9488  -51.6376  -25.2903 C   0  0  0  0  0  0  0  0  0  0  0  0
    0.1331  -54.6370  -27.2362 C   0  0  0  0  0  0  0  0  0  0  0  0
    0.2280  -53.1438  -27.1411 C   0  0  0  0  0  0  0  0  0  0  0  0
    1.4696  -52.6651  -27.8706 C   0  0  0  0  0  0  0  0  0  0  0  0
   -0.9829  -52.5608  -27.8064 C   0  0  0  0  0  0  0  0  0  0  0  0
    2.3067  -49.3298  -19.3890 C   0  0  0  0  0  0  0  0  0  0  0  0
    1.9174  -47.9803  -19.3570 O   0  0  0  0  0  0  0  0  0  0  0  0
    3.4871  -49.5498  -19.0964 O   0  0  0  0  0  0  0  0  0  0  0  0
    2.4717  -47.2704  -19.8224 H   0  0  0  0  0  0  0  0  0  0  0  0
 17 18  1  0  0  0
 18 19  1  0  0  0
 18 20  1  0  0  0
 18 11  1  0  0  0
 11 12  2  0  0  0
 12 13  1  0  0  0
 13 14  2  0  0  0
 14 15  1  0  0  0
 15 16  2  0  0  0
 14  1  1  0  0  0
  1  2  2  0  0  0
  2  3  1  0  0  0
  3 21  1  0  0  0
 21 22  1  0  0  0
 21 23  2  0  0  0
  3  4  2  0  0  0
  4  5  1  0  0  0
  5  6  2  0  0  0
  6  7  1  0  0  0
  7  8  2  0  0  0
  8  9  1  0  0  0
  9 10  2  0  0  0
 16 11  1  0  0  0
 10  1  1  0  0  0
  9  4  1  0  0  0
 22 24  1  0  0  0
M  END
> <minimizedAffinity>
-7.87173

> <CNNscore>
0.3962540925

> <CNNaffinity>
5.7650446892

> <CNN_VS>
2.2844226360

> <CNNaffinity_variance>
0.2073009312

$$$$
[H]OC(=O)c1c([H])c(-c2c([H])c([H])c(C(C([H])([H])[H])(C([H])([H])[H])C([H])([H])[H])c([H])c2[H])nc2c([H])c([H])c([H])c([H])c12


 24 26  0  0  0  0  0  0  0  0999 V2000
    0.2626  -52.1723  -20.3681 C   0  0  0  0  0  0  0  0  0  0  0  0
    1.2039  -51.5804  -21.1488 C   0  0  0  0  0  0  0  0  0  0  0  0
    1.4275  -51.8875  -22.5100 C   0  0  0  0  0  0  0  0  0  0  0  0
    0.6166  -52.8638  -23.0372 C   0  0  0  0  0  0  0  0  0  0  0  0
    0.7841  -53.2464  -24.3394 C   0  0  0  0  0  0  0  0  0  0  0  0
   -0.0281  -54.2577  -24.8620 C   0  0  0  0  0  0  0  0  0  0  0  0
   -0.9709  -54.8572  -24.0923 C   0  0  0  0  0  0  0  0  0  0  0  0
   -1.1367  -54.4736  -22.7866 C   0  0  0  0  0  0  0  0  0  0  0  0
   -0.3549  -53.4773  -22.2347 C   0  0  0  0  0  0  0  0  0  0  0  0
   -0.5037  -53.1200  -20.9505 N   0  0  0  0  0  0  0  0  0  0  0  0
   -0.4991  -51.0258  -16.3355 C   0  0  0  0  0  0  0  0  0  0  0  0
    0.2953  -50.2620  -17.1611 C   0  0  0  0  0  0  0  0  0  0  0  0
    0.5680  -50.6297  -18.4716 C   0  0  0  0  0  0  0  0  0  0  0  0
    0.0321  -51.7901  -18.9698 C   0  0  0  0  0  0  0  0  0  0  0  0
   -0.7566  -52.5647  -18.1780 C   0  0  0  0  0  0  0  0  0  0  0  0
   -1.0262  -52.1871  -16.8524 C   0  0  0  0  0  0  0  0  0  0  0  0
   -2.2059  -50.2601  -14.8013 C   0  0  0  0  0  0  0  0  0  0  0  0
   -0.7575  -50.6254  -14.9282 C   0  0  0  0  0  0  0  0  0  0  0  0
    0.1031  -49.4365  -14.5425 C   0  0  0  0  0  0  0  0  0  0  0  0
   -0.4813  -51.7544  -13.9807 C   0  0  0  0  0  0  0  0  0  0  0  0
    2.3921  -51.0935  -23.2328 C   0  0  0  0  0  0  0  0  0  0  0  0
    3.7181  -51.5426  -23.3496 O   0  0  0  0  0  0  0  0  0  0  0  0
    2.1465  -50.0131  -23.7805 O   0  0  0  0  0  0  0  0  0  0  0  0
    4.4943  -50.9249  -23.1402 H   0  0  0  0  0  0  0  0  0  0  0  0
 17 18  1  0  0  0
 18 19  1  0  0  0
 18 20  1  0  0  0
 18 11  1  0  0  0
 11 12  2  0  0  0
 12 13  1  0  0  0
 13 14  2  0  0  0
 14 15  1  0  0  0
 15 16  2  0  0  0
 14  1  1  0  0  0
  1  2  2  0  0  0
  2  3  1  0  0  0
  3 21  1  0  0  0
 21 22  1  0  0  0
 21 23  2  0  0  0
  3  4  2  0  0  0
  4  5  1  0  0  0
  5  6  2  0  0  0
  6  7  1  0  0  0
  7  8  2  0  0  0
  8  9  1  0  0  0
  9 10  2  0  0  0
 16 11  1  0  0  0
 10  1  1  0  0  0
  9  4  1  0  0  0
 22 24  1  0  0  0
M  END
> <minimizedAffinity>
-6.88955

> <CNNscore>
0.3068689704

> <CNNaffinity>
5.3549385071

> <CNN_VS>
1.6432644129

> <CNNaffinity_variance>
0.2141724080

$$$$
[H]OC(=O)c1c([H])c(-c2c([H])c([H])c(C(C([H])([H])[H])(C([H])([H])[H])C([H])([H])[H])c([H])c2[H])nc2c([H])c([H])c([H])c([H])c12


 24 26  0  0  0  0  0  0  0  0999 V2000
    1.3025  -51.7239  -25.4032 C   0  0  0  0  0  0  0  0  0  0  0  0
    1.7416  -52.3765  -26.5110 C   0  0  0  0  0  0  0  0  0  0  0  0
    0.9129  -52.8043  -27.5727 C   0  0  0  0  0  0  0  0  0  0  0  0
   -0.4249  -52.5242  -27.4288 C   0  0  0  0  0  0  0  0  0  0  0  0
   -1.3044  -52.9292  -28.3945 C   0  0  0  0  0  0  0  0  0  0  0  0
   -2.6673  -52.6624  -28.2296 C   0  0  0  0  0  0  0  0  0  0  0  0
   -3.1183  -52.0124  -27.1275 C   0  0  0  0  0  0  0  0  0  0  0  0
   -2.2356  -51.6083  -26.1595 C   0  0  0  0  0  0  0  0  0  0  0  0
   -0.8817  -51.8519  -26.2871 C   0  0  0  0  0  0  0  0  0  0  0  0
   -0.0231  -51.4759  -25.3277 N   0  0  0  0  0  0  0  0  0  0  0  0
    3.8440  -50.3702  -22.2623 C   0  0  0  0  0  0  0  0  0  0  0  0
    3.2915  -49.4921  -23.1677 C   0  0  0  0  0  0  0  0  0  0  0  0
    2.4760  -49.9178  -24.2072 C   0  0  0  0  0  0  0  0  0  0  0  0
    2.2047  -51.2555  -24.3445 C   0  0  0  0  0  0  0  0  0  0  0  0
    2.7359  -52.1464  -23.4652 C   0  0  0  0  0  0  0  0  0  0  0  0
    3.5621  -51.7082  -22.4173 C   0  0  0  0  0  0  0  0  0  0  0  0
    4.1769  -50.3754  -19.8660 C   0  0  0  0  0  0  0  0  0  0  0  0
    4.7343  -49.8947  -21.1721 C   0  0  0  0  0  0  0  0  0  0  0  0
    4.8116  -48.3791  -21.1656 C   0  0  0  0  0  0  0  0  0  0  0  0
    6.1188  -50.4523  -21.3165 C   0  0  0  0  0  0  0  0  0  0  0  0
    1.5453  -53.3880  -28.7315 C   0  0  0  0  0  0  0  0  0  0  0  0
    2.6956  -54.1790  -28.5740 O   0  0  0  0  0  0  0  0  0  0  0  0
    1.1498  -53.2503  -29.8942 O   0  0  0  0  0  0  0  0  0  0  0  0
    3.5172  -54.0174  -29.1457 H   0  0  0  0  0  0  0  0  0  0  0  0
 17 18  1  0  0  0
 18 19  1  0  0  0
 18 20  1  0  0  0
 18 11  1  0  0  0
 11 12  2  0  0  0
 12 13  1  0  0  0
 13 14  2  0  0  0
 14 15  1  0  0  0
 15 16  2  0  0  0
 14  1  1  0  0  0
  1  2  2  0  0  0
  2  3  1  0  0  0
  3 21  1  0  0  0
 21 22  1  0  0  0
 21 23  2  0  0  0
  3  4  2  0  0  0
  4  5  1  0  0  0
  5  6  2  0  0  0
  6  7  1  0  0  0
  7  8  2  0  0  0
  8  9  1  0  0  0
  9 10  2  0  0  0
 16 11  1  0  0  0
 10  1  1  0  0  0
  9  4  1  0  0  0
 22 24  1  0  0  0
M  END
> <minimizedAffinity>
-6.18886

> <CNNscore>
0.2899916768

> <CNNaffinity>
5.5278978348

> <CNN_VS>
1.6030443907

> <CNNaffinity_variance>
0.3636887670

$$$$
[H]OC(=O)c1c([H])c(-c2c([H])c([H])c(C(C([H])([H])[H])(C([H])([H])[H])C([H])([H])[H])c([H])c2[H])nc2c([H])c([H])c([H])c([H])c12


 24 26  0  0  0  0  0  0  0  0999 V2000
    1.0898  -51.1010  -21.8140 C   0  0  0  0  0  0  0  0  0  0  0  0
    0.4085  -52.2570  -22.0273 C   0  0  0  0  0  0  0  0  0  0  0  0
   -0.3097  -52.9610  -21.0345 C   0  0  0  0  0  0  0  0  0  0  0  0
   -0.2844  -52.4033  -19.7786 C   0  0  0  0  0  0  0  0  0  0  0  0
   -0.9274  -53.0342  -18.7496 C   0  0  0  0  0  0  0  0  0  0  0  0
   -0.8768  -52.4739  -17.4694 C   0  0  0  0  0  0  0  0  0  0  0  0
   -0.1991  -51.3206  -17.2434 C   0  0  0  0  0  0  0  0  0  0  0  0
    0.4462  -50.6900  -18.2756 C   0  0  0  0  0  0  0  0  0  0  0  0
    0.4180  -51.2114  -19.5546 C   0  0  0  0  0  0  0  0  0  0  0  0
    1.0693  -50.6048  -20.5579 N   0  0  0  0  0  0  0  0  0  0  0  0
    3.1854  -49.0641  -24.9151 C   0  0  0  0  0  0  0  0  0  0  0  0
    3.1645  -48.5814  -23.6256 C   0  0  0  0  0  0  0  0  0  0  0  0
    2.4725  -49.2226  -22.6074 C   0  0  0  0  0  0  0  0  0  0  0  0
    1.7846  -50.3766  -22.8849 C   0  0  0  0  0  0  0  0  0  0  0  0
    1.7873  -50.8775  -24.1491 C   0  0  0  0  0  0  0  0  0  0  0  0
    2.4880  -50.2217  -25.1745 C   0  0  0  0  0  0  0  0  0  0  0  0
    3.2656  -47.0095  -26.1900 C   0  0  0  0  0  0  0  0  0  0  0  0
    3.9125  -48.3477  -25.9946 C   0  0  0  0  0  0  0  0  0  0  0  0
    3.8573  -49.1341  -27.2914 C   0  0  0  0  0  0  0  0  0  0  0  0
    5.3476  -48.1174  -25.6255 C   0  0  0  0  0  0  0  0  0  0  0  0
   -1.0725  -54.1163  -21.4428 C   0  0  0  0  0  0  0  0  0  0  0  0
   -0.5271  -55.0203  -22.3697 O   0  0  0  0  0  0  0  0  0  0  0  0
   -2.2054  -54.3930  -21.0336 O   0  0  0  0  0  0  0  0  0  0  0  0
   -1.0636  -55.3229  -23.1749 H   0  0  0  0  0  0  0  0  0  0  0  0
 17 18  1  0  0  0
 18 19  1  0  0  0
 18 20  1  0  0  0
 18 11  1  0  0  0
 11 12  2  0  0  0
 12 13  1  0  0  0
 13 14  2  0  0  0
 14 15  1  0  0  0
 15 16  2  0  0  0
 14  1  1  0  0  0
  1  2  2  0  0  0
  2  3  1  0  0  0
  3 21  1  0  0  0
 21 22  1  0  0  0
 21 23  2  0  0  0
  3  4  2  0  0  0
  4  5  1  0  0  0
  5  6  2  0  0  0
  6  7  1  0  0  0
  7  8  2  0  0  0
  8  9  1  0  0  0
  9 10  2  0  0  0
 16 11  1  0  0  0
 10  1  1  0  0  0
  9  4  1  0  0  0
 22 24  1  0  0  0
M  END
> <minimizedAffinity>
-7.29904

> <CNNscore>
0.2843340039

> <CNNaffinity>
5.1413912773

> <CNN_VS>
1.4618723392

> <CNNaffinity_variance>
0.1508956403

$$$$
[H]OC(=O)c1c([H])c(-c2c([H])c([H])c(C(C([H])([H])[H])(C([H])([H])[H])C([H])([H])[H])c([H])c2[H])nc2c([H])c([H])c([H])c([H])c12


 24 26  0  0  0  0  0  0  0  0999 V2000
    0.5124  -51.7249  -24.0452 C   0  0  0  0  0  0  0  0  0  0  0  0
    1.5390  -51.9129  -24.9151 C   0  0  0  0  0  0  0  0  0  0  0  0
    1.3849  -52.1656  -26.2969 C   0  0  0  0  0  0  0  0  0  0  0  0
    0.0876  -52.2224  -26.7470 C   0  0  0  0  0  0  0  0  0  0  0  0
   -0.1556  -52.4929  -28.0653 C   0  0  0  0  0  0  0  0  0  0  0  0
   -1.4786  -52.5736  -28.5111 C   0  0  0  0  0  0  0  0  0  0  0  0
   -2.5124  -52.3888  -27.6522 C   0  0  0  0  0  0  0  0  0  0  0  0
   -2.2670  -52.1191  -26.3306 C   0  0  0  0  0  0  0  0  0  0  0  0
   -0.9740  -52.0298  -25.8525 C   0  0  0  0  0  0  0  0  0  0  0  0
   -0.7370  -51.7887  -24.5546 N   0  0  0  0  0  0  0  0  0  0  0  0
    1.2084  -50.8601  -19.9313 C   0  0  0  0  0  0  0  0  0  0  0  0
    0.6311  -52.0457  -20.3280 C   0  0  0  0  0  0  0  0  0  0  0  0
    0.3811  -52.3360  -21.6622 C   0  0  0  0  0  0  0  0  0  0  0  0
    0.7179  -51.4183  -22.6246 C   0  0  0  0  0  0  0  0  0  0  0  0
    1.2899  -50.2389  -22.2630 C   0  0  0  0  0  0  0  0  0  0  0  0
    1.5376  -49.9514  -20.9108 C   0  0  0  0  0  0  0  0  0  0  0  0
    1.3109  -49.0803  -18.2958 C   0  0  0  0  0  0  0  0  0  0  0  0
    1.4441  -50.5601  -18.4954 C   0  0  0  0  0  0  0  0  0  0  0  0
    2.8320  -51.0076  -18.0750 C   0  0  0  0  0  0  0  0  0  0  0  0
    0.4292  -51.2369  -17.6233 C   0  0  0  0  0  0  0  0  0  0  0  0
    2.5764  -52.2344  -27.1088 C   0  0  0  0  0  0  0  0  0  0  0  0
    3.3176  -51.0677  -27.3600 O   0  0  0  0  0  0  0  0  0  0  0  0
    3.0209  -53.2674  -27.6214 O   0  0  0  0  0  0  0  0  0  0  0  0
    3.6017  -50.8279  -28.3032 H   0  0  0  0  0  0  0  0  0  0  0  0
 17 18  1  0  0  0
 18 19  1  0  0  0
 18 20  1  0  0  0
 18 11  1  0  0  0
 11 12  2  0  0  0
 12 13  1  0  0  0
 13 14  2  0  0  0
 14 15  1  0  0  0
 15 16  2  0  0  0
 14  1  1  0  0  0
  1  2  2  0  0  0
  2  3  1  0  0  0
  3 21  1  0  0  0
 21 22  1  0  0  0
 21 23  2  0  0  0
  3  4  2  0  0  0
  4  5  1  0  0  0
  5  6  2  0  0  0
  6  7  1  0  0  0
  7  8  2  0  0  0
  8  9  1  0  0  0
  9 10  2  0  0  0
 16 11  1  0  0  0
 10  1  1  0  0  0
  9  4  1  0  0  0
 22 24  1  0  0  0
M  END
> <minimizedAffinity>
-8.17017

> <CNNscore>
0.2635451853

> <CNNaffinity>
5.7378859520

> <CNN_VS>
1.5121922493

> <CNNaffinity_variance>
0.1767687351

$$$$
[H]OC(=O)c1c([H])c(-c2c([H])c([H])c(C(C([H])([H])[H])(C([H])([H])[H])C([H])([H])[H])c([H])c2[H])nc2c([H])c([H])c([H])c([H])c12


 24 26  0  0  0  0  0  0  0  0999 V2000
    0.6486  -51.1436  -21.9306 C   0  0  0  0  0  0  0  0  0  0  0  0
    1.2310  -49.9567  -21.6175 C   0  0  0  0  0  0  0  0  0  0  0  0
    1.3444  -49.4383  -20.3077 C   0  0  0  0  0  0  0  0  0  0  0  0
    0.8086  -50.2210  -19.3132 C   0  0  0  0  0  0  0  0  0  0  0  0
    0.8464  -49.7825  -18.0184 C   0  0  0  0  0  0  0  0  0  0  0  0
    0.2773  -50.5728  -17.0149 C   0  0  0  0  0  0  0  0  0  0  0  0
   -0.3080  -51.7594  -17.3148 C   0  0  0  0  0  0  0  0  0  0  0  0
   -0.3465  -52.1971  -18.6135 C   0  0  0  0  0  0  0  0  0  0  0  0
    0.2062  -51.4456  -19.6324 C   0  0  0  0  0  0  0  0  0  0  0  0
    0.1469  -51.8653  -20.9050 N   0  0  0  0  0  0  0  0  0  0  0  0
    0.5642  -52.7290  -25.8849 C   0  0  0  0  0  0  0  0  0  0  0  0
    1.2018  -51.5420  -25.6008 C   0  0  0  0  0  0  0  0  0  0  0  0
    1.2238  -51.0024  -24.3220 C   0  0  0  0  0  0  0  0  0  0  0  0
    0.5935  -51.6670  -23.3008 C   0  0  0  0  0  0  0  0  0  0  0  0
   -0.0441  -52.8417  -23.5510 C   0  0  0  0  0  0  0  0  0  0  0  0
   -0.0639  -53.3802  -24.8480 C   0  0  0  0  0  0  0  0  0  0  0  0
    0.1592  -54.7255  -27.1900 C   0  0  0  0  0  0  0  0  0  0  0  0
    0.5323  -53.2755  -27.2661 C   0  0  0  0  0  0  0  0  0  0  0  0
    1.8892  -53.1331  -27.9305 C   0  0  0  0  0  0  0  0  0  0  0  0
   -0.4962  -52.5774  -28.1049 C   0  0  0  0  0  0  0  0  0  0  0  0
    2.0876  -48.2143  -20.1268 C   0  0  0  0  0  0  0  0  0  0  0  0
    2.2925  -47.7075  -18.8326 O   0  0  0  0  0  0  0  0  0  0  0  0
    2.5801  -47.5471  -21.0431 O   0  0  0  0  0  0  0  0  0  0  0  0
    2.1020  -46.7344  -18.6215 H   0  0  0  0  0  0  0  0  0  0  0  0
 17 18  1  0  0  0
 18 19  1  0  0  0
 18 20  1  0  0  0
 18 11  1  0  0  0
 11 12  2  0  0  0
 12 13  1  0  0  0
 13 14  2  0  0  0
 14 15  1  0  0  0
 15 16  2  0  0  0
 14  1  1  0  0  0
  1  2  2  0  0  0
  2  3  1  0  0  0
  3 21  1  0  0  0
 21 22  1  0  0  0
 21 23  2  0  0  0
  3  4  2  0  0  0
  4  5  1  0  0  0
  5  6  2  0  0  0
  6  7  1  0  0  0
  7  8  2  0  0  0
  8  9  1  0  0  0
  9 10  2  0  0  0
 16 11  1  0  0  0
 10  1  1  0  0  0
  9  4  1  0  0  0
 22 24  1  0  0  0
M  END
> <minimizedAffinity>
-7.87176

> <CNNscore>
0.2482232004

> <CNNaffinity>
5.5565023422

> <CNN_VS>
1.3792527914

> <CNNaffinity_variance>
0.1770424843

$$$$
[H]OC(=O)c1c([H])c(-c2c([H])c([H])c(C(C([H])([H])[H])(C([H])([H])[H])C([H])([H])[H])c([H])c2[H])nc2c([H])c([H])c([H])c([H])c12


 24 26  0  0  0  0  0  0  0  0999 V2000
    0.8158  -52.2151  -21.1009 C   0  0  0  0  0  0  0  0  0  0  0  0
    2.0030  -51.7723  -21.5911 C   0  0  0  0  0  0  0  0  0  0  0  0
    2.4461  -51.9657  -22.9190 C   0  0  0  0  0  0  0  0  0  0  0  0
    1.5857  -52.6610  -23.7345 C   0  0  0  0  0  0  0  0  0  0  0  0
    1.9472  -52.9210  -25.0275 C   0  0  0  0  0  0  0  0  0  0  0  0
    1.0774  -53.6504  -25.8443 C   0  0  0  0  0  0  0  0  0  0  0  0
   -0.1105  -54.0989  -25.3663 C   0  0  0  0  0  0  0  0  0  0  0  0
   -0.4709  -53.8386  -24.0694 C   0  0  0  0  0  0  0  0  0  0  0  0
    0.3605  -53.1201  -23.2321 C   0  0  0  0  0  0  0  0  0  0  0  0
    0.0157  -52.8868  -21.9571 N   0  0  0  0  0  0  0  0  0  0  0  0
   -0.5586  -51.4173  -17.1472 C   0  0  0  0  0  0  0  0  0  0  0  0
    0.2860  -50.5493  -17.8025 C   0  0  0  0  0  0  0  0  0  0  0  0
    0.7572  -50.8022  -19.0835 C   0  0  0  0  0  0  0  0  0  0  0  0
    0.3735  -51.9517  -19.7263 C   0  0  0  0  0  0  0  0  0  0  0  0
   -0.4602  -52.8277  -19.1045 C   0  0  0  0  0  0  0  0  0  0  0  0
   -0.9310  -52.5658  -17.8074 C   0  0  0  0  0  0  0  0  0  0  0  0
   -2.4383  -51.6393  -15.6403 C   0  0  0  0  0  0  0  0  0  0  0  0
   -1.0310  -51.1381  -15.7665 C   0  0  0  0  0  0  0  0  0  0  0  0
   -0.9931  -49.6488  -15.4778 C   0  0  0  0  0  0  0  0  0  0  0  0
   -0.1932  -51.8529  -14.7488 C   0  0  0  0  0  0  0  0  0  0  0  0
    3.6844  -51.3397  -23.3168 C   0  0  0  0  0  0  0  0  0  0  0  0
    4.8717  -52.0904  -23.3333 O   0  0  0  0  0  0  0  0  0  0  0  0
    3.7980  -50.1575  -23.6586 O   0  0  0  0  0  0  0  0  0  0  0  0
    5.7135  -51.7376  -22.8920 H   0  0  0  0  0  0  0  0  0  0  0  0
 17 18  1  0  0  0
 18 19  1  0  0  0
 18 20  1  0  0  0
 18 11  1  0  0  0
 11 12  2  0  0  0
 12 13  1  0  0  0
 13 14  2  0  0  0
 14 15  1  0  0  0
 15 16  2  0  0  0
 14  1  1  0  0  0
  1  2  2  0  0  0
  2  3  1  0  0  0
  3 21  1  0  0  0
 21 22  1  0  0  0
 21 23  2  0  0  0
  3  4  2  0  0  0
  4  5  1  0  0  0
  5  6  2  0  0  0
  6  7  1  0  0  0
  7  8  2  0  0  0
  8  9  1  0  0  0
  9 10  2  0  0  0
 16 11  1  0  0  0
 10  1  1  0  0  0
  9  4  1  0  0  0
 22 24  1  0  0  0
M  END
> <minimizedAffinity>
-7.52031

> <CNNscore>
0.2243749201

> <CNNaffinity>
5.3257126808

> <CNN_VS>
1.1949563026

> <CNNaffinity_variance>
0.2575337887

$$$$
[H]c1c([H])c(-c2nc(-c3c([H])c(C([H])([H])[H])nc(C(F)(F)F)c3[H])c3n2C([H])([H])[C@@]([H])(C([H])([H])[H])OC([H])([H])C3([H])[H])c([H])c([H])c1F


 29 32  0  0  0  0  0  0  0  0999 V2000
   -3.0300  -52.2442  -27.7441 C   0  0  0  0  0  0  0  0  0  0  0  0
   -1.8288  -51.8713  -26.9447 C   0  0  0  0  0  0  0  0  0  0  0  0
   -1.9879  -52.5497  -25.5463 C   0  0  0  0  0  0  0  0  0  0  0  0
   -0.6292  -52.7141  -25.0484 N   0  0  0  0  0  0  0  0  0  0  0  0
    0.3178  -51.7434  -24.9160 C   0  0  0  0  0  0  0  0  0  0  0  0
    0.0874  -50.3145  -25.1884 C   0  0  0  0  0  0  0  0  0  0  0  0
   -0.3921  -50.1175  -26.6168 C   0  0  0  0  0  0  0  0  0  0  0  0
   -1.7302  -50.5126  -26.7269 O   0  0  0  0  0  0  0  0  0  0  0  0
    1.5060  -52.2800  -24.4959 C   0  0  0  0  0  0  0  0  0  0  0  0
    1.2632  -53.5976  -24.3752 N   0  0  0  0  0  0  0  0  0  0  0  0
   -0.0451  -53.8751  -24.7075 C   0  0  0  0  0  0  0  0  0  0  0  0
   -0.5099  -55.2358  -24.6833 C   0  0  0  0  0  0  0  0  0  0  0  0
   -0.3179  -56.0342  -25.8151 C   0  0  0  0  0  0  0  0  0  0  0  0
   -0.6791  -57.3625  -25.8212 C   0  0  0  0  0  0  0  0  0  0  0  0
   -1.2382  -57.9175  -24.6938 C   0  0  0  0  0  0  0  0  0  0  0  0
   -1.6104  -59.2339  -24.6865 F   0  0  0  0  0  0  0  0  0  0  0  0
   -1.4356  -57.1544  -23.5693 C   0  0  0  0  0  0  0  0  0  0  0  0
   -1.0632  -55.8026  -23.5751 C   0  0  0  0  0  0  0  0  0  0  0  0
    2.7642  -51.5882  -24.2253 C   0  0  0  0  0  0  0  0  0  0  0  0
    3.4138  -50.8500  -25.1748 C   0  0  0  0  0  0  0  0  0  0  0  0
    4.6162  -50.1914  -24.9192 C   0  0  0  0  0  0  0  0  0  0  0  0
    5.3021  -49.3901  -25.9891 C   0  0  0  0  0  0  0  0  0  0  0  0
    5.1222  -50.3129  -23.6806 N   0  0  0  0  0  0  0  0  0  0  0  0
    4.5586  -51.0102  -22.6955 C   0  0  0  0  0  0  0  0  0  0  0  0
    3.3649  -51.6538  -22.9792 C   0  0  0  0  0  0  0  0  0  0  0  0
    5.1721  -51.1156  -21.3304 C   0  0  0  0  0  0  0  0  0  0  0  0
    5.9542  -52.2778  -21.3355 F   0  0  0  0  0  0  0  0  0  0  0  0
    4.2535  -51.2280  -20.3380 F   0  0  0  0  0  0  0  0  0  0  0  0
    6.0506  -50.0778  -21.1352 F   0  0  0  0  0  0  0  0  0  0  0  0
  1  2  1  0  0  0
  2  3  1  0  0  0
  3  4  1  0  0  0
  4  5  1  0  0  0
  5  6  1  0  0  0
  6  7  1  0  0  0
  7  8  1  0  0  0
  5  9  2  0  0  0
  9 10  1  0  0  0
 10 11  2  0  0  0
 11 12  1  0  0  0
 12 13  2  0  0  0
 13 14  1  0  0  0
 14 15  2  0  0  0
 15 16  1  0  0  0
 15 17  1  0  0  0
 17 18  2  0  0  0
  9 19  1  0  0  0
 19 20  2  0  0  0
 20 21  1  0  0  0
 21 22  1  0  0  0
 21 23  2  0  0  0
 23 24  1  0  0  0
 24 25  2  0  0  0
 24 26  1  0  0  0
 26 27  1  0  0  0
 26 28  1  0  0  0
 26 29  1  0  0  0
  8  2  1  0  0  0
 18 12  1  0  0  0
 25 19  1  0  0  0
 11  4  1  0  0  0
M  END
> <minimizedAffinity>
8.03355

> <CNNscore>
0.4157616794

> <CNNaffinity>
6.4953298569

> <CNN_VS>
2.7005093098

> <CNNaffinity_variance>
1.1888170242

$$$$
[H]c1c([H])c(-c2nc(-c3c([H])c(C([H])([H])[H])nc(C(F)(F)F)c3[H])c3n2C([H])([H])[C@@]([H])(C([H])([H])[H])OC([H])([H])C3([H])[H])c([H])c([H])c1F


 29 32  0  0  0  0  0  0  0  0999 V2000
   -3.0162  -52.3082  -27.8536 C   0  0  0  0  0  0  0  0  0  0  0  0
   -1.8135  -51.9263  -27.0608 C   0  0  0  0  0  0  0  0  0  0  0  0
   -1.9807  -52.5701  -25.6471 C   0  0  0  0  0  0  0  0  0  0  0  0
   -0.6243  -52.7337  -25.1427 N   0  0  0  0  0  0  0  0  0  0  0  0
    0.3304  -51.7679  -25.0314 C   0  0  0  0  0  0  0  0  0  0  0  0
    0.1122  -50.3440  -25.3380 C   0  0  0  0  0  0  0  0  0  0  0  0
   -0.3631  -50.1770  -26.7717 C   0  0  0  0  0  0  0  0  0  0  0  0
   -1.7041  -50.5637  -26.8751 O   0  0  0  0  0  0  0  0  0  0  0  0
    1.5134  -52.3041  -24.5963 C   0  0  0  0  0  0  0  0  0  0  0  0
    1.2596  -53.6164  -24.4449 N   0  0  0  0  0  0  0  0  0  0  0  0
   -0.0503  -53.8910  -24.7732 C   0  0  0  0  0  0  0  0  0  0  0  0
   -0.5263  -55.2469  -24.7178 C   0  0  0  0  0  0  0  0  0  0  0  0
   -0.3969  -56.0540  -25.8523 C   0  0  0  0  0  0  0  0  0  0  0  0
   -0.7705  -57.3787  -25.8324 C   0  0  0  0  0  0  0  0  0  0  0  0
   -1.2797  -57.9214  -24.6757 C   0  0  0  0  0  0  0  0  0  0  0  0
   -1.6635  -59.2340  -24.6418 F   0  0  0  0  0  0  0  0  0  0  0  0
   -1.4151  -57.1496  -23.5479 C   0  0  0  0  0  0  0  0  0  0  0  0
   -1.0306  -55.8016  -23.5805 C   0  0  0  0  0  0  0  0  0  0  0  0
    2.7767  -51.6164  -24.3396 C   0  0  0  0  0  0  0  0  0  0  0  0
    3.6345  -52.0044  -23.3486 C   0  0  0  0  0  0  0  0  0  0  0  0
    4.8393  -51.3475  -23.1003 C   0  0  0  0  0  0  0  0  0  0  0  0
    5.7561  -51.8023  -22.0004 C   0  0  0  0  0  0  0  0  0  0  0  0
    5.1305  -50.2980  -23.8868 N   0  0  0  0  0  0  0  0  0  0  0  0
    4.3556  -49.8511  -24.8739 C   0  0  0  0  0  0  0  0  0  0  0  0
    3.1649  -50.5236  -25.0967 C   0  0  0  0  0  0  0  0  0  0  0  0
    4.7294  -48.6690  -25.7187 C   0  0  0  0  0  0  0  0  0  0  0  0
    5.8677  -49.0436  -26.4440 F   0  0  0  0  0  0  0  0  0  0  0  0
    5.0358  -47.5659  -24.9902 F   0  0  0  0  0  0  0  0  0  0  0  0
    3.7510  -48.4403  -26.6554 F   0  0  0  0  0  0  0  0  0  0  0  0
  1  2  1  0  0  0
  2  3  1  0  0  0
  3  4  1  0  0  0
  4  5  1  0  0  0
  5  6  1  0  0  0
  6  7  1  0  0  0
  7  8  1  0  0  0
  5  9  2  0  0  0
  9 10  1  0  0  0
 10 11  2  0  0  0
 11 12  1  0  0  0
 12 13  2  0  0  0
 13 14  1  0  0  0
 14 15  2  0  0  0
 15 16  1  0  0  0
 15 17  1  0  0  0
 17 18  2  0  0  0
  9 19  1  0  0  0
 19 20  2  0  0  0
 20 21  1  0  0  0
 21 22  1  0  0  0
 21 23  2  0  0  0
 23 24  1  0  0  0
 24 25  2  0  0  0
 24 26  1  0  0  0
 26 27  1  0  0  0
 26 28  1  0  0  0
 26 29  1  0  0  0
  8  2  1  0  0  0
 18 12  1  0  0  0
 25 19  1  0  0  0
 11  4  1  0  0  0
M  END
> <minimizedAffinity>
7.60235

> <CNNscore>
0.4031973183

> <CNNaffinity>
6.3956384659

> <CNN_VS>
2.5787043571

> <CNNaffinity_variance>
0.7931048274

$$$$
[H]c1c([H])c(-c2nc(-c3c([H])c(C([H])([H])[H])nc(C(F)(F)F)c3[H])c3n2C([H])([H])[C@@]([H])(C([H])([H])[H])OC([H])([H])C3([H])[H])c([H])c([H])c1F


 29 32  0  0  0  0  0  0  0  0999 V2000
   -2.1368  -55.4767  -22.8561 C   0  0  0  0  0  0  0  0  0  0  0  0
   -1.2407  -54.3707  -22.4149 C   0  0  0  0  0  0  0  0  0  0  0  0
    0.0024  -54.3913  -23.3610 C   0  0  0  0  0  0  0  0  0  0  0  0
    0.5090  -53.0259  -23.3503 N   0  0  0  0  0  0  0  0  0  0  0  0
    0.8511  -52.2876  -22.2573 C   0  0  0  0  0  0  0  0  0  0  0  0
    0.8384  -52.7944  -20.8746 C   0  0  0  0  0  0  0  0  0  0  0  0
   -0.5453  -53.3056  -20.5098 C   0  0  0  0  0  0  0  0  0  0  0  0
   -0.7732  -54.5403  -21.1280 O   0  0  0  0  0  0  0  0  0  0  0  0
    1.2068  -51.0164  -22.6235 C   0  0  0  0  0  0  0  0  0  0  0  0
    1.0743  -50.9957  -23.9620 N   0  0  0  0  0  0  0  0  0  0  0  0
    0.6508  -52.2247  -24.4196 C   0  0  0  0  0  0  0  0  0  0  0  0
    0.4077  -52.4134  -25.8244 C   0  0  0  0  0  0  0  0  0  0  0  0
   -0.8986  -52.2845  -26.3060 C   0  0  0  0  0  0  0  0  0  0  0  0
   -1.1769  -52.3848  -27.6505 C   0  0  0  0  0  0  0  0  0  0  0  0
   -0.1524  -52.6147  -28.5388 C   0  0  0  0  0  0  0  0  0  0  0  0
   -0.4134  -52.7253  -29.8771 F   0  0  0  0  0  0  0  0  0  0  0  0
    1.1392  -52.7435  -28.0904 C   0  0  0  0  0  0  0  0  0  0  0  0
    1.4102  -52.6390  -26.7187 C   0  0  0  0  0  0  0  0  0  0  0  0
    1.6441  -49.9180  -21.7650 C   0  0  0  0  0  0  0  0  0  0  0  0
    1.4581  -49.9272  -20.4108 C   0  0  0  0  0  0  0  0  0  0  0  0
    1.8723  -48.8784  -19.5902 C   0  0  0  0  0  0  0  0  0  0  0  0
    1.6490  -48.9235  -18.1052 C   0  0  0  0  0  0  0  0  0  0  0  0
    2.4721  -47.8382  -20.1927 N   0  0  0  0  0  0  0  0  0  0  0  0
    2.6943  -47.7448  -21.5028 C   0  0  0  0  0  0  0  0  0  0  0  0
    2.2716  -48.8018  -22.2925 C   0  0  0  0  0  0  0  0  0  0  0  0
    3.3655  -46.5548  -22.1228 C   0  0  0  0  0  0  0  0  0  0  0  0
    4.3621  -47.0576  -22.9691 F   0  0  0  0  0  0  0  0  0  0  0  0
    3.9549  -45.7385  -21.2132 F   0  0  0  0  0  0  0  0  0  0  0  0
    2.4800  -45.8973  -22.9417 F   0  0  0  0  0  0  0  0  0  0  0  0
  1  2  1  0  0  0
  2  3  1  0  0  0
  3  4  1  0  0  0
  4  5  1  0  0  0
  5  6  1  0  0  0
  6  7  1  0  0  0
  7  8  1  0  0  0
  5  9  2  0  0  0
  9 10  1  0  0  0
 10 11  2  0  0  0
 11 12  1  0  0  0
 12 13  2  0  0  0
 13 14  1  0  0  0
 14 15  2  0  0  0
 15 16  1  0  0  0
 15 17  1  0  0  0
 17 18  2  0  0  0
  9 19  1  0  0  0
 19 20  2  0  0  0
 20 21  1  0  0  0
 21 22  1  0  0  0
 21 23  2  0  0  0
 23 24  1  0  0  0
 24 25  2  0  0  0
 24 26  1  0  0  0
 26 27  1  0  0  0
 26 28  1  0  0  0
 26 29  1  0  0  0
  8  2  1  0  0  0
 18 12  1  0  0  0
 25 19  1  0  0  0
 11  4  1  0  0  0
M  END
> <minimizedAffinity>
-7.61353

> <CNNscore>
0.3978921175

> <CNNaffinity>
6.8144607544

> <CNN_VS>
2.7114202976

> <CNNaffinity_variance>
0.1511386186

$$$$
[H]c1c([H])c(-c2nc(-c3c([H])c(C([H])([H])[H])nc(C(F)(F)F)c3[H])c3n2C([H])([H])[C@@]([H])(C([H])([H])[H])OC([H])([H])C3([H])[H])c([H])c([H])c1F


 29 32  0  0  0  0  0  0  0  0999 V2000
   -2.6239  -52.1360  -26.8401 C   0  0  0  0  0  0  0  0  0  0  0  0
   -1.6248  -52.0814  -25.7357 C   0  0  0  0  0  0  0  0  0  0  0  0
   -0.7890  -53.3989  -25.8167 C   0  0  0  0  0  0  0  0  0  0  0  0
    0.4943  -53.0710  -25.2112 N   0  0  0  0  0  0  0  0  0  0  0  0
    0.7046  -52.5399  -23.9741 C   0  0  0  0  0  0  0  0  0  0  0  0
   -0.3593  -52.2783  -22.9899 C   0  0  0  0  0  0  0  0  0  0  0  0
   -1.4074  -51.3475  -23.5767 C   0  0  0  0  0  0  0  0  0  0  0  0
   -2.2081  -52.0478  -24.4860 O   0  0  0  0  0  0  0  0  0  0  0  0
    2.0361  -52.2862  -23.7758 C   0  0  0  0  0  0  0  0  0  0  0  0
    2.6323  -52.6736  -24.9177 N   0  0  0  0  0  0  0  0  0  0  0  0
    1.6966  -53.1610  -25.8043 C   0  0  0  0  0  0  0  0  0  0  0  0
    2.1153  -53.5977  -27.1089 C   0  0  0  0  0  0  0  0  0  0  0  0
    1.5149  -54.7312  -27.6656 C   0  0  0  0  0  0  0  0  0  0  0  0
    1.8267  -55.1516  -28.9388 C   0  0  0  0  0  0  0  0  0  0  0  0
    2.7446  -54.4445  -29.6797 C   0  0  0  0  0  0  0  0  0  0  0  0
    3.0716  -54.8541  -30.9434 F   0  0  0  0  0  0  0  0  0  0  0  0
    3.3468  -53.3271  -29.1557 C   0  0  0  0  0  0  0  0  0  0  0  0
    3.0207  -52.9085  -27.8578 C   0  0  0  0  0  0  0  0  0  0  0  0
    2.6826  -51.7278  -22.5905 C   0  0  0  0  0  0  0  0  0  0  0  0
    4.0263  -51.4827  -22.5353 C   0  0  0  0  0  0  0  0  0  0  0  0
    4.6455  -50.9525  -21.4038 C   0  0  0  0  0  0  0  0  0  0  0  0
    6.1260  -50.6981  -21.3798 C   0  0  0  0  0  0  0  0  0  0  0  0
    3.8564  -50.6873  -20.3494 N   0  0  0  0  0  0  0  0  0  0  0  0
    2.5409  -50.8938  -20.3149 C   0  0  0  0  0  0  0  0  0  0  0  0
    1.9538  -51.4216  -21.4534 C   0  0  0  0  0  0  0  0  0  0  0  0
    1.7085  -50.5830  -19.1060 C   0  0  0  0  0  0  0  0  0  0  0  0
    0.3956  -50.9555  -19.4217 F   0  0  0  0  0  0  0  0  0  0  0  0
    1.7080  -49.2656  -18.7807 F   0  0  0  0  0  0  0  0  0  0  0  0
    2.0840  -51.3944  -18.0631 F   0  0  0  0  0  0  0  0  0  0  0  0
  1  2  1  0  0  0
  2  3  1  0  0  0
  3  4  1  0  0  0
  4  5  1  0  0  0
  5  6  1  0  0  0
  6  7  1  0  0  0
  7  8  1  0  0  0
  5  9  2  0  0  0
  9 10  1  0  0  0
 10 11  2  0  0  0
 11 12  1  0  0  0
 12 13  2  0  0  0
 13 14  1  0  0  0
 14 15  2  0  0  0
 15 16  1  0  0  0
 15 17  1  0  0  0
 17 18  2  0  0  0
  9 19  1  0  0  0
 19 20  2  0  0  0
 20 21  1  0  0  0
 21 22  1  0  0  0
 21 23  2  0  0  0
 23 24  1  0  0  0
 24 25  2  0  0  0
 24 26  1  0  0  0
 26 27  1  0  0  0
 26 28  1  0  0  0
 26 29  1  0  0  0
  8  2  1  0  0  0
 18 12  1  0  0  0
 25 19  1  0  0  0
 11  4  1  0  0  0
M  END
> <minimizedAffinity>
1.27561

> <CNNscore>
0.3775572777

> <CNNaffinity>
6.5176987648

> <CNN_VS>
2.4608047009

> <CNNaffinity_variance>
0.7658717036

$$$$
[H]c1c([H])c(-c2nc(-c3c([H])c(C([H])([H])[H])nc(C(F)(F)F)c3[H])c3n2C([H])([H])[C@@]([H])(C([H])([H])[H])OC([H])([H])C3([H])[H])c([H])c([H])c1F


 29 32  0  0  0  0  0  0  0  0999 V2000
   -2.0585  -53.4152  -23.0388 C   0  0  0  0  0  0  0  0  0  0  0  0
   -0.7733  -52.7227  -22.7400 C   0  0  0  0  0  0  0  0  0  0  0  0
    0.3636  -53.5852  -23.3761 C   0  0  0  0  0  0  0  0  0  0  0  0
    1.4508  -52.6502  -23.6308 N   0  0  0  0  0  0  0  0  0  0  0  0
    2.0400  -51.8140  -22.7305 C   0  0  0  0  0  0  0  0  0  0  0  0
    1.7160  -51.7773  -21.2943 C   0  0  0  0  0  0  0  0  0  0  0  0
    0.2369  -51.4942  -21.0914 C   0  0  0  0  0  0  0  0  0  0  0  0
   -0.5105  -52.6395  -21.3882 O   0  0  0  0  0  0  0  0  0  0  0  0
    2.9703  -51.0184  -23.3453 C   0  0  0  0  0  0  0  0  0  0  0  0
    2.9356  -51.3872  -24.6384 N   0  0  0  0  0  0  0  0  0  0  0  0
    2.0098  -52.3909  -24.8248 C   0  0  0  0  0  0  0  0  0  0  0  0
    1.7830  -52.9104  -26.1464 C   0  0  0  0  0  0  0  0  0  0  0  0
    2.5139  -52.3802  -27.2140 C   0  0  0  0  0  0  0  0  0  0  0  0
    2.3881  -52.8881  -28.4873 C   0  0  0  0  0  0  0  0  0  0  0  0
    1.5291  -53.9376  -28.7159 C   0  0  0  0  0  0  0  0  0  0  0  0
    1.3864  -54.4483  -29.9770 F   0  0  0  0  0  0  0  0  0  0  0  0
    0.8015  -54.4765  -27.6835 C   0  0  0  0  0  0  0  0  0  0  0  0
    0.9385  -53.9509  -26.3909 C   0  0  0  0  0  0  0  0  0  0  0  0
    3.8253  -49.9978  -22.7435 C   0  0  0  0  0  0  0  0  0  0  0  0
    4.3848  -50.1472  -21.5053 C   0  0  0  0  0  0  0  0  0  0  0  0
    5.1988  -49.1728  -20.9282 C   0  0  0  0  0  0  0  0  0  0  0  0
    5.7951  -49.3720  -19.5636 C   0  0  0  0  0  0  0  0  0  0  0  0
    5.4158  -48.0600  -21.6488 N   0  0  0  0  0  0  0  0  0  0  0  0
    4.9125  -47.8302  -22.8605 C   0  0  0  0  0  0  0  0  0  0  0  0
    4.1075  -48.8160  -23.4080 C   0  0  0  0  0  0  0  0  0  0  0  0
    5.1848  -46.5645  -23.6187 C   0  0  0  0  0  0  0  0  0  0  0  0
    4.0042  -45.8121  -23.5718 F   0  0  0  0  0  0  0  0  0  0  0  0
    5.4991  -46.7780  -24.9214 F   0  0  0  0  0  0  0  0  0  0  0  0
    6.1271  -45.8187  -22.9532 F   0  0  0  0  0  0  0  0  0  0  0  0
  1  2  1  0  0  0
  2  3  1  0  0  0
  3  4  1  0  0  0
  4  5  1  0  0  0
  5  6  1  0  0  0
  6  7  1  0  0  0
  7  8  1  0  0  0
  5  9  2  0  0  0
  9 10  1  0  0  0
 10 11  2  0  0  0
 11 12  1  0  0  0
 12 13  2  0  0  0
 13 14  1  0  0  0
 14 15  2  0  0  0
 15 16  1  0  0  0
 15 17  1  0  0  0
 17 18  2  0  0  0
  9 19  1  0  0  0
 19 20  2  0  0  0
 20 21  1  0  0  0
 21 22  1  0  0  0
 21 23  2  0  0  0
 23 24  1  0  0  0
 24 25  2  0  0  0
 24 26  1  0  0  0
 26 27  1  0  0  0
 26 28  1  0  0  0
 26 29  1  0  0  0
  8  2  1  0  0  0
 18 12  1  0  0  0
 25 19  1  0  0  0
 11  4  1  0  0  0
M  END
> <minimizedAffinity>
-3.52739

> <CNNscore>
0.3541363180

> <CNNaffinity>
6.3951659203

> <CNN_VS>
2.2647604942

> <CNNaffinity_variance>
0.9256420135

$$$$
[H]c1c([H])c(-c2nc(-c3c([H])c(C([H])([H])[H])nc(C(F)(F)F)c3[H])c3n2C([H])([H])[C@@]([H])(C([H])([H])[H])OC([H])([H])C3([H])[H])c([H])c([H])c1F


 29 32  0  0  0  0  0  0  0  0999 V2000
   -0.5650  -53.1266  -24.2504 C   0  0  0  0  0  0  0  0  0  0  0  0
   -0.4337  -52.9660  -22.7746 C   0  0  0  0  0  0  0  0  0  0  0  0
    1.0434  -52.5396  -22.4960 C   0  0  0  0  0  0  0  0  0  0  0  0
    0.9954  -51.8087  -21.2372 N   0  0  0  0  0  0  0  0  0  0  0  0
    0.4760  -52.2455  -20.0556 C   0  0  0  0  0  0  0  0  0  0  0  0
   -0.0648  -53.5974  -19.8343 C   0  0  0  0  0  0  0  0  0  0  0  0
   -1.1870  -53.8870  -20.8172 C   0  0  0  0  0  0  0  0  0  0  0  0
   -0.6530  -54.1409  -22.0856 O   0  0  0  0  0  0  0  0  0  0  0  0
    0.5283  -51.2570  -19.1086 C   0  0  0  0  0  0  0  0  0  0  0  0
    1.0901  -50.2092  -19.7379 N   0  0  0  0  0  0  0  0  0  0  0  0
    1.3850  -50.5375  -21.0435 C   0  0  0  0  0  0  0  0  0  0  0  0
    1.9605  -49.5460  -21.9116 C   0  0  0  0  0  0  0  0  0  0  0  0
    1.7940  -48.1942  -21.5952 C   0  0  0  0  0  0  0  0  0  0  0  0
    2.3829  -47.2062  -22.3516 C   0  0  0  0  0  0  0  0  0  0  0  0
    3.1510  -47.5526  -23.4386 C   0  0  0  0  0  0  0  0  0  0  0  0
    3.7362  -46.5826  -24.2053 F   0  0  0  0  0  0  0  0  0  0  0  0
    3.3308  -48.8734  -23.7688 C   0  0  0  0  0  0  0  0  0  0  0  0
    2.7261  -49.8708  -22.9905 C   0  0  0  0  0  0  0  0  0  0  0  0
    0.0852  -51.3143  -17.7175 C   0  0  0  0  0  0  0  0  0  0  0  0
    0.9138  -51.0180  -16.6715 C   0  0  0  0  0  0  0  0  0  0  0  0
    0.4934  -51.0749  -15.3430 C   0  0  0  0  0  0  0  0  0  0  0  0
    1.4339  -50.7435  -14.2192 C   0  0  0  0  0  0  0  0  0  0  0  0
   -0.7812  -51.4397  -15.1259 N   0  0  0  0  0  0  0  0  0  0  0  0
   -1.6567  -51.7452  -16.0822 C   0  0  0  0  0  0  0  0  0  0  0  0
   -1.2103  -51.6800  -17.3921 C   0  0  0  0  0  0  0  0  0  0  0  0
   -3.0691  -52.1516  -15.7808 C   0  0  0  0  0  0  0  0  0  0  0  0
   -3.8799  -51.0689  -16.1450 F   0  0  0  0  0  0  0  0  0  0  0  0
   -3.2812  -52.4160  -14.4668 F   0  0  0  0  0  0  0  0  0  0  0  0
   -3.4398  -53.1865  -16.6044 F   0  0  0  0  0  0  0  0  0  0  0  0
  1  2  1  0  0  0
  2  3  1  0  0  0
  3  4  1  0  0  0
  4  5  1  0  0  0
  5  6  1  0  0  0
  6  7  1  0  0  0
  7  8  1  0  0  0
  5  9  2  0  0  0
  9 10  1  0  0  0
 10 11  2  0  0  0
 11 12  1  0  0  0
 12 13  2  0  0  0
 13 14  1  0  0  0
 14 15  2  0  0  0
 15 16  1  0  0  0
 15 17  1  0  0  0
 17 18  2  0  0  0
  9 19  1  0  0  0
 19 20  2  0  0  0
 20 21  1  0  0  0
 21 22  1  0  0  0
 21 23  2  0  0  0
 23 24  1  0  0  0
 24 25  2  0  0  0
 24 26  1  0  0  0
 26 27  1  0  0  0
 26 28  1  0  0  0
 26 29  1  0  0  0
  8  2  1  0  0  0
 18 12  1  0  0  0
 25 19  1  0  0  0
 11  4  1  0  0  0
M  END
> <minimizedAffinity>
-7.62927

> <CNNscore>
0.3242143691

> <CNNaffinity>
6.4947776794

> <CNN_VS>
2.1057002544

> <CNNaffinity_variance>
0.1654625684

$$$$
[H]c1c([H])c(-c2nc(-c3c([H])c(C([H])([H])[H])nc(C(F)(F)F)c3[H])c3n2C([H])([H])[C@@]([H])(C([H])([H])[H])OC([H])([H])C3([H])[H])c([H])c([H])c1F


 29 32  0  0  0  0  0  0  0  0999 V2000
   -3.0157  -52.3147  -28.0528 C   0  0  0  0  0  0  0  0  0  0  0  0
   -2.1785  -51.9808  -26.8660 C   0  0  0  0  0  0  0  0  0  0  0  0
   -1.2478  -53.2092  -26.6092 C   0  0  0  0  0  0  0  0  0  0  0  0
   -0.0828  -52.6651  -25.9252 N   0  0  0  0  0  0  0  0  0  0  0  0
   -0.0769  -51.9148  -24.7877 C   0  0  0  0  0  0  0  0  0  0  0  0
   -1.2780  -51.5906  -23.9994 C   0  0  0  0  0  0  0  0  0  0  0  0
   -2.3024  -50.8746  -24.8638 C   0  0  0  0  0  0  0  0  0  0  0  0
   -2.9235  -51.7905  -25.7205 O   0  0  0  0  0  0  0  0  0  0  0  0
    1.1950  -51.5080  -24.4824 C   0  0  0  0  0  0  0  0  0  0  0  0
    1.9636  -52.0260  -25.4573 N   0  0  0  0  0  0  0  0  0  0  0  0
    1.1909  -52.7417  -26.3460 C   0  0  0  0  0  0  0  0  0  0  0  0
    1.8091  -53.3521  -27.4920 C   0  0  0  0  0  0  0  0  0  0  0  0
    1.2065  -54.4765  -28.0645 C   0  0  0  0  0  0  0  0  0  0  0  0
    1.7162  -55.0574  -29.2037 C   0  0  0  0  0  0  0  0  0  0  0  0
    2.8383  -54.5229  -29.7925 C   0  0  0  0  0  0  0  0  0  0  0  0
    3.3622  -55.0934  -30.9201 F   0  0  0  0  0  0  0  0  0  0  0  0
    3.4474  -53.4181  -29.2501 C   0  0  0  0  0  0  0  0  0  0  0  0
    2.9186  -52.8350  -28.0897 C   0  0  0  0  0  0  0  0  0  0  0  0
    1.6371  -50.6991  -23.3488 C   0  0  0  0  0  0  0  0  0  0  0  0
    1.0980  -50.8309  -22.0996 C   0  0  0  0  0  0  0  0  0  0  0  0
    1.5167  -50.0577  -21.0172 C   0  0  0  0  0  0  0  0  0  0  0  0
    0.8992  -50.2300  -19.6584 C   0  0  0  0  0  0  0  0  0  0  0  0
    2.4883  -49.1604  -21.2534 N   0  0  0  0  0  0  0  0  0  0  0  0
    3.0695  -48.9646  -22.4358 C   0  0  0  0  0  0  0  0  0  0  0  0
    2.6327  -49.7471  -23.4923 C   0  0  0  0  0  0  0  0  0  0  0  0
    4.1485  -47.9429  -22.6432 C   0  0  0  0  0  0  0  0  0  0  0  0
    5.3319  -48.6565  -22.8728 F   0  0  0  0  0  0  0  0  0  0  0  0
    4.3403  -47.1407  -21.5657 F   0  0  0  0  0  0  0  0  0  0  0  0
    3.9074  -47.2419  -23.7997 F   0  0  0  0  0  0  0  0  0  0  0  0
  1  2  1  0  0  0
  2  3  1  0  0  0
  3  4  1  0  0  0
  4  5  1  0  0  0
  5  6  1  0  0  0
  6  7  1  0  0  0
  7  8  1  0  0  0
  5  9  2  0  0  0
  9 10  1  0  0  0
 10 11  2  0  0  0
 11 12  1  0  0  0
 12 13  2  0  0  0
 13 14  1  0  0  0
 14 15  2  0  0  0
 15 16  1  0  0  0
 15 17  1  0  0  0
 17 18  2  0  0  0
  9 19  1  0  0  0
 19 20  2  0  0  0
 20 21  1  0  0  0
 21 22  1  0  0  0
 21 23  2  0  0  0
 23 24  1  0  0  0
 24 25  2  0  0  0
 24 26  1  0  0  0
 26 27  1  0  0  0
 26 28  1  0  0  0
 26 29  1  0  0  0
  8  2  1  0  0  0
 18 12  1  0  0  0
 25 19  1  0  0  0
 11  4  1  0  0  0
M  END
> <minimizedAffinity>
2.62309

> <CNNscore>
0.3165614903

> <CNNaffinity>
6.3349580765

> <CNN_VS>
2.0054037571

> <CNNaffinity_variance>
0.6905739903

$$$$
[H]c1c([H])c(-c2nc(-c3c([H])c(C([H])([H])[H])nc(C(F)(F)F)c3[H])c3n2C([H])([H])[C@@]([H])(C([H])([H])[H])OC([H])([H])C3([H])[H])c([H])c([H])c1F


 29 32  0  0  0  0  0  0  0  0999 V2000
   -0.3147  -52.5605  -23.8293 C   0  0  0  0  0  0  0  0  0  0  0  0
   -0.3519  -52.5364  -22.3397 C   0  0  0  0  0  0  0  0  0  0  0  0
    1.1087  -52.2661  -21.8553 C   0  0  0  0  0  0  0  0  0  0  0  0
    0.9644  -51.6420  -20.5473 N   0  0  0  0  0  0  0  0  0  0  0  0
    0.2729  -52.1290  -19.4790 C   0  0  0  0  0  0  0  0  0  0  0  0
   -0.3935  -53.4420  -19.4486 C   0  0  0  0  0  0  0  0  0  0  0  0
   -1.4067  -53.5487  -20.5761 C   0  0  0  0  0  0  0  0  0  0  0  0
   -0.7435  -53.7411  -21.7934 O   0  0  0  0  0  0  0  0  0  0  0  0
    0.2857  -51.2319  -18.4439 C   0  0  0  0  0  0  0  0  0  0  0  0
    0.9991  -50.1883  -18.9039 N   0  0  0  0  0  0  0  0  0  0  0  0
    1.4245  -50.4306  -20.1921 C   0  0  0  0  0  0  0  0  0  0  0  0
    2.1762  -49.4241  -20.8921 C   0  0  0  0  0  0  0  0  0  0  0  0
    3.5627  -49.5702  -20.9987 C   0  0  0  0  0  0  0  0  0  0  0  0
    4.3217  -48.6745  -21.7175 C   0  0  0  0  0  0  0  0  0  0  0  0
    3.7070  -47.6159  -22.3445 C   0  0  0  0  0  0  0  0  0  0  0  0
    4.4480  -46.7123  -23.0557 F   0  0  0  0  0  0  0  0  0  0  0  0
    2.3465  -47.4517  -22.2558 C   0  0  0  0  0  0  0  0  0  0  0  0
    1.5840  -48.3709  -21.5211 C   0  0  0  0  0  0  0  0  0  0  0  0
   -0.3265  -51.3665  -17.1241 C   0  0  0  0  0  0  0  0  0  0  0  0
    0.3756  -51.1733  -15.9673 C   0  0  0  0  0  0  0  0  0  0  0  0
   -0.2064  -51.3042  -14.7066 C   0  0  0  0  0  0  0  0  0  0  0  0
    0.5981  -51.0854  -13.4567 C   0  0  0  0  0  0  0  0  0  0  0  0
   -1.5081  -51.6345  -14.6715 N   0  0  0  0  0  0  0  0  0  0  0  0
   -2.2680  -51.8412  -15.7459 C   0  0  0  0  0  0  0  0  0  0  0  0
   -1.6623  -51.7043  -16.9844 C   0  0  0  0  0  0  0  0  0  0  0  0
   -3.7180  -52.2136  -15.6469 C   0  0  0  0  0  0  0  0  0  0  0  0
   -3.8804  -53.3810  -16.4038 F   0  0  0  0  0  0  0  0  0  0  0  0
   -4.5494  -51.2654  -16.1478 F   0  0  0  0  0  0  0  0  0  0  0  0
   -4.0196  -52.5647  -14.3536 F   0  0  0  0  0  0  0  0  0  0  0  0
  1  2  1  0  0  0
  2  3  1  0  0  0
  3  4  1  0  0  0
  4  5  1  0  0  0
  5  6  1  0  0  0
  6  7  1  0  0  0
  7  8  1  0  0  0
  5  9  2  0  0  0
  9 10  1  0  0  0
 10 11  2  0  0  0
 11 12  1  0  0  0
 12 13  2  0  0  0
 13 14  1  0  0  0
 14 15  2  0  0  0
 15 16  1  0  0  0
 15 17  1  0  0  0
 17 18  2  0  0  0
  9 19  1  0  0  0
 19 20  2  0  0  0
 20 21  1  0  0  0
 21 22  1  0  0  0
 21 23  2  0  0  0
 23 24  1  0  0  0
 24 25  2  0  0  0
 24 26  1  0  0  0
 26 27  1  0  0  0
 26 28  1  0  0  0
 26 29  1  0  0  0
  8  2  1  0  0  0
 18 12  1  0  0  0
 25 19  1  0  0  0
 11  4  1  0  0  0
M  END
> <minimizedAffinity>
-7.33329

> <CNNscore>
0.2631874084

> <CNNaffinity>
6.3559851646

> <CNN_VS>
1.6728153229

> <CNNaffinity_variance>
0.0572781563

$$$$
[H]c1c([H])c(-c2nc(-c3c([H])c(C([H])([H])[H])nc(C(F)(F)F)c3[H])c3n2C([H])([H])[C@@]([H])(C([H])([H])[H])OC([H])([H])C3([H])[H])c([H])c([H])c1F


 29 32  0  0  0  0  0  0  0  0999 V2000
   -1.7351  -54.0862  -21.6276 C   0  0  0  0  0  0  0  0  0  0  0  0
   -0.5753  -53.1722  -21.8291 C   0  0  0  0  0  0  0  0  0  0  0  0
    0.1347  -53.6262  -23.1447 C   0  0  0  0  0  0  0  0  0  0  0  0
    0.8061  -52.4339  -23.6434 N   0  0  0  0  0  0  0  0  0  0  0  0
    1.6869  -51.6457  -22.9656 C   0  0  0  0  0  0  0  0  0  0  0  0
    2.1774  -51.9263  -21.6055 C   0  0  0  0  0  0  0  0  0  0  0  0
    1.0139  -52.0349  -20.6341 C   0  0  0  0  0  0  0  0  0  0  0  0
    0.3568  -53.2571  -20.8156 O   0  0  0  0  0  0  0  0  0  0  0  0
    2.0503  -50.5634  -23.7226 C   0  0  0  0  0  0  0  0  0  0  0  0
    1.3725  -50.7086  -24.8754 N   0  0  0  0  0  0  0  0  0  0  0  0
    0.6089  -51.8553  -24.8400 C   0  0  0  0  0  0  0  0  0  0  0  0
   -0.2284  -52.1851  -25.9617 C   0  0  0  0  0  0  0  0  0  0  0  0
   -1.5993  -51.9220  -25.8803 C   0  0  0  0  0  0  0  0  0  0  0  0
   -2.4350  -52.1519  -26.9498 C   0  0  0  0  0  0  0  0  0  0  0  0
   -1.9140  -52.6485  -28.1218 C   0  0  0  0  0  0  0  0  0  0  0  0
   -2.7324  -52.8905  -29.1910 F   0  0  0  0  0  0  0  0  0  0  0  0
   -0.5707  -52.9135  -28.2269 C   0  0  0  0  0  0  0  0  0  0  0  0
    0.2705  -52.6748  -27.1308 C   0  0  0  0  0  0  0  0  0  0  0  0
    2.9742  -49.4865  -23.3742 C   0  0  0  0  0  0  0  0  0  0  0  0
    3.9883  -49.0940  -24.2025 C   0  0  0  0  0  0  0  0  0  0  0  0
    4.8728  -48.0682  -23.8704 C   0  0  0  0  0  0  0  0  0  0  0  0
    5.9769  -47.6655  -24.8064 C   0  0  0  0  0  0  0  0  0  0  0  0
    4.6875  -47.4693  -22.6822 N   0  0  0  0  0  0  0  0  0  0  0  0
    3.7280  -47.7859  -21.8141 C   0  0  0  0  0  0  0  0  0  0  0  0
    2.8647  -48.8089  -22.1714 C   0  0  0  0  0  0  0  0  0  0  0  0
    3.5709  -47.0851  -20.4968 C   0  0  0  0  0  0  0  0  0  0  0  0
    2.3545  -47.5227  -19.9572 F   0  0  0  0  0  0  0  0  0  0  0  0
    3.5211  -45.7340  -20.6119 F   0  0  0  0  0  0  0  0  0  0  0  0
    4.5404  -47.5154  -19.6239 F   0  0  0  0  0  0  0  0  0  0  0  0
  1  2  1  0  0  0
  2  3  1  0  0  0
  3  4  1  0  0  0
  4  5  1  0  0  0
  5  6  1  0  0  0
  6  7  1  0  0  0
  7  8  1  0  0  0
  5  9  2  0  0  0
  9 10  1  0  0  0
 10 11  2  0  0  0
 11 12  1  0  0  0
 12 13  2  0  0  0
 13 14  1  0  0  0
 14 15  2  0  0  0
 15 16  1  0  0  0
 15 17  1  0  0  0
 17 18  2  0  0  0
  9 19  1  0  0  0
 19 20  2  0  0  0
 20 21  1  0  0  0
 21 22  1  0  0  0
 21 23  2  0  0  0
 23 24  1  0  0  0
 24 25  2  0  0  0
 24 26  1  0  0  0
 26 27  1  0  0  0
 26 28  1  0  0  0
 26 29  1  0  0  0
  8  2  1  0  0  0
 18 12  1  0  0  0
 25 19  1  0  0  0
 11  4  1  0  0  0
M  END
> <minimizedAffinity>
-7.80500

> <CNNscore>
0.2346522361

> <CNNaffinity>
6.5882964134

> <CNN_VS>
1.5459585190

> <CNNaffinity_variance>
0.1536977738

$$$$
[H]c1nc2c([H])c(OC([H])([H])C([H])([H])C([H])([H])N3C([H])([H])C([H])([H])C([H])([H])C3([H])[H])c(OC([H])([H])[H])c([H])c2c(Oc2c([H])c([H])c(N([H])C(=O)C3(C(=O)N([H])c4c([H])c([H])c(F)c([H])c4F)C([H])([H])C3([H])[H])c([H])c2F)c1[H]


 48 53  0  0  0  0  0  0  0  0999 V2000
    0.0130  -53.4444  -21.2247 C   0  0  0  0  0  0  0  0  0  0  0  0
    0.8324  -52.7882  -20.3484 C   0  0  0  0  0  0  0  0  0  0  0  0
    0.4308  -52.4400  -19.0478 C   0  0  0  0  0  0  0  0  0  0  0  0
   -0.8206  -52.7466  -18.5888 C   0  0  0  0  0  0  0  0  0  0  0  0
   -1.6427  -53.4211  -19.5090 C   0  0  0  0  0  0  0  0  0  0  0  0
   -1.2472  -53.7594  -20.7787 C   0  0  0  0  0  0  0  0  0  0  0  0
   -2.0705  -54.4328  -21.6320 F   0  0  0  0  0  0  0  0  0  0  0  0
   -1.3299  -52.4415  -17.3130 N   0  0  0  0  0  0  0  0  0  0  0  0
   -1.0114  -51.3623  -16.5112 C   0  0  0  0  0  0  0  0  0  0  0  0
   -0.1906  -50.4816  -16.8348 O   0  0  0  0  0  0  0  0  0  0  0  0
   -2.0476  -53.1379  -16.9042 H   0  0  0  0  0  0  0  0  0  0  0  0
   -1.6694  -51.2125  -15.1690 C   0  0  0  0  0  0  0  0  0  0  0  0
   -1.2890  -49.9190  -14.4909 C   0  0  0  0  0  0  0  0  0  0  0  0
   -0.8299  -51.2026  -13.9317 C   0  0  0  0  0  0  0  0  0  0  0  0
   -3.0704  -51.7135  -15.0524 C   0  0  0  0  0  0  0  0  0  0  0  0
   -3.9359  -51.1787  -15.8112 O   0  0  0  0  0  0  0  0  0  0  0  0
   -3.4550  -52.7231  -14.1663 N   0  0  0  0  0  0  0  0  0  0  0  0
   -2.7098  -53.1484  -13.5152 H   0  0  0  0  0  0  0  0  0  0  0  0
   -4.7437  -53.2952  -13.9714 C   0  0  0  0  0  0  0  0  0  0  0  0
   -5.4737  -53.2140  -12.8120 C   0  0  0  0  0  0  0  0  0  0  0  0
   -6.7357  -53.7833  -12.6862 C   0  0  0  0  0  0  0  0  0  0  0  0
   -7.3121  -54.4570  -13.7233 C   0  0  0  0  0  0  0  0  0  0  0  0
   -8.5328  -55.0225  -13.6518 F   0  0  0  0  0  0  0  0  0  0  0  0
   -6.6029  -54.5530  -14.8916 C   0  0  0  0  0  0  0  0  0  0  0  0
   -5.3551  -53.9952  -15.0276 C   0  0  0  0  0  0  0  0  0  0  0  0
   -4.7151  -54.1291  -16.2052 F   0  0  0  0  0  0  0  0  0  0  0  0
    0.4894  -53.7498  -22.4857 O   0  0  0  0  0  0  0  0  0  0  0  0
    3.3552  -50.9696  -23.3453 C   0  0  0  0  0  0  0  0  0  0  0  0
    2.3837  -51.8944  -23.0768 C   0  0  0  0  0  0  0  0  0  0  0  0
    1.2939  -52.0545  -23.9086 C   0  0  0  0  0  0  0  0  0  0  0  0
    0.3031  -53.0000  -23.6264 C   0  0  0  0  0  0  0  0  0  0  0  0
   -0.7645  -53.1177  -24.4853 C   0  0  0  0  0  0  0  0  0  0  0  0
   -0.8497  -52.3067  -25.6152 C   0  0  0  0  0  0  0  0  0  0  0  0
    0.1208  -51.4126  -25.8513 N   0  0  0  0  0  0  0  0  0  0  0  0
    1.1722  -51.2837  -25.0204 C   0  0  0  0  0  0  0  0  0  0  0  0
    2.1527  -50.3453  -25.2990 C   0  0  0  0  0  0  0  0  0  0  0  0
    3.2515  -50.1558  -24.4952 C   0  0  0  0  0  0  0  0  0  0  0  0
    4.3545  -50.2853  -21.2288 C   0  0  0  0  0  0  0  0  0  0  0  0
    4.4595  -50.7920  -22.5246 O   0  0  0  0  0  0  0  0  0  0  0  0
    4.2451  -49.2477  -24.7169 O   0  0  0  0  0  0  0  0  0  0  0  0
    5.2726  -49.1761  -25.6245 C   0  0  0  0  0  0  0  0  0  0  0  0
    6.5468  -48.6719  -25.0264 C   0  0  0  0  0  0  0  0  0  0  0  0
    7.6712  -49.6398  -24.9256 C   0  0  0  0  0  0  0  0  0  0  0  0
    8.9169  -49.3115  -25.4874 N   0  0  0  0  0  0  0  0  0  0  0  0
    9.4976  -48.0485  -25.2077 C   0  0  0  0  0  0  0  0  0  0  0  0
    9.8324  -47.3547  -26.5121 C   0  0  0  0  0  0  0  0  0  0  0  0
    9.5212  -48.3519  -27.5809 C   0  0  0  0  0  0  0  0  0  0  0  0
    9.0942  -49.6057  -26.8617 C   0  0  0  0  0  0  0  0  0  0  0  0
 38 39  1  0  0  0
 39 28  1  0  0  0
 28 29  2  0  0  0
 29 30  1  0  0  0
 30 31  2  0  0  0
 31 27  1  0  0  0
 27  1  1  0  0  0
  1  2  2  0  0  0
  2  3  1  0  0  0
  3  4  2  0  0  0
  4  8  1  0  0  0
  8  9  1  0  0  0
  9 10  2  0  0  0
  9 12  1  0  0  0
 12 13  1  0  0  0
 13 14  1  0  0  0
 12 15  1  0  0  0
 15 16  2  0  0  0
 15 17  1  0  0  0
 17 19  1  0  0  0
 19 20  2  0  0  0
 20 21  1  0  0  0
 21 22  2  0  0  0
 22 23  1  0  0  0
 22 24  1  0  0  0
 24 25  2  0  0  0
 25 26  1  0  0  0
  4  5  1  0  0  0
  5  6  2  0  0  0
  6  7  1  0  0  0
 31 32  1  0  0  0
 32 33  2  0  0  0
 33 34  1  0  0  0
 34 35  2  0  0  0
 35 36  1  0  0  0
 36 37  2  0  0  0
 37 40  1  0  0  0
 40 41  1  0  0  0
 41 42  1  0  0  0
 42 43  1  0  0  0
 43 44  1  0  0  0
 44 45  1  0  0  0
 45 46  1  0  0  0
 46 47  1  0  0  0
 47 48  1  0  0  0
 37 28  1  0  0  0
 48 44  1  0  0  0
 35 30  1  0  0  0
  6  1  1  0  0  0
 14 12  1  0  0  0
 25 19  1  0  0  0
  8 11  1  0  0  0
 17 18  1  0  0  0
M  END
> <minimizedAffinity>
-7.74667

> <CNNscore>
0.2519544065

> <CNNaffinity>
6.8461112976

> <CNN_VS>
1.7249078751

> <CNNaffinity_variance>
0.4340249598

$$$$
[H]c1nc2c([H])c(OC([H])([H])C([H])([H])C([H])([H])N3C([H])([H])C([H])([H])C([H])([H])C3([H])[H])c(OC([H])([H])[H])c([H])c2c(Oc2c([H])c([H])c(N([H])C(=O)C3(C(=O)N([H])c4c([H])c([H])c(F)c([H])c4F)C([H])([H])C3([H])[H])c([H])c2F)c1[H]


 48 53  0  0  0  0  0  0  0  0999 V2000
    2.6038  -51.2451  -22.4121 C   0  0  0  0  0  0  0  0  0  0  0  0
    3.6220  -51.9256  -23.0205 C   0  0  0  0  0  0  0  0  0  0  0  0
    4.2957  -51.4339  -24.1511 C   0  0  0  0  0  0  0  0  0  0  0  0
    3.9592  -50.2299  -24.7060 C   0  0  0  0  0  0  0  0  0  0  0  0
    2.9099  -49.5506  -24.0615 C   0  0  0  0  0  0  0  0  0  0  0  0
    2.2539  -50.0342  -22.9575 C   0  0  0  0  0  0  0  0  0  0  0  0
    1.2549  -49.3319  -22.3508 F   0  0  0  0  0  0  0  0  0  0  0  0
    4.5586  -49.6457  -25.8372 N   0  0  0  0  0  0  0  0  0  0  0  0
    5.4296  -48.5738  -25.8739 C   0  0  0  0  0  0  0  0  0  0  0  0
    5.8101  -47.9596  -24.8580 O   0  0  0  0  0  0  0  0  0  0  0  0
    4.3006  -50.0774  -26.7933 H   0  0  0  0  0  0  0  0  0  0  0  0
    5.9645  -48.0944  -27.1933 C   0  0  0  0  0  0  0  0  0  0  0  0
    7.3896  -48.5349  -27.4227 C   0  0  0  0  0  0  0  0  0  0  0  0
    7.0872  -47.1071  -27.2206 C   0  0  0  0  0  0  0  0  0  0  0  0
    5.0085  -48.0891  -28.3394 C   0  0  0  0  0  0  0  0  0  0  0  0
    4.5030  -49.2054  -28.6700 O   0  0  0  0  0  0  0  0  0  0  0  0
    4.6558  -46.9336  -29.0415 N   0  0  0  0  0  0  0  0  0  0  0  0
    5.1128  -46.0000  -28.7596 H   0  0  0  0  0  0  0  0  0  0  0  0
    3.7527  -46.7942  -30.1329 C   0  0  0  0  0  0  0  0  0  0  0  0
    3.9643  -47.2848  -31.3971 C   0  0  0  0  0  0  0  0  0  0  0  0
    3.0368  -47.1280  -32.4206 C   0  0  0  0  0  0  0  0  0  0  0  0
    1.8596  -46.4708  -32.2112 C   0  0  0  0  0  0  0  0  0  0  0  0
    0.9284  -46.2962  -33.1690 F   0  0  0  0  0  0  0  0  0  0  0  0
    1.6251  -45.9706  -30.9575 C   0  0  0  0  0  0  0  0  0  0  0  0
    2.5340  -46.1186  -29.9385 C   0  0  0  0  0  0  0  0  0  0  0  0
    2.2374  -45.6006  -28.7311 F   0  0  0  0  0  0  0  0  0  0  0  0
    1.9959  -51.8018  -21.3026 O   0  0  0  0  0  0  0  0  0  0  0  0
   -0.2311  -51.8897  -17.8800 C   0  0  0  0  0  0  0  0  0  0  0  0
    0.4997  -51.8754  -19.0362 C   0  0  0  0  0  0  0  0  0  0  0  0
    0.1273  -52.6281  -20.1315 C   0  0  0  0  0  0  0  0  0  0  0  0
    0.8807  -52.6108  -21.3094 C   0  0  0  0  0  0  0  0  0  0  0  0
    0.4687  -53.3816  -22.3711 C   0  0  0  0  0  0  0  0  0  0  0  0
   -0.6809  -54.1623  -22.2679 C   0  0  0  0  0  0  0  0  0  0  0  0
   -1.3765  -54.1513  -21.1220 N   0  0  0  0  0  0  0  0  0  0  0  0
   -0.9866  -53.4033  -20.0727 C   0  0  0  0  0  0  0  0  0  0  0  0
   -1.7321  -53.4223  -18.9050 C   0  0  0  0  0  0  0  0  0  0  0  0
   -1.3934  -52.6877  -17.7936 C   0  0  0  0  0  0  0  0  0  0  0  0
    0.0419  -49.7479  -16.7464 C   0  0  0  0  0  0  0  0  0  0  0  0
    0.1234  -51.1407  -16.7673 O   0  0  0  0  0  0  0  0  0  0  0  0
   -2.0858  -52.6687  -16.6184 O   0  0  0  0  0  0  0  0  0  0  0  0
   -3.3552  -52.2730  -16.2775 C   0  0  0  0  0  0  0  0  0  0  0  0
   -3.6467  -52.4357  -14.8200 C   0  0  0  0  0  0  0  0  0  0  0  0
   -4.7504  -51.6121  -14.2591 C   0  0  0  0  0  0  0  0  0  0  0  0
   -4.5283  -50.2502  -13.9923 N   0  0  0  0  0  0  0  0  0  0  0  0
   -4.7217  -49.2965  -15.0236 C   0  0  0  0  0  0  0  0  0  0  0  0
   -3.4667  -48.4608  -15.1704 C   0  0  0  0  0  0  0  0  0  0  0  0
   -2.5631  -48.9083  -14.0673 C   0  0  0  0  0  0  0  0  0  0  0  0
   -3.3490  -49.9241  -13.2787 C   0  0  0  0  0  0  0  0  0  0  0  0
 38 39  1  0  0  0
 39 28  1  0  0  0
 28 29  2  0  0  0
 29 30  1  0  0  0
 30 31  2  0  0  0
 31 27  1  0  0  0
 27  1  1  0  0  0
  1  2  2  0  0  0
  2  3  1  0  0  0
  3  4  2  0  0  0
  4  8  1  0  0  0
  8  9  1  0  0  0
  9 10  2  0  0  0
  9 12  1  0  0  0
 12 13  1  0  0  0
 13 14  1  0  0  0
 12 15  1  0  0  0
 15 16  2  0  0  0
 15 17  1  0  0  0
 17 19  1  0  0  0
 19 20  2  0  0  0
 20 21  1  0  0  0
 21 22  2  0  0  0
 22 23  1  0  0  0
 22 24  1  0  0  0
 24 25  2  0  0  0
 25 26  1  0  0  0
  4  5  1  0  0  0
  5  6  2  0  0  0
  6  7  1  0  0  0
 31 32  1  0  0  0
 32 33  2  0  0  0
 33 34  1  0  0  0
 34 35  2  0  0  0
 35 36  1  0  0  0
 36 37  2  0  0  0
 37 40  1  0  0  0
 40 41  1  0  0  0
 41 42  1  0  0  0
 42 43  1  0  0  0
 43 44  1  0  0  0
 44 45  1  0  0  0
 45 46  1  0  0  0
 46 47  1  0  0  0
 47 48  1  0  0  0
 37 28  1  0  0  0
 48 44  1  0  0  0
 35 30  1  0  0  0
  6  1  1  0  0  0
 14 12  1  0  0  0
 25 19  1  0  0  0
  8 11  1  0  0  0
 17 18  1  0  0  0
M  END
> <minimizedAffinity>
-7.85363

> <CNNscore>
0.2361756414

> <CNNaffinity>
6.7690086365

> <CNN_VS>
1.5986750126

> <CNNaffinity_variance>
0.0797394291

$$$$
[H]c1nc2c([H])c(OC([H])([H])C([H])([H])C([H])([H])N3C([H])([H])C([H])([H])C([H])([H])C3([H])[H])c(OC([H])([H])[H])c([H])c2c(Oc2c([H])c([H])c(N([H])C(=O)C3(C(=O)N([H])c4c([H])c([H])c(F)c([H])c4F)C([H])([H])C3([H])[H])c([H])c2F)c1[H]


 48 53  0  0  0  0  0  0  0  0999 V2000
    0.1608  -53.3304  -21.2988 C   0  0  0  0  0  0  0  0  0  0  0  0
    0.9202  -52.5584  -20.4640 C   0  0  0  0  0  0  0  0  0  0  0  0
    0.5188  -52.2293  -19.1584 C   0  0  0  0  0  0  0  0  0  0  0  0
   -0.6714  -52.6739  -18.6519 C   0  0  0  0  0  0  0  0  0  0  0  0
   -1.4327  -53.4657  -19.5301 C   0  0  0  0  0  0  0  0  0  0  0  0
   -1.0375  -53.7848  -20.8049 C   0  0  0  0  0  0  0  0  0  0  0  0
   -1.7981  -54.5739  -21.6163 F   0  0  0  0  0  0  0  0  0  0  0  0
   -1.1752  -52.4015  -17.3665 N   0  0  0  0  0  0  0  0  0  0  0  0
   -0.9708  -51.2699  -16.6005 C   0  0  0  0  0  0  0  0  0  0  0  0
   -0.2784  -50.3020  -16.9718 O   0  0  0  0  0  0  0  0  0  0  0  0
   -1.7860  -53.1713  -16.9179 H   0  0  0  0  0  0  0  0  0  0  0  0
   -1.6003  -51.1682  -15.2403 C   0  0  0  0  0  0  0  0  0  0  0  0
   -1.1988  -49.9036  -14.5214 C   0  0  0  0  0  0  0  0  0  0  0  0
   -0.7356  -51.2098  -14.0211 C   0  0  0  0  0  0  0  0  0  0  0  0
   -3.0015  -51.6665  -15.1140 C   0  0  0  0  0  0  0  0  0  0  0  0
   -3.8632  -51.1599  -15.8961 O   0  0  0  0  0  0  0  0  0  0  0  0
   -3.3901  -52.6445  -14.1948 N   0  0  0  0  0  0  0  0  0  0  0  0
   -2.6482  -53.0456  -13.5249 H   0  0  0  0  0  0  0  0  0  0  0  0
   -4.6793  -53.2109  -13.9870 C   0  0  0  0  0  0  0  0  0  0  0  0
   -5.4209  -53.0799  -12.8396 C   0  0  0  0  0  0  0  0  0  0  0  0
   -6.6827  -53.6465  -12.7008 C   0  0  0  0  0  0  0  0  0  0  0  0
   -7.2473  -54.3675  -13.7122 C   0  0  0  0  0  0  0  0  0  0  0  0
   -8.4674  -54.9326  -13.6273 F   0  0  0  0  0  0  0  0  0  0  0  0
   -6.5264  -54.5137  -14.8680 C   0  0  0  0  0  0  0  0  0  0  0  0
   -5.2787  -53.9591  -15.0168 C   0  0  0  0  0  0  0  0  0  0  0  0
   -4.6268  -54.1438  -16.1809 F   0  0  0  0  0  0  0  0  0  0  0  0
    0.6323  -53.6069  -22.5683 O   0  0  0  0  0  0  0  0  0  0  0  0
    3.4685  -51.0299  -23.9813 C   0  0  0  0  0  0  0  0  0  0  0  0
    2.5047  -51.8872  -23.5260 C   0  0  0  0  0  0  0  0  0  0  0  0
    1.3040  -52.0371  -24.1902 C   0  0  0  0  0  0  0  0  0  0  0  0
    0.3221  -52.9132  -23.7175 C   0  0  0  0  0  0  0  0  0  0  0  0
   -0.8586  -53.0235  -24.4141 C   0  0  0  0  0  0  0  0  0  0  0  0
   -1.0647  -52.2733  -25.5701 C   0  0  0  0  0  0  0  0  0  0  0  0
   -0.0986  -51.4449  -25.9913 N   0  0  0  0  0  0  0  0  0  0  0  0
    1.0626  -51.3241  -25.3208 C   0  0  0  0  0  0  0  0  0  0  0  0
    2.0346  -50.4544  -25.7881 C   0  0  0  0  0  0  0  0  0  0  0  0
    3.2415  -50.2772  -25.1547 C   0  0  0  0  0  0  0  0  0  0  0  0
    5.2617  -51.8718  -22.5590 C   0  0  0  0  0  0  0  0  0  0  0  0
    4.6828  -50.8640  -23.3311 O   0  0  0  0  0  0  0  0  0  0  0  0
    4.2330  -49.4351  -25.5657 O   0  0  0  0  0  0  0  0  0  0  0  0
    4.2427  -48.1403  -26.0214 C   0  0  0  0  0  0  0  0  0  0  0  0
    4.6691  -47.1568  -24.9790 C   0  0  0  0  0  0  0  0  0  0  0  0
    3.7668  -45.9999  -24.7373 C   0  0  0  0  0  0  0  0  0  0  0  0
    3.1638  -45.8464  -23.4770 N   0  0  0  0  0  0  0  0  0  0  0  0
    3.7291  -44.9472  -22.5377 C   0  0  0  0  0  0  0  0  0  0  0  0
    3.9792  -45.6798  -21.2355 C   0  0  0  0  0  0  0  0  0  0  0  0
    3.4059  -47.0456  -21.4345 C   0  0  0  0  0  0  0  0  0  0  0  0
    2.7794  -47.0328  -22.8052 C   0  0  0  0  0  0  0  0  0  0  0  0
 38 39  1  0  0  0
 39 28  1  0  0  0
 28 29  2  0  0  0
 29 30  1  0  0  0
 30 31  2  0  0  0
 31 27  1  0  0  0
 27  1  1  0  0  0
  1  2  2  0  0  0
  2  3  1  0  0  0
  3  4  2  0  0  0
  4  8  1  0  0  0
  8  9  1  0  0  0
  9 10  2  0  0  0
  9 12  1  0  0  0
 12 13  1  0  0  0
 13 14  1  0  0  0
 12 15  1  0  0  0
 15 16  2  0  0  0
 15 17  1  0  0  0
 17 19  1  0  0  0
 19 20  2  0  0  0
 20 21  1  0  0  0
 21 22  2  0  0  0
 22 23  1  0  0  0
 22 24  1  0  0  0
 24 25  2  0  0  0
 25 26  1  0  0  0
  4  5  1  0  0  0
  5  6  2  0  0  0
  6  7  1  0  0  0
 31 32  1  0  0  0
 32 33  2  0  0  0
 33 34  1  0  0  0
 34 35  2  0  0  0
 35 36  1  0  0  0
 36 37  2  0  0  0
 37 40  1  0  0  0
 40 41  1  0  0  0
 41 42  1  0  0  0
 42 43  1  0  0  0
 43 44  1  0  0  0
 44 45  1  0  0  0
 45 46  1  0  0  0
 46 47  1  0  0  0
 47 48  1  0  0  0
 37 28  1  0  0  0
 48 44  1  0  0  0
 35 30  1  0  0  0
  6  1  1  0  0  0
 14 12  1  0  0  0
 25 19  1  0  0  0
  8 11  1  0  0  0
 17 18  1  0  0  0
M  END
> <minimizedAffinity>
-7.81194

> <CNNscore>
0.1671007127

> <CNNaffinity>
6.9225974083

> <CNN_VS>
1.1567709446

> <CNNaffinity_variance>
0.6256340742

$$$$
[H]c1nc2c([H])c(OC([H])([H])C([H])([H])C([H])([H])N3C([H])([H])C([H])([H])C([H])([H])C3([H])[H])c(OC([H])([H])[H])c([H])c2c(Oc2c([H])c([H])c(N([H])C(=O)C3(C(=O)N([H])c4c([H])c([H])c(F)c([H])c4F)C([H])([H])C3([H])[H])c([H])c2F)c1[H]


 48 53  0  0  0  0  0  0  0  0999 V2000
    2.9875  -47.7067  -21.3615 C   0  0  0  0  0  0  0  0  0  0  0  0
    2.0246  -48.0333  -20.4472 C   0  0  0  0  0  0  0  0  0  0  0  0
    1.1461  -49.1157  -20.6225 C   0  0  0  0  0  0  0  0  0  0  0  0
    1.2142  -49.9079  -21.7353 C   0  0  0  0  0  0  0  0  0  0  0  0
    2.2127  -49.5510  -22.6591 C   0  0  0  0  0  0  0  0  0  0  0  0
    3.0688  -48.4928  -22.4848 C   0  0  0  0  0  0  0  0  0  0  0  0
    4.0374  -48.1948  -23.3971 F   0  0  0  0  0  0  0  0  0  0  0  0
    0.3845  -51.0089  -22.0172 N   0  0  0  0  0  0  0  0  0  0  0  0
    0.5772  -52.3280  -21.6538 C   0  0  0  0  0  0  0  0  0  0  0  0
    1.5609  -52.7261  -20.9996 O   0  0  0  0  0  0  0  0  0  0  0  0
   -0.5045  -50.8037  -22.5957 H   0  0  0  0  0  0  0  0  0  0  0  0
   -0.4325  -53.3656  -22.0548 C   0  0  0  0  0  0  0  0  0  0  0  0
   -1.6688  -53.3191  -21.1906 C   0  0  0  0  0  0  0  0  0  0  0  0
   -0.7626  -54.4782  -21.1119 C   0  0  0  0  0  0  0  0  0  0  0  0
   -0.5730  -53.6308  -23.5167 C   0  0  0  0  0  0  0  0  0  0  0  0
   -1.1121  -54.7302  -23.8511 O   0  0  0  0  0  0  0  0  0  0  0  0
   -0.1482  -52.7387  -24.5047 N   0  0  0  0  0  0  0  0  0  0  0  0
    0.3270  -51.8213  -24.2003 H   0  0  0  0  0  0  0  0  0  0  0  0
   -0.2381  -52.8660  -25.9195 C   0  0  0  0  0  0  0  0  0  0  0  0
    0.6378  -53.5748  -26.7032 C   0  0  0  0  0  0  0  0  0  0  0  0
    0.4896  -53.6738  -28.0818 C   0  0  0  0  0  0  0  0  0  0  0  0
   -0.5465  -53.0626  -28.7256 C   0  0  0  0  0  0  0  0  0  0  0  0
   -0.7349  -53.1319  -30.0578 F   0  0  0  0  0  0  0  0  0  0  0  0
   -1.4343  -52.3478  -27.9654 C   0  0  0  0  0  0  0  0  0  0  0  0
   -1.2981  -52.2423  -26.6027 C   0  0  0  0  0  0  0  0  0  0  0  0
   -2.2083  -51.5228  -25.9187 F   0  0  0  0  0  0  0  0  0  0  0  0
    3.8110  -46.6257  -21.1090 O   0  0  0  0  0  0  0  0  0  0  0  0
    6.7383  -45.1223  -23.5281 C   0  0  0  0  0  0  0  0  0  0  0  0
    5.7742  -45.6311  -22.7018 C   0  0  0  0  0  0  0  0  0  0  0  0
    6.0918  -46.1627  -21.4683 C   0  0  0  0  0  0  0  0  0  0  0  0
    5.1014  -46.6837  -20.6300 C   0  0  0  0  0  0  0  0  0  0  0  0
    5.4707  -47.2052  -19.4122 C   0  0  0  0  0  0  0  0  0  0  0  0
    6.8099  -47.2095  -19.0271 C   0  0  0  0  0  0  0  0  0  0  0  0
    7.7297  -46.7002  -19.8587 N   0  0  0  0  0  0  0  0  0  0  0  0
    7.3855  -46.1868  -21.0547 C   0  0  0  0  0  0  0  0  0  0  0  0
    8.3672  -45.6726  -21.8861 C   0  0  0  0  0  0  0  0  0  0  0  0
    8.0908  -45.1358  -23.1210 C   0  0  0  0  0  0  0  0  0  0  0  0
    6.0153  -43.2634  -24.9311 C   0  0  0  0  0  0  0  0  0  0  0  0
    6.4423  -44.5821  -24.7712 O   0  0  0  0  0  0  0  0  0  0  0  0
    9.0139  -44.6186  -23.9819 O   0  0  0  0  0  0  0  0  0  0  0  0
    9.9972  -45.1786  -24.7591 C   0  0  0  0  0  0  0  0  0  0  0  0
    9.4925  -46.2780  -25.6379 C   0  0  0  0  0  0  0  0  0  0  0  0
   10.0656  -47.6322  -25.4165 C   0  0  0  0  0  0  0  0  0  0  0  0
    9.2068  -48.7058  -25.1246 N   0  0  0  0  0  0  0  0  0  0  0  0
    8.1476  -49.0143  -26.0154 C   0  0  0  0  0  0  0  0  0  0  0  0
    6.8430  -49.0448  -25.2459 C   0  0  0  0  0  0  0  0  0  0  0  0
    7.2248  -48.8541  -23.8136 C   0  0  0  0  0  0  0  0  0  0  0  0
    8.7308  -48.7981  -23.7937 C   0  0  0  0  0  0  0  0  0  0  0  0
 38 39  1  0  0  0
 39 28  1  0  0  0
 28 29  2  0  0  0
 29 30  1  0  0  0
 30 31  2  0  0  0
 31 27  1  0  0  0
 27  1  1  0  0  0
  1  2  2  0  0  0
  2  3  1  0  0  0
  3  4  2  0  0  0
  4  8  1  0  0  0
  8  9  1  0  0  0
  9 10  2  0  0  0
  9 12  1  0  0  0
 12 13  1  0  0  0
 13 14  1  0  0  0
 12 15  1  0  0  0
 15 16  2  0  0  0
 15 17  1  0  0  0
 17 19  1  0  0  0
 19 20  2  0  0  0
 20 21  1  0  0  0
 21 22  2  0  0  0
 22 23  1  0  0  0
 22 24  1  0  0  0
 24 25  2  0  0  0
 25 26  1  0  0  0
  4  5  1  0  0  0
  5  6  2  0  0  0
  6  7  1  0  0  0
 31 32  1  0  0  0
 32 33  2  0  0  0
 33 34  1  0  0  0
 34 35  2  0  0  0
 35 36  1  0  0  0
 36 37  2  0  0  0
 37 40  1  0  0  0
 40 41  1  0  0  0
 41 42  1  0  0  0
 42 43  1  0  0  0
 43 44  1  0  0  0
 44 45  1  0  0  0
 45 46  1  0  0  0
 46 47  1  0  0  0
 47 48  1  0  0  0
 37 28  1  0  0  0
 48 44  1  0  0  0
 35 30  1  0  0  0
  6  1  1  0  0  0
 14 12  1  0  0  0
 25 19  1  0  0  0
  8 11  1  0  0  0
 17 18  1  0  0  0
M  END
> <minimizedAffinity>
-7.01022

> <CNNscore>
0.1462528259

> <CNNaffinity>
7.2852492332

> <CNN_VS>
1.0654883385

> <CNNaffinity_variance>
0.3443267643

$$$$
[H]c1nc2c([H])c(OC([H])([H])C([H])([H])C([H])([H])N3C([H])([H])C([H])([H])C([H])([H])C3([H])[H])c(OC([H])([H])[H])c([H])c2c(Oc2c([H])c([H])c(N([H])C(=O)C3(C(=O)N([H])c4c([H])c([H])c(F)c([H])c4F)C([H])([H])C3([H])[H])c([H])c2F)c1[H]


 48 53  0  0  0  0  0  0  0  0999 V2000
    2.6597  -50.4334  -21.6937 C   0  0  0  0  0  0  0  0  0  0  0  0
    2.2746  -49.1216  -21.6681 C   0  0  0  0  0  0  0  0  0  0  0  0
    2.5825  -48.2189  -22.6998 C   0  0  0  0  0  0  0  0  0  0  0  0
    3.2942  -48.6170  -23.7979 C   0  0  0  0  0  0  0  0  0  0  0  0
    3.6775  -49.9701  -23.7996 C   0  0  0  0  0  0  0  0  0  0  0  0
    3.3753  -50.8488  -22.7899 C   0  0  0  0  0  0  0  0  0  0  0  0
    3.7491  -52.1591  -22.8423 F   0  0  0  0  0  0  0  0  0  0  0  0
    3.6638  -47.8006  -24.8829 N   0  0  0  0  0  0  0  0  0  0  0  0
    3.2956  -46.4899  -25.1189 C   0  0  0  0  0  0  0  0  0  0  0  0
    2.5514  -45.8360  -24.3621 O   0  0  0  0  0  0  0  0  0  0  0  0
    4.3027  -48.2529  -25.6274 H   0  0  0  0  0  0  0  0  0  0  0  0
    3.7993  -45.7849  -26.3461 C   0  0  0  0  0  0  0  0  0  0  0  0
    5.1198  -45.0956  -26.1037 C   0  0  0  0  0  0  0  0  0  0  0  0
    3.9083  -44.2936  -26.3489 C   0  0  0  0  0  0  0  0  0  0  0  0
    3.5598  -46.4651  -27.6527 C   0  0  0  0  0  0  0  0  0  0  0  0
    3.2926  -47.7053  -27.6134 O   0  0  0  0  0  0  0  0  0  0  0  0
    3.6139  -45.8067  -28.8840 N   0  0  0  0  0  0  0  0  0  0  0  0
    3.8641  -44.7592  -28.8973 H   0  0  0  0  0  0  0  0  0  0  0  0
    3.3922  -46.3337  -30.1875 C   0  0  0  0  0  0  0  0  0  0  0  0
    2.2249  -46.2097  -30.8986 C   0  0  0  0  0  0  0  0  0  0  0  0
    2.0728  -46.7359  -32.1762 C   0  0  0  0  0  0  0  0  0  0  0  0
    3.0904  -47.4079  -32.7881 C   0  0  0  0  0  0  0  0  0  0  0  0
    2.9931  -47.9326  -34.0251 F   0  0  0  0  0  0  0  0  0  0  0  0
    4.2661  -47.5462  -32.0984 C   0  0  0  0  0  0  0  0  0  0  0  0
    4.4282  -47.0312  -30.8354 C   0  0  0  0  0  0  0  0  0  0  0  0
    5.6116  -47.2053  -30.2163 F   0  0  0  0  0  0  0  0  0  0  0  0
    2.3130  -51.2534  -20.6364 O   0  0  0  0  0  0  0  0  0  0  0  0
    0.4473  -51.2442  -17.0032 C   0  0  0  0  0  0  0  0  0  0  0  0
    1.0554  -51.2614  -18.2284 C   0  0  0  0  0  0  0  0  0  0  0  0
    0.5289  -51.9806  -19.2822 C   0  0  0  0  0  0  0  0  0  0  0  0
    1.1574  -51.9960  -20.5312 C   0  0  0  0  0  0  0  0  0  0  0  0
    0.5940  -52.7314  -21.5477 C   0  0  0  0  0  0  0  0  0  0  0  0
   -0.5829  -53.4448  -21.3295 C   0  0  0  0  0  0  0  0  0  0  0  0
   -1.1555  -53.4043  -20.1180 N   0  0  0  0  0  0  0  0  0  0  0  0
   -0.6167  -52.6903  -19.1118 C   0  0  0  0  0  0  0  0  0  0  0  0
   -1.2384  -52.6770  -17.8737 C   0  0  0  0  0  0  0  0  0  0  0  0
   -0.7449  -51.9740  -16.8005 C   0  0  0  0  0  0  0  0  0  0  0  0
    1.9837  -49.5935  -16.0750 C   0  0  0  0  0  0  0  0  0  0  0  0
    0.9574  -50.5277  -15.9303 O   0  0  0  0  0  0  0  0  0  0  0  0
   -1.3109  -51.9259  -15.5602 O   0  0  0  0  0  0  0  0  0  0  0  0
   -1.5194  -50.9136  -14.6568 C   0  0  0  0  0  0  0  0  0  0  0  0
   -2.8385  -50.2328  -14.8358 C   0  0  0  0  0  0  0  0  0  0  0  0
   -2.8220  -48.7489  -14.9288 C   0  0  0  0  0  0  0  0  0  0  0  0
   -1.8201  -48.0264  -14.2581 N   0  0  0  0  0  0  0  0  0  0  0  0
   -2.1795  -47.1495  -13.2034 C   0  0  0  0  0  0  0  0  0  0  0  0
   -1.6086  -45.7744  -13.4831 C   0  0  0  0  0  0  0  0  0  0  0  0
   -0.7815  -45.9338  -14.7176 C   0  0  0  0  0  0  0  0  0  0  0  0
   -0.8380  -47.3997  -15.0638 C   0  0  0  0  0  0  0  0  0  0  0  0
 38 39  1  0  0  0
 39 28  1  0  0  0
 28 29  2  0  0  0
 29 30  1  0  0  0
 30 31  2  0  0  0
 31 27  1  0  0  0
 27  1  1  0  0  0
  1  2  2  0  0  0
  2  3  1  0  0  0
  3  4  2  0  0  0
  4  8  1  0  0  0
  8  9  1  0  0  0
  9 10  2  0  0  0
  9 12  1  0  0  0
 12 13  1  0  0  0
 13 14  1  0  0  0
 12 15  1  0  0  0
 15 16  2  0  0  0
 15 17  1  0  0  0
 17 19  1  0  0  0
 19 20  2  0  0  0
 20 21  1  0  0  0
 21 22  2  0  0  0
 22 23  1  0  0  0
 22 24  1  0  0  0
 24 25  2  0  0  0
 25 26  1  0  0  0
  4  5  1  0  0  0
  5  6  2  0  0  0
  6  7  1  0  0  0
 31 32  1  0  0  0
 32 33  2  0  0  0
 33 34  1  0  0  0
 34 35  2  0  0  0
 35 36  1  0  0  0
 36 37  2  0  0  0
 37 40  1  0  0  0
 40 41  1  0  0  0
 41 42  1  0  0  0
 42 43  1  0  0  0
 43 44  1  0  0  0
 44 45  1  0  0  0
 45 46  1  0  0  0
 46 47  1  0  0  0
 47 48  1  0  0  0
 37 28  1  0  0  0
 48 44  1  0  0  0
 35 30  1  0  0  0
  6  1  1  0  0  0
 14 12  1  0  0  0
 25 19  1  0  0  0
  8 11  1  0  0  0
 17 18  1  0  0  0
M  END
> <minimizedAffinity>
-7.04959

> <CNNscore>
0.1036671326

> <CNNaffinity>
6.5495986938

> <CNN_VS>
0.6789781451

> <CNNaffinity_variance>
0.1190200448

$$$$
[H]c1nc2c([H])c(OC([H])([H])C([H])([H])C([H])([H])N3C([H])([H])C([H])([H])C([H])([H])C3([H])[H])c(OC([H])([H])[H])c([H])c2c(Oc2c([H])c([H])c(N([H])C(=O)C3(C(=O)N([H])c4c([H])c([H])c(F)c([H])c4F)C([H])([H])C3([H])[H])c([H])c2F)c1[H]


 48 53  0  0  0  0  0  0  0  0999 V2000
    0.8252  -52.4887  -20.7253 C   0  0  0  0  0  0  0  0  0  0  0  0
    1.1001  -51.2909  -20.1256 C   0  0  0  0  0  0  0  0  0  0  0  0
    0.5311  -50.9064  -18.8999 C   0  0  0  0  0  0  0  0  0  0  0  0
   -0.3396  -51.7267  -18.2368 C   0  0  0  0  0  0  0  0  0  0  0  0
   -0.6050  -52.9518  -18.8743 C   0  0  0  0  0  0  0  0  0  0  0  0
   -0.0477  -53.3239  -20.0718 C   0  0  0  0  0  0  0  0  0  0  0  0
   -0.3168  -54.5316  -20.6448 F   0  0  0  0  0  0  0  0  0  0  0  0
   -0.9719  -51.4425  -17.0122 N   0  0  0  0  0  0  0  0  0  0  0  0
   -0.3945  -51.3701  -15.7591 C   0  0  0  0  0  0  0  0  0  0  0  0
    0.8195  -51.5589  -15.5476 O   0  0  0  0  0  0  0  0  0  0  0  0
   -2.0378  -51.2705  -17.0516 H   0  0  0  0  0  0  0  0  0  0  0  0
   -1.2471  -51.0514  -14.5640 C   0  0  0  0  0  0  0  0  0  0  0  0
   -0.9353  -49.6909  -13.9901 C   0  0  0  0  0  0  0  0  0  0  0  0
   -0.6093  -50.9038  -13.2197 C   0  0  0  0  0  0  0  0  0  0  0  0
   -2.6645  -51.5164  -14.6118 C   0  0  0  0  0  0  0  0  0  0  0  0
   -3.4636  -50.8475  -15.3364 O   0  0  0  0  0  0  0  0  0  0  0  0
   -3.1325  -52.6309  -13.9108 N   0  0  0  0  0  0  0  0  0  0  0  0
   -2.4434  -53.1717  -13.2840 H   0  0  0  0  0  0  0  0  0  0  0  0
   -4.4448  -53.1814  -13.8847 C   0  0  0  0  0  0  0  0  0  0  0  0
   -5.2678  -53.2023  -12.7866 C   0  0  0  0  0  0  0  0  0  0  0  0
   -6.5476  -53.7434  -12.8264 C   0  0  0  0  0  0  0  0  0  0  0  0
   -7.0490  -54.2850  -13.9740 C   0  0  0  0  0  0  0  0  0  0  0  0
   -8.2832  -54.8178  -14.0639 F   0  0  0  0  0  0  0  0  0  0  0  0
   -6.2464  -54.2771  -15.0843 C   0  0  0  0  0  0  0  0  0  0  0  0
   -4.9800  -53.7460  -15.0570 C   0  0  0  0  0  0  0  0  0  0  0  0
   -4.2463  -53.7727  -16.1862 F   0  0  0  0  0  0  0  0  0  0  0  0
    1.4301  -52.7877  -21.9315 O   0  0  0  0  0  0  0  0  0  0  0  0
    3.9527  -50.3349  -24.0055 C   0  0  0  0  0  0  0  0  0  0  0  0
    3.0926  -51.1555  -23.3288 C   0  0  0  0  0  0  0  0  0  0  0  0
    1.8831  -51.5359  -23.8741 C   0  0  0  0  0  0  0  0  0  0  0  0
    1.0075  -52.3729  -23.1754 C   0  0  0  0  0  0  0  0  0  0  0  0
   -0.1872  -52.7197  -23.7617 C   0  0  0  0  0  0  0  0  0  0  0  0
   -0.5118  -52.2427  -25.0300 C   0  0  0  0  0  0  0  0  0  0  0  0
    0.3546  -51.4430  -25.6678 N   0  0  0  0  0  0  0  0  0  0  0  0
    1.5279  -51.0928  -25.1080 C   0  0  0  0  0  0  0  0  0  0  0  0
    2.3944  -50.2618  -25.7996 C   0  0  0  0  0  0  0  0  0  0  0  0
    3.6063  -49.8606  -25.2901 C   0  0  0  0  0  0  0  0  0  0  0  0
    6.0617  -50.8432  -22.8918 C   0  0  0  0  0  0  0  0  0  0  0  0
    5.1736  -49.9406  -23.4778 O   0  0  0  0  0  0  0  0  0  0  0  0
    4.4972  -49.0434  -25.9222 O   0  0  0  0  0  0  0  0  0  0  0  0
    4.5270  -47.6939  -26.1719 C   0  0  0  0  0  0  0  0  0  0  0  0
    5.0388  -47.3632  -27.5374 C   0  0  0  0  0  0  0  0  0  0  0  0
    4.4376  -48.1036  -28.6781 C   0  0  0  0  0  0  0  0  0  0  0  0
    3.6409  -47.4120  -29.6067 N   0  0  0  0  0  0  0  0  0  0  0  0
    4.1623  -47.1195  -30.8925 C   0  0  0  0  0  0  0  0  0  0  0  0
    4.0308  -45.6336  -31.1567 C   0  0  0  0  0  0  0  0  0  0  0  0
    3.2809  -45.0889  -29.9842 C   0  0  0  0  0  0  0  0  0  0  0  0
    2.9385  -46.2797  -29.1261 C   0  0  0  0  0  0  0  0  0  0  0  0
 38 39  1  0  0  0
 39 28  1  0  0  0
 28 29  2  0  0  0
 29 30  1  0  0  0
 30 31  2  0  0  0
 31 27  1  0  0  0
 27  1  1  0  0  0
  1  2  2  0  0  0
  2  3  1  0  0  0
  3  4  2  0  0  0
  4  8  1  0  0  0
  8  9  1  0  0  0
  9 10  2  0  0  0
  9 12  1  0  0  0
 12 13  1  0  0  0
 13 14  1  0  0  0
 12 15  1  0  0  0
 15 16  2  0  0  0
 15 17  1  0  0  0
 17 19  1  0  0  0
 19 20  2  0  0  0
 20 21  1  0  0  0
 21 22  2  0  0  0
 22 23  1  0  0  0
 22 24  1  0  0  0
 24 25  2  0  0  0
 25 26  1  0  0  0
  4  5  1  0  0  0
  5  6  2  0  0  0
  6  7  1  0  0  0
 31 32  1  0  0  0
 32 33  2  0  0  0
 33 34  1  0  0  0
 34 35  2  0  0  0
 35 36  1  0  0  0
 36 37  2  0  0  0
 37 40  1  0  0  0
 40 41  1  0  0  0
 41 42  1  0  0  0
 42 43  1  0  0  0
 43 44  1  0  0  0
 44 45  1  0  0  0
 45 46  1  0  0  0
 46 47  1  0  0  0
 47 48  1  0  0  0
 37 28  1  0  0  0
 48 44  1  0  0  0
 35 30  1  0  0  0
  6  1  1  0  0  0
 14 12  1  0  0  0
 25 19  1  0  0  0
  8 11  1  0  0  0
 17 18  1  0  0  0
M  END
> <minimizedAffinity>
-7.62486

> <CNNscore>
0.0905293897

> <CNNaffinity>
6.5729818344

> <CNN_VS>
0.5950480103

> <CNNaffinity_variance>
0.4112817645

$$$$
[H]c1nc2c([H])c(OC([H])([H])C([H])([H])C([H])([H])N3C([H])([H])C([H])([H])C([H])([H])C3([H])[H])c(OC([H])([H])[H])c([H])c2c(Oc2c([H])c([H])c(N([H])C(=O)C3(C(=O)N([H])c4c([H])c([H])c(F)c([H])c4F)C([H])([H])C3([H])[H])c([H])c2F)c1[H]


 48 53  0  0  0  0  0  0  0  0999 V2000
   -0.0943  -53.3402  -22.0335 C   0  0  0  0  0  0  0  0  0  0  0  0
    0.5533  -54.0284  -21.0452 C   0  0  0  0  0  0  0  0  0  0  0  0
    0.5771  -53.5964  -19.7084 C   0  0  0  0  0  0  0  0  0  0  0  0
   -0.0581  -52.4471  -19.3260 C   0  0  0  0  0  0  0  0  0  0  0  0
   -0.7164  -51.7589  -20.3608 C   0  0  0  0  0  0  0  0  0  0  0  0
   -0.7371  -52.1837  -21.6654 C   0  0  0  0  0  0  0  0  0  0  0  0
   -1.4063  -51.4958  -22.6341 F   0  0  0  0  0  0  0  0  0  0  0  0
   -0.0939  -51.9180  -18.0225 N   0  0  0  0  0  0  0  0  0  0  0  0
    0.1826  -50.6232  -17.6275 C   0  0  0  0  0  0  0  0  0  0  0  0
    0.5166  -49.7181  -18.4171 O   0  0  0  0  0  0  0  0  0  0  0  0
   -0.3583  -52.6062  -17.2329 H   0  0  0  0  0  0  0  0  0  0  0  0
    0.0880  -50.2519  -16.1749 C   0  0  0  0  0  0  0  0  0  0  0  0
   -1.0872  -50.9111  -15.4954 C   0  0  0  0  0  0  0  0  0  0  0  0
   -1.0784  -49.4509  -15.6916 C   0  0  0  0  0  0  0  0  0  0  0  0
    1.3770  -50.1157  -15.4351 C   0  0  0  0  0  0  0  0  0  0  0  0
    2.2027  -51.0740  -15.5399 O   0  0  0  0  0  0  0  0  0  0  0  0
    1.7023  -49.0029  -14.6551 N   0  0  0  0  0  0  0  0  0  0  0  0
    0.9788  -48.2105  -14.5612 H   0  0  0  0  0  0  0  0  0  0  0  0
    2.8935  -48.7475  -13.9189 C   0  0  0  0  0  0  0  0  0  0  0  0
    3.1168  -49.1391  -12.6227 C   0  0  0  0  0  0  0  0  0  0  0  0
    4.3089  -48.8712  -11.9596 C   0  0  0  0  0  0  0  0  0  0  0  0
    5.3230  -48.1982  -12.5761 C   0  0  0  0  0  0  0  0  0  0  0  0
    6.4971  -47.9179  -11.9777 F   0  0  0  0  0  0  0  0  0  0  0  0
    5.1243  -47.7954  -13.8704 C   0  0  0  0  0  0  0  0  0  0  0  0
    3.9507  -48.0537  -14.5357 C   0  0  0  0  0  0  0  0  0  0  0  0
    3.8243  -47.6276  -15.8072 F   0  0  0  0  0  0  0  0  0  0  0  0
   -0.0682  -53.8375  -23.3228 O   0  0  0  0  0  0  0  0  0  0  0  0
    3.3088  -51.6990  -24.1614 C   0  0  0  0  0  0  0  0  0  0  0  0
    2.1680  -52.4071  -23.9003 C   0  0  0  0  0  0  0  0  0  0  0  0
    1.0850  -52.3663  -24.7550 C   0  0  0  0  0  0  0  0  0  0  0  0
   -0.0792  -53.0905  -24.4804 C   0  0  0  0  0  0  0  0  0  0  0  0
   -1.1315  -53.0131  -25.3624 C   0  0  0  0  0  0  0  0  0  0  0  0
   -1.0314  -52.2258  -26.5078 C   0  0  0  0  0  0  0  0  0  0  0  0
    0.1017  -51.5469  -26.7360 N   0  0  0  0  0  0  0  0  0  0  0  0
    1.1410  -51.6108  -25.8825 C   0  0  0  0  0  0  0  0  0  0  0  0
    2.2935  -50.8913  -26.1537 C   0  0  0  0  0  0  0  0  0  0  0  0
    3.3918  -50.9058  -25.3272 C   0  0  0  0  0  0  0  0  0  0  0  0
    5.4551  -52.6355  -23.4808 C   0  0  0  0  0  0  0  0  0  0  0  0
    4.4097  -51.7258  -23.3176 O   0  0  0  0  0  0  0  0  0  0  0  0
    4.5500  -50.2174  -25.5407 O   0  0  0  0  0  0  0  0  0  0  0  0
    4.8444  -48.8828  -25.6695 C   0  0  0  0  0  0  0  0  0  0  0  0
    4.1957  -48.0373  -24.6207 C   0  0  0  0  0  0  0  0  0  0  0  0
    4.7139  -48.1717  -23.2335 C   0  0  0  0  0  0  0  0  0  0  0  0
    3.8087  -48.2069  -22.1589 N   0  0  0  0  0  0  0  0  0  0  0  0
    4.0034  -49.1439  -21.1127 C   0  0  0  0  0  0  0  0  0  0  0  0
    2.7354  -49.9513  -20.9253 C   0  0  0  0  0  0  0  0  0  0  0  0
    1.7366  -49.3391  -21.8533 C   0  0  0  0  0  0  0  0  0  0  0  0
    2.4308  -48.1593  -22.4840 C   0  0  0  0  0  0  0  0  0  0  0  0
 38 39  1  0  0  0
 39 28  1  0  0  0
 28 29  2  0  0  0
 29 30  1  0  0  0
 30 31  2  0  0  0
 31 27  1  0  0  0
 27  1  1  0  0  0
  1  2  2  0  0  0
  2  3  1  0  0  0
  3  4  2  0  0  0
  4  8  1  0  0  0
  8  9  1  0  0  0
  9 10  2  0  0  0
  9 12  1  0  0  0
 12 13  1  0  0  0
 13 14  1  0  0  0
 12 15  1  0  0  0
 15 16  2  0  0  0
 15 17  1  0  0  0
 17 19  1  0  0  0
 19 20  2  0  0  0
 20 21  1  0  0  0
 21 22  2  0  0  0
 22 23  1  0  0  0
 22 24  1  0  0  0
 24 25  2  0  0  0
 25 26  1  0  0  0
  4  5  1  0  0  0
  5  6  2  0  0  0
  6  7  1  0  0  0
 31 32  1  0  0  0
 32 33  2  0  0  0
 33 34  1  0  0  0
 34 35  2  0  0  0
 35 36  1  0  0  0
 36 37  2  0  0  0
 37 40  1  0  0  0
 40 41  1  0  0  0
 41 42  1  0  0  0
 42 43  1  0  0  0
 43 44  1  0  0  0
 44 45  1  0  0  0
 45 46  1  0  0  0
 46 47  1  0  0  0
 47 48  1  0  0  0
 37 28  1  0  0  0
 48 44  1  0  0  0
 35 30  1  0  0  0
  6  1  1  0  0  0
 14 12  1  0  0  0
 25 19  1  0  0  0
  8 11  1  0  0  0
 17 18  1  0  0  0
M  END
> <minimizedAffinity>
-6.42755

> <CNNscore>
0.0748119503

> <CNNaffinity>
6.7615599632

> <CNN_VS>
0.5058454871

> <CNNaffinity_variance>
0.4920640886

$$$$
[H]c1nc2c([H])c(OC([H])([H])C([H])([H])C([H])([H])N3C([H])([H])C([H])([H])C([H])([H])C3([H])[H])c(OC([H])([H])[H])c([H])c2c(Oc2c([H])c([H])c(N([H])C(=O)C3(C(=O)N([H])c4c([H])c([H])c(F)c([H])c4F)C([H])([H])C3([H])[H])c([H])c2F)c1[H]


 48 53  0  0  0  0  0  0  0  0999 V2000
    3.0704  -50.8114  -21.8725 C   0  0  0  0  0  0  0  0  0  0  0  0
    3.1392  -49.4730  -21.6005 C   0  0  0  0  0  0  0  0  0  0  0  0
    3.4325  -48.5120  -22.5826 C   0  0  0  0  0  0  0  0  0  0  0  0
    3.6667  -48.8764  -23.8800 C   0  0  0  0  0  0  0  0  0  0  0  0
    3.5895  -50.2576  -24.1329 C   0  0  0  0  0  0  0  0  0  0  0  0
    3.3032  -51.1934  -23.1710 C   0  0  0  0  0  0  0  0  0  0  0  0
    3.2175  -52.5222  -23.4647 F   0  0  0  0  0  0  0  0  0  0  0  0
    3.9750  -48.0037  -24.9399 N   0  0  0  0  0  0  0  0  0  0  0  0
    3.4696  -46.7381  -25.1676 C   0  0  0  0  0  0  0  0  0  0  0  0
    2.6342  -46.1856  -24.4253 O   0  0  0  0  0  0  0  0  0  0  0  0
    4.6828  -48.3678  -25.6703 H   0  0  0  0  0  0  0  0  0  0  0  0
    3.9278  -45.9584  -26.3671 C   0  0  0  0  0  0  0  0  0  0  0  0
    5.1860  -45.1732  -26.0877 C   0  0  0  0  0  0  0  0  0  0  0  0
    3.9166  -44.4637  -26.3251 C   0  0  0  0  0  0  0  0  0  0  0  0
    3.7575  -46.6159  -27.6960 C   0  0  0  0  0  0  0  0  0  0  0  0
    3.5049  -47.8598  -27.6925 O   0  0  0  0  0  0  0  0  0  0  0  0
    3.8596  -45.9331  -28.9109 N   0  0  0  0  0  0  0  0  0  0  0  0
    4.0966  -44.8826  -28.8929 H   0  0  0  0  0  0  0  0  0  0  0  0
    3.7050  -46.4374  -30.2330 C   0  0  0  0  0  0  0  0  0  0  0  0
    4.6712  -47.1129  -30.9356 C   0  0  0  0  0  0  0  0  0  0  0  0
    4.4558  -47.5940  -32.2220 C   0  0  0  0  0  0  0  0  0  0  0  0
    3.2587  -47.4135  -32.8513 C   0  0  0  0  0  0  0  0  0  0  0  0
    3.0004  -47.8635  -34.0946 F   0  0  0  0  0  0  0  0  0  0  0  0
    2.2779  -46.7410  -32.1711 C   0  0  0  0  0  0  0  0  0  0  0  0
    2.4790  -46.2605  -30.9001 C   0  0  0  0  0  0  0  0  0  0  0  0
    1.4701  -45.6081  -30.2915 F   0  0  0  0  0  0  0  0  0  0  0  0
    2.7745  -51.6885  -20.8461 O   0  0  0  0  0  0  0  0  0  0  0  0
    1.3292  -50.7629  -17.1400 C   0  0  0  0  0  0  0  0  0  0  0  0
    1.7935  -51.0847  -18.3857 C   0  0  0  0  0  0  0  0  0  0  0  0
    1.0426  -51.8463  -19.2582 C   0  0  0  0  0  0  0  0  0  0  0  0
    1.5247  -52.1739  -20.5293 C   0  0  0  0  0  0  0  0  0  0  0  0
    0.7388  -52.9384  -21.3595 C   0  0  0  0  0  0  0  0  0  0  0  0
   -0.5149  -53.3739  -20.9350 C   0  0  0  0  0  0  0  0  0  0  0  0
   -0.9418  -53.0383  -19.7094 N   0  0  0  0  0  0  0  0  0  0  0  0
   -0.1848  -52.2915  -18.8836 C   0  0  0  0  0  0  0  0  0  0  0  0
   -0.6618  -51.9689  -17.6235 C   0  0  0  0  0  0  0  0  0  0  0  0
    0.0560  -51.2138  -16.7268 C   0  0  0  0  0  0  0  0  0  0  0  0
    3.3601  -50.3430  -15.8569 C   0  0  0  0  0  0  0  0  0  0  0  0
    2.0656  -49.9979  -16.2471 O   0  0  0  0  0  0  0  0  0  0  0  0
   -0.3601  -50.8677  -15.4746 O   0  0  0  0  0  0  0  0  0  0  0  0
   -0.0043  -51.2800  -14.2145 C   0  0  0  0  0  0  0  0  0  0  0  0
   -1.1511  -51.8438  -13.4382 C   0  0  0  0  0  0  0  0  0  0  0  0
   -2.1941  -50.8845  -12.9876 C   0  0  0  0  0  0  0  0  0  0  0  0
   -3.4973  -50.9892  -13.5034 N   0  0  0  0  0  0  0  0  0  0  0  0
   -3.7547  -51.8839  -14.5728 C   0  0  0  0  0  0  0  0  0  0  0  0
   -4.4255  -51.1295  -15.7024 C   0  0  0  0  0  0  0  0  0  0  0  0
   -4.6577  -49.7511  -15.1735 C   0  0  0  0  0  0  0  0  0  0  0  0
   -4.1884  -49.7759  -13.7415 C   0  0  0  0  0  0  0  0  0  0  0  0
 38 39  1  0  0  0
 39 28  1  0  0  0
 28 29  2  0  0  0
 29 30  1  0  0  0
 30 31  2  0  0  0
 31 27  1  0  0  0
 27  1  1  0  0  0
  1  2  2  0  0  0
  2  3  1  0  0  0
  3  4  2  0  0  0
  4  8  1  0  0  0
  8  9  1  0  0  0
  9 10  2  0  0  0
  9 12  1  0  0  0
 12 13  1  0  0  0
 13 14  1  0  0  0
 12 15  1  0  0  0
 15 16  2  0  0  0
 15 17  1  0  0  0
 17 19  1  0  0  0
 19 20  2  0  0  0
 20 21  1  0  0  0
 21 22  2  0  0  0
 22 23  1  0  0  0
 22 24  1  0  0  0
 24 25  2  0  0  0
 25 26  1  0  0  0
  4  5  1  0  0  0
  5  6  2  0  0  0
  6  7  1  0  0  0
 31 32  1  0  0  0
 32 33  2  0  0  0
 33 34  1  0  0  0
 34 35  2  0  0  0
 35 36  1  0  0  0
 36 37  2  0  0  0
 37 40  1  0  0  0
 40 41  1  0  0  0
 41 42  1  0  0  0
 42 43  1  0  0  0
 43 44  1  0  0  0
 44 45  1  0  0  0
 45 46  1  0  0  0
 46 47  1  0  0  0
 47 48  1  0  0  0
 37 28  1  0  0  0
 48 44  1  0  0  0
 35 30  1  0  0  0
  6  1  1  0  0  0
 14 12  1  0  0  0
 25 19  1  0  0  0
  8 11  1  0  0  0
 17 18  1  0  0  0
M  END
> <minimizedAffinity>
-7.42877

> <CNNscore>
0.0717637837

> <CNNaffinity>
6.4285926819

> <CNN_VS>
0.4613401294

> <CNNaffinity_variance>
0.1647468507

$$$$
[H]c1nc2c([H])c(OC([H])([H])C([H])([H])C([H])([H])N3C([H])([H])C([H])([H])C([H])([H])C3([H])[H])c(OC([H])([H])[H])c([H])c2c(Oc2c([H])c([H])c(N([H])C(=O)C3(C(=O)N([H])c4c([H])c([H])c(F)c([H])c4F)C([H])([H])C3([H])[H])c([H])c2F)c1[H]


 48 53  0  0  0  0  0  0  0  0999 V2000
    0.1458  -53.2455  -21.3930 C   0  0  0  0  0  0  0  0  0  0  0  0
    1.0361  -52.4704  -20.7028 C   0  0  0  0  0  0  0  0  0  0  0  0
    0.8053  -52.0366  -19.3865 C   0  0  0  0  0  0  0  0  0  0  0  0
   -0.3409  -52.3756  -18.7216 C   0  0  0  0  0  0  0  0  0  0  0  0
   -1.2391  -53.1730  -19.4532 C   0  0  0  0  0  0  0  0  0  0  0  0
   -1.0104  -53.5945  -20.7390 C   0  0  0  0  0  0  0  0  0  0  0  0
   -1.9000  -54.3851  -21.4045 F   0  0  0  0  0  0  0  0  0  0  0  0
   -0.6786  -51.9933  -17.4102 N   0  0  0  0  0  0  0  0  0  0  0  0
   -0.2262  -50.8932  -16.7070 C   0  0  0  0  0  0  0  0  0  0  0  0
    0.5791  -50.0622  -17.1707 O   0  0  0  0  0  0  0  0  0  0  0  0
   -1.3647  -52.6407  -16.8837 H   0  0  0  0  0  0  0  0  0  0  0  0
   -0.7087  -50.6568  -15.3041 C   0  0  0  0  0  0  0  0  0  0  0  0
   -0.3169  -51.7772  -14.3721 C   0  0  0  0  0  0  0  0  0  0  0  0
   -1.7352  -51.5688  -14.7124 C   0  0  0  0  0  0  0  0  0  0  0  0
   -0.6658  -49.2486  -14.8116 C   0  0  0  0  0  0  0  0  0  0  0  0
    0.4726  -48.7871  -14.4918 O   0  0  0  0  0  0  0  0  0  0  0  0
   -1.7991  -48.4397  -14.6948 N   0  0  0  0  0  0  0  0  0  0  0  0
   -2.7585  -48.8574  -14.9501 H   0  0  0  0  0  0  0  0  0  0  0  0
   -1.8889  -47.0883  -14.2569 C   0  0  0  0  0  0  0  0  0  0  0  0
   -1.8982  -45.9923  -15.0829 C   0  0  0  0  0  0  0  0  0  0  0  0
   -2.0017  -44.6945  -14.5955 C   0  0  0  0  0  0  0  0  0  0  0  0
   -2.0996  -44.4495  -13.2569 C   0  0  0  0  0  0  0  0  0  0  0  0
   -2.2053  -43.2113  -12.7364 F   0  0  0  0  0  0  0  0  0  0  0  0
   -2.0915  -45.5272  -12.4110 C   0  0  0  0  0  0  0  0  0  0  0  0
   -1.9892  -46.8139  -12.8806 C   0  0  0  0  0  0  0  0  0  0  0  0
   -1.9871  -47.8254  -11.9912 F   0  0  0  0  0  0  0  0  0  0  0  0
    0.4531  -53.6289  -22.6849 O   0  0  0  0  0  0  0  0  0  0  0  0
    3.5060  -51.1952  -23.8840 C   0  0  0  0  0  0  0  0  0  0  0  0
    2.4709  -52.0031  -23.5008 C   0  0  0  0  0  0  0  0  0  0  0  0
    1.2960  -52.0577  -24.2232 C   0  0  0  0  0  0  0  0  0  0  0  0
    0.2408  -52.8837  -23.8241 C   0  0  0  0  0  0  0  0  0  0  0  0
   -0.9101  -52.8991  -24.5767 C   0  0  0  0  0  0  0  0  0  0  0  0
   -1.0148  -52.1039  -25.7162 C   0  0  0  0  0  0  0  0  0  0  0  0
    0.0192  -51.3259  -26.0662 N   0  0  0  0  0  0  0  0  0  0  0  0
    1.1527  -51.2981  -25.3402 C   0  0  0  0  0  0  0  0  0  0  0  0
    2.1973  -50.4779  -25.7346 C   0  0  0  0  0  0  0  0  0  0  0  0
    3.3815  -50.3956  -25.0417 C   0  0  0  0  0  0  0  0  0  0  0  0
    4.7872  -51.4853  -21.8294 C   0  0  0  0  0  0  0  0  0  0  0  0
    4.6961  -51.1250  -23.1743 O   0  0  0  0  0  0  0  0  0  0  0  0
    4.4413  -49.6060  -25.3799 O   0  0  0  0  0  0  0  0  0  0  0  0
    4.8548  -48.3596  -24.9800 C   0  0  0  0  0  0  0  0  0  0  0  0
    3.7326  -47.4994  -24.4937 C   0  0  0  0  0  0  0  0  0  0  0  0
    3.7123  -47.1782  -23.0420 C   0  0  0  0  0  0  0  0  0  0  0  0
    3.3160  -48.1643  -22.1223 N   0  0  0  0  0  0  0  0  0  0  0  0
    1.9632  -48.5881  -22.0932 C   0  0  0  0  0  0  0  0  0  0  0  0
    1.4301  -48.4545  -20.6815 C   0  0  0  0  0  0  0  0  0  0  0  0
    2.6031  -48.0382  -19.8542 C   0  0  0  0  0  0  0  0  0  0  0  0
    3.7824  -48.0206  -20.7926 C   0  0  0  0  0  0  0  0  0  0  0  0
 38 39  1  0  0  0
 39 28  1  0  0  0
 28 29  2  0  0  0
 29 30  1  0  0  0
 30 31  2  0  0  0
 31 27  1  0  0  0
 27  1  1  0  0  0
  1  2  2  0  0  0
  2  3  1  0  0  0
  3  4  2  0  0  0
  4  8  1  0  0  0
  8  9  1  0  0  0
  9 10  2  0  0  0
  9 12  1  0  0  0
 12 13  1  0  0  0
 13 14  1  0  0  0
 12 15  1  0  0  0
 15 16  2  0  0  0
 15 17  1  0  0  0
 17 19  1  0  0  0
 19 20  2  0  0  0
 20 21  1  0  0  0
 21 22  2  0  0  0
 22 23  1  0  0  0
 22 24  1  0  0  0
 24 25  2  0  0  0
 25 26  1  0  0  0
  4  5  1  0  0  0
  5  6  2  0  0  0
  6  7  1  0  0  0
 31 32  1  0  0  0
 32 33  2  0  0  0
 33 34  1  0  0  0
 34 35  2  0  0  0
 35 36  1  0  0  0
 36 37  2  0  0  0
 37 40  1  0  0  0
 40 41  1  0  0  0
 41 42  1  0  0  0
 42 43  1  0  0  0
 43 44  1  0  0  0
 44 45  1  0  0  0
 45 46  1  0  0  0
 46 47  1  0  0  0
 47 48  1  0  0  0
 37 28  1  0  0  0
 48 44  1  0  0  0
 35 30  1  0  0  0
  6  1  1  0  0  0
 14 12  1  0  0  0
 25 19  1  0  0  0
  8 11  1  0  0  0
 17 18  1  0  0  0
M  END
> <minimizedAffinity>
-7.27284

> <CNNscore>
0.0715222731

> <CNNaffinity>
6.7271432877

> <CNN_VS>
0.4811405838

> <CNNaffinity_variance>
0.5189911723

$$$$
[H]OC([H])([H])[C@@]1(O[H])C([H])([H])[C@@]2([H])O[C@]1(C([H])([H])[H])n1c3c([H])c([H])c([H])c([H])c3c3c4c(c5c6c([H])c([H])c([H])c([H])c6n2c5c31)C(=O)N([H])C4([H])[H]


 36 43  0  0  0  0  0  0  0  0999 V2000
    2.9128  -47.2977  -22.4929 C   0  0  0  0  0  0  0  0  0  0  0  0
    2.7689  -48.6286  -21.8378 C   0  0  0  0  0  0  0  0  0  0  0  0
    1.7673  -48.3298  -20.8732 O   0  0  0  0  0  0  0  0  0  0  0  0
    1.9262  -49.1204  -19.7871 C   0  0  0  0  0  0  0  0  0  0  0  0
    3.3646  -49.3743  -19.6316 C   0  0  0  0  0  0  0  0  0  0  0  0
    3.9388  -49.0254  -20.9867 C   0  0  0  0  0  0  0  0  0  0  0  0
    4.5872  -50.1614  -21.4475 O   0  0  0  0  0  0  0  0  0  0  0  0
    1.1057  -50.3331  -19.9033 N   0  0  0  0  0  0  0  0  0  0  0  0
    0.4258  -50.9751  -18.9690 C   0  0  0  0  0  0  0  0  0  0  0  0
    0.3116  -50.6755  -17.6362 C   0  0  0  0  0  0  0  0  0  0  0  0
   -0.4670  -51.5046  -16.8380 C   0  0  0  0  0  0  0  0  0  0  0  0
   -1.1051  -52.5949  -17.3714 C   0  0  0  0  0  0  0  0  0  0  0  0
   -0.9903  -52.9033  -18.7323 C   0  0  0  0  0  0  0  0  0  0  0  0
   -0.2232  -52.0824  -19.5069 C   0  0  0  0  0  0  0  0  0  0  0  0
    0.1000  -52.0878  -20.8448 C   0  0  0  0  0  0  0  0  0  0  0  0
   -0.2133  -52.9231  -21.9016 C   0  0  0  0  0  0  0  0  0  0  0  0
   -1.0198  -54.1208  -22.0535 C   0  0  0  0  0  0  0  0  0  0  0  0
   -1.6807  -54.7556  -21.2300 O   0  0  0  0  0  0  0  0  0  0  0  0
   -0.9447  -54.5162  -23.4268 N   0  0  0  0  0  0  0  0  0  0  0  0
   -0.1036  -53.6114  -24.1721 C   0  0  0  0  0  0  0  0  0  0  0  0
    0.3161  -52.6278  -23.1441 C   0  0  0  0  0  0  0  0  0  0  0  0
    1.1420  -51.5294  -23.3566 C   0  0  0  0  0  0  0  0  0  0  0  0
    1.8043  -51.0142  -24.4260 C   0  0  0  0  0  0  0  0  0  0  0  0
    1.8650  -51.4516  -25.7291 C   0  0  0  0  0  0  0  0  0  0  0  0
    2.6465  -50.7431  -26.6465 C   0  0  0  0  0  0  0  0  0  0  0  0
    3.3333  -49.6245  -26.2098 C   0  0  0  0  0  0  0  0  0  0  0  0
    3.2560  -49.2047  -24.8931 C   0  0  0  0  0  0  0  0  0  0  0  0
    2.4930  -49.8852  -23.9750 C   0  0  0  0  0  0  0  0  0  0  0  0
    2.2602  -49.6979  -22.6483 N   0  0  0  0  0  0  0  0  0  0  0  0
    1.4250  -50.7335  -22.2982 C   0  0  0  0  0  0  0  0  0  0  0  0
    0.9172  -50.9961  -21.0448 C   0  0  0  0  0  0  0  0  0  0  0  0
    5.5262  -50.1253  -21.1442 H   0  0  0  0  0  0  0  0  0  0  0  0
   -1.4216  -55.3459  -23.8728 H   0  0  0  0  0  0  0  0  0  0  0  0
    4.9475  -47.9430  -20.8007 C   0  0  0  0  0  0  0  0  0  0  0  0
    5.0023  -47.6224  -19.4438 O   0  0  0  0  0  0  0  0  0  0  0  0
    4.6184  -46.7304  -19.2466 H   0  0  0  0  0  0  0  0  0  0  0  0
  2  1  1  0  0  0
  2  3  1  0  0  0
  3  4  1  0  0  0
  4  5  1  0  0  0
  5  6  1  0  0  0
  6  7  1  0  0  0
  6 34  1  0  0  0
 34 35  1  0  0  0
  4  8  1  0  0  0
  8  9  1  0  0  0
  9 10  2  0  0  0
 10 11  1  0  0  0
 11 12  2  0  0  0
 12 13  1  0  0  0
 13 14  2  0  0  0
 14 15  1  0  0  0
 15 16  2  0  0  0
 16 17  1  0  0  0
 17 18  2  0  0  0
 17 19  1  0  0  0
 19 20  1  0  0  0
 20 21  1  0  0  0
 21 22  2  0  0  0
 22 23  1  0  0  0
 23 24  2  0  0  0
 24 25  1  0  0  0
 25 26  2  0  0  0
 26 27  1  0  0  0
 27 28  2  0  0  0
 28 29  1  0  0  0
 29 30  1  0  0  0
 30 31  2  0  0  0
  6  2  1  0  0  0
 31  8  1  0  0  0
 29  2  1  0  0  0
 14  9  1  0  0  0
 31 15  1  0  0  0
 21 16  1  0  0  0
 30 22  1  0  0  0
 28 23  1  0  0  0
  7 32  1  0  0  0
 35 36  1  0  0  0
 19 33  1  0  0  0
M  END
> <minimizedAffinity>
-10.41361

> <CNNscore>
0.8380485773

> <CNNaffinity>
6.4874877930

> <CNN_VS>
5.4368300438

> <CNNaffinity_variance>
0.0414149500

$$$$
[H]OC([H])([H])[C@@]1(O[H])C([H])([H])[C@@]2([H])O[C@]1(C([H])([H])[H])n1c3c([H])c([H])c([H])c([H])c3c3c4c(c5c6c([H])c([H])c([H])c([H])c6n2c5c31)C(=O)N([H])C4([H])[H]


 36 43  0  0  0  0  0  0  0  0999 V2000
    3.0829  -49.1405  -25.5252 C   0  0  0  0  0  0  0  0  0  0  0  0
    2.9664  -50.0901  -24.3825 C   0  0  0  0  0  0  0  0  0  0  0  0
    2.3281  -49.2560  -23.4234 O   0  0  0  0  0  0  0  0  0  0  0  0
    2.6902  -49.6320  -22.1753 C   0  0  0  0  0  0  0  0  0  0  0  0
    4.0693  -50.1326  -22.2470 C   0  0  0  0  0  0  0  0  0  0  0  0
    4.2712  -50.4176  -23.7187 C   0  0  0  0  0  0  0  0  0  0  0  0
    4.6129  -51.7578  -23.8204 O   0  0  0  0  0  0  0  0  0  0  0  0
    1.7253  -50.5908  -21.6215 N   0  0  0  0  0  0  0  0  0  0  0  0
    1.2657  -50.6955  -20.3865 C   0  0  0  0  0  0  0  0  0  0  0  0
    1.5759  -49.9322  -19.2910 C   0  0  0  0  0  0  0  0  0  0  0  0
    0.9602  -50.2324  -18.0820 C   0  0  0  0  0  0  0  0  0  0  0  0
    0.0647  -51.2667  -17.9884 C   0  0  0  0  0  0  0  0  0  0  0  0
   -0.2541  -52.0480  -19.1057 C   0  0  0  0  0  0  0  0  0  0  0  0
    0.3564  -51.7444  -20.2878 C   0  0  0  0  0  0  0  0  0  0  0  0
    0.2803  -52.2890  -21.5496 C   0  0  0  0  0  0  0  0  0  0  0  0
   -0.4243  -53.3472  -22.0943 C   0  0  0  0  0  0  0  0  0  0  0  0
   -1.3842  -54.3079  -21.5813 C   0  0  0  0  0  0  0  0  0  0  0  0
   -1.8564  -54.4491  -20.4521 O   0  0  0  0  0  0  0  0  0  0  0  0
   -1.7551  -55.1638  -22.6666 N   0  0  0  0  0  0  0  0  0  0  0  0
   -1.0555  -54.7904  -23.8718 C   0  0  0  0  0  0  0  0  0  0  0  0
   -0.2394  -53.6314  -23.4346 C   0  0  0  0  0  0  0  0  0  0  0  0
    0.6223  -52.8925  -24.2377 C   0  0  0  0  0  0  0  0  0  0  0  0
    1.0106  -52.9462  -25.5392 C   0  0  0  0  0  0  0  0  0  0  0  0
    0.6408  -53.8125  -26.5421 C   0  0  0  0  0  0  0  0  0  0  0  0
    1.2100  -53.6643  -27.8104 C   0  0  0  0  0  0  0  0  0  0  0  0
    2.1277  -52.6490  -28.0119 C   0  0  0  0  0  0  0  0  0  0  0  0
    2.4834  -51.7902  -26.9865 C   0  0  0  0  0  0  0  0  0  0  0  0
    1.9355  -51.9169  -25.7327 C   0  0  0  0  0  0  0  0  0  0  0  0
    2.1171  -51.2310  -24.5725 N   0  0  0  0  0  0  0  0  0  0  0  0
    1.2937  -51.8628  -23.6694 C   0  0  0  0  0  0  0  0  0  0  0  0
    1.1366  -51.5499  -22.3370 C   0  0  0  0  0  0  0  0  0  0  0  0
    5.5962  -51.8305  -23.7670 H   0  0  0  0  0  0  0  0  0  0  0  0
   -2.4399  -55.9668  -22.6330 H   0  0  0  0  0  0  0  0  0  0  0  0
    5.4186  -49.5952  -24.1993 C   0  0  0  0  0  0  0  0  0  0  0  0
    6.1281  -50.3399  -25.1421 O   0  0  0  0  0  0  0  0  0  0  0  0
    7.0140  -50.6331  -24.8087 H   0  0  0  0  0  0  0  0  0  0  0  0
  2  1  1  0  0  0
  2  3  1  0  0  0
  3  4  1  0  0  0
  4  5  1  0  0  0
  5  6  1  0  0  0
  6  7  1  0  0  0
  6 34  1  0  0  0
 34 35  1  0  0  0
  4  8  1  0  0  0
  8  9  1  0  0  0
  9 10  2  0  0  0
 10 11  1  0  0  0
 11 12  2  0  0  0
 12 13  1  0  0  0
 13 14  2  0  0  0
 14 15  1  0  0  0
 15 16  2  0  0  0
 16 17  1  0  0  0
 17 18  2  0  0  0
 17 19  1  0  0  0
 19 20  1  0  0  0
 20 21  1  0  0  0
 21 22  2  0  0  0
 22 23  1  0  0  0
 23 24  2  0  0  0
 24 25  1  0  0  0
 25 26  2  0  0  0
 26 27  1  0  0  0
 27 28  2  0  0  0
 28 29  1  0  0  0
 29 30  1  0  0  0
 30 31  2  0  0  0
  6  2  1  0  0  0
 31  8  1  0  0  0
 29  2  1  0  0  0
 14  9  1  0  0  0
 31 15  1  0  0  0
 21 16  1  0  0  0
 30 22  1  0  0  0
 28 23  1  0  0  0
  7 32  1  0  0  0
 35 36  1  0  0  0
 19 33  1  0  0  0
M  END
> <minimizedAffinity>
-10.88861

> <CNNscore>
0.6906169653

> <CNNaffinity>
6.6138277054

> <CNN_VS>
4.5676217079

> <CNNaffinity_variance>
0.2290865481

$$$$
[H]OC([H])([H])[C@@]1(O[H])C([H])([H])[C@@]2([H])O[C@]1(C([H])([H])[H])n1c3c([H])c([H])c([H])c([H])c3c3c4c(c5c6c([H])c([H])c([H])c([H])c6n2c5c31)C(=O)N([H])C4([H])[H]


 36 43  0  0  0  0  0  0  0  0999 V2000
    5.6314  -50.0409  -21.8767 C   0  0  0  0  0  0  0  0  0  0  0  0
    4.2311  -50.2183  -22.3549 C   0  0  0  0  0  0  0  0  0  0  0  0
    4.4207  -51.2454  -23.3204 O   0  0  0  0  0  0  0  0  0  0  0  0
    3.4980  -51.1276  -24.3026 C   0  0  0  0  0  0  0  0  0  0  0  0
    3.2064  -49.6973  -24.4661 C   0  0  0  0  0  0  0  0  0  0  0  0
    3.7142  -49.0788  -23.1825 C   0  0  0  0  0  0  0  0  0  0  0  0
    2.6358  -48.4287  -22.6014 O   0  0  0  0  0  0  0  0  0  0  0  0
    2.3212  -51.9568  -24.0115 N   0  0  0  0  0  0  0  0  0  0  0  0
    1.5769  -52.6713  -24.8378 C   0  0  0  0  0  0  0  0  0  0  0  0
    1.7086  -52.8225  -26.1939 C   0  0  0  0  0  0  0  0  0  0  0  0
    0.7971  -53.6334  -26.8589 C   0  0  0  0  0  0  0  0  0  0  0  0
   -0.2087  -54.2664  -26.1746 C   0  0  0  0  0  0  0  0  0  0  0  0
   -0.3456  -54.1139  -24.7896 C   0  0  0  0  0  0  0  0  0  0  0  0
    0.5550  -53.3152  -24.1467 C   0  0  0  0  0  0  0  0  0  0  0  0
    0.7127  -52.9519  -22.8285 C   0  0  0  0  0  0  0  0  0  0  0  0
    0.0209  -53.2418  -21.6665 C   0  0  0  0  0  0  0  0  0  0  0  0
   -1.1367  -54.0558  -21.3423 C   0  0  0  0  0  0  0  0  0  0  0  0
   -1.8603  -54.7478  -22.0603 O   0  0  0  0  0  0  0  0  0  0  0  0
   -1.3579  -53.9434  -19.9329 N   0  0  0  0  0  0  0  0  0  0  0  0
   -0.3789  -53.0709  -19.3316 C   0  0  0  0  0  0  0  0  0  0  0  0
    0.4621  -52.6722  -20.4867 C   0  0  0  0  0  0  0  0  0  0  0  0
    1.5667  -51.8288  -20.4376 C   0  0  0  0  0  0  0  0  0  0  0  0
    2.2025  -51.1292  -19.4609 C   0  0  0  0  0  0  0  0  0  0  0  0
    1.9310  -51.0338  -18.1155 C   0  0  0  0  0  0  0  0  0  0  0  0
    2.7378  -50.2176  -17.3171 C   0  0  0  0  0  0  0  0  0  0  0  0
    3.7830  -49.5327  -17.9105 C   0  0  0  0  0  0  0  0  0  0  0  0
    4.0356  -49.6453  -19.2666 C   0  0  0  0  0  0  0  0  0  0  0  0
    3.2562  -50.4428  -20.0697 C   0  0  0  0  0  0  0  0  0  0  0  0
    3.2791  -50.7135  -21.4022 N   0  0  0  0  0  0  0  0  0  0  0  0
    2.2197  -51.5696  -21.5953 C   0  0  0  0  0  0  0  0  0  0  0  0
    1.8092  -52.1177  -22.7907 C   0  0  0  0  0  0  0  0  0  0  0  0
    2.6204  -47.4990  -22.9336 H   0  0  0  0  0  0  0  0  0  0  0  0
   -2.1184  -54.4153  -19.3727 H   0  0  0  0  0  0  0  0  0  0  0  0
    4.7504  -48.0650  -23.5320 C   0  0  0  0  0  0  0  0  0  0  0  0
    4.7158  -47.8594  -24.9116 O   0  0  0  0  0  0  0  0  0  0  0  0
    5.5128  -48.2261  -25.3723 H   0  0  0  0  0  0  0  0  0  0  0  0
  2  1  1  0  0  0
  2  3  1  0  0  0
  3  4  1  0  0  0
  4  5  1  0  0  0
  5  6  1  0  0  0
  6  7  1  0  0  0
  6 34  1  0  0  0
 34 35  1  0  0  0
  4  8  1  0  0  0
  8  9  1  0  0  0
  9 10  2  0  0  0
 10 11  1  0  0  0
 11 12  2  0  0  0
 12 13  1  0  0  0
 13 14  2  0  0  0
 14 15  1  0  0  0
 15 16  2  0  0  0
 16 17  1  0  0  0
 17 18  2  0  0  0
 17 19  1  0  0  0
 19 20  1  0  0  0
 20 21  1  0  0  0
 21 22  2  0  0  0
 22 23  1  0  0  0
 23 24  2  0  0  0
 24 25  1  0  0  0
 25 26  2  0  0  0
 26 27  1  0  0  0
 27 28  2  0  0  0
 28 29  1  0  0  0
 29 30  1  0  0  0
 30 31  2  0  0  0
  6  2  1  0  0  0
 31  8  1  0  0  0
 29  2  1  0  0  0
 14  9  1  0  0  0
 31 15  1  0  0  0
 21 16  1  0  0  0
 30 22  1  0  0  0
 28 23  1  0  0  0
  7 32  1  0  0  0
 35 36  1  0  0  0
 19 33  1  0  0  0
M  END
> <minimizedAffinity>
-10.10751

> <CNNscore>
0.6058235765

> <CNNaffinity>
6.4726700783

> <CNN_VS>
3.9212961197

> <CNNaffinity_variance>
0.1310522556

$$$$
[H]OC([H])([H])[C@@]1(O[H])C([H])([H])[C@@]2([H])O[C@]1(C([H])([H])[H])n1c3c([H])c([H])c([H])c([H])c3c3c4c(c5c6c([H])c([H])c([H])c([H])c6n2c5c31)C(=O)N([H])C4([H])[H]


 36 43  0  0  0  0  0  0  0  0999 V2000
    5.0554  -49.0260  -18.8853 C   0  0  0  0  0  0  0  0  0  0  0  0
    3.7714  -49.2704  -19.6014 C   0  0  0  0  0  0  0  0  0  0  0  0
    4.1963  -50.2259  -20.5655 O   0  0  0  0  0  0  0  0  0  0  0  0
    3.4430  -50.1153  -21.6837 C   0  0  0  0  0  0  0  0  0  0  0  0
    3.0743  -48.7010  -21.8303 C   0  0  0  0  0  0  0  0  0  0  0  0
    3.3136  -48.1234  -20.4530 C   0  0  0  0  0  0  0  0  0  0  0  0
    2.1074  -47.5817  -20.0346 O   0  0  0  0  0  0  0  0  0  0  0  0
    2.3009  -51.0374  -21.6335 N   0  0  0  0  0  0  0  0  0  0  0  0
    1.7605  -51.7525  -22.6050 C   0  0  0  0  0  0  0  0  0  0  0  0
    2.1264  -51.8172  -23.9245 C   0  0  0  0  0  0  0  0  0  0  0  0
    1.4023  -52.6490  -24.7699 C   0  0  0  0  0  0  0  0  0  0  0  0
    0.3482  -53.3864  -24.2949 C   0  0  0  0  0  0  0  0  0  0  0  0
   -0.0277  -53.3223  -22.9477 C   0  0  0  0  0  0  0  0  0  0  0  0
    0.6903  -52.5023  -22.1265 C   0  0  0  0  0  0  0  0  0  0  0  0
    0.5991  -52.2045  -20.7857 C   0  0  0  0  0  0  0  0  0  0  0  0
   -0.2516  -52.6061  -19.7719 C   0  0  0  0  0  0  0  0  0  0  0  0
   -1.3815  -53.5136  -19.6852 C   0  0  0  0  0  0  0  0  0  0  0  0
   -1.9212  -54.2112  -20.5456 O   0  0  0  0  0  0  0  0  0  0  0  0
   -1.8413  -53.4966  -18.3301 N   0  0  0  0  0  0  0  0  0  0  0  0
   -1.0449  -52.5954  -17.5333 C   0  0  0  0  0  0  0  0  0  0  0  0
   -0.0569  -52.0757  -18.5102 C   0  0  0  0  0  0  0  0  0  0  0  0
    0.9567  -51.1637  -18.2371 C   0  0  0  0  0  0  0  0  0  0  0  0
    1.3665  -50.4792  -17.1365 C   0  0  0  0  0  0  0  0  0  0  0  0
    0.8693  -50.4789  -15.8537 C   0  0  0  0  0  0  0  0  0  0  0  0
    1.4679  -49.6567  -14.8945 C   0  0  0  0  0  0  0  0  0  0  0  0
    2.5417  -48.8700  -15.2711 C   0  0  0  0  0  0  0  0  0  0  0  0
    3.0235  -48.8881  -16.5685 C   0  0  0  0  0  0  0  0  0  0  0  0
    2.4511  -49.6896  -17.5267 C   0  0  0  0  0  0  0  0  0  0  0  0
    2.7152  -49.8821  -18.8468 N   0  0  0  0  0  0  0  0  0  0  0  0
    1.7709  -50.7957  -19.2547 C   0  0  0  0  0  0  0  0  0  0  0  0
    1.6073  -51.3016  -20.5256 C   0  0  0  0  0  0  0  0  0  0  0  0
    2.0765  -46.6378  -20.3229 H   0  0  0  0  0  0  0  0  0  0  0  0
   -2.6459  -54.0499  -17.9285 H   0  0  0  0  0  0  0  0  0  0  0  0
    4.3130  -47.0236  -20.5762 C   0  0  0  0  0  0  0  0  0  0  0  0
    4.7048  -46.9340  -21.9124 O   0  0  0  0  0  0  0  0  0  0  0  0
    5.6367  -47.2379  -22.0580 H   0  0  0  0  0  0  0  0  0  0  0  0
  2  1  1  0  0  0
  2  3  1  0  0  0
  3  4  1  0  0  0
  4  5  1  0  0  0
  5  6  1  0  0  0
  6  7  1  0  0  0
  6 34  1  0  0  0
 34 35  1  0  0  0
  4  8  1  0  0  0
  8  9  1  0  0  0
  9 10  2  0  0  0
 10 11  1  0  0  0
 11 12  2  0  0  0
 12 13  1  0  0  0
 13 14  2  0  0  0
 14 15  1  0  0  0
 15 16  2  0  0  0
 16 17  1  0  0  0
 17 18  2  0  0  0
 17 19  1  0  0  0
 19 20  1  0  0  0
 20 21  1  0  0  0
 21 22  2  0  0  0
 22 23  1  0  0  0
 23 24  2  0  0  0
 24 25  1  0  0  0
 25 26  2  0  0  0
 26 27  1  0  0  0
 27 28  2  0  0  0
 28 29  1  0  0  0
 29 30  1  0  0  0
 30 31  2  0  0  0
  6  2  1  0  0  0
 31  8  1  0  0  0
 29  2  1  0  0  0
 14  9  1  0  0  0
 31 15  1  0  0  0
 21 16  1  0  0  0
 30 22  1  0  0  0
 28 23  1  0  0  0
  7 32  1  0  0  0
 35 36  1  0  0  0
 19 33  1  0  0  0
M  END
> <minimizedAffinity>
-9.13815

> <CNNscore>
0.5927690864

> <CNNaffinity>
6.1351685524

> <CNN_VS>
3.6367383003

> <CNNaffinity_variance>
0.0839001164

$$$$
[H]OC([H])([H])[C@@]1(O[H])C([H])([H])[C@@]2([H])O[C@]1(C([H])([H])[H])n1c3c([H])c([H])c([H])c([H])c3c3c4c(c5c6c([H])c([H])c([H])c([H])c6n2c5c31)C(=O)N([H])C4([H])[H]


 36 43  0  0  0  0  0  0  0  0999 V2000
    3.4926  -49.9147  -19.1459 C   0  0  0  0  0  0  0  0  0  0  0  0
    2.6330  -50.0412  -20.3568 C   0  0  0  0  0  0  0  0  0  0  0  0
    3.5887  -50.5139  -21.2983 O   0  0  0  0  0  0  0  0  0  0  0  0
    3.2528  -50.0980  -22.5410 C   0  0  0  0  0  0  0  0  0  0  0  0
    2.6017  -48.7881  -22.4080 C   0  0  0  0  0  0  0  0  0  0  0  0
    2.2069  -48.7304  -20.9489 C   0  0  0  0  0  0  0  0  0  0  0  0
    0.8338  -48.5386  -20.9165 O   0  0  0  0  0  0  0  0  0  0  0  0
    2.4402  -51.1120  -23.2257 N   0  0  0  0  0  0  0  0  0  0  0  0
    2.4619  -51.4838  -24.4940 C   0  0  0  0  0  0  0  0  0  0  0  0
    3.2526  -51.0128  -25.5099 C   0  0  0  0  0  0  0  0  0  0  0  0
    3.0957  -51.5617  -26.7767 C   0  0  0  0  0  0  0  0  0  0  0  0
    2.1726  -52.5500  -27.0038 C   0  0  0  0  0  0  0  0  0  0  0  0
    1.3637  -53.0330  -25.9682 C   0  0  0  0  0  0  0  0  0  0  0  0
    1.5261  -52.4869  -24.7282 C   0  0  0  0  0  0  0  0  0  0  0  0
    0.9167  -52.7158  -23.5154 C   0  0  0  0  0  0  0  0  0  0  0  0
   -0.0899  -53.5662  -23.0956 C   0  0  0  0  0  0  0  0  0  0  0  0
   -0.9074  -54.5786  -23.7395 C   0  0  0  0  0  0  0  0  0  0  0  0
   -0.9270  -54.9748  -24.9060 O   0  0  0  0  0  0  0  0  0  0  0  0
   -1.7827  -55.1186  -22.7445 N   0  0  0  0  0  0  0  0  0  0  0  0
   -1.5621  -54.4786  -21.4704 C   0  0  0  0  0  0  0  0  0  0  0  0
   -0.4741  -53.5154  -21.7686 C   0  0  0  0  0  0  0  0  0  0  0  0
    0.1162  -52.6457  -20.8582 C   0  0  0  0  0  0  0  0  0  0  0  0
   -0.0590  -52.3662  -19.5395 C   0  0  0  0  0  0  0  0  0  0  0  0
   -0.9398  -52.8998  -18.6271 C   0  0  0  0  0  0  0  0  0  0  0  0
   -0.9323  -52.4174  -17.3150 C   0  0  0  0  0  0  0  0  0  0  0  0
   -0.0370  -51.4173  -16.9802 C   0  0  0  0  0  0  0  0  0  0  0  0
    0.8392  -50.8967  -17.9166 C   0  0  0  0  0  0  0  0  0  0  0  0
    0.8498  -51.3569  -19.2114 C   0  0  0  0  0  0  0  0  0  0  0  0
    1.5817  -51.0165  -20.3059 N   0  0  0  0  0  0  0  0  0  0  0  0
    1.0997  -51.8293  -21.3057 C   0  0  0  0  0  0  0  0  0  0  0  0
    1.5088  -51.8504  -22.6210 C   0  0  0  0  0  0  0  0  0  0  0  0
    0.6580  -47.5671  -20.9061 H   0  0  0  0  0  0  0  0  0  0  0  0
   -2.5030  -55.8785  -22.8812 H   0  0  0  0  0  0  0  0  0  0  0  0
    2.8687  -47.5441  -20.3338 C   0  0  0  0  0  0  0  0  0  0  0  0
    3.3903  -46.7524  -21.3575 O   0  0  0  0  0  0  0  0  0  0  0  0
    4.3806  -46.7708  -21.3873 H   0  0  0  0  0  0  0  0  0  0  0  0
  2  1  1  0  0  0
  2  3  1  0  0  0
  3  4  1  0  0  0
  4  5  1  0  0  0
  5  6  1  0  0  0
  6  7  1  0  0  0
  6 34  1  0  0  0
 34 35  1  0  0  0
  4  8  1  0  0  0
  8  9  1  0  0  0
  9 10  2  0  0  0
 10 11  1  0  0  0
 11 12  2  0  0  0
 12 13  1  0  0  0
 13 14  2  0  0  0
 14 15  1  0  0  0
 15 16  2  0  0  0
 16 17  1  0  0  0
 17 18  2  0  0  0
 17 19  1  0  0  0
 19 20  1  0  0  0
 20 21  1  0  0  0
 21 22  2  0  0  0
 22 23  1  0  0  0
 23 24  2  0  0  0
 24 25  1  0  0  0
 25 26  2  0  0  0
 26 27  1  0  0  0
 27 28  2  0  0  0
 28 29  1  0  0  0
 29 30  1  0  0  0
 30 31  2  0  0  0
  6  2  1  0  0  0
 31  8  1  0  0  0
 29  2  1  0  0  0
 14  9  1  0  0  0
 31 15  1  0  0  0
 21 16  1  0  0  0
 30 22  1  0  0  0
 28 23  1  0  0  0
  7 32  1  0  0  0
 35 36  1  0  0  0
 19 33  1  0  0  0
M  END
> <minimizedAffinity>
-10.67451

> <CNNscore>
0.3564867973

> <CNNaffinity>
6.2610220909

> <CNN_VS>
2.2319717407

> <CNNaffinity_variance>
0.1087452918

$$$$
[H]OC([H])([H])[C@@]1(O[H])C([H])([H])[C@@]2([H])O[C@]1(C([H])([H])[H])n1c3c([H])c([H])c([H])c([H])c3c3c4c(c5c6c([H])c([H])c([H])c([H])c6n2c5c31)C(=O)N([H])C4([H])[H]


 36 43  0  0  0  0  0  0  0  0999 V2000
    1.0126  -50.5220  -20.7321 C   0  0  0  0  0  0  0  0  0  0  0  0
    0.7362  -51.4932  -21.8283 C   0  0  0  0  0  0  0  0  0  0  0  0
   -0.2873  -50.7988  -22.5305 O   0  0  0  0  0  0  0  0  0  0  0  0
   -1.1195  -51.6854  -23.1234 C   0  0  0  0  0  0  0  0  0  0  0  0
   -1.1808  -52.8761  -22.2654 C   0  0  0  0  0  0  0  0  0  0  0  0
    0.0393  -52.7441  -21.3811 C   0  0  0  0  0  0  0  0  0  0  0  0
    0.7969  -53.8892  -21.5764 O   0  0  0  0  0  0  0  0  0  0  0  0
   -0.6942  -51.9539  -24.5033 N   0  0  0  0  0  0  0  0  0  0  0  0
   -1.4318  -52.1332  -25.5855 C   0  0  0  0  0  0  0  0  0  0  0  0
   -2.7976  -52.1189  -25.7016 C   0  0  0  0  0  0  0  0  0  0  0  0
   -3.3553  -52.3343  -26.9559 C   0  0  0  0  0  0  0  0  0  0  0  0
   -2.5583  -52.5556  -28.0497 C   0  0  0  0  0  0  0  0  0  0  0  0
   -1.1630  -52.5707  -27.9341 C   0  0  0  0  0  0  0  0  0  0  0  0
   -0.6260  -52.3580  -26.6977 C   0  0  0  0  0  0  0  0  0  0  0  0
    0.6689  -52.3072  -26.2337 C   0  0  0  0  0  0  0  0  0  0  0  0
    1.9063  -52.4632  -26.8313 C   0  0  0  0  0  0  0  0  0  0  0  0
    2.3622  -52.7233  -28.1850 C   0  0  0  0  0  0  0  0  0  0  0  0
    1.7296  -52.8879  -29.2294 O   0  0  0  0  0  0  0  0  0  0  0  0
    3.7921  -52.7701  -28.1537 N   0  0  0  0  0  0  0  0  0  0  0  0
    4.2796  -52.5549  -26.8129 C   0  0  0  0  0  0  0  0  0  0  0  0
    3.0316  -52.3614  -26.0347 C   0  0  0  0  0  0  0  0  0  0  0  0
    2.9537  -52.1094  -24.6694 C   0  0  0  0  0  0  0  0  0  0  0  0
    3.8551  -51.9793  -23.6603 C   0  0  0  0  0  0  0  0  0  0  0  0
    5.2285  -52.0601  -23.6794 C   0  0  0  0  0  0  0  0  0  0  0  0
    5.9335  -51.9068  -22.4819 C   0  0  0  0  0  0  0  0  0  0  0  0
    5.2227  -51.6791  -21.3172 C   0  0  0  0  0  0  0  0  0  0  0  0
    3.8408  -51.6021  -21.3242 C   0  0  0  0  0  0  0  0  0  0  0  0
    3.1279  -51.7485  -22.4898 C   0  0  0  0  0  0  0  0  0  0  0  0
    1.7963  -51.7308  -22.7657 N   0  0  0  0  0  0  0  0  0  0  0  0
    1.7248  -51.9607  -24.1202 C   0  0  0  0  0  0  0  0  0  0  0  0
    0.5806  -52.0565  -24.8814 C   0  0  0  0  0  0  0  0  0  0  0  0
    0.5083  -54.5662  -20.9181 H   0  0  0  0  0  0  0  0  0  0  0  0
    4.4373  -52.9361  -28.9728 H   0  0  0  0  0  0  0  0  0  0  0  0
   -0.4157  -52.7098  -19.9615 C   0  0  0  0  0  0  0  0  0  0  0  0
   -1.6742  -52.1089  -19.9182 O   0  0  0  0  0  0  0  0  0  0  0  0
   -1.6541  -51.2106  -19.5003 H   0  0  0  0  0  0  0  0  0  0  0  0
  2  1  1  0  0  0
  2  3  1  0  0  0
  3  4  1  0  0  0
  4  5  1  0  0  0
  5  6  1  0  0  0
  6  7  1  0  0  0
  6 34  1  0  0  0
 34 35  1  0  0  0
  4  8  1  0  0  0
  8  9  1  0  0  0
  9 10  2  0  0  0
 10 11  1  0  0  0
 11 12  2  0  0  0
 12 13  1  0  0  0
 13 14  2  0  0  0
 14 15  1  0  0  0
 15 16  2  0  0  0
 16 17  1  0  0  0
 17 18  2  0  0  0
 17 19  1  0  0  0
 19 20  1  0  0  0
 20 21  1  0  0  0
 21 22  2  0  0  0
 22 23  1  0  0  0
 23 24  2  0  0  0
 24 25  1  0  0  0
 25 26  2  0  0  0
 26 27  1  0  0  0
 27 28  2  0  0  0
 28 29  1  0  0  0
 29 30  1  0  0  0
 30 31  2  0  0  0
  6  2  1  0  0  0
 31  8  1  0  0  0
 29  2  1  0  0  0
 14  9  1  0  0  0
 31 15  1  0  0  0
 21 16  1  0  0  0
 30 22  1  0  0  0
 28 23  1  0  0  0
  7 32  1  0  0  0
 35 36  1  0  0  0
 19 33  1  0  0  0
M  END
> <minimizedAffinity>
-0.38631

> <CNNscore>
0.3452980816

> <CNNaffinity>
6.3324975967

> <CNN_VS>
2.1865992546

> <CNNaffinity_variance>
0.3022773862

$$$$
[H]OC([H])([H])[C@@]1(O[H])C([H])([H])[C@@]2([H])O[C@]1(C([H])([H])[H])n1c3c([H])c([H])c([H])c([H])c3c3c4c(c5c6c([H])c([H])c([H])c([H])c6n2c5c31)C(=O)N([H])C4([H])[H]


 36 43  0  0  0  0  0  0  0  0999 V2000
    0.2751  -52.3825  -26.8411 C   0  0  0  0  0  0  0  0  0  0  0  0
    1.2695  -51.9691  -25.8108 C   0  0  0  0  0  0  0  0  0  0  0  0
    1.3314  -50.5709  -26.0644 O   0  0  0  0  0  0  0  0  0  0  0  0
    2.5604  -50.1016  -25.7490 C   0  0  0  0  0  0  0  0  0  0  0  0
    3.5271  -51.1721  -26.0265 C   0  0  0  0  0  0  0  0  0  0  0  0
    2.6725  -52.4183  -26.0941 C   0  0  0  0  0  0  0  0  0  0  0  0
    3.1683  -53.2921  -25.1381 O   0  0  0  0  0  0  0  0  0  0  0  0
    2.5872  -49.6038  -24.3675 N   0  0  0  0  0  0  0  0  0  0  0  0
    3.2071  -48.5468  -23.8716 C   0  0  0  0  0  0  0  0  0  0  0  0
    3.9963  -47.6346  -24.5228 C   0  0  0  0  0  0  0  0  0  0  0  0
    4.5479  -46.5940  -23.7855 C   0  0  0  0  0  0  0  0  0  0  0  0
    4.3079  -46.4833  -22.4399 C   0  0  0  0  0  0  0  0  0  0  0  0
    3.5022  -47.4135  -21.7721 C   0  0  0  0  0  0  0  0  0  0  0  0
    2.9657  -48.4313  -22.5059 C   0  0  0  0  0  0  0  0  0  0  0  0
    2.1507  -49.4923  -22.1825 C   0  0  0  0  0  0  0  0  0  0  0  0
    1.5807  -49.9364  -21.0033 C   0  0  0  0  0  0  0  0  0  0  0  0
    1.5818  -49.4701  -19.6284 C   0  0  0  0  0  0  0  0  0  0  0  0
    2.1269  -48.4943  -19.1101 O   0  0  0  0  0  0  0  0  0  0  0  0
    0.7850  -50.3823  -18.8662 N   0  0  0  0  0  0  0  0  0  0  0  0
    0.2710  -51.4355  -19.7077 C   0  0  0  0  0  0  0  0  0  0  0  0
    0.8094  -51.0830  -21.0443 C   0  0  0  0  0  0  0  0  0  0  0  0
    0.5941  -51.7906  -22.2218 C   0  0  0  0  0  0  0  0  0  0  0  0
   -0.0784  -52.9235  -22.5562 C   0  0  0  0  0  0  0  0  0  0  0  0
   -0.8125  -53.7851  -21.7740 C   0  0  0  0  0  0  0  0  0  0  0  0
   -1.3971  -54.9082  -22.3668 C   0  0  0  0  0  0  0  0  0  0  0  0
   -1.2155  -55.1137  -23.7227 C   0  0  0  0  0  0  0  0  0  0  0  0
   -0.4723  -54.2320  -24.4882 C   0  0  0  0  0  0  0  0  0  0  0  0
    0.1100  -53.1213  -23.9264 C   0  0  0  0  0  0  0  0  0  0  0  0
    0.8831  -52.1262  -24.4378 N   0  0  0  0  0  0  0  0  0  0  0  0
    1.1671  -51.3242  -23.3567 C   0  0  0  0  0  0  0  0  0  0  0  0
    1.9431  -50.1859  -23.3552 C   0  0  0  0  0  0  0  0  0  0  0  0
    3.8588  -53.8554  -25.5634 H   0  0  0  0  0  0  0  0  0  0  0  0
    0.5773  -50.3290  -17.8324 H   0  0  0  0  0  0  0  0  0  0  0  0
    2.8514  -53.0333  -27.4407 C   0  0  0  0  0  0  0  0  0  0  0  0
    3.3366  -52.0551  -28.3093 O   0  0  0  0  0  0  0  0  0  0  0  0
    2.6655  -51.7758  -28.9827 H   0  0  0  0  0  0  0  0  0  0  0  0
  2  1  1  0  0  0
  2  3  1  0  0  0
  3  4  1  0  0  0
  4  5  1  0  0  0
  5  6  1  0  0  0
  6  7  1  0  0  0
  6 34  1  0  0  0
 34 35  1  0  0  0
  4  8  1  0  0  0
  8  9  1  0  0  0
  9 10  2  0  0  0
 10 11  1  0  0  0
 11 12  2  0  0  0
 12 13  1  0  0  0
 13 14  2  0  0  0
 14 15  1  0  0  0
 15 16  2  0  0  0
 16 17  1  0  0  0
 17 18  2  0  0  0
 17 19  1  0  0  0
 19 20  1  0  0  0
 20 21  1  0  0  0
 21 22  2  0  0  0
 22 23  1  0  0  0
 23 24  2  0  0  0
 24 25  1  0  0  0
 25 26  2  0  0  0
 26 27  1  0  0  0
 27 28  2  0  0  0
 28 29  1  0  0  0
 29 30  1  0  0  0
 30 31  2  0  0  0
  6  2  1  0  0  0
 31  8  1  0  0  0
 29  2  1  0  0  0
 14  9  1  0  0  0
 31 15  1  0  0  0
 21 16  1  0  0  0
 30 22  1  0  0  0
 28 23  1  0  0  0
  7 32  1  0  0  0
 35 36  1  0  0  0
 19 33  1  0  0  0
M  END
> <minimizedAffinity>
-10.49127

> <CNNscore>
0.3362653852

> <CNNaffinity>
5.9942364693

> <CNN_VS>
2.0156543255

> <CNNaffinity_variance>
0.5930333138

$$$$
[H]OC([H])([H])[C@@]1(O[H])C([H])([H])[C@@]2([H])O[C@]1(C([H])([H])[H])n1c3c([H])c([H])c([H])c([H])c3c3c4c(c5c6c([H])c([H])c([H])c([H])c6n2c5c31)C(=O)N([H])C4([H])[H]


 36 43  0  0  0  0  0  0  0  0999 V2000
    0.5138  -52.2433  -27.2160 C   0  0  0  0  0  0  0  0  0  0  0  0
    1.2329  -52.0329  -25.9277 C   0  0  0  0  0  0  0  0  0  0  0  0
    1.0312  -50.6362  -25.7495 O   0  0  0  0  0  0  0  0  0  0  0  0
    2.0707  -50.1063  -25.0650 C   0  0  0  0  0  0  0  0  0  0  0  0
    3.2742  -50.8641  -25.4323 C   0  0  0  0  0  0  0  0  0  0  0  0
    2.7256  -52.1401  -26.0312 C   0  0  0  0  0  0  0  0  0  0  0  0
    3.2497  -53.1858  -25.2861 O   0  0  0  0  0  0  0  0  0  0  0  0
    1.7855  -50.0825  -23.6244 N   0  0  0  0  0  0  0  0  0  0  0  0
    2.0846  -49.1581  -22.7281 C   0  0  0  0  0  0  0  0  0  0  0  0
    2.7479  -47.9725  -22.9110 C   0  0  0  0  0  0  0  0  0  0  0  0
    2.9487  -47.1518  -21.8079 C   0  0  0  0  0  0  0  0  0  0  0  0
    2.4940  -47.5198  -20.5675 C   0  0  0  0  0  0  0  0  0  0  0  0
    1.8162  -48.7301  -20.3778 C   0  0  0  0  0  0  0  0  0  0  0  0
    1.6246  -49.5283  -21.4680 C   0  0  0  0  0  0  0  0  0  0  0  0
    1.0166  -50.7512  -21.6398 C   0  0  0  0  0  0  0  0  0  0  0  0
    0.3866  -51.6354  -20.7831 C   0  0  0  0  0  0  0  0  0  0  0  0
    0.0843  -51.6429  -19.3631 C   0  0  0  0  0  0  0  0  0  0  0  0
    0.3253  -50.8132  -18.4847 O   0  0  0  0  0  0  0  0  0  0  0  0
   -0.6028  -52.8655  -19.0780 N   0  0  0  0  0  0  0  0  0  0  0  0
   -0.7491  -53.6584  -20.2744 C   0  0  0  0  0  0  0  0  0  0  0  0
   -0.1068  -52.8139  -21.3112 C   0  0  0  0  0  0  0  0  0  0  0  0
    0.0110  -53.1289  -22.6604 C   0  0  0  0  0  0  0  0  0  0  0  0
   -0.3464  -54.1847  -23.4385 C   0  0  0  0  0  0  0  0  0  0  0  0
   -0.9867  -55.3565  -23.1072 C   0  0  0  0  0  0  0  0  0  0  0  0
   -1.2232  -56.3058  -24.1058 C   0  0  0  0  0  0  0  0  0  0  0  0
   -0.8031  -56.0323  -25.3951 C   0  0  0  0  0  0  0  0  0  0  0  0
   -0.1607  -54.8456  -25.7031 C   0  0  0  0  0  0  0  0  0  0  0  0
    0.0807  -53.8981  -24.7376 C   0  0  0  0  0  0  0  0  0  0  0  0
    0.6900  -52.6827  -24.7691 N   0  0  0  0  0  0  0  0  0  0  0  0
    0.6326  -52.2377  -23.4687 C   0  0  0  0  0  0  0  0  0  0  0  0
    1.1382  -51.0535  -22.9789 C   0  0  0  0  0  0  0  0  0  0  0  0
    4.0998  -53.4660  -25.7028 H   0  0  0  0  0  0  0  0  0  0  0  0
   -0.9678  -53.1815  -18.1390 H   0  0  0  0  0  0  0  0  0  0  0  0
    3.2293  -52.2522  -27.4303 C   0  0  0  0  0  0  0  0  0  0  0  0
    4.5603  -51.8340  -27.4526 O   0  0  0  0  0  0  0  0  0  0  0  0
    4.6804  -50.9677  -27.9184 H   0  0  0  0  0  0  0  0  0  0  0  0
  2  1  1  0  0  0
  2  3  1  0  0  0
  3  4  1  0  0  0
  4  5  1  0  0  0
  5  6  1  0  0  0
  6  7  1  0  0  0
  6 34  1  0  0  0
 34 35  1  0  0  0
  4  8  1  0  0  0
  8  9  1  0  0  0
  9 10  2  0  0  0
 10 11  1  0  0  0
 11 12  2  0  0  0
 12 13  1  0  0  0
 13 14  2  0  0  0
 14 15  1  0  0  0
 15 16  2  0  0  0
 16 17  1  0  0  0
 17 18  2  0  0  0
 17 19  1  0  0  0
 19 20  1  0  0  0
 20 21  1  0  0  0
 21 22  2  0  0  0
 22 23  1  0  0  0
 23 24  2  0  0  0
 24 25  1  0  0  0
 25 26  2  0  0  0
 26 27  1  0  0  0
 27 28  2  0  0  0
 28 29  1  0  0  0
 29 30  1  0  0  0
 30 31  2  0  0  0
  6  2  1  0  0  0
 31  8  1  0  0  0
 29  2  1  0  0  0
 14  9  1  0  0  0
 31 15  1  0  0  0
 21 16  1  0  0  0
 30 22  1  0  0  0
 28 23  1  0  0  0
  7 32  1  0  0  0
 35 36  1  0  0  0
 19 33  1  0  0  0
M  END
> <minimizedAffinity>
-5.89834

> <CNNscore>
0.3315586746

> <CNNaffinity>
6.1127033234

> <CNN_VS>
2.0267198086

> <CNNaffinity_variance>
0.3040201664

$$$$
[H]OC([H])([H])[C@@]1(O[H])C([H])([H])[C@@]2([H])O[C@]1(C([H])([H])[H])n1c3c([H])c([H])c([H])c([H])c3c3c4c(c5c6c([H])c([H])c([H])c([H])c6n2c5c31)C(=O)N([H])C4([H])[H]


 36 43  0  0  0  0  0  0  0  0999 V2000
    3.5313  -47.0358  -27.8162 C   0  0  0  0  0  0  0  0  0  0  0  0
    2.5687  -47.6153  -26.8371 C   0  0  0  0  0  0  0  0  0  0  0  0
    2.1868  -48.7991  -27.5268 O   0  0  0  0  0  0  0  0  0  0  0  0
    0.9195  -49.1354  -27.1937 C   0  0  0  0  0  0  0  0  0  0  0  0
    0.1829  -47.8896  -26.9428 C   0  0  0  0  0  0  0  0  0  0  0  0
    1.2744  -46.8646  -26.7283 C   0  0  0  0  0  0  0  0  0  0  0  0
    1.0651  -46.3191  -25.4706 O   0  0  0  0  0  0  0  0  0  0  0  0
    0.9117  -50.0810  -26.0699 N   0  0  0  0  0  0  0  0  0  0  0  0
    0.1275  -51.1245  -25.8607 C   0  0  0  0  0  0  0  0  0  0  0  0
   -0.8938  -51.5972  -26.6433 C   0  0  0  0  0  0  0  0  0  0  0  0
   -1.5862  -52.7232  -26.2151 C   0  0  0  0  0  0  0  0  0  0  0  0
   -1.2550  -53.3454  -25.0387 C   0  0  0  0  0  0  0  0  0  0  0  0
   -0.2123  -52.8648  -24.2374 C   0  0  0  0  0  0  0  0  0  0  0  0
    0.4609  -51.7584  -24.6676 C   0  0  0  0  0  0  0  0  0  0  0  0
    1.5096  -51.0364  -24.1446 C   0  0  0  0  0  0  0  0  0  0  0  0
    2.2653  -51.1451  -22.9914 C   0  0  0  0  0  0  0  0  0  0  0  0
    2.2886  -52.0638  -21.8674 C   0  0  0  0  0  0  0  0  0  0  0  0
    1.5966  -53.0532  -21.6225 O   0  0  0  0  0  0  0  0  0  0  0  0
    3.3274  -51.6319  -20.9829 N   0  0  0  0  0  0  0  0  0  0  0  0
    3.9765  -50.4508  -21.4978 C   0  0  0  0  0  0  0  0  0  0  0  0
    3.2569  -50.2071  -22.7719 C   0  0  0  0  0  0  0  0  0  0  0  0
    3.5113  -49.1734  -23.6665 C   0  0  0  0  0  0  0  0  0  0  0  0
    4.3774  -48.1265  -23.7086 C   0  0  0  0  0  0  0  0  0  0  0  0
    5.3462  -47.7378  -22.8123 C   0  0  0  0  0  0  0  0  0  0  0  0
    6.1013  -46.5931  -23.0840 C   0  0  0  0  0  0  0  0  0  0  0  0
    5.8463  -45.8900  -24.2477 C   0  0  0  0  0  0  0  0  0  0  0  0
    4.8659  -46.3016  -25.1337 C   0  0  0  0  0  0  0  0  0  0  0  0
    4.1128  -47.4243  -24.8872 C   0  0  0  0  0  0  0  0  0  0  0  0
    3.1020  -48.0258  -25.5697 N   0  0  0  0  0  0  0  0  0  0  0  0
    2.7519  -49.1004  -24.7853 C   0  0  0  0  0  0  0  0  0  0  0  0
    1.7540  -50.0159  -25.0380 C   0  0  0  0  0  0  0  0  0  0  0  0
    0.4755  -45.5332  -25.5693 H   0  0  0  0  0  0  0  0  0  0  0  0
    3.6112  -52.0847  -20.0723 H   0  0  0  0  0  0  0  0  0  0  0  0
    1.1104  -45.7891  -27.7480 C   0  0  0  0  0  0  0  0  0  0  0  0
    0.3832  -46.3076  -28.8200 O   0  0  0  0  0  0  0  0  0  0  0  0
    0.9351  -46.4240  -29.6348 H   0  0  0  0  0  0  0  0  0  0  0  0
  2  1  1  0  0  0
  2  3  1  0  0  0
  3  4  1  0  0  0
  4  5  1  0  0  0
  5  6  1  0  0  0
  6  7  1  0  0  0
  6 34  1  0  0  0
 34 35  1  0  0  0
  4  8  1  0  0  0
  8  9  1  0  0  0
  9 10  2  0  0  0
 10 11  1  0  0  0
 11 12  2  0  0  0
 12 13  1  0  0  0
 13 14  2  0  0  0
 14 15  1  0  0  0
 15 16  2  0  0  0
 16 17  1  0  0  0
 17 18  2  0  0  0
 17 19  1  0  0  0
 19 20  1  0  0  0
 20 21  1  0  0  0
 21 22  2  0  0  0
 22 23  1  0  0  0
 23 24  2  0  0  0
 24 25  1  0  0  0
 25 26  2  0  0  0
 26 27  1  0  0  0
 27 28  2  0  0  0
 28 29  1  0  0  0
 29 30  1  0  0  0
 30 31  2  0  0  0
  6  2  1  0  0  0
 31  8  1  0  0  0
 29  2  1  0  0  0
 14  9  1  0  0  0
 31 15  1  0  0  0
 21 16  1  0  0  0
 30 22  1  0  0  0
 28 23  1  0  0  0
  7 32  1  0  0  0
 35 36  1  0  0  0
 19 33  1  0  0  0
M  END
> <minimizedAffinity>
17.62671

> <CNNscore>
0.2966332436

> <CNNaffinity>
5.7725210190

> <CNN_VS>
1.7123216391

> <CNNaffinity_variance>
0.9728938341

$$$$
[H]c1c([H])c([H])c2c(c1[H])C([H])([H])N(C1([H])C([H])([H])C([H])([H])N(C(=O)c3c([H])c(OC([H])([H])[H])c(OC([H])([H])[H])c(OC([H])([H])[H])c3[H])C([H])([H])C1([H])[H])C([H])([H])C2([H])[H]


 30 33  0  0  0  0  0  0  0  0999 V2000
   -0.0448  -52.5835  -20.6699 C   0  0  0  0  0  0  0  0  0  0  0  0
   -0.9479  -53.5321  -20.6724 O   0  0  0  0  0  0  0  0  0  0  0  0
    0.0211  -51.7914  -19.5297 N   0  0  0  0  0  0  0  0  0  0  0  0
    0.8450  -50.6822  -19.2043 C   0  0  0  0  0  0  0  0  0  0  0  0
    0.3292  -49.9087  -17.9815 C   0  0  0  0  0  0  0  0  0  0  0  0
    0.1121  -50.7684  -16.7865 C   0  0  0  0  0  0  0  0  0  0  0  0
   -0.0248  -52.2388  -17.1883 C   0  0  0  0  0  0  0  0  0  0  0  0
   -0.9294  -52.1666  -18.4407 C   0  0  0  0  0  0  0  0  0  0  0  0
    1.1236  -50.5937  -15.8084 N   0  0  0  0  0  0  0  0  0  0  0  0
    0.9291  -51.4999  -14.7143 C   0  0  0  0  0  0  0  0  0  0  0  0
    2.2553  -51.7945  -14.0362 C   0  0  0  0  0  0  0  0  0  0  0  0
    3.0160  -50.5126  -13.9114 C   0  0  0  0  0  0  0  0  0  0  0  0
    4.1450  -50.5363  -13.1079 C   0  0  0  0  0  0  0  0  0  0  0  0
    4.8919  -49.3832  -12.9497 C   0  0  0  0  0  0  0  0  0  0  0  0
    4.5576  -48.2111  -13.5599 C   0  0  0  0  0  0  0  0  0  0  0  0
    3.4191  -48.2155  -14.3614 C   0  0  0  0  0  0  0  0  0  0  0  0
    2.6643  -49.3533  -14.5299 C   0  0  0  0  0  0  0  0  0  0  0  0
    1.4595  -49.2853  -15.4015 C   0  0  0  0  0  0  0  0  0  0  0  0
    2.7366  -51.7924  -23.0608 C   0  0  0  0  0  0  0  0  0  0  0  0
    1.9649  -51.8824  -21.9420 C   0  0  0  0  0  0  0  0  0  0  0  0
    0.7245  -52.5482  -21.8892 C   0  0  0  0  0  0  0  0  0  0  0  0
    0.3387  -53.1121  -23.0726 C   0  0  0  0  0  0  0  0  0  0  0  0
    1.0783  -53.0598  -24.2572 C   0  0  0  0  0  0  0  0  0  0  0  0
    2.2827  -52.3861  -24.2147 C   0  0  0  0  0  0  0  0  0  0  0  0
    5.0228  -51.6857  -22.3474 C   0  0  0  0  0  0  0  0  0  0  0  0
    3.9489  -51.1332  -23.0828 O   0  0  0  0  0  0  0  0  0  0  0  0
    0.6430  -53.6489  -25.4343 O   0  0  0  0  0  0  0  0  0  0  0  0
   -0.4556  -53.0465  -26.0928 C   0  0  0  0  0  0  0  0  0  0  0  0
    3.0448  -52.3158  -25.3782 O   0  0  0  0  0  0  0  0  0  0  0  0
    2.8951  -51.2751  -26.3184 C   0  0  0  0  0  0  0  0  0  0  0  0
 25 26  1  0  0  0
 26 19  1  0  0  0
 19 20  2  0  0  0
 20 21  1  0  0  0
 21 22  2  0  0  0
 22 23  1  0  0  0
 23 27  1  0  0  0
 27 28  1  0  0  0
 23 24  2  0  0  0
 24 29  1  0  0  0
 29 30  1  0  0  0
 21  1  1  0  0  0
  1  2  2  0  0  0
  1  3  1  0  0  0
  3  4  1  0  0  0
  4  5  1  0  0  0
  5  6  1  0  0  0
  6  7  1  0  0  0
  7  8  1  0  0  0
  6  9  1  0  0  0
  9 10  1  0  0  0
 10 11  1  0  0  0
 11 12  1  0  0  0
 12 13  2  0  0  0
 13 14  1  0  0  0
 14 15  2  0  0  0
 15 16  1  0  0  0
 16 17  2  0  0  0
 17 18  1  0  0  0
 24 19  1  0  0  0
  8  3  1  0  0  0
 18  9  1  0  0  0
 17 12  1  0  0  0
M  END
> <minimizedAffinity>
-6.07148

> <CNNscore>
0.2792320848

> <CNNaffinity>
5.7216010094

> <CNN_VS>
1.5976545811

> <CNNaffinity_variance>
0.8107860684

$$$$
[H]c1c([H])c([H])c2c(c1[H])C([H])([H])N(C1([H])C([H])([H])C([H])([H])N(C(=O)c3c([H])c(OC([H])([H])[H])c(OC([H])([H])[H])c(OC([H])([H])[H])c3[H])C([H])([H])C1([H])[H])C([H])([H])C2([H])[H]


 30 33  0  0  0  0  0  0  0  0999 V2000
   -0.0793  -52.4625  -20.2885 C   0  0  0  0  0  0  0  0  0  0  0  0
   -0.9498  -53.4371  -20.2014 O   0  0  0  0  0  0  0  0  0  0  0  0
    0.0323  -51.6283  -19.1824 N   0  0  0  0  0  0  0  0  0  0  0  0
    0.8389  -50.4839  -18.9479 C   0  0  0  0  0  0  0  0  0  0  0  0
    0.3759  -49.6829  -17.7217 C   0  0  0  0  0  0  0  0  0  0  0  0
    0.2618  -50.5052  -16.4868 C   0  0  0  0  0  0  0  0  0  0  0  0
    0.1472  -51.9926  -16.8290 C   0  0  0  0  0  0  0  0  0  0  0  0
   -0.8357  -51.9924  -18.0230 C   0  0  0  0  0  0  0  0  0  0  0  0
    1.3263  -50.2653  -15.5816 N   0  0  0  0  0  0  0  0  0  0  0  0
    1.2874  -51.2031  -14.4975 C   0  0  0  0  0  0  0  0  0  0  0  0
    2.6799  -51.4000  -13.9252 C   0  0  0  0  0  0  0  0  0  0  0  0
    3.3426  -50.0625  -13.8267 C   0  0  0  0  0  0  0  0  0  0  0  0
    4.5268  -50.0077  -13.1087 C   0  0  0  0  0  0  0  0  0  0  0  0
    5.1885  -48.8004  -12.9788 C   0  0  0  0  0  0  0  0  0  0  0  0
    4.7167  -47.6492  -13.5356 C   0  0  0  0  0  0  0  0  0  0  0  0
    3.5255  -47.7328  -14.2515 C   0  0  0  0  0  0  0  0  0  0  0  0
    2.8538  -48.9253  -14.3907 C   0  0  0  0  0  0  0  0  0  0  0  0
    1.5856  -48.9410  -15.1701 C   0  0  0  0  0  0  0  0  0  0  0  0
    0.5997  -53.0032  -23.9389 C   0  0  0  0  0  0  0  0  0  0  0  0
    0.0031  -52.9670  -22.7149 C   0  0  0  0  0  0  0  0  0  0  0  0
    0.6108  -52.4479  -21.5548 C   0  0  0  0  0  0  0  0  0  0  0  0
    1.8766  -51.9712  -21.7489 C   0  0  0  0  0  0  0  0  0  0  0  0
    2.5493  -51.9759  -22.9738 C   0  0  0  0  0  0  0  0  0  0  0  0
    1.8751  -52.5038  -24.0569 C   0  0  0  0  0  0  0  0  0  0  0  0
   -1.0151  -52.7355  -25.6904 C   0  0  0  0  0  0  0  0  0  0  0  0
   -0.0208  -53.5179  -25.0591 O   0  0  0  0  0  0  0  0  0  0  0  0
    3.8355  -51.4796  -23.1197 O   0  0  0  0  0  0  0  0  0  0  0  0
    4.7296  -51.6689  -22.0388 C   0  0  0  0  0  0  0  0  0  0  0  0
    2.5170  -52.5230  -25.2926 O   0  0  0  0  0  0  0  0  0  0  0  0
    2.4689  -51.4331  -26.1866 C   0  0  0  0  0  0  0  0  0  0  0  0
 25 26  1  0  0  0
 26 19  1  0  0  0
 19 20  2  0  0  0
 20 21  1  0  0  0
 21 22  2  0  0  0
 22 23  1  0  0  0
 23 27  1  0  0  0
 27 28  1  0  0  0
 23 24  2  0  0  0
 24 29  1  0  0  0
 29 30  1  0  0  0
 21  1  1  0  0  0
  1  2  2  0  0  0
  1  3  1  0  0  0
  3  4  1  0  0  0
  4  5  1  0  0  0
  5  6  1  0  0  0
  6  7  1  0  0  0
  7  8  1  0  0  0
  6  9  1  0  0  0
  9 10  1  0  0  0
 10 11  1  0  0  0
 11 12  1  0  0  0
 12 13  2  0  0  0
 13 14  1  0  0  0
 14 15  2  0  0  0
 15 16  1  0  0  0
 16 17  2  0  0  0
 17 18  1  0  0  0
 24 19  1  0  0  0
  8  3  1  0  0  0
 18  9  1  0  0  0
 17 12  1  0  0  0
M  END
> <minimizedAffinity>
-6.08858

> <CNNscore>
0.2441950291

> <CNNaffinity>
5.6235022545

> <CNN_VS>
1.3732312918

> <CNNaffinity_variance>
0.7622242570

$$$$
[H]c1c([H])c([H])c2c(c1[H])C([H])([H])N(C1([H])C([H])([H])C([H])([H])N(C(=O)c3c([H])c(OC([H])([H])[H])c(OC([H])([H])[H])c(OC([H])([H])[H])c3[H])C([H])([H])C1([H])[H])C([H])([H])C2([H])[H]


 30 33  0  0  0  0  0  0  0  0999 V2000
   -0.5641  -53.8966  -23.5101 C   0  0  0  0  0  0  0  0  0  0  0  0
   -0.8125  -55.1767  -23.3866 O   0  0  0  0  0  0  0  0  0  0  0  0
   -0.5802  -53.1450  -22.3410 N   0  0  0  0  0  0  0  0  0  0  0  0
   -0.3832  -51.7575  -22.1150 C   0  0  0  0  0  0  0  0  0  0  0  0
   -0.8363  -51.3227  -20.7132 C   0  0  0  0  0  0  0  0  0  0  0  0
   -0.2239  -52.1238  -19.6189 C   0  0  0  0  0  0  0  0  0  0  0  0
    0.2965  -53.4628  -20.1468 C   0  0  0  0  0  0  0  0  0  0  0  0
   -0.8390  -53.9207  -21.0915 C   0  0  0  0  0  0  0  0  0  0  0  0
    0.7922  -51.4100  -18.9346 N   0  0  0  0  0  0  0  0  0  0  0  0
    2.0885  -51.8988  -19.3043 C   0  0  0  0  0  0  0  0  0  0  0  0
    3.1284  -50.8056  -19.1345 C   0  0  0  0  0  0  0  0  0  0  0  0
    2.8590  -50.0945  -17.8463 C   0  0  0  0  0  0  0  0  0  0  0  0
    3.8401  -49.2224  -17.4015 C   0  0  0  0  0  0  0  0  0  0  0  0
    3.6527  -48.5349  -16.2164 C   0  0  0  0  0  0  0  0  0  0  0  0
    2.5285  -48.6828  -15.4600 C   0  0  0  0  0  0  0  0  0  0  0  0
    1.5593  -49.5648  -15.9302 C   0  0  0  0  0  0  0  0  0  0  0  0
    1.7290  -50.2571  -17.1068 C   0  0  0  0  0  0  0  0  0  0  0  0
    0.6510  -51.1836  -17.5492 C   0  0  0  0  0  0  0  0  0  0  0  0
    1.2565  -53.3581  -26.7464 C   0  0  0  0  0  0  0  0  0  0  0  0
    0.9453  -53.7136  -25.4689 C   0  0  0  0  0  0  0  0  0  0  0  0
   -0.3169  -53.5099  -24.8772 C   0  0  0  0  0  0  0  0  0  0  0  0
   -1.2322  -52.9128  -25.6976 C   0  0  0  0  0  0  0  0  0  0  0  0
   -0.9833  -52.5224  -27.0162 C   0  0  0  0  0  0  0  0  0  0  0  0
    0.2826  -52.7623  -27.5124 C   0  0  0  0  0  0  0  0  0  0  0  0
    3.5898  -52.8116  -26.8086 C   0  0  0  0  0  0  0  0  0  0  0  0
    2.5028  -53.5706  -27.3000 O   0  0  0  0  0  0  0  0  0  0  0  0
   -1.9469  -51.9190  -27.8094 O   0  0  0  0  0  0  0  0  0  0  0  0
   -3.1870  -52.5881  -27.9445 C   0  0  0  0  0  0  0  0  0  0  0  0
    0.5635  -52.3859  -28.8233 O   0  0  0  0  0  0  0  0  0  0  0  0
   -0.0277  -53.0207  -29.9355 C   0  0  0  0  0  0  0  0  0  0  0  0
 25 26  1  0  0  0
 26 19  1  0  0  0
 19 20  2  0  0  0
 20 21  1  0  0  0
 21 22  2  0  0  0
 22 23  1  0  0  0
 23 27  1  0  0  0
 27 28  1  0  0  0
 23 24  2  0  0  0
 24 29  1  0  0  0
 29 30  1  0  0  0
 21  1  1  0  0  0
  1  2  2  0  0  0
  1  3  1  0  0  0
  3  4  1  0  0  0
  4  5  1  0  0  0
  5  6  1  0  0  0
  6  7  1  0  0  0
  7  8  1  0  0  0
  6  9  1  0  0  0
  9 10  1  0  0  0
 10 11  1  0  0  0
 11 12  1  0  0  0
 12 13  2  0  0  0
 13 14  1  0  0  0
 14 15  2  0  0  0
 15 16  1  0  0  0
 16 17  2  0  0  0
 17 18  1  0  0  0
 24 19  1  0  0  0
  8  3  1  0  0  0
 18  9  1  0  0  0
 17 12  1  0  0  0
M  END
> <minimizedAffinity>
-6.47019

> <CNNscore>
0.2332305759

> <CNNaffinity>
6.1624245644

> <CNN_VS>
1.4372658730

> <CNNaffinity_variance>
0.2417074889

$$$$
[H]c1c([H])c([H])c2c(c1[H])C([H])([H])N(C1([H])C([H])([H])C([H])([H])N(C(=O)c3c([H])c(OC([H])([H])[H])c(OC([H])([H])[H])c(OC([H])([H])[H])c3[H])C([H])([H])C1([H])[H])C([H])([H])C2([H])[H]


 30 33  0  0  0  0  0  0  0  0999 V2000
    0.2603  -52.7721  -22.0407 C   0  0  0  0  0  0  0  0  0  0  0  0
   -0.5546  -53.7752  -21.8285 O   0  0  0  0  0  0  0  0  0  0  0  0
    0.2775  -51.7709  -21.0767 N   0  0  0  0  0  0  0  0  0  0  0  0
    1.0055  -50.5547  -21.0002 C   0  0  0  0  0  0  0  0  0  0  0  0
    0.4467  -49.6043  -19.9306 C   0  0  0  0  0  0  0  0  0  0  0  0
    0.3302  -50.2306  -18.5858 C   0  0  0  0  0  0  0  0  0  0  0  0
    0.3169  -51.7573  -18.6929 C   0  0  0  0  0  0  0  0  0  0  0  0
   -0.6145  -52.0056  -19.9022 C   0  0  0  0  0  0  0  0  0  0  0  0
    1.3408  -49.7854  -17.6967 N   0  0  0  0  0  0  0  0  0  0  0  0
    2.2101  -48.8499  -18.3488 C   0  0  0  0  0  0  0  0  0  0  0  0
    2.8323  -47.9137  -17.3281 C   0  0  0  0  0  0  0  0  0  0  0  0
    3.2442  -48.7206  -16.1378 C   0  0  0  0  0  0  0  0  0  0  0  0
    4.0437  -48.0833  -15.2021 C   0  0  0  0  0  0  0  0  0  0  0  0
    4.4601  -48.7747  -14.0791 C   0  0  0  0  0  0  0  0  0  0  0  0
    4.1110  -50.0729  -13.8537 C   0  0  0  0  0  0  0  0  0  0  0  0
    3.3073  -50.6886  -14.8094 C   0  0  0  0  0  0  0  0  0  0  0  0
    2.8840  -50.0162  -15.9325 C   0  0  0  0  0  0  0  0  0  0  0  0
    2.0262  -50.7370  -16.9125 C   0  0  0  0  0  0  0  0  0  0  0  0
    3.0572  -52.4755  -24.5242 C   0  0  0  0  0  0  0  0  0  0  0  0
    2.3068  -52.3983  -23.3900 C   0  0  0  0  0  0  0  0  0  0  0  0
    0.9997  -52.9101  -23.2711 C   0  0  0  0  0  0  0  0  0  0  0  0
    0.5239  -53.5051  -24.4056 C   0  0  0  0  0  0  0  0  0  0  0  0
    1.2365  -53.6204  -25.6021 C   0  0  0  0  0  0  0  0  0  0  0  0
    2.5110  -53.0901  -25.6260 C   0  0  0  0  0  0  0  0  0  0  0  0
    5.2902  -52.3864  -23.6566 C   0  0  0  0  0  0  0  0  0  0  0  0
    4.3364  -51.9649  -24.6115 O   0  0  0  0  0  0  0  0  0  0  0  0
    0.7089  -54.2341  -26.7277 O   0  0  0  0  0  0  0  0  0  0  0  0
   -0.3355  -53.5594  -27.4042 C   0  0  0  0  0  0  0  0  0  0  0  0
    3.2486  -53.1888  -26.8032 O   0  0  0  0  0  0  0  0  0  0  0  0
    3.0873  -52.2856  -27.8745 C   0  0  0  0  0  0  0  0  0  0  0  0
 25 26  1  0  0  0
 26 19  1  0  0  0
 19 20  2  0  0  0
 20 21  1  0  0  0
 21 22  2  0  0  0
 22 23  1  0  0  0
 23 27  1  0  0  0
 27 28  1  0  0  0
 23 24  2  0  0  0
 24 29  1  0  0  0
 29 30  1  0  0  0
 21  1  1  0  0  0
  1  2  2  0  0  0
  1  3  1  0  0  0
  3  4  1  0  0  0
  4  5  1  0  0  0
  5  6  1  0  0  0
  6  7  1  0  0  0
  7  8  1  0  0  0
  6  9  1  0  0  0
  9 10  1  0  0  0
 10 11  1  0  0  0
 11 12  1  0  0  0
 12 13  2  0  0  0
 13 14  1  0  0  0
 14 15  2  0  0  0
 15 16  1  0  0  0
 16 17  2  0  0  0
 17 18  1  0  0  0
 24 19  1  0  0  0
  8  3  1  0  0  0
 18  9  1  0  0  0
 17 12  1  0  0  0
M  END
> <minimizedAffinity>
-6.49375

> <CNNscore>
0.2311463207

> <CNNaffinity>
5.8908467293

> <CNN_VS>
1.3616476059

> <CNNaffinity_variance>
1.0097208023

$$$$
[H]c1c([H])c([H])c2c(c1[H])C([H])([H])N(C1([H])C([H])([H])C([H])([H])N(C(=O)c3c([H])c(OC([H])([H])[H])c(OC([H])([H])[H])c(OC([H])([H])[H])c3[H])C([H])([H])C1([H])[H])C([H])([H])C2([H])[H]


 30 33  0  0  0  0  0  0  0  0999 V2000
    0.3483  -52.7939  -22.1394 C   0  0  0  0  0  0  0  0  0  0  0  0
   -0.4698  -53.8006  -21.9589 O   0  0  0  0  0  0  0  0  0  0  0  0
    0.3456  -51.8077  -21.1599 N   0  0  0  0  0  0  0  0  0  0  0  0
    1.0709  -50.5925  -21.0502 C   0  0  0  0  0  0  0  0  0  0  0  0
    0.4903  -49.6591  -19.9772 C   0  0  0  0  0  0  0  0  0  0  0  0
    0.3479  -50.3062  -18.6449 C   0  0  0  0  0  0  0  0  0  0  0  0
    0.3380  -51.8311  -18.7758 C   0  0  0  0  0  0  0  0  0  0  0  0
   -0.5692  -52.0611  -20.0070 C   0  0  0  0  0  0  0  0  0  0  0  0
    1.3404  -49.8743  -17.7292 N   0  0  0  0  0  0  0  0  0  0  0  0
    2.2120  -48.9165  -18.3448 C   0  0  0  0  0  0  0  0  0  0  0  0
    2.8100  -48.0001  -17.2921 C   0  0  0  0  0  0  0  0  0  0  0  0
    3.2096  -48.8319  -16.1149 C   0  0  0  0  0  0  0  0  0  0  0  0
    3.9887  -48.2107  -15.1515 C   0  0  0  0  0  0  0  0  0  0  0  0
    4.3930  -48.9255  -14.0388 C   0  0  0  0  0  0  0  0  0  0  0  0
    4.0515  -50.2315  -13.8501 C   0  0  0  0  0  0  0  0  0  0  0  0
    3.2683  -50.8306  -14.8330 C   0  0  0  0  0  0  0  0  0  0  0  0
    2.8573  -50.1349  -15.9463 C   0  0  0  0  0  0  0  0  0  0  0  0
    2.0213  -50.8389  -16.9570 C   0  0  0  0  0  0  0  0  0  0  0  0
    1.2156  -53.6605  -25.6856 C   0  0  0  0  0  0  0  0  0  0  0  0
    0.5501  -53.4989  -24.5082 C   0  0  0  0  0  0  0  0  0  0  0  0
    1.1119  -52.9124  -23.3570 C   0  0  0  0  0  0  0  0  0  0  0  0
    2.4080  -52.5068  -23.5086 C   0  0  0  0  0  0  0  0  0  0  0  0
    3.1508  -52.6403  -24.6847 C   0  0  0  0  0  0  0  0  0  0  0  0
    2.5178  -53.2265  -25.7626 C   0  0  0  0  0  0  0  0  0  0  0  0
   -0.3569  -53.5105  -27.4888 C   0  0  0  0  0  0  0  0  0  0  0  0
    0.6389  -54.2388  -26.7981 O   0  0  0  0  0  0  0  0  0  0  0  0
    4.4653  -52.2122  -24.7886 O   0  0  0  0  0  0  0  0  0  0  0  0
    5.2256  -52.1583  -23.5958 C   0  0  0  0  0  0  0  0  0  0  0  0
    3.2300  -53.3740  -26.9502 O   0  0  0  0  0  0  0  0  0  0  0  0
    3.1472  -52.4386  -28.0027 C   0  0  0  0  0  0  0  0  0  0  0  0
 25 26  1  0  0  0
 26 19  1  0  0  0
 19 20  2  0  0  0
 20 21  1  0  0  0
 21 22  2  0  0  0
 22 23  1  0  0  0
 23 27  1  0  0  0
 27 28  1  0  0  0
 23 24  2  0  0  0
 24 29  1  0  0  0
 29 30  1  0  0  0
 21  1  1  0  0  0
  1  2  2  0  0  0
  1  3  1  0  0  0
  3  4  1  0  0  0
  4  5  1  0  0  0
  5  6  1  0  0  0
  6  7  1  0  0  0
  7  8  1  0  0  0
  6  9  1  0  0  0
  9 10  1  0  0  0
 10 11  1  0  0  0
 11 12  1  0  0  0
 12 13  2  0  0  0
 13 14  1  0  0  0
 14 15  2  0  0  0
 15 16  1  0  0  0
 16 17  2  0  0  0
 17 18  1  0  0  0
 24 19  1  0  0  0
  8  3  1  0  0  0
 18  9  1  0  0  0
 17 12  1  0  0  0
M  END
> <minimizedAffinity>
-6.65069

> <CNNscore>
0.2117877156

> <CNNaffinity>
5.8331246376

> <CNN_VS>
1.2353841066

> <CNNaffinity_variance>
0.8677838445

$$$$
[H]c1c([H])c([H])c2c(c1[H])C([H])([H])N(C1([H])C([H])([H])C([H])([H])N(C(=O)c3c([H])c(OC([H])([H])[H])c(OC([H])([H])[H])c(OC([H])([H])[H])c3[H])C([H])([H])C1([H])[H])C([H])([H])C2([H])[H]


 30 33  0  0  0  0  0  0  0  0999 V2000
    0.3399  -52.5754  -22.4866 C   0  0  0  0  0  0  0  0  0  0  0  0
   -0.0146  -53.7475  -22.0220 O   0  0  0  0  0  0  0  0  0  0  0  0
    0.5885  -51.5833  -21.5454 N   0  0  0  0  0  0  0  0  0  0  0  0
    0.9597  -50.2212  -21.6939 C   0  0  0  0  0  0  0  0  0  0  0  0
    0.7844  -49.4218  -20.3940 C   0  0  0  0  0  0  0  0  0  0  0  0
    1.4796  -50.0300  -19.2274 C   0  0  0  0  0  0  0  0  0  0  0  0
    1.7692  -51.5123  -19.4753 C   0  0  0  0  0  0  0  0  0  0  0  0
    0.4559  -52.0123  -20.1212 C   0  0  0  0  0  0  0  0  0  0  0  0
    2.6598  -49.3260  -18.8786 N   0  0  0  0  0  0  0  0  0  0  0  0
    3.8209  -50.0237  -19.3486 C   0  0  0  0  0  0  0  0  0  0  0  0
    4.9614  -49.0479  -19.5775 C   0  0  0  0  0  0  0  0  0  0  0  0
    4.9934  -48.0835  -18.4345 C   0  0  0  0  0  0  0  0  0  0  0  0
    6.1084  -47.2654  -18.3433 C   0  0  0  0  0  0  0  0  0  0  0  0
    6.1997  -46.3526  -17.3084 C   0  0  0  0  0  0  0  0  0  0  0  0
    5.2253  -46.2244  -16.3639 C   0  0  0  0  0  0  0  0  0  0  0  0
    4.1164  -47.0583  -16.4795 C   0  0  0  0  0  0  0  0  0  0  0  0
    4.0089  -47.9721  -17.5024 C   0  0  0  0  0  0  0  0  0  0  0  0
    2.7949  -48.8314  -17.5642 C   0  0  0  0  0  0  0  0  0  0  0  0
    1.7069  -52.0825  -25.9459 C   0  0  0  0  0  0  0  0  0  0  0  0
    1.5802  -52.1511  -24.5914 C   0  0  0  0  0  0  0  0  0  0  0  0
    0.4025  -52.5466  -23.9271 C   0  0  0  0  0  0  0  0  0  0  0  0
   -0.6329  -52.8643  -24.7603 C   0  0  0  0  0  0  0  0  0  0  0  0
   -0.5743  -52.8173  -26.1557 C   0  0  0  0  0  0  0  0  0  0  0  0
    0.6213  -52.4187  -26.7196 C   0  0  0  0  0  0  0  0  0  0  0  0
    3.1870  -50.3128  -26.5973 C   0  0  0  0  0  0  0  0  0  0  0  0
    2.8743  -51.6914  -26.5696 O   0  0  0  0  0  0  0  0  0  0  0  0
   -1.6543  -53.1500  -26.9588 O   0  0  0  0  0  0  0  0  0  0  0  0
   -2.6732  -52.1791  -27.1094 C   0  0  0  0  0  0  0  0  0  0  0  0
    0.7135  -52.3615  -28.1079 O   0  0  0  0  0  0  0  0  0  0  0  0
    1.0795  -53.4783  -28.8880 C   0  0  0  0  0  0  0  0  0  0  0  0
 25 26  1  0  0  0
 26 19  1  0  0  0
 19 20  2  0  0  0
 20 21  1  0  0  0
 21 22  2  0  0  0
 22 23  1  0  0  0
 23 27  1  0  0  0
 27 28  1  0  0  0
 23 24  2  0  0  0
 24 29  1  0  0  0
 29 30  1  0  0  0
 21  1  1  0  0  0
  1  2  2  0  0  0
  1  3  1  0  0  0
  3  4  1  0  0  0
  4  5  1  0  0  0
  5  6  1  0  0  0
  6  7  1  0  0  0
  7  8  1  0  0  0
  6  9  1  0  0  0
  9 10  1  0  0  0
 10 11  1  0  0  0
 11 12  1  0  0  0
 12 13  2  0  0  0
 13 14  1  0  0  0
 14 15  2  0  0  0
 15 16  1  0  0  0
 16 17  2  0  0  0
 17 18  1  0  0  0
 24 19  1  0  0  0
  8  3  1  0  0  0
 18  9  1  0  0  0
 17 12  1  0  0  0
M  END
> <minimizedAffinity>
-6.58829

> <CNNscore>
0.1737986505

> <CNNaffinity>
5.9037909508

> <CNN_VS>
1.0260709524

> <CNNaffinity_variance>
0.5330256224

$$$$
[H]c1c([H])c([H])c2c(c1[H])C([H])([H])N(C1([H])C([H])([H])C([H])([H])N(C(=O)c3c([H])c(OC([H])([H])[H])c(OC([H])([H])[H])c(OC([H])([H])[H])c3[H])C([H])([H])C1([H])[H])C([H])([H])C2([H])[H]


 30 33  0  0  0  0  0  0  0  0999 V2000
    0.0652  -52.2611  -19.8640 C   0  0  0  0  0  0  0  0  0  0  0  0
   -0.8758  -53.1453  -20.0831 O   0  0  0  0  0  0  0  0  0  0  0  0
    1.0082  -52.0946  -20.8715 N   0  0  0  0  0  0  0  0  0  0  0  0
    2.1530  -51.2597  -20.9563 C   0  0  0  0  0  0  0  0  0  0  0  0
    3.0881  -51.6635  -22.1061 C   0  0  0  0  0  0  0  0  0  0  0  0
    2.4024  -51.7477  -23.4241 C   0  0  0  0  0  0  0  0  0  0  0  0
    0.8902  -51.9012  -23.2449 C   0  0  0  0  0  0  0  0  0  0  0  0
    0.7864  -52.9265  -22.0917 C   0  0  0  0  0  0  0  0  0  0  0  0
    2.7127  -50.6470  -24.2622 N   0  0  0  0  0  0  0  0  0  0  0  0
    3.3982  -51.0886  -25.4416 C   0  0  0  0  0  0  0  0  0  0  0  0
    3.1591  -50.1150  -26.5819 C   0  0  0  0  0  0  0  0  0  0  0  0
    3.2691  -48.7233  -26.0444 C   0  0  0  0  0  0  0  0  0  0  0  0
    3.3171  -47.6994  -26.9773 C   0  0  0  0  0  0  0  0  0  0  0  0
    3.4202  -46.3898  -26.5453 C   0  0  0  0  0  0  0  0  0  0  0  0
    3.4770  -46.0626  -25.2233 C   0  0  0  0  0  0  0  0  0  0  0  0
    3.4266  -47.1104  -24.3080 C   0  0  0  0  0  0  0  0  0  0  0  0
    3.3243  -48.4191  -24.7198 C   0  0  0  0  0  0  0  0  0  0  0  0
    3.2752  -49.4888  -23.6857 C   0  0  0  0  0  0  0  0  0  0  0  0
   -1.1577  -51.5456  -16.3896 C   0  0  0  0  0  0  0  0  0  0  0  0
   -0.9659  -52.1112  -17.6139 C   0  0  0  0  0  0  0  0  0  0  0  0
   -0.0680  -51.6171  -18.5805 C   0  0  0  0  0  0  0  0  0  0  0  0
    0.6150  -50.4987  -18.1933 C   0  0  0  0  0  0  0  0  0  0  0  0
    0.4695  -49.8665  -16.9555 C   0  0  0  0  0  0  0  0  0  0  0  0
   -0.4332  -50.4217  -16.0706 C   0  0  0  0  0  0  0  0  0  0  0  0
   -3.4284  -51.9449  -15.7327 C   0  0  0  0  0  0  0  0  0  0  0  0
   -2.0448  -52.0524  -15.4618 O   0  0  0  0  0  0  0  0  0  0  0  0
    1.1868  -48.7318  -16.6092 O   0  0  0  0  0  0  0  0  0  0  0  0
    2.5936  -48.7841  -16.7574 C   0  0  0  0  0  0  0  0  0  0  0  0
   -0.6017  -49.8163  -14.8278 O   0  0  0  0  0  0  0  0  0  0  0  0
   -1.5632  -48.8093  -14.6015 C   0  0  0  0  0  0  0  0  0  0  0  0
 25 26  1  0  0  0
 26 19  1  0  0  0
 19 20  2  0  0  0
 20 21  1  0  0  0
 21 22  2  0  0  0
 22 23  1  0  0  0
 23 27  1  0  0  0
 27 28  1  0  0  0
 23 24  2  0  0  0
 24 29  1  0  0  0
 29 30  1  0  0  0
 21  1  1  0  0  0
  1  2  2  0  0  0
  1  3  1  0  0  0
  3  4  1  0  0  0
  4  5  1  0  0  0
  5  6  1  0  0  0
  6  7  1  0  0  0
  7  8  1  0  0  0
  6  9  1  0  0  0
  9 10  1  0  0  0
 10 11  1  0  0  0
 11 12  1  0  0  0
 12 13  2  0  0  0
 13 14  1  0  0  0
 14 15  2  0  0  0
 15 16  1  0  0  0
 16 17  2  0  0  0
 17 18  1  0  0  0
 24 19  1  0  0  0
  8  3  1  0  0  0
 18  9  1  0  0  0
 17 12  1  0  0  0
M  END
> <minimizedAffinity>
-6.43460

> <CNNscore>
0.1497553885

> <CNNaffinity>
5.6921834946

> <CNN_VS>
0.8524351716

> <CNNaffinity_variance>
0.5639180541

$$$$
[H]c1c([H])c([H])c2c(c1[H])C([H])([H])N(C1([H])C([H])([H])C([H])([H])N(C(=O)c3c([H])c(OC([H])([H])[H])c(OC([H])([H])[H])c(OC([H])([H])[H])c3[H])C([H])([H])C1([H])[H])C([H])([H])C2([H])[H]


 30 33  0  0  0  0  0  0  0  0999 V2000
    0.4622  -52.3465  -22.5018 C   0  0  0  0  0  0  0  0  0  0  0  0
    0.0878  -53.5142  -22.0415 O   0  0  0  0  0  0  0  0  0  0  0  0
    0.6999  -51.3539  -21.5583 N   0  0  0  0  0  0  0  0  0  0  0  0
    1.0860  -49.9956  -21.7026 C   0  0  0  0  0  0  0  0  0  0  0  0
    0.8909  -49.1910  -20.4088 C   0  0  0  0  0  0  0  0  0  0  0  0
    1.5564  -49.8019  -19.2264 C   0  0  0  0  0  0  0  0  0  0  0  0
    1.8380  -51.2874  -19.4644 C   0  0  0  0  0  0  0  0  0  0  0  0
    0.5341  -51.7777  -20.1359 C   0  0  0  0  0  0  0  0  0  0  0  0
    2.7352  -49.1072  -18.8551 N   0  0  0  0  0  0  0  0  0  0  0  0
    3.9002  -49.8287  -19.2775 C   0  0  0  0  0  0  0  0  0  0  0  0
    5.0602  -48.8723  -19.4896 C   0  0  0  0  0  0  0  0  0  0  0  0
    5.0714  -47.8876  -18.3636 C   0  0  0  0  0  0  0  0  0  0  0  0
    6.1943  -47.0827  -18.2537 C   0  0  0  0  0  0  0  0  0  0  0  0
    6.2674  -46.1525  -17.2330 C   0  0  0  0  0  0  0  0  0  0  0  0
    5.2672  -45.9942  -16.3206 C   0  0  0  0  0  0  0  0  0  0  0  0
    4.1509  -46.8154  -16.4545 C   0  0  0  0  0  0  0  0  0  0  0  0
    4.0613  -47.7462  -17.4635 C   0  0  0  0  0  0  0  0  0  0  0  0
    2.8380  -48.5904  -17.5463 C   0  0  0  0  0  0  0  0  0  0  0  0
   -0.5163  -52.7306  -26.1036 C   0  0  0  0  0  0  0  0  0  0  0  0
   -0.5369  -52.7108  -24.7418 C   0  0  0  0  0  0  0  0  0  0  0  0
    0.5549  -52.3224  -23.9407 C   0  0  0  0  0  0  0  0  0  0  0  0
    1.6674  -51.9580  -24.6456 C   0  0  0  0  0  0  0  0  0  0  0  0
    1.7596  -51.9537  -26.0400 C   0  0  0  0  0  0  0  0  0  0  0  0
    0.6393  -52.3492  -26.7433 C   0  0  0  0  0  0  0  0  0  0  0  0
   -2.6268  -52.1686  -27.0920 C   0  0  0  0  0  0  0  0  0  0  0  0
   -1.6024  -53.1159  -26.8631 O   0  0  0  0  0  0  0  0  0  0  0  0
    2.9129  -51.5747  -26.7095 O   0  0  0  0  0  0  0  0  0  0  0  0
    3.2646  -50.2042  -26.6698 C   0  0  0  0  0  0  0  0  0  0  0  0
    0.6976  -52.3557  -28.1346 O   0  0  0  0  0  0  0  0  0  0  0  0
    1.0809  -53.4967  -28.8700 C   0  0  0  0  0  0  0  0  0  0  0  0
 25 26  1  0  0  0
 26 19  1  0  0  0
 19 20  2  0  0  0
 20 21  1  0  0  0
 21 22  2  0  0  0
 22 23  1  0  0  0
 23 27  1  0  0  0
 27 28  1  0  0  0
 23 24  2  0  0  0
 24 29  1  0  0  0
 29 30  1  0  0  0
 21  1  1  0  0  0
  1  2  2  0  0  0
  1  3  1  0  0  0
  3  4  1  0  0  0
  4  5  1  0  0  0
  5  6  1  0  0  0
  6  7  1  0  0  0
  7  8  1  0  0  0
  6  9  1  0  0  0
  9 10  1  0  0  0
 10 11  1  0  0  0
 11 12  1  0  0  0
 12 13  2  0  0  0
 13 14  1  0  0  0
 14 15  2  0  0  0
 15 16  1  0  0  0
 16 17  2  0  0  0
 17 18  1  0  0  0
 24 19  1  0  0  0
  8  3  1  0  0  0
 18  9  1  0  0  0
 17 12  1  0  0  0
M  END
> <minimizedAffinity>
-6.53843

> <CNNscore>
0.1491405070

> <CNNaffinity>
5.8471269608

> <CNN_VS>
0.8720434904

> <CNNaffinity_variance>
0.4908419251

$$$$
[H]c1c([H])c([H])c2c(c1[H])C([H])([H])N(C1([H])C([H])([H])C([H])([H])N(C(=O)c3c([H])c(OC([H])([H])[H])c(OC([H])([H])[H])c(OC([H])([H])[H])c3[H])C([H])([H])C1([H])[H])C([H])([H])C2([H])[H]


 30 33  0  0  0  0  0  0  0  0999 V2000
    2.2211  -50.5987  -24.1809 C   0  0  0  0  0  0  0  0  0  0  0  0
    2.2687  -50.0038  -25.3468 O   0  0  0  0  0  0  0  0  0  0  0  0
    3.0350  -50.0759  -23.1829 N   0  0  0  0  0  0  0  0  0  0  0  0
    3.2476  -50.4792  -21.8385 C   0  0  0  0  0  0  0  0  0  0  0  0
    4.4898  -49.8211  -21.2196 C   0  0  0  0  0  0  0  0  0  0  0  0
    4.4885  -48.3370  -21.3272 C   0  0  0  0  0  0  0  0  0  0  0  0
    3.5368  -47.8697  -22.4311 C   0  0  0  0  0  0  0  0  0  0  0  0
    3.8245  -48.8703  -23.5746 C   0  0  0  0  0  0  0  0  0  0  0  0
    4.1915  -47.7091  -20.0912 N   0  0  0  0  0  0  0  0  0  0  0  0
    4.8885  -46.4610  -19.9792 C   0  0  0  0  0  0  0  0  0  0  0  0
    4.1321  -45.5195  -19.0590 C   0  0  0  0  0  0  0  0  0  0  0  0
    3.6553  -46.2994  -17.8749 C   0  0  0  0  0  0  0  0  0  0  0  0
    3.1509  -45.5676  -16.8115 C   0  0  0  0  0  0  0  0  0  0  0  0
    2.6949  -46.2290  -15.6859 C   0  0  0  0  0  0  0  0  0  0  0  0
    2.7223  -47.5876  -15.5799 C   0  0  0  0  0  0  0  0  0  0  0  0
    3.2337  -48.2980  -16.6626 C   0  0  0  0  0  0  0  0  0  0  0  0
    3.6918  -47.6565  -17.7902 C   0  0  0  0  0  0  0  0  0  0  0  0
    4.2253  -48.4797  -18.9099 C   0  0  0  0  0  0  0  0  0  0  0  0
   -0.2001  -53.1890  -25.4085 C   0  0  0  0  0  0  0  0  0  0  0  0
    0.6868  -52.1569  -25.3501 C   0  0  0  0  0  0  0  0  0  0  0  0
    1.3059  -51.7132  -24.1650 C   0  0  0  0  0  0  0  0  0  0  0  0
    0.9430  -52.4097  -23.0468 C   0  0  0  0  0  0  0  0  0  0  0  0
    0.0414  -53.4773  -23.0323 C   0  0  0  0  0  0  0  0  0  0  0  0
   -0.5158  -53.8434  -24.2413 C   0  0  0  0  0  0  0  0  0  0  0  0
   -0.7388  -52.7337  -27.6997 C   0  0  0  0  0  0  0  0  0  0  0  0
   -0.7912  -53.6023  -26.5852 O   0  0  0  0  0  0  0  0  0  0  0  0
   -0.2949  -54.1532  -21.8695 O   0  0  0  0  0  0  0  0  0  0  0  0
   -1.2052  -53.5182  -20.9910 C   0  0  0  0  0  0  0  0  0  0  0  0
   -1.4179  -54.9041  -24.2619 O   0  0  0  0  0  0  0  0  0  0  0  0
   -1.0061  -56.2440  -24.4183 C   0  0  0  0  0  0  0  0  0  0  0  0
 25 26  1  0  0  0
 26 19  1  0  0  0
 19 20  2  0  0  0
 20 21  1  0  0  0
 21 22  2  0  0  0
 22 23  1  0  0  0
 23 27  1  0  0  0
 27 28  1  0  0  0
 23 24  2  0  0  0
 24 29  1  0  0  0
 29 30  1  0  0  0
 21  1  1  0  0  0
  1  2  2  0  0  0
  1  3  1  0  0  0
  3  4  1  0  0  0
  4  5  1  0  0  0
  5  6  1  0  0  0
  6  7  1  0  0  0
  7  8  1  0  0  0
  6  9  1  0  0  0
  9 10  1  0  0  0
 10 11  1  0  0  0
 11 12  1  0  0  0
 12 13  2  0  0  0
 13 14  1  0  0  0
 14 15  2  0  0  0
 15 16  1  0  0  0
 16 17  2  0  0  0
 17 18  1  0  0  0
 24 19  1  0  0  0
  8  3  1  0  0  0
 18  9  1  0  0  0
 17 12  1  0  0  0
M  END
> <minimizedAffinity>
-6.11126

> <CNNscore>
0.1476033181

> <CNNaffinity>
5.7722115517

> <CNN_VS>
0.8519975543

> <CNNaffinity_variance>
0.3382390141

$$$$
[H]c1nc(N([H])c2c([H])c([H])c(C([H])(C([H])([H])[H])C([H])([H])[H])c([H])c2OC([H])([H])[H])nc(N([H])c2c([H])c([H])c([H])c([H])c2S(=O)(=O)C([H])(C([H])([H])[H])C([H])([H])[H])c1Cl


 34 36  0  0  0  0  0  0  0  0999 V2000
   -0.8003  -53.3709  -19.4883 C   0  0  0  0  0  0  0  0  0  0  0  0
   -1.6690  -54.0303  -20.2564 N   0  0  0  0  0  0  0  0  0  0  0  0
   -1.6189  -54.0218  -21.5935 C   0  0  0  0  0  0  0  0  0  0  0  0
   -0.6432  -53.3135  -22.2279 C   0  0  0  0  0  0  0  0  0  0  0  0
   -0.5409  -53.2748  -23.9466 Cl  0  0  0  0  0  0  0  0  0  0  0  0
    0.3041  -52.5966  -21.4799 C   0  0  0  0  0  0  0  0  0  0  0  0
    0.1544  -52.6792  -20.1745 N   0  0  0  0  0  0  0  0  0  0  0  0
   -0.7985  -53.3390  -18.0685 N   0  0  0  0  0  0  0  0  0  0  0  0
   -0.1769  -54.0754  -17.5961 H   0  0  0  0  0  0  0  0  0  0  0  0
   -0.8155  -51.3775  -16.6932 C   0  0  0  0  0  0  0  0  0  0  0  0
   -1.4126  -50.4772  -15.8455 C   0  0  0  0  0  0  0  0  0  0  0  0
   -2.7158  -50.6202  -15.4662 C   0  0  0  0  0  0  0  0  0  0  0  0
   -3.4142  -51.6881  -15.9546 C   0  0  0  0  0  0  0  0  0  0  0  0
   -2.7956  -52.6055  -16.8220 C   0  0  0  0  0  0  0  0  0  0  0  0
   -1.4896  -52.4872  -17.2196 C   0  0  0  0  0  0  0  0  0  0  0  0
   -3.3849  -49.6598  -14.5501 C   0  0  0  0  0  0  0  0  0  0  0  0
   -4.8946  -49.6466  -14.7623 C   0  0  0  0  0  0  0  0  0  0  0  0
   -2.8823  -48.2473  -14.8175 C   0  0  0  0  0  0  0  0  0  0  0  0
    0.9754  -50.0257  -17.6931 C   0  0  0  0  0  0  0  0  0  0  0  0
    0.5014  -51.1550  -17.0219 O   0  0  0  0  0  0  0  0  0  0  0  0
    1.3110  -51.8650  -22.1050 N   0  0  0  0  0  0  0  0  0  0  0  0
    1.9940  -52.4644  -22.7149 H   0  0  0  0  0  0  0  0  0  0  0  0
    1.6325  -50.5088  -22.1140 C   0  0  0  0  0  0  0  0  0  0  0  0
    1.0014  -49.6130  -21.3043 C   0  0  0  0  0  0  0  0  0  0  0  0
    1.2835  -48.2456  -21.2730 C   0  0  0  0  0  0  0  0  0  0  0  0
    2.2503  -47.7618  -22.1002 C   0  0  0  0  0  0  0  0  0  0  0  0
    2.9129  -48.6242  -22.9327 C   0  0  0  0  0  0  0  0  0  0  0  0
    2.6216  -49.9756  -22.9518 C   0  0  0  0  0  0  0  0  0  0  0  0
    3.4793  -51.0206  -24.0112 S   0  0  0  0  0  0  0  0  0  0  0  0
    2.6564  -52.1605  -24.5506 O   0  0  0  0  0  0  0  0  0  0  0  0
    3.9947  -50.2383  -25.1957 O   0  0  0  0  0  0  0  0  0  0  0  0
    4.9065  -51.7620  -23.2619 C   0  0  0  0  0  0  0  0  0  0  0  0
    6.1616  -51.5420  -24.0649 C   0  0  0  0  0  0  0  0  0  0  0  0
    5.0454  -51.4619  -21.7996 C   0  0  0  0  0  0  0  0  0  0  0  0
 19 20  1  0  0  0
 20 10  1  0  0  0
 10 11  2  0  0  0
 11 12  1  0  0  0
 12 13  2  0  0  0
 13 14  1  0  0  0
 14 15  2  0  0  0
 15  8  1  0  0  0
  8  1  1  0  0  0
  1  2  2  0  0  0
  2  3  1  0  0  0
  3  4  2  0  0  0
  4  5  1  0  0  0
  4  6  1  0  0  0
  6 21  1  0  0  0
 21 23  1  0  0  0
 23 24  2  0  0  0
 24 25  1  0  0  0
 25 26  2  0  0  0
 26 27  1  0  0  0
 27 28  2  0  0  0
 28 29  1  0  0  0
 29 30  2  0  0  0
 29 31  2  0  0  0
 29 32  1  0  0  0
 32 33  1  0  0  0
 32 34  1  0  0  0
  6  7  2  0  0  0
 12 16  1  0  0  0
 16 17  1  0  0  0
 16 18  1  0  0  0
 15 10  1  0  0  0
  7  1  1  0  0  0
 28 23  1  0  0  0
  8  9  1  0  0  0
 21 22  1  0  0  0
M  END
> <minimizedAffinity>
-7.76657

> <CNNscore>
0.7272208929

> <CNNaffinity>
7.2837524414

> <CNN_VS>
5.2968969345

> <CNNaffinity_variance>
0.0914678425

$$$$
[H]c1nc(N([H])c2c([H])c([H])c(C([H])(C([H])([H])[H])C([H])([H])[H])c([H])c2OC([H])([H])[H])nc(N([H])c2c([H])c([H])c([H])c([H])c2S(=O)(=O)C([H])(C([H])([H])[H])C([H])([H])[H])c1Cl


 34 36  0  0  0  0  0  0  0  0999 V2000
   -0.9782  -53.8226  -20.7965 C   0  0  0  0  0  0  0  0  0  0  0  0
   -1.4896  -54.7855  -21.5652 N   0  0  0  0  0  0  0  0  0  0  0  0
   -1.2889  -54.8530  -22.8864 C   0  0  0  0  0  0  0  0  0  0  0  0
   -0.5290  -53.9050  -23.5030 C   0  0  0  0  0  0  0  0  0  0  0  0
   -0.2446  -53.9528  -25.2008 Cl  0  0  0  0  0  0  0  0  0  0  0  0
    0.0397  -52.8631  -22.7533 C   0  0  0  0  0  0  0  0  0  0  0  0
   -0.2266  -52.9009  -21.4645 N   0  0  0  0  0  0  0  0  0  0  0  0
   -1.1530  -53.6943  -19.3930 N   0  0  0  0  0  0  0  0  0  0  0  0
   -1.6658  -54.5098  -18.9203 H   0  0  0  0  0  0  0  0  0  0  0  0
   -1.4782  -52.4272  -17.3859 C   0  0  0  0  0  0  0  0  0  0  0  0
   -1.1586  -51.4295  -16.4982 C   0  0  0  0  0  0  0  0  0  0  0  0
   -0.0973  -50.6002  -16.7186 C   0  0  0  0  0  0  0  0  0  0  0  0
    0.6425  -50.7898  -17.8514 C   0  0  0  0  0  0  0  0  0  0  0  0
    0.3087  -51.8136  -18.7555 C   0  0  0  0  0  0  0  0  0  0  0  0
   -0.7504  -52.6606  -18.5602 C   0  0  0  0  0  0  0  0  0  0  0  0
    0.2691  -49.5131  -15.7734 C   0  0  0  0  0  0  0  0  0  0  0  0
   -0.8591  -48.4981  -15.6270 C   0  0  0  0  0  0  0  0  0  0  0  0
    1.4861  -48.7589  -16.2923 C   0  0  0  0  0  0  0  0  0  0  0  0
   -3.7218  -52.7656  -16.4446 C   0  0  0  0  0  0  0  0  0  0  0  0
   -2.5641  -53.2152  -17.0835 O   0  0  0  0  0  0  0  0  0  0  0  0
    0.8202  -51.8823  -23.3603 N   0  0  0  0  0  0  0  0  0  0  0  0
    0.8525  -51.9412  -24.4526 H   0  0  0  0  0  0  0  0  0  0  0  0
    1.5790  -50.8271  -22.8566 C   0  0  0  0  0  0  0  0  0  0  0  0
    1.0932  -49.9784  -21.9080 C   0  0  0  0  0  0  0  0  0  0  0  0
    1.8091  -48.9069  -21.3697 C   0  0  0  0  0  0  0  0  0  0  0  0
    3.0770  -48.6839  -21.8124 C   0  0  0  0  0  0  0  0  0  0  0  0
    3.6090  -49.5110  -22.7656 C   0  0  0  0  0  0  0  0  0  0  0  0
    2.8869  -50.5676  -23.2887 C   0  0  0  0  0  0  0  0  0  0  0  0
    3.5950  -51.5803  -24.4816 S   0  0  0  0  0  0  0  0  0  0  0  0
    5.0983  -51.6444  -24.4209 O   0  0  0  0  0  0  0  0  0  0  0  0
    3.0784  -52.9910  -24.3278 O   0  0  0  0  0  0  0  0  0  0  0  0
    3.1947  -51.0957  -26.1407 C   0  0  0  0  0  0  0  0  0  0  0  0
    2.1959  -52.0186  -26.7880 C   0  0  0  0  0  0  0  0  0  0  0  0
    2.8751  -49.6378  -26.2836 C   0  0  0  0  0  0  0  0  0  0  0  0
 19 20  1  0  0  0
 20 10  1  0  0  0
 10 11  2  0  0  0
 11 12  1  0  0  0
 12 13  2  0  0  0
 13 14  1  0  0  0
 14 15  2  0  0  0
 15  8  1  0  0  0
  8  1  1  0  0  0
  1  2  2  0  0  0
  2  3  1  0  0  0
  3  4  2  0  0  0
  4  5  1  0  0  0
  4  6  1  0  0  0
  6 21  1  0  0  0
 21 23  1  0  0  0
 23 24  2  0  0  0
 24 25  1  0  0  0
 25 26  2  0  0  0
 26 27  1  0  0  0
 27 28  2  0  0  0
 28 29  1  0  0  0
 29 30  2  0  0  0
 29 31  2  0  0  0
 29 32  1  0  0  0
 32 33  1  0  0  0
 32 34  1  0  0  0
  6  7  2  0  0  0
 12 16  1  0  0  0
 16 17  1  0  0  0
 16 18  1  0  0  0
 15 10  1  0  0  0
  7  1  1  0  0  0
 28 23  1  0  0  0
  8  9  1  0  0  0
 21 22  1  0  0  0
M  END
> <minimizedAffinity>
-7.82441

> <CNNscore>
0.7172956467

> <CNNaffinity>
7.3446631432

> <CNN_VS>
5.2682948112

> <CNNaffinity_variance>
0.0938522741

$$$$
[H]c1nc(N([H])c2c([H])c([H])c(C([H])(C([H])([H])[H])C([H])([H])[H])c([H])c2OC([H])([H])[H])nc(N([H])c2c([H])c([H])c([H])c([H])c2S(=O)(=O)C([H])(C([H])([H])[H])C([H])([H])[H])c1Cl


 34 36  0  0  0  0  0  0  0  0999 V2000
   -0.6018  -53.3057  -19.7860 C   0  0  0  0  0  0  0  0  0  0  0  0
   -1.3802  -54.1282  -20.4911 N   0  0  0  0  0  0  0  0  0  0  0  0
   -1.4249  -54.1285  -21.8283 C   0  0  0  0  0  0  0  0  0  0  0  0
   -0.6479  -53.2565  -22.5298 C   0  0  0  0  0  0  0  0  0  0  0  0
   -0.6736  -53.2223  -24.2515 Cl  0  0  0  0  0  0  0  0  0  0  0  0
    0.1951  -52.3628  -21.8504 C   0  0  0  0  0  0  0  0  0  0  0  0
    0.1542  -52.4548  -20.5377 N   0  0  0  0  0  0  0  0  0  0  0  0
   -0.5082  -53.2549  -18.3698 N   0  0  0  0  0  0  0  0  0  0  0  0
    0.3631  -53.7224  -17.9528 H   0  0  0  0  0  0  0  0  0  0  0  0
   -0.9433  -51.6059  -16.6872 C   0  0  0  0  0  0  0  0  0  0  0  0
   -1.7392  -50.9745  -15.7633 C   0  0  0  0  0  0  0  0  0  0  0  0
   -3.0271  -51.3725  -15.5499 C   0  0  0  0  0  0  0  0  0  0  0  0
   -3.5061  -52.4209  -16.2833 C   0  0  0  0  0  0  0  0  0  0  0  0
   -2.6848  -53.0622  -17.2273 C   0  0  0  0  0  0  0  0  0  0  0  0
   -1.3889  -52.6844  -17.4627 C   0  0  0  0  0  0  0  0  0  0  0  0
   -3.9086  -50.7058  -14.5560 C   0  0  0  0  0  0  0  0  0  0  0  0
   -4.8472  -51.7030  -13.8859 C   0  0  0  0  0  0  0  0  0  0  0  0
   -4.7796  -49.6648  -15.2467 C   0  0  0  0  0  0  0  0  0  0  0  0
    1.2474  -50.9503  -15.7899 C   0  0  0  0  0  0  0  0  0  0  0  0
    0.3415  -51.1382  -16.8361 O   0  0  0  0  0  0  0  0  0  0  0  0
    0.9989  -51.4621  -22.5448 N   0  0  0  0  0  0  0  0  0  0  0  0
    0.4803  -50.5595  -22.8822 H   0  0  0  0  0  0  0  0  0  0  0  0
    2.3457  -51.4736  -22.9037 C   0  0  0  0  0  0  0  0  0  0  0  0
    2.8559  -52.4034  -23.7589 C   0  0  0  0  0  0  0  0  0  0  0  0
    4.1950  -52.4610  -24.1513 C   0  0  0  0  0  0  0  0  0  0  0  0
    5.0588  -51.5334  -23.6546 C   0  0  0  0  0  0  0  0  0  0  0  0
    4.5923  -50.5781  -22.7911 C   0  0  0  0  0  0  0  0  0  0  0  0
    3.2633  -50.5349  -22.4123 C   0  0  0  0  0  0  0  0  0  0  0  0
    2.7220  -49.3178  -21.3280 S   0  0  0  0  0  0  0  0  0  0  0  0
    3.6495  -48.1368  -21.2159 O   0  0  0  0  0  0  0  0  0  0  0  0
    1.3787  -48.7933  -21.7764 O   0  0  0  0  0  0  0  0  0  0  0  0
    2.4836  -49.9088  -19.6722 C   0  0  0  0  0  0  0  0  0  0  0  0
    3.3677  -51.0831  -19.3441 C   0  0  0  0  0  0  0  0  0  0  0  0
    2.4847  -48.8237  -18.6376 C   0  0  0  0  0  0  0  0  0  0  0  0
 19 20  1  0  0  0
 20 10  1  0  0  0
 10 11  2  0  0  0
 11 12  1  0  0  0
 12 13  2  0  0  0
 13 14  1  0  0  0
 14 15  2  0  0  0
 15  8  1  0  0  0
  8  1  1  0  0  0
  1  2  2  0  0  0
  2  3  1  0  0  0
  3  4  2  0  0  0
  4  5  1  0  0  0
  4  6  1  0  0  0
  6 21  1  0  0  0
 21 23  1  0  0  0
 23 24  2  0  0  0
 24 25  1  0  0  0
 25 26  2  0  0  0
 26 27  1  0  0  0
 27 28  2  0  0  0
 28 29  1  0  0  0
 29 30  2  0  0  0
 29 31  2  0  0  0
 29 32  1  0  0  0
 32 33  1  0  0  0
 32 34  1  0  0  0
  6  7  2  0  0  0
 12 16  1  0  0  0
 16 17  1  0  0  0
 16 18  1  0  0  0
 15 10  1  0  0  0
  7  1  1  0  0  0
 28 23  1  0  0  0
  8  9  1  0  0  0
 21 22  1  0  0  0
M  END
> <minimizedAffinity>
-7.43246

> <CNNscore>
0.7105597258

> <CNNaffinity>
7.3686547279

> <CNN_VS>
5.2358694077

> <CNNaffinity_variance>
0.1375838965

$$$$
[H]c1nc(N([H])c2c([H])c([H])c(C([H])(C([H])([H])[H])C([H])([H])[H])c([H])c2OC([H])([H])[H])nc(N([H])c2c([H])c([H])c([H])c([H])c2S(=O)(=O)C([H])(C([H])([H])[H])C([H])([H])[H])c1Cl


 34 36  0  0  0  0  0  0  0  0999 V2000
   -0.7556  -53.3342  -19.7812 C   0  0  0  0  0  0  0  0  0  0  0  0
   -1.4840  -54.1512  -20.5437 N   0  0  0  0  0  0  0  0  0  0  0  0
   -1.4550  -54.1258  -21.8811 C   0  0  0  0  0  0  0  0  0  0  0  0
   -0.6510  -53.2318  -22.5220 C   0  0  0  0  0  0  0  0  0  0  0  0
   -0.5823  -53.1642  -24.2415 Cl  0  0  0  0  0  0  0  0  0  0  0  0
    0.1425  -52.3425  -21.7802 C   0  0  0  0  0  0  0  0  0  0  0  0
    0.0305  -52.4605  -20.4737 N   0  0  0  0  0  0  0  0  0  0  0  0
   -0.7407  -53.3101  -18.3613 N   0  0  0  0  0  0  0  0  0  0  0  0
   -0.6153  -54.2659  -17.8898 H   0  0  0  0  0  0  0  0  0  0  0  0
   -2.0191  -52.1195  -16.7219 C   0  0  0  0  0  0  0  0  0  0  0  0
   -2.2351  -51.0805  -15.8505 C   0  0  0  0  0  0  0  0  0  0  0  0
   -1.3216  -50.0767  -15.7066 C   0  0  0  0  0  0  0  0  0  0  0  0
   -0.1808  -50.1331  -16.4563 C   0  0  0  0  0  0  0  0  0  0  0  0
    0.0329  -51.2002  -17.3464 C   0  0  0  0  0  0  0  0  0  0  0  0
   -0.8660  -52.2211  -17.5114 C   0  0  0  0  0  0  0  0  0  0  0  0
   -1.5320  -48.9415  -14.7705 C   0  0  0  0  0  0  0  0  0  0  0  0
   -1.5725  -49.4141  -13.3215 C   0  0  0  0  0  0  0  0  0  0  0  0
   -2.8667  -48.2674  -15.0596 C   0  0  0  0  0  0  0  0  0  0  0  0
   -4.2192  -53.0407  -16.1348 C   0  0  0  0  0  0  0  0  0  0  0  0
   -2.9934  -53.0869  -16.8024 O   0  0  0  0  0  0  0  0  0  0  0  0
    0.9724  -51.4196  -22.4119 N   0  0  0  0  0  0  0  0  0  0  0  0
    0.4866  -50.4719  -22.6637 H   0  0  0  0  0  0  0  0  0  0  0  0
    2.3122  -51.4548  -22.7950 C   0  0  0  0  0  0  0  0  0  0  0  0
    2.7960  -52.4092  -23.6384 C   0  0  0  0  0  0  0  0  0  0  0  0
    4.1268  -52.4911  -24.0537 C   0  0  0  0  0  0  0  0  0  0  0  0
    5.0100  -51.5629  -23.5937 C   0  0  0  0  0  0  0  0  0  0  0  0
    4.5704  -50.5834  -22.7433 C   0  0  0  0  0  0  0  0  0  0  0  0
    3.2493  -50.5163  -22.3414 C   0  0  0  0  0  0  0  0  0  0  0  0
    2.7419  -49.2693  -21.2748 S   0  0  0  0  0  0  0  0  0  0  0  0
    3.6923  -48.1041  -21.1941 O   0  0  0  0  0  0  0  0  0  0  0  0
    1.4040  -48.7281  -21.7195 O   0  0  0  0  0  0  0  0  0  0  0  0
    2.5097  -49.8249  -19.6059 C   0  0  0  0  0  0  0  0  0  0  0  0
    3.3228  -51.0517  -19.2861 C   0  0  0  0  0  0  0  0  0  0  0  0
    2.6106  -48.7309  -18.5856 C   0  0  0  0  0  0  0  0  0  0  0  0
 19 20  1  0  0  0
 20 10  1  0  0  0
 10 11  2  0  0  0
 11 12  1  0  0  0
 12 13  2  0  0  0
 13 14  1  0  0  0
 14 15  2  0  0  0
 15  8  1  0  0  0
  8  1  1  0  0  0
  1  2  2  0  0  0
  2  3  1  0  0  0
  3  4  2  0  0  0
  4  5  1  0  0  0
  4  6  1  0  0  0
  6 21  1  0  0  0
 21 23  1  0  0  0
 23 24  2  0  0  0
 24 25  1  0  0  0
 25 26  2  0  0  0
 26 27  1  0  0  0
 27 28  2  0  0  0
 28 29  1  0  0  0
 29 30  2  0  0  0
 29 31  2  0  0  0
 29 32  1  0  0  0
 32 33  1  0  0  0
 32 34  1  0  0  0
  6  7  2  0  0  0
 12 16  1  0  0  0
 16 17  1  0  0  0
 16 18  1  0  0  0
 15 10  1  0  0  0
  7  1  1  0  0  0
 28 23  1  0  0  0
  8  9  1  0  0  0
 21 22  1  0  0  0
M  END
> <minimizedAffinity>
-7.29184

> <CNNscore>
0.7072734833

> <CNNaffinity>
7.3014426231

> <CNN_VS>
5.1641168594

> <CNNaffinity_variance>
0.1203903556

$$$$
[H]c1nc(N([H])c2c([H])c([H])c(C([H])(C([H])([H])[H])C([H])([H])[H])c([H])c2OC([H])([H])[H])nc(N([H])c2c([H])c([H])c([H])c([H])c2S(=O)(=O)C([H])(C([H])([H])[H])C([H])([H])[H])c1Cl


 34 36  0  0  0  0  0  0  0  0999 V2000
   -0.6803  -53.3388  -19.5133 C   0  0  0  0  0  0  0  0  0  0  0  0
   -1.5371  -53.9882  -20.3032 N   0  0  0  0  0  0  0  0  0  0  0  0
   -1.4667  -53.9621  -21.6391 C   0  0  0  0  0  0  0  0  0  0  0  0
   -0.4817  -53.2453  -22.2493 C   0  0  0  0  0  0  0  0  0  0  0  0
   -0.3533  -53.1839  -23.9656 Cl  0  0  0  0  0  0  0  0  0  0  0  0
    0.4539  -52.5381  -21.4776 C   0  0  0  0  0  0  0  0  0  0  0  0
    0.2844  -52.6380  -20.1758 N   0  0  0  0  0  0  0  0  0  0  0  0
   -0.7001  -53.3257  -18.0934 N   0  0  0  0  0  0  0  0  0  0  0  0
   -0.0873  -54.0696  -17.6214 H   0  0  0  0  0  0  0  0  0  0  0  0
   -0.7487  -51.3551  -16.7319 C   0  0  0  0  0  0  0  0  0  0  0  0
   -1.3582  -50.4624  -15.8849 C   0  0  0  0  0  0  0  0  0  0  0  0
   -2.6541  -50.6323  -15.4921 C   0  0  0  0  0  0  0  0  0  0  0  0
   -3.3326  -51.7192  -15.9661 C   0  0  0  0  0  0  0  0  0  0  0  0
   -2.7015  -52.6287  -16.8329 C   0  0  0  0  0  0  0  0  0  0  0  0
   -1.4024  -52.4836  -17.2439 C   0  0  0  0  0  0  0  0  0  0  0  0
   -3.3362  -49.6806  -14.5763 C   0  0  0  0  0  0  0  0  0  0  0  0
   -4.8488  -49.7133  -14.7644 C   0  0  0  0  0  0  0  0  0  0  0  0
   -2.8789  -48.2575  -14.8679 C   0  0  0  0  0  0  0  0  0  0  0  0
    0.9987  -49.9796  -17.7754 C   0  0  0  0  0  0  0  0  0  0  0  0
    0.5595  -51.1052  -17.0748 O   0  0  0  0  0  0  0  0  0  0  0  0
    1.4698  -51.7982  -22.0777 N   0  0  0  0  0  0  0  0  0  0  0  0
    2.1881  -52.3951  -22.6481 H   0  0  0  0  0  0  0  0  0  0  0  0
    1.7644  -50.4360  -22.1015 C   0  0  0  0  0  0  0  0  0  0  0  0
    1.0314  -49.5276  -21.3988 C   0  0  0  0  0  0  0  0  0  0  0  0
    1.2822  -48.1538  -21.3874 C   0  0  0  0  0  0  0  0  0  0  0  0
    2.3243  -47.6767  -22.1219 C   0  0  0  0  0  0  0  0  0  0  0  0
    3.0904  -48.5518  -22.8451 C   0  0  0  0  0  0  0  0  0  0  0  0
    2.8289  -49.9095  -22.8459 C   0  0  0  0  0  0  0  0  0  0  0  0
    3.8172  -50.9704  -23.7666 S   0  0  0  0  0  0  0  0  0  0  0  0
    5.1387  -50.3778  -24.1789 O   0  0  0  0  0  0  0  0  0  0  0  0
    4.1134  -52.2170  -22.9673 O   0  0  0  0  0  0  0  0  0  0  0  0
    3.0445  -51.5268  -25.2637 C   0  0  0  0  0  0  0  0  0  0  0  0
    2.8445  -53.0193  -25.2915 C   0  0  0  0  0  0  0  0  0  0  0  0
    1.8336  -50.7316  -25.6500 C   0  0  0  0  0  0  0  0  0  0  0  0
 19 20  1  0  0  0
 20 10  1  0  0  0
 10 11  2  0  0  0
 11 12  1  0  0  0
 12 13  2  0  0  0
 13 14  1  0  0  0
 14 15  2  0  0  0
 15  8  1  0  0  0
  8  1  1  0  0  0
  1  2  2  0  0  0
  2  3  1  0  0  0
  3  4  2  0  0  0
  4  5  1  0  0  0
  4  6  1  0  0  0
  6 21  1  0  0  0
 21 23  1  0  0  0
 23 24  2  0  0  0
 24 25  1  0  0  0
 25 26  2  0  0  0
 26 27  1  0  0  0
 27 28  2  0  0  0
 28 29  1  0  0  0
 29 30  2  0  0  0
 29 31  2  0  0  0
 29 32  1  0  0  0
 32 33  1  0  0  0
 32 34  1  0  0  0
  6  7  2  0  0  0
 12 16  1  0  0  0
 16 17  1  0  0  0
 16 18  1  0  0  0
 15 10  1  0  0  0
  7  1  1  0  0  0
 28 23  1  0  0  0
  8  9  1  0  0  0
 21 22  1  0  0  0
M  END
> <minimizedAffinity>
-7.76607

> <CNNscore>
0.5656044483

> <CNNaffinity>
7.1602249146

> <CNN_VS>
4.0498552322

> <CNNaffinity_variance>
0.2156685144

$$$$
[H]c1nc(N([H])c2c([H])c([H])c(C([H])(C([H])([H])[H])C([H])([H])[H])c([H])c2OC([H])([H])[H])nc(N([H])c2c([H])c([H])c([H])c([H])c2S(=O)(=O)C([H])(C([H])([H])[H])C([H])([H])[H])c1Cl


 34 36  0  0  0  0  0  0  0  0999 V2000
   -0.7761  -53.2097  -21.1940 C   0  0  0  0  0  0  0  0  0  0  0  0
   -1.1114  -54.4896  -21.3641 N   0  0  0  0  0  0  0  0  0  0  0  0
   -1.1312  -55.0896  -22.5599 C   0  0  0  0  0  0  0  0  0  0  0  0
   -0.7969  -54.3824  -23.6755 C   0  0  0  0  0  0  0  0  0  0  0  0
   -0.8086  -55.1142  -25.2344 Cl  0  0  0  0  0  0  0  0  0  0  0  0
   -0.4338  -53.0306  -23.5682 C   0  0  0  0  0  0  0  0  0  0  0  0
   -0.4510  -52.5497  -22.3426 N   0  0  0  0  0  0  0  0  0  0  0  0
   -0.7353  -52.5152  -19.9559 N   0  0  0  0  0  0  0  0  0  0  0  0
   -1.6865  -52.3762  -19.4788 H   0  0  0  0  0  0  0  0  0  0  0  0
    0.1884  -51.5152  -17.9845 C   0  0  0  0  0  0  0  0  0  0  0  0
    1.2146  -50.9847  -17.2422 C   0  0  0  0  0  0  0  0  0  0  0  0
    2.4803  -50.8988  -17.7453 C   0  0  0  0  0  0  0  0  0  0  0  0
    2.7007  -51.3568  -19.0135 C   0  0  0  0  0  0  0  0  0  0  0  0
    1.6446  -51.8986  -19.7672 C   0  0  0  0  0  0  0  0  0  0  0  0
    0.3647  -51.9975  -19.2882 C   0  0  0  0  0  0  0  0  0  0  0  0
    3.6078  -50.3289  -16.9621 C   0  0  0  0  0  0  0  0  0  0  0  0
    3.6893  -50.9479  -15.5712 C   0  0  0  0  0  0  0  0  0  0  0  0
    3.4082  -48.8307  -16.7750 C   0  0  0  0  0  0  0  0  0  0  0  0
   -1.2852  -51.7598  -16.0344 C   0  0  0  0  0  0  0  0  0  0  0  0
   -1.0546  -51.5623  -17.3976 O   0  0  0  0  0  0  0  0  0  0  0  0
   -0.0880  -52.2865  -24.6935 N   0  0  0  0  0  0  0  0  0  0  0  0
   -0.6717  -51.3705  -24.8274 H   0  0  0  0  0  0  0  0  0  0  0  0
    0.8608  -52.4705  -25.6979 C   0  0  0  0  0  0  0  0  0  0  0  0
    0.5367  -53.0132  -26.9049 C   0  0  0  0  0  0  0  0  0  0  0  0
    1.4461  -53.2198  -27.9445 C   0  0  0  0  0  0  0  0  0  0  0  0
    2.7451  -52.8601  -27.7535 C   0  0  0  0  0  0  0  0  0  0  0  0
    3.1189  -52.3102  -26.5561 C   0  0  0  0  0  0  0  0  0  0  0  0
    2.2062  -52.1122  -25.5367 C   0  0  0  0  0  0  0  0  0  0  0  0
    2.7194  -51.4176  -24.0521 S   0  0  0  0  0  0  0  0  0  0  0  0
    1.8272  -50.3144  -23.5479 O   0  0  0  0  0  0  0  0  0  0  0  0
    2.7699  -52.4802  -22.9801 O   0  0  0  0  0  0  0  0  0  0  0  0
    4.3522  -50.7275  -24.1277 C   0  0  0  0  0  0  0  0  0  0  0  0
    4.3517  -49.2875  -24.5692 C   0  0  0  0  0  0  0  0  0  0  0  0
    5.1809  -51.0020  -22.9088 C   0  0  0  0  0  0  0  0  0  0  0  0
 19 20  1  0  0  0
 20 10  1  0  0  0
 10 11  2  0  0  0
 11 12  1  0  0  0
 12 13  2  0  0  0
 13 14  1  0  0  0
 14 15  2  0  0  0
 15  8  1  0  0  0
  8  1  1  0  0  0
  1  2  2  0  0  0
  2  3  1  0  0  0
  3  4  2  0  0  0
  4  5  1  0  0  0
  4  6  1  0  0  0
  6 21  1  0  0  0
 21 23  1  0  0  0
 23 24  2  0  0  0
 24 25  1  0  0  0
 25 26  2  0  0  0
 26 27  1  0  0  0
 27 28  2  0  0  0
 28 29  1  0  0  0
 29 30  2  0  0  0
 29 31  2  0  0  0
 29 32  1  0  0  0
 32 33  1  0  0  0
 32 34  1  0  0  0
  6  7  2  0  0  0
 12 16  1  0  0  0
 16 17  1  0  0  0
 16 18  1  0  0  0
 15 10  1  0  0  0
  7  1  1  0  0  0
 28 23  1  0  0  0
  8  9  1  0  0  0
 21 22  1  0  0  0
M  END
> <minimizedAffinity>
-6.79802

> <CNNscore>
0.4710091054

> <CNNaffinity>
7.4484267235

> <CNN_VS>
3.5082767010

> <CNNaffinity_variance>
0.2840536535

$$$$
[H]c1nc(N([H])c2c([H])c([H])c(C([H])(C([H])([H])[H])C([H])([H])[H])c([H])c2OC([H])([H])[H])nc(N([H])c2c([H])c([H])c([H])c([H])c2S(=O)(=O)C([H])(C([H])([H])[H])C([H])([H])[H])c1Cl


 34 36  0  0  0  0  0  0  0  0999 V2000
   -0.2252  -53.5786  -20.1978 C   0  0  0  0  0  0  0  0  0  0  0  0
   -1.2377  -54.2957  -20.6877 N   0  0  0  0  0  0  0  0  0  0  0  0
   -1.4860  -54.4143  -21.9971 C   0  0  0  0  0  0  0  0  0  0  0  0
   -0.6811  -53.7825  -22.8967 C   0  0  0  0  0  0  0  0  0  0  0  0
   -0.9635  -53.9077  -24.5909 Cl  0  0  0  0  0  0  0  0  0  0  0  0
    0.4032  -53.0110  -22.4492 C   0  0  0  0  0  0  0  0  0  0  0  0
    0.5478  -52.9679  -21.1413 N   0  0  0  0  0  0  0  0  0  0  0  0
    0.0918  -53.4128  -18.8234 N   0  0  0  0  0  0  0  0  0  0  0  0
    0.8636  -54.0590  -18.4516 H   0  0  0  0  0  0  0  0  0  0  0  0
    0.1444  -51.2802  -17.7330 C   0  0  0  0  0  0  0  0  0  0  0  0
   -0.3283  -50.3401  -16.8507 C   0  0  0  0  0  0  0  0  0  0  0  0
   -1.4316  -50.5812  -16.0845 C   0  0  0  0  0  0  0  0  0  0  0  0
   -2.0567  -51.7886  -16.2191 C   0  0  0  0  0  0  0  0  0  0  0  0
   -1.5664  -52.7459  -17.1247 C   0  0  0  0  0  0  0  0  0  0  0  0
   -0.4617  -52.5315  -17.9063 C   0  0  0  0  0  0  0  0  0  0  0  0
   -1.9629  -49.5804  -15.1224 C   0  0  0  0  0  0  0  0  0  0  0  0
   -1.3344  -49.7450  -13.7432 C   0  0  0  0  0  0  0  0  0  0  0  0
   -3.4654  -49.7641  -14.9552 C   0  0  0  0  0  0  0  0  0  0  0  0
    2.5659  -50.9381  -17.9642 C   0  0  0  0  0  0  0  0  0  0  0  0
    1.2620  -50.9518  -18.4643 O   0  0  0  0  0  0  0  0  0  0  0  0
    1.2403  -52.3557  -23.3488 N   0  0  0  0  0  0  0  0  0  0  0  0
    0.7292  -51.9410  -24.2232 H   0  0  0  0  0  0  0  0  0  0  0  0
    2.6133  -52.1160  -23.3655 C   0  0  0  0  0  0  0  0  0  0  0  0
    3.2750  -51.6383  -22.2744 C   0  0  0  0  0  0  0  0  0  0  0  0
    4.6470  -51.3806  -22.2365 C   0  0  0  0  0  0  0  0  0  0  0  0
    5.3845  -51.6178  -23.3559 C   0  0  0  0  0  0  0  0  0  0  0  0
    4.7636  -52.0986  -24.4780 C   0  0  0  0  0  0  0  0  0  0  0  0
    3.4039  -52.3485  -24.4993 C   0  0  0  0  0  0  0  0  0  0  0  0
    2.6676  -52.9528  -25.9284 S   0  0  0  0  0  0  0  0  0  0  0  0
    3.6452  -53.4204  -26.9740 O   0  0  0  0  0  0  0  0  0  0  0  0
    1.7773  -54.1247  -25.5894 O   0  0  0  0  0  0  0  0  0  0  0  0
    1.6224  -51.7672  -26.7345 C   0  0  0  0  0  0  0  0  0  0  0  0
    0.5779  -52.4144  -27.6055 C   0  0  0  0  0  0  0  0  0  0  0  0
    1.0937  -50.7058  -25.8170 C   0  0  0  0  0  0  0  0  0  0  0  0
 19 20  1  0  0  0
 20 10  1  0  0  0
 10 11  2  0  0  0
 11 12  1  0  0  0
 12 13  2  0  0  0
 13 14  1  0  0  0
 14 15  2  0  0  0
 15  8  1  0  0  0
  8  1  1  0  0  0
  1  2  2  0  0  0
  2  3  1  0  0  0
  3  4  2  0  0  0
  4  5  1  0  0  0
  4  6  1  0  0  0
  6 21  1  0  0  0
 21 23  1  0  0  0
 23 24  2  0  0  0
 24 25  1  0  0  0
 25 26  2  0  0  0
 26 27  1  0  0  0
 27 28  2  0  0  0
 28 29  1  0  0  0
 29 30  2  0  0  0
 29 31  2  0  0  0
 29 32  1  0  0  0
 32 33  1  0  0  0
 32 34  1  0  0  0
  6  7  2  0  0  0
 12 16  1  0  0  0
 16 17  1  0  0  0
 16 18  1  0  0  0
 15 10  1  0  0  0
  7  1  1  0  0  0
 28 23  1  0  0  0
  8  9  1  0  0  0
 21 22  1  0  0  0
M  END
> <minimizedAffinity>
-7.58569

> <CNNscore>
0.3792543709

> <CNNaffinity>
7.0509505272

> <CNN_VS>
2.6741037369

> <CNNaffinity_variance>
0.1988888532

$$$$
[H]c1nc(N([H])c2c([H])c([H])c(C([H])(C([H])([H])[H])C([H])([H])[H])c([H])c2OC([H])([H])[H])nc(N([H])c2c([H])c([H])c([H])c([H])c2S(=O)(=O)C([H])(C([H])([H])[H])C([H])([H])[H])c1Cl


 34 36  0  0  0  0  0  0  0  0999 V2000
    0.4231  -52.8169  -21.2767 C   0  0  0  0  0  0  0  0  0  0  0  0
   -0.5920  -53.1977  -22.0538 N   0  0  0  0  0  0  0  0  0  0  0  0
   -0.6950  -52.8582  -23.3439 C   0  0  0  0  0  0  0  0  0  0  0  0
    0.2700  -52.0866  -23.9180 C   0  0  0  0  0  0  0  0  0  0  0  0
    0.1779  -51.6261  -25.5749 Cl  0  0  0  0  0  0  0  0  0  0  0  0
    1.3665  -51.6509  -23.1572 C   0  0  0  0  0  0  0  0  0  0  0  0
    1.3597  -52.0468  -21.9016 N   0  0  0  0  0  0  0  0  0  0  0  0
    0.5911  -53.1420  -19.9045 N   0  0  0  0  0  0  0  0  0  0  0  0
    1.3323  -53.8907  -19.7000 H   0  0  0  0  0  0  0  0  0  0  0  0
    0.4424  -51.4691  -18.1960 C   0  0  0  0  0  0  0  0  0  0  0  0
   -0.1423  -50.8794  -17.1024 C   0  0  0  0  0  0  0  0  0  0  0  0
   -1.2742  -51.3957  -16.5413 C   0  0  0  0  0  0  0  0  0  0  0  0
   -1.8131  -52.5204  -17.0991 C   0  0  0  0  0  0  0  0  0  0  0  0
   -1.2084  -53.1182  -18.2189 C   0  0  0  0  0  0  0  0  0  0  0  0
   -0.0725  -52.6222  -18.8029 C   0  0  0  0  0  0  0  0  0  0  0  0
   -1.9259  -50.7762  -15.3577 C   0  0  0  0  0  0  0  0  0  0  0  0
   -1.3598  -51.3314  -14.0555 C   0  0  0  0  0  0  0  0  0  0  0  0
   -3.4179  -51.0819  -15.3641 C   0  0  0  0  0  0  0  0  0  0  0  0
    2.8259  -50.8901  -18.0627 C   0  0  0  0  0  0  0  0  0  0  0  0
    1.5808  -50.8807  -18.6953 O   0  0  0  0  0  0  0  0  0  0  0  0
    2.3658  -50.8615  -23.7210 N   0  0  0  0  0  0  0  0  0  0  0  0
    1.9968  -50.0100  -24.3010 H   0  0  0  0  0  0  0  0  0  0  0  0
    3.7576  -50.9335  -23.6987 C   0  0  0  0  0  0  0  0  0  0  0  0
    4.4346  -51.9753  -24.2578 C   0  0  0  0  0  0  0  0  0  0  0  0
    5.8258  -52.0974  -24.2636 C   0  0  0  0  0  0  0  0  0  0  0  0
    6.5671  -51.1186  -23.6758 C   0  0  0  0  0  0  0  0  0  0  0  0
    5.9311  -50.0508  -23.1002 C   0  0  0  0  0  0  0  0  0  0  0  0
    4.5527  -49.9448  -23.1028 C   0  0  0  0  0  0  0  0  0  0  0  0
    3.7978  -48.5870  -22.3704 S   0  0  0  0  0  0  0  0  0  0  0  0
    2.8901  -47.8161  -23.2919 O   0  0  0  0  0  0  0  0  0  0  0  0
    2.9660  -49.0370  -21.1929 O   0  0  0  0  0  0  0  0  0  0  0  0
    4.9532  -47.4057  -21.7244 C   0  0  0  0  0  0  0  0  0  0  0  0
    5.3418  -46.3622  -22.7386 C   0  0  0  0  0  0  0  0  0  0  0  0
    4.5679  -46.8546  -20.3843 C   0  0  0  0  0  0  0  0  0  0  0  0
 19 20  1  0  0  0
 20 10  1  0  0  0
 10 11  2  0  0  0
 11 12  1  0  0  0
 12 13  2  0  0  0
 13 14  1  0  0  0
 14 15  2  0  0  0
 15  8  1  0  0  0
  8  1  1  0  0  0
  1  2  2  0  0  0
  2  3  1  0  0  0
  3  4  2  0  0  0
  4  5  1  0  0  0
  4  6  1  0  0  0
  6 21  1  0  0  0
 21 23  1  0  0  0
 23 24  2  0  0  0
 24 25  1  0  0  0
 25 26  2  0  0  0
 26 27  1  0  0  0
 27 28  2  0  0  0
 28 29  1  0  0  0
 29 30  2  0  0  0
 29 31  2  0  0  0
 29 32  1  0  0  0
 32 33  1  0  0  0
 32 34  1  0  0  0
  6  7  2  0  0  0
 12 16  1  0  0  0
 16 17  1  0  0  0
 16 18  1  0  0  0
 15 10  1  0  0  0
  7  1  1  0  0  0
 28 23  1  0  0  0
  8  9  1  0  0  0
 21 22  1  0  0  0
M  END
> <minimizedAffinity>
-6.40529

> <CNNscore>
0.2776434422

> <CNNaffinity>
6.8707313538

> <CNN_VS>
1.9076135159

> <CNNaffinity_variance>
0.3205954731

$$$$
[H]c1nc(N([H])c2c([H])c([H])c(C([H])(C([H])([H])[H])C([H])([H])[H])c([H])c2OC([H])([H])[H])nc(N([H])c2c([H])c([H])c([H])c([H])c2S(=O)(=O)C([H])(C([H])([H])[H])C([H])([H])[H])c1Cl


 34 36  0  0  0  0  0  0  0  0999 V2000
    0.0104  -52.0680  -20.3135 C   0  0  0  0  0  0  0  0  0  0  0  0
   -0.8616  -52.9806  -19.8819 N   0  0  0  0  0  0  0  0  0  0  0  0
   -1.3421  -53.9596  -20.6571 C   0  0  0  0  0  0  0  0  0  0  0  0
   -0.9380  -54.0528  -21.9549 C   0  0  0  0  0  0  0  0  0  0  0  0
   -1.5305  -55.2966  -22.9883 Cl  0  0  0  0  0  0  0  0  0  0  0  0
   -0.0216  -53.1247  -22.4741 C   0  0  0  0  0  0  0  0  0  0  0  0
    0.3807  -52.2080  -21.6189 N   0  0  0  0  0  0  0  0  0  0  0  0
    0.5572  -51.0069  -19.5441 N   0  0  0  0  0  0  0  0  0  0  0  0
    0.3211  -51.0330  -18.4976 H   0  0  0  0  0  0  0  0  0  0  0  0
    2.6782  -49.8930  -19.5223 C   0  0  0  0  0  0  0  0  0  0  0  0
    3.5411  -48.8879  -19.8838 C   0  0  0  0  0  0  0  0  0  0  0  0
    3.1421  -47.8756  -20.7076 C   0  0  0  0  0  0  0  0  0  0  0  0
    1.8549  -47.8886  -21.1654 C   0  0  0  0  0  0  0  0  0  0  0  0
    0.9774  -48.9212  -20.7906 C   0  0  0  0  0  0  0  0  0  0  0  0
    1.3502  -49.9497  -19.9655 C   0  0  0  0  0  0  0  0  0  0  0  0
    4.0567  -46.7765  -21.1135 C   0  0  0  0  0  0  0  0  0  0  0  0
    4.1926  -45.7296  -20.0135 C   0  0  0  0  0  0  0  0  0  0  0  0
    3.5054  -46.0662  -22.3427 C   0  0  0  0  0  0  0  0  0  0  0  0
    3.4683  -50.6902  -17.3373 C   0  0  0  0  0  0  0  0  0  0  0  0
    3.1658  -50.8721  -18.6885 O   0  0  0  0  0  0  0  0  0  0  0  0
    0.4068  -53.1988  -23.7972 N   0  0  0  0  0  0  0  0  0  0  0  0
   -0.3588  -53.5362  -24.5027 H   0  0  0  0  0  0  0  0  0  0  0  0
    1.6260  -52.9285  -24.4164 C   0  0  0  0  0  0  0  0  0  0  0  0
    2.7010  -52.4643  -23.7198 C   0  0  0  0  0  0  0  0  0  0  0  0
    3.9435  -52.1774  -24.2891 C   0  0  0  0  0  0  0  0  0  0  0  0
    4.1059  -52.3694  -25.6270 C   0  0  0  0  0  0  0  0  0  0  0  0
    3.0535  -52.8350  -26.3696 C   0  0  0  0  0  0  0  0  0  0  0  0
    1.8294  -53.1143  -25.7907 C   0  0  0  0  0  0  0  0  0  0  0  0
    0.5378  -53.6980  -26.7606 S   0  0  0  0  0  0  0  0  0  0  0  0
    0.9805  -54.4121  -28.0103 O   0  0  0  0  0  0  0  0  0  0  0  0
   -0.3037  -54.6664  -25.9638 O   0  0  0  0  0  0  0  0  0  0  0  0
   -0.5703  -52.4202  -27.2965 C   0  0  0  0  0  0  0  0  0  0  0  0
   -1.0002  -52.5908  -28.7298 C   0  0  0  0  0  0  0  0  0  0  0  0
   -1.6936  -52.1545  -26.3397 C   0  0  0  0  0  0  0  0  0  0  0  0
 19 20  1  0  0  0
 20 10  1  0  0  0
 10 11  2  0  0  0
 11 12  1  0  0  0
 12 13  2  0  0  0
 13 14  1  0  0  0
 14 15  2  0  0  0
 15  8  1  0  0  0
  8  1  1  0  0  0
  1  2  2  0  0  0
  2  3  1  0  0  0
  3  4  2  0  0  0
  4  5  1  0  0  0
  4  6  1  0  0  0
  6 21  1  0  0  0
 21 23  1  0  0  0
 23 24  2  0  0  0
 24 25  1  0  0  0
 25 26  2  0  0  0
 26 27  1  0  0  0
 27 28  2  0  0  0
 28 29  1  0  0  0
 29 30  2  0  0  0
 29 31  2  0  0  0
 29 32  1  0  0  0
 32 33  1  0  0  0
 32 34  1  0  0  0
  6  7  2  0  0  0
 12 16  1  0  0  0
 16 17  1  0  0  0
 16 18  1  0  0  0
 15 10  1  0  0  0
  7  1  1  0  0  0
 28 23  1  0  0  0
  8  9  1  0  0  0
 21 22  1  0  0  0
M  END
> <minimizedAffinity>
-8.06431

> <CNNscore>
0.2590922713

> <CNNaffinity>
7.2415847778

> <CNN_VS>
1.8762387037

> <CNNaffinity_variance>
0.2207402289

$$$$
[H]c1c([H])c([H])c(C2=NC([H])([H])c3nnc(C([H])([H])[H])n3-c3sc(C#CC([H])([H])N4C(=O)C([H])([H])C([H])([H])C4=O)c([H])c32)c(Cl)c1[H]


 31 35  0  0  0  0  0  0  0  0999 V2000
    0.1530  -55.2612  -25.1885 C   0  0  0  0  0  0  0  0  0  0  0  0
   -0.6085  -54.8350  -23.9795 C   0  0  0  0  0  0  0  0  0  0  0  0
   -1.6158  -55.4765  -23.3304 N   0  0  0  0  0  0  0  0  0  0  0  0
   -2.0144  -54.6981  -22.2984 N   0  0  0  0  0  0  0  0  0  0  0  0
   -1.2721  -53.6089  -22.3141 C   0  0  0  0  0  0  0  0  0  0  0  0
   -1.3484  -52.4557  -21.4021 C   0  0  0  0  0  0  0  0  0  0  0  0
   -0.0608  -52.0085  -20.9459 N   0  0  0  0  0  0  0  0  0  0  0  0
    1.0718  -51.7124  -21.5277 C   0  0  0  0  0  0  0  0  0  0  0  0
    1.2127  -51.7980  -22.9978 C   0  0  0  0  0  0  0  0  0  0  0  0
    1.9962  -50.9231  -23.6815 C   0  0  0  0  0  0  0  0  0  0  0  0
    2.0866  -51.0561  -25.0383 C   0  0  0  0  0  0  0  0  0  0  0  0
    1.0739  -52.4008  -25.3647 S   0  0  0  0  0  0  0  0  0  0  0  0
    0.5727  -52.7403  -23.7785 C   0  0  0  0  0  0  0  0  0  0  0  0
   -0.3949  -53.6816  -23.3514 N   0  0  0  0  0  0  0  0  0  0  0  0
    2.0828  -51.1983  -20.6488 C   0  0  0  0  0  0  0  0  0  0  0  0
    1.5990  -50.6877  -19.4255 C   0  0  0  0  0  0  0  0  0  0  0  0
    2.4048  -50.2854  -18.4082 C   0  0  0  0  0  0  0  0  0  0  0  0
    3.7744  -50.3573  -18.5220 C   0  0  0  0  0  0  0  0  0  0  0  0
    4.2648  -50.8540  -19.6985 C   0  0  0  0  0  0  0  0  0  0  0  0
    3.4322  -51.2747  -20.7503 C   0  0  0  0  0  0  0  0  0  0  0  0
    4.2203  -52.1650  -22.0407 Cl  0  0  0  0  0  0  0  0  0  0  0  0
    2.8425  -50.2727  -25.9869 C   0  0  0  0  0  0  0  0  0  0  0  0
    3.4731  -49.6034  -26.7617 C   0  0  0  0  0  0  0  0  0  0  0  0
    4.2248  -48.8021  -27.7191 C   0  0  0  0  0  0  0  0  0  0  0  0
    3.5347  -47.5410  -27.8904 N   0  0  0  0  0  0  0  0  0  0  0  0
    2.9675  -46.7413  -26.8504 C   0  0  0  0  0  0  0  0  0  0  0  0
    3.2128  -46.8637  -25.6200 O   0  0  0  0  0  0  0  0  0  0  0  0
    2.0388  -45.7351  -27.4291 C   0  0  0  0  0  0  0  0  0  0  0  0
    2.0896  -45.9707  -28.9127 C   0  0  0  0  0  0  0  0  0  0  0  0
    3.2857  -46.8524  -29.1186 C   0  0  0  0  0  0  0  0  0  0  0  0
    3.9772  -46.9925  -30.1681 O   0  0  0  0  0  0  0  0  0  0  0  0
  1  2  1  0  0  0
  2  3  2  0  0  0
  3  4  1  0  0  0
  4  5  2  0  0  0
  5  6  1  0  0  0
  6  7  1  0  0  0
  7  8  2  0  0  0
  8  9  1  0  0  0
  9 10  1  0  0  0
 10 11  2  0  0  0
 11 12  1  0  0  0
 12 13  1  0  0  0
 13 14  1  0  0  0
 11 22  1  0  0  0
 22 23  3  0  0  0
 23 24  1  0  0  0
 24 25  1  0  0  0
 25 26  1  0  0  0
 26 27  2  0  0  0
 26 28  1  0  0  0
 28 29  1  0  0  0
 29 30  1  0  0  0
 30 31  2  0  0  0
  8 15  1  0  0  0
 15 16  2  0  0  0
 16 17  1  0  0  0
 17 18  2  0  0  0
 18 19  1  0  0  0
 19 20  2  0  0  0
 20 21  1  0  0  0
 14  2  1  0  0  0
 30 25  1  0  0  0
 20 15  1  0  0  0
 14  5  1  0  0  0
 13  9  2  0  0  0
M  END
> <minimizedAffinity>
-6.92949

> <CNNscore>
0.5230630636

> <CNNaffinity>
7.1383233070

> <CNN_VS>
3.7337932587

> <CNNaffinity_variance>
0.4716137946

$$$$
[H]c1c([H])c([H])c(C2=NC([H])([H])c3nnc(C([H])([H])[H])n3-c3sc(C#CC([H])([H])N4C(=O)C([H])([H])C([H])([H])C4=O)c([H])c32)c(Cl)c1[H]


 31 35  0  0  0  0  0  0  0  0999 V2000
   -2.0632  -53.2848  -21.3556 C   0  0  0  0  0  0  0  0  0  0  0  0
   -1.0361  -53.3850  -22.4318 C   0  0  0  0  0  0  0  0  0  0  0  0
   -1.1263  -53.9803  -23.6504 N   0  0  0  0  0  0  0  0  0  0  0  0
    0.0637  -53.8376  -24.2776 N   0  0  0  0  0  0  0  0  0  0  0  0
    0.8620  -53.1730  -23.4660 C   0  0  0  0  0  0  0  0  0  0  0  0
    2.2665  -52.7963  -23.6957 C   0  0  0  0  0  0  0  0  0  0  0  0
    2.5566  -51.4386  -23.3238 N   0  0  0  0  0  0  0  0  0  0  0  0
    2.3375  -50.7062  -22.2633 C   0  0  0  0  0  0  0  0  0  0  0  0
    1.6499  -51.2716  -21.0818 C   0  0  0  0  0  0  0  0  0  0  0  0
    1.9846  -50.8868  -19.8221 C   0  0  0  0  0  0  0  0  0  0  0  0
    1.3107  -51.4443  -18.7724 C   0  0  0  0  0  0  0  0  0  0  0  0
    0.2103  -52.5116  -19.5408 S   0  0  0  0  0  0  0  0  0  0  0  0
    0.6455  -52.2165  -21.1550 C   0  0  0  0  0  0  0  0  0  0  0  0
    0.1917  -52.8851  -22.3177 N   0  0  0  0  0  0  0  0  0  0  0  0
    2.9158  -49.3939  -22.3090 C   0  0  0  0  0  0  0  0  0  0  0  0
    1.9816  -48.3368  -22.3427 C   0  0  0  0  0  0  0  0  0  0  0  0
    2.3267  -47.0260  -22.2492 C   0  0  0  0  0  0  0  0  0  0  0  0
    3.6438  -46.6509  -22.1129 C   0  0  0  0  0  0  0  0  0  0  0  0
    4.5659  -47.6605  -22.0732 C   0  0  0  0  0  0  0  0  0  0  0  0
    4.2099  -49.0174  -22.1654 C   0  0  0  0  0  0  0  0  0  0  0  0
    5.4780  -50.1687  -21.7838 Cl  0  0  0  0  0  0  0  0  0  0  0  0
    1.4656  -51.2093  -17.3562 C   0  0  0  0  0  0  0  0  0  0  0  0
    1.5982  -51.0357  -16.1737 C   0  0  0  0  0  0  0  0  0  0  0  0
    1.7423  -50.8077  -14.7417 C   0  0  0  0  0  0  0  0  0  0  0  0
    0.8560  -49.7261  -14.3667 N   0  0  0  0  0  0  0  0  0  0  0  0
   -0.3128  -49.8370  -13.5516 C   0  0  0  0  0  0  0  0  0  0  0  0
   -0.5993  -50.8207  -12.8171 O   0  0  0  0  0  0  0  0  0  0  0  0
   -1.1512  -48.6176  -13.6928 C   0  0  0  0  0  0  0  0  0  0  0  0
   -0.3973  -47.7393  -14.6517 C   0  0  0  0  0  0  0  0  0  0  0  0
    0.9712  -48.3486  -14.7322 C   0  0  0  0  0  0  0  0  0  0  0  0
    2.0553  -47.7852  -15.0587 O   0  0  0  0  0  0  0  0  0  0  0  0
  1  2  1  0  0  0
  2  3  2  0  0  0
  3  4  1  0  0  0
  4  5  2  0  0  0
  5  6  1  0  0  0
  6  7  1  0  0  0
  7  8  2  0  0  0
  8  9  1  0  0  0
  9 10  1  0  0  0
 10 11  2  0  0  0
 11 12  1  0  0  0
 12 13  1  0  0  0
 13 14  1  0  0  0
 11 22  1  0  0  0
 22 23  3  0  0  0
 23 24  1  0  0  0
 24 25  1  0  0  0
 25 26  1  0  0  0
 26 27  2  0  0  0
 26 28  1  0  0  0
 28 29  1  0  0  0
 29 30  1  0  0  0
 30 31  2  0  0  0
  8 15  1  0  0  0
 15 16  2  0  0  0
 16 17  1  0  0  0
 17 18  2  0  0  0
 18 19  1  0  0  0
 19 20  2  0  0  0
 20 21  1  0  0  0
 14  2  1  0  0  0
 30 25  1  0  0  0
 20 15  1  0  0  0
 14  5  1  0  0  0
 13  9  2  0  0  0
M  END
> <minimizedAffinity>
-5.13170

> <CNNscore>
0.3855901659

> <CNNaffinity>
6.8811388016

> <CNN_VS>
2.6532995701

> <CNNaffinity_variance>
0.9208824039

$$$$
[H]c1c([H])c([H])c(C2=NC([H])([H])c3nnc(C([H])([H])[H])n3-c3sc(C#CC([H])([H])N4C(=O)C([H])([H])C([H])([H])C4=O)c([H])c32)c(Cl)c1[H]


 31 35  0  0  0  0  0  0  0  0999 V2000
   -2.2133  -52.1056  -26.9149 C   0  0  0  0  0  0  0  0  0  0  0  0
   -0.9776  -52.4391  -27.6796 C   0  0  0  0  0  0  0  0  0  0  0  0
   -0.8260  -52.6527  -29.0134 N   0  0  0  0  0  0  0  0  0  0  0  0
    0.4734  -52.9471  -29.2476 N   0  0  0  0  0  0  0  0  0  0  0  0
    1.1017  -52.9151  -28.0891 C   0  0  0  0  0  0  0  0  0  0  0  0
    2.5244  -53.1911  -27.8301 C   0  0  0  0  0  0  0  0  0  0  0  0
    3.1353  -52.2343  -26.9484 N   0  0  0  0  0  0  0  0  0  0  0  0
    2.8281  -51.7264  -25.7837 C   0  0  0  0  0  0  0  0  0  0  0  0
    1.5987  -52.1453  -25.0756 C   0  0  0  0  0  0  0  0  0  0  0  0
    1.5634  -52.2346  -23.7201 C   0  0  0  0  0  0  0  0  0  0  0  0
    0.3969  -52.6253  -23.1254 C   0  0  0  0  0  0  0  0  0  0  0  0
   -0.6535  -52.8737  -24.4577 S   0  0  0  0  0  0  0  0  0  0  0  0
    0.4199  -52.4795  -25.7126 C   0  0  0  0  0  0  0  0  0  0  0  0
    0.2133  -52.6000  -27.1082 N   0  0  0  0  0  0  0  0  0  0  0  0
    3.8220  -50.8536  -25.2274 C   0  0  0  0  0  0  0  0  0  0  0  0
    4.8775  -51.5095  -24.5589 C   0  0  0  0  0  0  0  0  0  0  0  0
    5.9802  -50.8707  -24.0876 C   0  0  0  0  0  0  0  0  0  0  0  0
    6.1284  -49.5113  -24.2423 C   0  0  0  0  0  0  0  0  0  0  0  0
    5.1184  -48.8562  -24.8920 C   0  0  0  0  0  0  0  0  0  0  0  0
    3.9790  -49.5166  -25.3842 C   0  0  0  0  0  0  0  0  0  0  0  0
    2.9521  -48.5770  -26.4527 Cl  0  0  0  0  0  0  0  0  0  0  0  0
    0.0955  -52.7937  -21.7234 C   0  0  0  0  0  0  0  0  0  0  0  0
   -0.1334  -52.9343  -20.5513 C   0  0  0  0  0  0  0  0  0  0  0  0
   -0.4303  -53.1179  -19.1365 C   0  0  0  0  0  0  0  0  0  0  0  0
    0.1160  -51.9898  -18.4119 N   0  0  0  0  0  0  0  0  0  0  0  0
   -0.4928  -51.3242  -17.3032 C   0  0  0  0  0  0  0  0  0  0  0  0
   -1.4498  -51.7750  -16.6176 O   0  0  0  0  0  0  0  0  0  0  0  0
    0.1676  -50.0131  -17.0697 C   0  0  0  0  0  0  0  0  0  0  0  0
    1.2427  -49.9300  -18.1169 C   0  0  0  0  0  0  0  0  0  0  0  0
    1.3577  -51.3247  -18.6574 C   0  0  0  0  0  0  0  0  0  0  0  0
    2.3506  -51.8566  -19.2322 O   0  0  0  0  0  0  0  0  0  0  0  0
  1  2  1  0  0  0
  2  3  2  0  0  0
  3  4  1  0  0  0
  4  5  2  0  0  0
  5  6  1  0  0  0
  6  7  1  0  0  0
  7  8  2  0  0  0
  8  9  1  0  0  0
  9 10  1  0  0  0
 10 11  2  0  0  0
 11 12  1  0  0  0
 12 13  1  0  0  0
 13 14  1  0  0  0
 11 22  1  0  0  0
 22 23  3  0  0  0
 23 24  1  0  0  0
 24 25  1  0  0  0
 25 26  1  0  0  0
 26 27  2  0  0  0
 26 28  1  0  0  0
 28 29  1  0  0  0
 29 30  1  0  0  0
 30 31  2  0  0  0
  8 15  1  0  0  0
 15 16  2  0  0  0
 16 17  1  0  0  0
 17 18  2  0  0  0
 18 19  1  0  0  0
 19 20  2  0  0  0
 20 21  1  0  0  0
 14  2  1  0  0  0
 30 25  1  0  0  0
 20 15  1  0  0  0
 14  5  1  0  0  0
 13  9  2  0  0  0
M  END
> <minimizedAffinity>
-8.73092

> <CNNscore>
0.3854607344

> <CNNaffinity>
7.1540884972

> <CNN_VS>
2.7576200962

> <CNNaffinity_variance>
0.2552637458

$$$$
[H]c1c([H])c([H])c(C2=NC([H])([H])c3nnc(C([H])([H])[H])n3-c3sc(C#CC([H])([H])N4C(=O)C([H])([H])C([H])([H])C4=O)c([H])c32)c(Cl)c1[H]


 31 35  0  0  0  0  0  0  0  0999 V2000
   -0.2745  -55.0377  -24.4394 C   0  0  0  0  0  0  0  0  0  0  0  0
   -0.9206  -54.6175  -23.1630 C   0  0  0  0  0  0  0  0  0  0  0  0
   -1.8731  -55.2560  -22.4333 N   0  0  0  0  0  0  0  0  0  0  0  0
   -2.1696  -54.4853  -21.3619 N   0  0  0  0  0  0  0  0  0  0  0  0
   -1.4197  -53.4035  -21.4326 C   0  0  0  0  0  0  0  0  0  0  0  0
   -1.4018  -52.2598  -20.5057 C   0  0  0  0  0  0  0  0  0  0  0  0
   -0.0739  -51.8307  -20.1615 N   0  0  0  0  0  0  0  0  0  0  0  0
    1.0055  -51.5394  -20.8390 C   0  0  0  0  0  0  0  0  0  0  0  0
    1.0140  -51.6100  -22.3166 C   0  0  0  0  0  0  0  0  0  0  0  0
    1.7431  -50.7354  -23.0584 C   0  0  0  0  0  0  0  0  0  0  0  0
    1.7109  -50.8542  -24.4193 C   0  0  0  0  0  0  0  0  0  0  0  0
    0.6584  -52.1850  -24.6677 S   0  0  0  0  0  0  0  0  0  0  0  0
    0.2968  -52.5371  -23.0467 C   0  0  0  0  0  0  0  0  0  0  0  0
   -0.6392  -53.4734  -22.5447 N   0  0  0  0  0  0  0  0  0  0  0  0
    2.0964  -51.0454  -20.0486 C   0  0  0  0  0  0  0  0  0  0  0  0
    1.7746  -50.7710  -18.7023 C   0  0  0  0  0  0  0  0  0  0  0  0
    2.6961  -50.4296  -17.7641 C   0  0  0  0  0  0  0  0  0  0  0  0
    4.0299  -50.3307  -18.0883 C   0  0  0  0  0  0  0  0  0  0  0  0
    4.3647  -50.5972  -19.3876 C   0  0  0  0  0  0  0  0  0  0  0  0
    3.4128  -50.9549  -20.3583 C   0  0  0  0  0  0  0  0  0  0  0  0
    4.0565  -51.5590  -21.8748 Cl  0  0  0  0  0  0  0  0  0  0  0  0
    2.3878  -50.0679  -25.4233 C   0  0  0  0  0  0  0  0  0  0  0  0
    2.9690  -49.4100  -26.2453 C   0  0  0  0  0  0  0  0  0  0  0  0
    3.6520  -48.6042  -27.2491 C   0  0  0  0  0  0  0  0  0  0  0  0
    4.3392  -47.5262  -26.5696 N   0  0  0  0  0  0  0  0  0  0  0  0
    5.5165  -46.8561  -27.0254 C   0  0  0  0  0  0  0  0  0  0  0  0
    5.9766  -46.9062  -28.1980 O   0  0  0  0  0  0  0  0  0  0  0  0
    6.1279  -46.0842  -25.9119 C   0  0  0  0  0  0  0  0  0  0  0  0
    5.2240  -46.3220  -24.7348 C   0  0  0  0  0  0  0  0  0  0  0  0
    3.9821  -46.9244  -25.3227 C   0  0  0  0  0  0  0  0  0  0  0  0
    2.8136  -46.9238  -24.8393 O   0  0  0  0  0  0  0  0  0  0  0  0
  1  2  1  0  0  0
  2  3  2  0  0  0
  3  4  1  0  0  0
  4  5  2  0  0  0
  5  6  1  0  0  0
  6  7  1  0  0  0
  7  8  2  0  0  0
  8  9  1  0  0  0
  9 10  1  0  0  0
 10 11  2  0  0  0
 11 12  1  0  0  0
 12 13  1  0  0  0
 13 14  1  0  0  0
 11 22  1  0  0  0
 22 23  3  0  0  0
 23 24  1  0  0  0
 24 25  1  0  0  0
 25 26  1  0  0  0
 26 27  2  0  0  0
 26 28  1  0  0  0
 28 29  1  0  0  0
 29 30  1  0  0  0
 30 31  2  0  0  0
  8 15  1  0  0  0
 15 16  2  0  0  0
 16 17  1  0  0  0
 17 18  2  0  0  0
 18 19  1  0  0  0
 19 20  2  0  0  0
 20 21  1  0  0  0
 14  2  1  0  0  0
 30 25  1  0  0  0
 20 15  1  0  0  0
 14  5  1  0  0  0
 13  9  2  0  0  0
M  END
> <minimizedAffinity>
-6.17151

> <CNNscore>
0.3624730408

> <CNNaffinity>
6.8672127724

> <CNN_VS>
2.4891796112

> <CNNaffinity_variance>
0.3282206059

$$$$
[H]c1c([H])c([H])c(C2=NC([H])([H])c3nnc(C([H])([H])[H])n3-c3sc(C#CC([H])([H])N4C(=O)C([H])([H])C([H])([H])C4=O)c([H])c32)c(Cl)c1[H]


 31 35  0  0  0  0  0  0  0  0999 V2000
   -2.4838  -52.2266  -26.9758 C   0  0  0  0  0  0  0  0  0  0  0  0
   -1.2575  -52.4555  -27.7925 C   0  0  0  0  0  0  0  0  0  0  0  0
   -1.1471  -52.6873  -29.1272 N   0  0  0  0  0  0  0  0  0  0  0  0
    0.1631  -52.8573  -29.4179 N   0  0  0  0  0  0  0  0  0  0  0  0
    0.8379  -52.7332  -28.2923 C   0  0  0  0  0  0  0  0  0  0  0  0
    2.2915  -52.8599  -28.0969 C   0  0  0  0  0  0  0  0  0  0  0  0
    2.8435  -51.8248  -27.2663 N   0  0  0  0  0  0  0  0  0  0  0  0
    2.5410  -51.3200  -26.0990 C   0  0  0  0  0  0  0  0  0  0  0  0
    1.3938  -51.8404  -25.3234 C   0  0  0  0  0  0  0  0  0  0  0  0
    1.4304  -51.8978  -23.9661 C   0  0  0  0  0  0  0  0  0  0  0  0
    0.3377  -52.3867  -23.3074 C   0  0  0  0  0  0  0  0  0  0  0  0
   -0.7430  -52.7725  -24.5816 S   0  0  0  0  0  0  0  0  0  0  0  0
    0.2264  -52.3062  -25.8952 C   0  0  0  0  0  0  0  0  0  0  0  0
   -0.0314  -52.4826  -27.2763 N   0  0  0  0  0  0  0  0  0  0  0  0
    3.4669  -50.3389  -25.6101 C   0  0  0  0  0  0  0  0  0  0  0  0
    3.0615  -48.9998  -25.7941 C   0  0  0  0  0  0  0  0  0  0  0  0
    3.7303  -47.9350  -25.2793 C   0  0  0  0  0  0  0  0  0  0  0  0
    4.8710  -48.1130  -24.5303 C   0  0  0  0  0  0  0  0  0  0  0  0
    5.2793  -49.4040  -24.3357 C   0  0  0  0  0  0  0  0  0  0  0  0
    4.5858  -50.5069  -24.8639 C   0  0  0  0  0  0  0  0  0  0  0  0
    5.0720  -52.0793  -24.2553 Cl  0  0  0  0  0  0  0  0  0  0  0  0
    0.1198  -52.5479  -21.8892 C   0  0  0  0  0  0  0  0  0  0  0  0
   -0.0583  -52.6600  -20.7053 C   0  0  0  0  0  0  0  0  0  0  0  0
   -0.2639  -52.8177  -19.2712 C   0  0  0  0  0  0  0  0  0  0  0  0
    0.4461  -51.7525  -18.5950 N   0  0  0  0  0  0  0  0  0  0  0  0
   -0.0597  -50.9446  -17.5299 C   0  0  0  0  0  0  0  0  0  0  0  0
   -1.0803  -51.2057  -16.8376 O   0  0  0  0  0  0  0  0  0  0  0  0
    0.7951  -49.7417  -17.3514 C   0  0  0  0  0  0  0  0  0  0  0  0
    1.8777  -49.8801  -18.3849 C   0  0  0  0  0  0  0  0  0  0  0  0
    1.7780  -51.3016  -18.8541 C   0  0  0  0  0  0  0  0  0  0  0  0
    2.6802  -52.0098  -19.3866 O   0  0  0  0  0  0  0  0  0  0  0  0
  1  2  1  0  0  0
  2  3  2  0  0  0
  3  4  1  0  0  0
  4  5  2  0  0  0
  5  6  1  0  0  0
  6  7  1  0  0  0
  7  8  2  0  0  0
  8  9  1  0  0  0
  9 10  1  0  0  0
 10 11  2  0  0  0
 11 12  1  0  0  0
 12 13  1  0  0  0
 13 14  1  0  0  0
 11 22  1  0  0  0
 22 23  3  0  0  0
 23 24  1  0  0  0
 24 25  1  0  0  0
 25 26  1  0  0  0
 26 27  2  0  0  0
 26 28  1  0  0  0
 28 29  1  0  0  0
 29 30  1  0  0  0
 30 31  2  0  0  0
  8 15  1  0  0  0
 15 16  2  0  0  0
 16 17  1  0  0  0
 17 18  2  0  0  0
 18 19  1  0  0  0
 19 20  2  0  0  0
 20 21  1  0  0  0
 14  2  1  0  0  0
 30 25  1  0  0  0
 20 15  1  0  0  0
 14  5  1  0  0  0
 13  9  2  0  0  0
M  END
> <minimizedAffinity>
-9.02780

> <CNNscore>
0.3285901248

> <CNNaffinity>
7.0746674538

> <CNN_VS>
2.3246657848

> <CNNaffinity_variance>
0.2607270479

$$$$
[H]c1c([H])c([H])c(C2=NC([H])([H])c3nnc(C([H])([H])[H])n3-c3sc(C#CC([H])([H])N4C(=O)C([H])([H])C([H])([H])C4=O)c([H])c32)c(Cl)c1[H]


 31 35  0  0  0  0  0  0  0  0999 V2000
   -2.3704  -52.4221  -24.9368 C   0  0  0  0  0  0  0  0  0  0  0  0
   -1.1070  -52.6901  -25.6820 C   0  0  0  0  0  0  0  0  0  0  0  0
   -0.9307  -52.9559  -27.0032 N   0  0  0  0  0  0  0  0  0  0  0  0
    0.3898  -53.1535  -27.2202 N   0  0  0  0  0  0  0  0  0  0  0  0
    1.0066  -53.0128  -26.0638 C   0  0  0  0  0  0  0  0  0  0  0  0
    2.4457  -53.1576  -25.7889 C   0  0  0  0  0  0  0  0  0  0  0  0
    2.9708  -52.1114  -24.9548 N   0  0  0  0  0  0  0  0  0  0  0  0
    2.6162  -51.5737  -23.8173 C   0  0  0  0  0  0  0  0  0  0  0  0
    1.4212  -52.0569  -23.0914 C   0  0  0  0  0  0  0  0  0  0  0  0
    1.3856  -52.0819  -21.7331 C   0  0  0  0  0  0  0  0  0  0  0  0
    0.2518  -52.5375  -21.1218 C   0  0  0  0  0  0  0  0  0  0  0  0
   -0.7670  -52.9370  -22.4419 S   0  0  0  0  0  0  0  0  0  0  0  0
    0.2776  -52.5181  -23.7130 C   0  0  0  0  0  0  0  0  0  0  0  0
    0.0897  -52.7239  -25.1012 N   0  0  0  0  0  0  0  0  0  0  0  0
    3.5317  -50.5956  -23.3033 C   0  0  0  0  0  0  0  0  0  0  0  0
    4.3062  -51.0294  -22.2064 C   0  0  0  0  0  0  0  0  0  0  0  0
    5.3212  -50.3031  -21.6693 C   0  0  0  0  0  0  0  0  0  0  0  0
    5.6557  -49.0709  -22.1826 C   0  0  0  0  0  0  0  0  0  0  0  0
    4.9203  -48.6330  -23.2498 C   0  0  0  0  0  0  0  0  0  0  0  0
    3.8727  -49.3854  -23.8092 C   0  0  0  0  0  0  0  0  0  0  0  0
    3.2576  -48.8129  -25.3497 Cl  0  0  0  0  0  0  0  0  0  0  0  0
   -0.0430  -52.6607  -19.7137 C   0  0  0  0  0  0  0  0  0  0  0  0
   -0.2960  -52.7844  -18.5446 C   0  0  0  0  0  0  0  0  0  0  0  0
   -0.6085  -52.9107  -17.1269 C   0  0  0  0  0  0  0  0  0  0  0  0
   -1.4178  -51.7739  -16.7413 N   0  0  0  0  0  0  0  0  0  0  0  0
   -0.9425  -50.4547  -16.4645 C   0  0  0  0  0  0  0  0  0  0  0  0
    0.1959  -50.0098  -16.7731 O   0  0  0  0  0  0  0  0  0  0  0  0
   -1.9892  -49.6734  -15.7549 C   0  0  0  0  0  0  0  0  0  0  0  0
   -3.1545  -50.6144  -15.6282 C   0  0  0  0  0  0  0  0  0  0  0  0
   -2.8361  -51.7441  -16.5625 C   0  0  0  0  0  0  0  0  0  0  0  0
   -3.6419  -52.5477  -17.1141 O   0  0  0  0  0  0  0  0  0  0  0  0
  1  2  1  0  0  0
  2  3  2  0  0  0
  3  4  1  0  0  0
  4  5  2  0  0  0
  5  6  1  0  0  0
  6  7  1  0  0  0
  7  8  2  0  0  0
  8  9  1  0  0  0
  9 10  1  0  0  0
 10 11  2  0  0  0
 11 12  1  0  0  0
 12 13  1  0  0  0
 13 14  1  0  0  0
 11 22  1  0  0  0
 22 23  3  0  0  0
 23 24  1  0  0  0
 24 25  1  0  0  0
 25 26  1  0  0  0
 26 27  2  0  0  0
 26 28  1  0  0  0
 28 29  1  0  0  0
 29 30  1  0  0  0
 30 31  2  0  0  0
  8 15  1  0  0  0
 15 16  2  0  0  0
 16 17  1  0  0  0
 17 18  2  0  0  0
 18 19  1  0  0  0
 19 20  2  0  0  0
 20 21  1  0  0  0
 14  2  1  0  0  0
 30 25  1  0  0  0
 20 15  1  0  0  0
 14  5  1  0  0  0
 13  9  2  0  0  0
M  END
> <minimizedAffinity>
-4.68693

> <CNNscore>
0.3157846928

> <CNNaffinity>
6.9135093689

> <CNN_VS>
2.1831803322

> <CNNaffinity_variance>
1.0950012207

$$$$
[H]c1c([H])c([H])c(C2=NC([H])([H])c3nnc(C([H])([H])[H])n3-c3sc(C#CC([H])([H])N4C(=O)C([H])([H])C([H])([H])C4=O)c([H])c32)c(Cl)c1[H]


 31 35  0  0  0  0  0  0  0  0999 V2000
   -2.4313  -52.3960  -26.8625 C   0  0  0  0  0  0  0  0  0  0  0  0
   -1.2281  -52.5145  -27.7352 C   0  0  0  0  0  0  0  0  0  0  0  0
   -1.1556  -52.5862  -29.0906 N   0  0  0  0  0  0  0  0  0  0  0  0
    0.1464  -52.7074  -29.4366 N   0  0  0  0  0  0  0  0  0  0  0  0
    0.8533  -52.7101  -28.3240 C   0  0  0  0  0  0  0  0  0  0  0  0
    2.3130  -52.8442  -28.1865 C   0  0  0  0  0  0  0  0  0  0  0  0
    2.8823  -51.9087  -27.2556 N   0  0  0  0  0  0  0  0  0  0  0  0
    2.6111  -51.5481  -26.0286 C   0  0  0  0  0  0  0  0  0  0  0  0
    1.4908  -52.1679  -25.2875 C   0  0  0  0  0  0  0  0  0  0  0  0
    1.5679  -52.3845  -23.9481 C   0  0  0  0  0  0  0  0  0  0  0  0
    0.4985  -52.9588  -23.3209 C   0  0  0  0  0  0  0  0  0  0  0  0
   -0.6168  -53.2026  -24.6003 S   0  0  0  0  0  0  0  0  0  0  0  0
    0.3101  -52.5749  -25.8768 C   0  0  0  0  0  0  0  0  0  0  0  0
    0.0129  -52.5898  -27.2610 N   0  0  0  0  0  0  0  0  0  0  0  0
    3.5444  -50.6221  -25.4539 C   0  0  0  0  0  0  0  0  0  0  0  0
    3.1313  -49.2730  -25.4802 C   0  0  0  0  0  0  0  0  0  0  0  0
    3.8079  -48.2680  -24.8651 C   0  0  0  0  0  0  0  0  0  0  0  0
    4.9649  -48.5217  -24.1645 C   0  0  0  0  0  0  0  0  0  0  0  0
    5.3810  -49.8241  -24.1223 C   0  0  0  0  0  0  0  0  0  0  0  0
    4.6795  -50.8656  -24.7546 C   0  0  0  0  0  0  0  0  0  0  0  0
    5.1832  -52.4929  -24.3337 Cl  0  0  0  0  0  0  0  0  0  0  0  0
    0.3237  -53.2883  -21.9260 C   0  0  0  0  0  0  0  0  0  0  0  0
    0.1828  -53.5413  -20.7589 C   0  0  0  0  0  0  0  0  0  0  0  0
    0.0211  -53.8699  -19.3484 C   0  0  0  0  0  0  0  0  0  0  0  0
   -0.2299  -52.6408  -18.6257 N   0  0  0  0  0  0  0  0  0  0  0  0
    0.4710  -51.4062  -18.7916 C   0  0  0  0  0  0  0  0  0  0  0  0
    1.2176  -51.1163  -19.7651 O   0  0  0  0  0  0  0  0  0  0  0  0
    0.1930  -50.5033  -17.6440 C   0  0  0  0  0  0  0  0  0  0  0  0
   -0.7475  -51.2767  -16.7627 C   0  0  0  0  0  0  0  0  0  0  0  0
   -1.2162  -52.4192  -17.6146 C   0  0  0  0  0  0  0  0  0  0  0  0
   -2.2807  -53.0916  -17.4966 O   0  0  0  0  0  0  0  0  0  0  0  0
  1  2  1  0  0  0
  2  3  2  0  0  0
  3  4  1  0  0  0
  4  5  2  0  0  0
  5  6  1  0  0  0
  6  7  1  0  0  0
  7  8  2  0  0  0
  8  9  1  0  0  0
  9 10  1  0  0  0
 10 11  2  0  0  0
 11 12  1  0  0  0
 12 13  1  0  0  0
 13 14  1  0  0  0
 11 22  1  0  0  0
 22 23  3  0  0  0
 23 24  1  0  0  0
 24 25  1  0  0  0
 25 26  1  0  0  0
 26 27  2  0  0  0
 26 28  1  0  0  0
 28 29  1  0  0  0
 29 30  1  0  0  0
 30 31  2  0  0  0
  8 15  1  0  0  0
 15 16  2  0  0  0
 16 17  1  0  0  0
 17 18  2  0  0  0
 18 19  1  0  0  0
 19 20  2  0  0  0
 20 21  1  0  0  0
 14  2  1  0  0  0
 30 25  1  0  0  0
 20 15  1  0  0  0
 14  5  1  0  0  0
 13  9  2  0  0  0
M  END
> <minimizedAffinity>
-8.55376

> <CNNscore>
0.2804441750

> <CNNaffinity>
7.1521062851

> <CNN_VS>
2.0057666302

> <CNNaffinity_variance>
0.2320180386

$$$$
[H]c1c([H])c([H])c(C2=NC([H])([H])c3nnc(C([H])([H])[H])n3-c3sc(C#CC([H])([H])N4C(=O)C([H])([H])C([H])([H])C4=O)c([H])c32)c(Cl)c1[H]


 31 35  0  0  0  0  0  0  0  0999 V2000
    3.1264  -52.7796  -28.1080 C   0  0  0  0  0  0  0  0  0  0  0  0
    1.6412  -52.8323  -27.9867 C   0  0  0  0  0  0  0  0  0  0  0  0
    0.7249  -53.3064  -28.8716 N   0  0  0  0  0  0  0  0  0  0  0  0
   -0.5059  -53.1269  -28.3398 N   0  0  0  0  0  0  0  0  0  0  0  0
   -0.3489  -52.5582  -27.1610 C   0  0  0  0  0  0  0  0  0  0  0  0
   -1.3987  -52.1453  -26.2150 C   0  0  0  0  0  0  0  0  0  0  0  0
   -1.1140  -52.5164  -24.8559 N   0  0  0  0  0  0  0  0  0  0  0  0
   -0.0842  -52.3865  -24.0611 C   0  0  0  0  0  0  0  0  0  0  0  0
    1.1476  -51.7097  -24.5225 C   0  0  0  0  0  0  0  0  0  0  0  0
    1.8975  -50.9586  -23.6739 C   0  0  0  0  0  0  0  0  0  0  0  0
    3.0257  -50.3607  -24.1605 C   0  0  0  0  0  0  0  0  0  0  0  0
    3.0405  -50.8416  -25.8063 S   0  0  0  0  0  0  0  0  0  0  0  0
    1.6218  -51.7742  -25.8179 C   0  0  0  0  0  0  0  0  0  0  0  0
    0.9785  -52.3710  -26.9291 N   0  0  0  0  0  0  0  0  0  0  0  0
   -0.3029  -52.8348  -22.7157 C   0  0  0  0  0  0  0  0  0  0  0  0
   -0.2996  -51.8119  -21.7437 C   0  0  0  0  0  0  0  0  0  0  0  0
   -0.6243  -52.0136  -20.4398 C   0  0  0  0  0  0  0  0  0  0  0  0
   -0.9835  -53.2625  -19.9870 C   0  0  0  0  0  0  0  0  0  0  0  0
   -0.9977  -54.2682  -20.9142 C   0  0  0  0  0  0  0  0  0  0  0  0
   -0.6663  -54.0601  -22.2645 C   0  0  0  0  0  0  0  0  0  0  0  0
   -1.0408  -55.3815  -23.3565 Cl  0  0  0  0  0  0  0  0  0  0  0  0
    3.9867  -49.5264  -23.4785 C   0  0  0  0  0  0  0  0  0  0  0  0
    4.7775  -48.8370  -22.8908 C   0  0  0  0  0  0  0  0  0  0  0  0
    5.7358  -47.9861  -22.1972 C   0  0  0  0  0  0  0  0  0  0  0  0
    5.0936  -47.4580  -21.0120 N   0  0  0  0  0  0  0  0  0  0  0  0
    4.2505  -46.3055  -20.9516 C   0  0  0  0  0  0  0  0  0  0  0  0
    3.7188  -45.7377  -21.9436 O   0  0  0  0  0  0  0  0  0  0  0  0
    4.0869  -45.8661  -19.5410 C   0  0  0  0  0  0  0  0  0  0  0  0
    4.8873  -46.8499  -18.7345 C   0  0  0  0  0  0  0  0  0  0  0  0
    5.1735  -47.9772  -19.6821 C   0  0  0  0  0  0  0  0  0  0  0  0
    5.4410  -49.1807  -19.4008 O   0  0  0  0  0  0  0  0  0  0  0  0
  1  2  1  0  0  0
  2  3  2  0  0  0
  3  4  1  0  0  0
  4  5  2  0  0  0
  5  6  1  0  0  0
  6  7  1  0  0  0
  7  8  2  0  0  0
  8  9  1  0  0  0
  9 10  1  0  0  0
 10 11  2  0  0  0
 11 12  1  0  0  0
 12 13  1  0  0  0
 13 14  1  0  0  0
 11 22  1  0  0  0
 22 23  3  0  0  0
 23 24  1  0  0  0
 24 25  1  0  0  0
 25 26  1  0  0  0
 26 27  2  0  0  0
 26 28  1  0  0  0
 28 29  1  0  0  0
 29 30  1  0  0  0
 30 31  2  0  0  0
  8 15  1  0  0  0
 15 16  2  0  0  0
 16 17  1  0  0  0
 17 18  2  0  0  0
 18 19  1  0  0  0
 19 20  2  0  0  0
 20 21  1  0  0  0
 14  2  1  0  0  0
 30 25  1  0  0  0
 20 15  1  0  0  0
 14  5  1  0  0  0
 13  9  2  0  0  0
M  END
> <minimizedAffinity>
-8.09194

> <CNNscore>
0.2640340030

> <CNNaffinity>
6.7675499916

> <CNN_VS>
1.7868633270

> <CNNaffinity_variance>
0.1842374504

$$$$
[H]c1c([H])c([H])c(C2=NC([H])([H])c3nnc(C([H])([H])[H])n3-c3sc(C#CC([H])([H])N4C(=O)C([H])([H])C([H])([H])C4=O)c([H])c32)c(Cl)c1[H]


 31 35  0  0  0  0  0  0  0  0999 V2000
   -1.5194  -54.1056  -23.4918 C   0  0  0  0  0  0  0  0  0  0  0  0
   -0.2991  -53.9151  -24.3271 C   0  0  0  0  0  0  0  0  0  0  0  0
   -0.0071  -54.4335  -25.5492 N   0  0  0  0  0  0  0  0  0  0  0  0
    1.2241  -54.0017  -25.9063 N   0  0  0  0  0  0  0  0  0  0  0  0
    1.6751  -53.2393  -24.9300 C   0  0  0  0  0  0  0  0  0  0  0  0
    2.9789  -52.5605  -24.8483 C   0  0  0  0  0  0  0  0  0  0  0  0
    2.8814  -51.2000  -24.3951 N   0  0  0  0  0  0  0  0  0  0  0  0
    2.2961  -50.6026  -23.3903 C   0  0  0  0  0  0  0  0  0  0  0  0
    1.5250  -51.3776  -22.3938 C   0  0  0  0  0  0  0  0  0  0  0  0
    1.5043  -51.0156  -21.0841 C   0  0  0  0  0  0  0  0  0  0  0  0
    0.7712  -51.7714  -20.2133 C   0  0  0  0  0  0  0  0  0  0  0  0
    0.1119  -52.9931  -21.2198 S   0  0  0  0  0  0  0  0  0  0  0  0
    0.7895  -52.5060  -22.6983 C   0  0  0  0  0  0  0  0  0  0  0  0
    0.7393  -53.1763  -23.9445 N   0  0  0  0  0  0  0  0  0  0  0  0
    2.5683  -49.1977  -23.2848 C   0  0  0  0  0  0  0  0  0  0  0  0
    2.6495  -48.7086  -21.9637 C   0  0  0  0  0  0  0  0  0  0  0  0
    3.0337  -47.4428  -21.6535 C   0  0  0  0  0  0  0  0  0  0  0  0
    3.3732  -46.5464  -22.6409 C   0  0  0  0  0  0  0  0  0  0  0  0
    3.3059  -47.0014  -23.9292 C   0  0  0  0  0  0  0  0  0  0  0  0
    2.9128  -48.3122  -24.2514 C   0  0  0  0  0  0  0  0  0  0  0  0
    3.1858  -48.8062  -25.9128 Cl  0  0  0  0  0  0  0  0  0  0  0  0
    0.5801  -51.6038  -18.7919 C   0  0  0  0  0  0  0  0  0  0  0  0
    0.4122  -51.4437  -17.6120 C   0  0  0  0  0  0  0  0  0  0  0  0
    0.2288  -51.2624  -16.1778 C   0  0  0  0  0  0  0  0  0  0  0  0
    0.8662  -50.0197  -15.7961 N   0  0  0  0  0  0  0  0  0  0  0  0
    2.2701  -49.8066  -15.6335 C   0  0  0  0  0  0  0  0  0  0  0  0
    3.1780  -50.5730  -16.0551 O   0  0  0  0  0  0  0  0  0  0  0  0
    2.5118  -48.5421  -14.8904 C   0  0  0  0  0  0  0  0  0  0  0  0
    1.1421  -47.9854  -14.6194 C   0  0  0  0  0  0  0  0  0  0  0  0
    0.2268  -48.7734  -15.5092 C   0  0  0  0  0  0  0  0  0  0  0  0
   -0.9100  -48.4367  -15.9492 O   0  0  0  0  0  0  0  0  0  0  0  0
  1  2  1  0  0  0
  2  3  2  0  0  0
  3  4  1  0  0  0
  4  5  2  0  0  0
  5  6  1  0  0  0
  6  7  1  0  0  0
  7  8  2  0  0  0
  8  9  1  0  0  0
  9 10  1  0  0  0
 10 11  2  0  0  0
 11 12  1  0  0  0
 12 13  1  0  0  0
 13 14  1  0  0  0
 11 22  1  0  0  0
 22 23  3  0  0  0
 23 24  1  0  0  0
 24 25  1  0  0  0
 25 26  1  0  0  0
 26 27  2  0  0  0
 26 28  1  0  0  0
 28 29  1  0  0  0
 29 30  1  0  0  0
 30 31  2  0  0  0
  8 15  1  0  0  0
 15 16  2  0  0  0
 16 17  1  0  0  0
 17 18  2  0  0  0
 18 19  1  0  0  0
 19 20  2  0  0  0
 20 21  1  0  0  0
 14  2  1  0  0  0
 30 25  1  0  0  0
 20 15  1  0  0  0
 14  5  1  0  0  0
 13  9  2  0  0  0
M  END
> <minimizedAffinity>
-6.56639

> <CNNscore>
0.2412849963

> <CNNaffinity>
6.8255906105

> <CNN_VS>
1.6469125748

> <CNNaffinity_variance>
0.4003057480

$$$$
[H]c1c(OC([H])([H])[H])c([H])c2c(N([H])[H])nc(N([H])[H])nc2c1OC([H])([H])[H]


 20 21  0  0  0  0  0  0  0  0999 V2000
    0.6995  -50.7347  -21.2413 C   0  0  0  0  0  0  0  0  0  0  0  0
    1.1034  -50.7447  -22.5709 C   0  0  0  0  0  0  0  0  0  0  0  0
    0.7666  -51.7693  -23.4276 C   0  0  0  0  0  0  0  0  0  0  0  0
   -0.0016  -52.8405  -22.9725 C   0  0  0  0  0  0  0  0  0  0  0  0
   -0.3490  -53.8615  -23.7878 N   0  0  0  0  0  0  0  0  0  0  0  0
   -1.0917  -54.8821  -23.3194 C   0  0  0  0  0  0  0  0  0  0  0  0
   -1.4545  -55.9534  -24.1802 N   0  0  0  0  0  0  0  0  0  0  0  0
   -1.4937  -54.8880  -22.0255 N   0  0  0  0  0  0  0  0  0  0  0  0
   -1.1818  -53.9081  -21.1732 C   0  0  0  0  0  0  0  0  0  0  0  0
   -1.5732  -53.8625  -19.8163 N   0  0  0  0  0  0  0  0  0  0  0  0
   -0.4127  -52.8501  -21.6565 C   0  0  0  0  0  0  0  0  0  0  0  0
   -0.0560  -51.8055  -20.8264 C   0  0  0  0  0  0  0  0  0  0  0  0
   -1.8520  -55.8217  -25.1357 H   0  0  0  0  0  0  0  0  0  0  0  0
   -1.3247  -56.9446  -23.8591 H   0  0  0  0  0  0  0  0  0  0  0  0
   -0.9231  -54.0064  -19.0254 H   0  0  0  0  0  0  0  0  0  0  0  0
   -2.5675  -53.6746  -19.6004 H   0  0  0  0  0  0  0  0  0  0  0  0
    1.3259  -48.4091  -20.9132 C   0  0  0  0  0  0  0  0  0  0  0  0
    1.0470  -49.6901  -20.3815 O   0  0  0  0  0  0  0  0  0  0  0  0
    1.1913  -51.7328  -24.7364 O   0  0  0  0  0  0  0  0  0  0  0  0
    2.2183  -50.8457  -25.1060 C   0  0  0  0  0  0  0  0  0  0  0  0
 17 18  1  0  0  0
 18  1  1  0  0  0
  1  2  2  0  0  0
  2  3  1  0  0  0
  3 19  1  0  0  0
 19 20  1  0  0  0
  3  4  2  0  0  0
  4  5  1  0  0  0
  5  6  2  0  0  0
  6  7  1  0  0  0
  6  8  1  0  0  0
  8  9  2  0  0  0
  9 10  1  0  0  0
  9 11  1  0  0  0
 11 12  2  0  0  0
 12  1  1  0  0  0
 11  4  1  0  0  0
  7 13  1  0  0  0
  7 14  1  0  0  0
 10 15  1  0  0  0
 10 16  1  0  0  0
M  END
> <minimizedAffinity>
-6.42915

> <CNNscore>
0.9664955735

> <CNNaffinity>
5.5022444725

> <CNN_VS>
5.3178949356

> <CNNaffinity_variance>
0.1809521019

$$$$
[H]c1c(OC([H])([H])[H])c([H])c2c(N([H])[H])nc(N([H])[H])nc2c1OC([H])([H])[H]


 20 21  0  0  0  0  0  0  0  0999 V2000
    0.7246  -52.7917  -25.6314 C   0  0  0  0  0  0  0  0  0  0  0  0
    1.0692  -51.7352  -24.7972 C   0  0  0  0  0  0  0  0  0  0  0  0
    0.7052  -51.7059  -23.4690 C   0  0  0  0  0  0  0  0  0  0  0  0
   -0.0314  -52.7552  -22.9203 C   0  0  0  0  0  0  0  0  0  0  0  0
   -0.4042  -52.7567  -21.6207 N   0  0  0  0  0  0  0  0  0  0  0  0
   -1.1152  -53.7843  -21.1194 C   0  0  0  0  0  0  0  0  0  0  0  0
   -1.5050  -53.7817  -19.7525 N   0  0  0  0  0  0  0  0  0  0  0  0
   -1.4596  -54.8224  -21.9191 N   0  0  0  0  0  0  0  0  0  0  0  0
   -1.1202  -54.8767  -23.2099 C   0  0  0  0  0  0  0  0  0  0  0  0
   -1.4516  -55.9323  -24.0886 N   0  0  0  0  0  0  0  0  0  0  0  0
   -0.3837  -53.8134  -23.7309 C   0  0  0  0  0  0  0  0  0  0  0  0
   -0.0012  -53.8085  -25.0579 C   0  0  0  0  0  0  0  0  0  0  0  0
   -0.8567  -53.5665  -18.9640 H   0  0  0  0  0  0  0  0  0  0  0  0
   -2.4979  -54.0062  -19.4951 H   0  0  0  0  0  0  0  0  0  0  0  0
   -2.1506  -55.8517  -24.8461 H   0  0  0  0  0  0  0  0  0  0  0  0
   -0.9675  -56.8388  -23.9681 H   0  0  0  0  0  0  0  0  0  0  0  0
    0.5185  -53.7583  -27.8521 C   0  0  0  0  0  0  0  0  0  0  0  0
    1.0993  -52.8106  -26.9769 O   0  0  0  0  0  0  0  0  0  0  0  0
    1.0712  -50.6363  -22.6839 O   0  0  0  0  0  0  0  0  0  0  0  0
    2.2527  -49.9330  -22.9799 C   0  0  0  0  0  0  0  0  0  0  0  0
 17 18  1  0  0  0
 18  1  1  0  0  0
  1  2  2  0  0  0
  2  3  1  0  0  0
  3 19  1  0  0  0
 19 20  1  0  0  0
  3  4  2  0  0  0
  4  5  1  0  0  0
  5  6  2  0  0  0
  6  7  1  0  0  0
  6  8  1  0  0  0
  8  9  2  0  0  0
  9 10  1  0  0  0
  9 11  1  0  0  0
 11 12  2  0  0  0
 12  1  1  0  0  0
 11  4  1  0  0  0
  7 13  1  0  0  0
  7 14  1  0  0  0
 10 15  1  0  0  0
 10 16  1  0  0  0
M  END
> <minimizedAffinity>
-6.63772

> <CNNscore>
0.9278087616

> <CNNaffinity>
5.4668526649

> <CNN_VS>
5.0721936226

> <CNNaffinity_variance>
0.3550872207

$$$$
[H]c1c(OC([H])([H])[H])c([H])c2c(N([H])[H])nc(N([H])[H])nc2c1OC([H])([H])[H]


 20 21  0  0  0  0  0  0  0  0999 V2000
    0.8411  -52.3341  -24.9433 C   0  0  0  0  0  0  0  0  0  0  0  0
    1.3862  -51.4112  -24.0590 C   0  0  0  0  0  0  0  0  0  0  0  0
    1.1214  -51.4513  -22.7078 C   0  0  0  0  0  0  0  0  0  0  0  0
    0.2845  -52.4372  -22.1861 C   0  0  0  0  0  0  0  0  0  0  0  0
    0.0047  -52.5040  -20.8650 N   0  0  0  0  0  0  0  0  0  0  0  0
   -0.8072  -53.4677  -20.3907 C   0  0  0  0  0  0  0  0  0  0  0  0
   -1.0987  -53.5341  -19.0011 N   0  0  0  0  0  0  0  0  0  0  0  0
   -1.3472  -54.3755  -21.2393 N   0  0  0  0  0  0  0  0  0  0  0  0
   -1.1076  -54.3601  -22.5533 C   0  0  0  0  0  0  0  0  0  0  0  0
   -1.6426  -55.2799  -23.4829 N   0  0  0  0  0  0  0  0  0  0  0  0
   -0.2669  -53.3628  -23.0464 C   0  0  0  0  0  0  0  0  0  0  0  0
    0.0211  -53.2915  -24.3952 C   0  0  0  0  0  0  0  0  0  0  0  0
   -0.3743  -53.4782  -18.2523 H   0  0  0  0  0  0  0  0  0  0  0  0
   -2.0932  -53.6458  -18.6837 H   0  0  0  0  0  0  0  0  0  0  0  0
   -2.3735  -55.0398  -24.1735 H   0  0  0  0  0  0  0  0  0  0  0  0
   -1.2830  -56.2501  -23.4728 H   0  0  0  0  0  0  0  0  0  0  0  0
    0.1002  -52.6015  -27.2428 C   0  0  0  0  0  0  0  0  0  0  0  0
    1.1168  -52.2836  -26.3117 O   0  0  0  0  0  0  0  0  0  0  0  0
    1.6861  -50.5141  -21.8729 O   0  0  0  0  0  0  0  0  0  0  0  0
    0.9313  -49.3946  -21.4786 C   0  0  0  0  0  0  0  0  0  0  0  0
 17 18  1  0  0  0
 18  1  1  0  0  0
  1  2  2  0  0  0
  2  3  1  0  0  0
  3 19  1  0  0  0
 19 20  1  0  0  0
  3  4  2  0  0  0
  4  5  1  0  0  0
  5  6  2  0  0  0
  6  7  1  0  0  0
  6  8  1  0  0  0
  8  9  2  0  0  0
  9 10  1  0  0  0
  9 11  1  0  0  0
 11 12  2  0  0  0
 12  1  1  0  0  0
 11  4  1  0  0  0
  7 13  1  0  0  0
  7 14  1  0  0  0
 10 15  1  0  0  0
 10 16  1  0  0  0
M  END
> <minimizedAffinity>
-6.12425

> <CNNscore>
0.8500886559

> <CNNaffinity>
5.4394998550

> <CNN_VS>
4.6240572929

> <CNNaffinity_variance>
0.3173537254

$$$$
[H]c1c(OC([H])([H])[H])c([H])c2c(N([H])[H])nc(N([H])[H])nc2c1OC([H])([H])[H]


 20 21  0  0  0  0  0  0  0  0999 V2000
   -0.9063  -53.8835  -21.4905 C   0  0  0  0  0  0  0  0  0  0  0  0
   -0.2175  -52.9410  -22.2442 C   0  0  0  0  0  0  0  0  0  0  0  0
    0.3325  -51.8132  -21.6759 C   0  0  0  0  0  0  0  0  0  0  0  0
    0.2085  -51.5866  -20.3055 C   0  0  0  0  0  0  0  0  0  0  0  0
    0.7366  -50.4899  -19.7171 N   0  0  0  0  0  0  0  0  0  0  0  0
    0.6005  -50.2984  -18.3914 C   0  0  0  0  0  0  0  0  0  0  0  0
    1.1573  -49.1439  -17.7770 N   0  0  0  0  0  0  0  0  0  0  0  0
   -0.0684  -51.2076  -17.6418 N   0  0  0  0  0  0  0  0  0  0  0  0
   -0.6114  -52.3094  -18.1664 C   0  0  0  0  0  0  0  0  0  0  0  0
   -1.3181  -53.2893  -17.4338 N   0  0  0  0  0  0  0  0  0  0  0  0
   -0.4714  -52.5095  -19.5393 C   0  0  0  0  0  0  0  0  0  0  0  0
   -1.0095  -53.6286  -20.1437 C   0  0  0  0  0  0  0  0  0  0  0  0
    2.1326  -48.8118  -17.9412 H   0  0  0  0  0  0  0  0  0  0  0  0
    0.5735  -48.5749  -17.1153 H   0  0  0  0  0  0  0  0  0  0  0  0
   -2.3413  -53.4247  -17.4934 H   0  0  0  0  0  0  0  0  0  0  0  0
   -0.7818  -53.9077  -16.8009 H   0  0  0  0  0  0  0  0  0  0  0  0
   -1.2191  -55.2937  -23.4455 C   0  0  0  0  0  0  0  0  0  0  0  0
   -1.4598  -55.0236  -22.0778 O   0  0  0  0  0  0  0  0  0  0  0  0
    1.0058  -50.9092  -22.4657 O   0  0  0  0  0  0  0  0  0  0  0  0
    1.1893  -51.1866  -23.8324 C   0  0  0  0  0  0  0  0  0  0  0  0
 17 18  1  0  0  0
 18  1  1  0  0  0
  1  2  2  0  0  0
  2  3  1  0  0  0
  3 19  1  0  0  0
 19 20  1  0  0  0
  3  4  2  0  0  0
  4  5  1  0  0  0
  5  6  2  0  0  0
  6  7  1  0  0  0
  6  8  1  0  0  0
  8  9  2  0  0  0
  9 10  1  0  0  0
  9 11  1  0  0  0
 11 12  2  0  0  0
 12  1  1  0  0  0
 11  4  1  0  0  0
  7 13  1  0  0  0
  7 14  1  0  0  0
 10 15  1  0  0  0
 10 16  1  0  0  0
M  END
> <minimizedAffinity>
-6.14813

> <CNNscore>
0.7835139036

> <CNNaffinity>
4.9175901413

> <CNN_VS>
3.8530001640

> <CNNaffinity_variance>
0.1176030859

$$$$
[H]c1c(OC([H])([H])[H])c([H])c2c(N([H])[H])nc(N([H])[H])nc2c1OC([H])([H])[H]


 20 21  0  0  0  0  0  0  0  0999 V2000
    0.8018  -51.8242  -23.0332 C   0  0  0  0  0  0  0  0  0  0  0  0
    0.0385  -52.9853  -23.0492 C   0  0  0  0  0  0  0  0  0  0  0  0
   -0.5452  -53.4901  -21.9083 C   0  0  0  0  0  0  0  0  0  0  0  0
   -0.3808  -52.8359  -20.6878 C   0  0  0  0  0  0  0  0  0  0  0  0
   -0.9404  -53.3053  -19.5501 N   0  0  0  0  0  0  0  0  0  0  0  0
   -0.7639  -52.6515  -18.3865 C   0  0  0  0  0  0  0  0  0  0  0  0
   -1.3541  -53.1487  -17.1928 N   0  0  0  0  0  0  0  0  0  0  0  0
   -0.0224  -51.5179  -18.3532 N   0  0  0  0  0  0  0  0  0  0  0  0
    0.5548  -51.0063  -19.4438 C   0  0  0  0  0  0  0  0  0  0  0  0
    1.3370  -49.8299  -19.4674 N   0  0  0  0  0  0  0  0  0  0  0  0
    0.3730  -51.6820  -20.6499 C   0  0  0  0  0  0  0  0  0  0  0  0
    0.9432  -51.2054  -21.8140 C   0  0  0  0  0  0  0  0  0  0  0  0
   -2.3503  -53.4496  -17.1190 H   0  0  0  0  0  0  0  0  0  0  0  0
   -0.7748  -53.2275  -16.3206 H   0  0  0  0  0  0  0  0  0  0  0  0
    2.3627  -49.8241  -19.5967 H   0  0  0  0  0  0  0  0  0  0  0  0
    0.8567  -48.9211  -19.3484 H   0  0  0  0  0  0  0  0  0  0  0  0
    2.0944  -52.1943  -25.0582 C   0  0  0  0  0  0  0  0  0  0  0  0
    1.3890  -51.3216  -24.1967 O   0  0  0  0  0  0  0  0  0  0  0  0
   -1.2924  -54.6440  -21.9764 O   0  0  0  0  0  0  0  0  0  0  0  0
   -1.3754  -55.3436  -23.1939 C   0  0  0  0  0  0  0  0  0  0  0  0
 17 18  1  0  0  0
 18  1  1  0  0  0
  1  2  2  0  0  0
  2  3  1  0  0  0
  3 19  1  0  0  0
 19 20  1  0  0  0
  3  4  2  0  0  0
  4  5  1  0  0  0
  5  6  2  0  0  0
  6  7  1  0  0  0
  6  8  1  0  0  0
  8  9  2  0  0  0
  9 10  1  0  0  0
  9 11  1  0  0  0
 11 12  2  0  0  0
 12  1  1  0  0  0
 11  4  1  0  0  0
  7 13  1  0  0  0
  7 14  1  0  0  0
 10 15  1  0  0  0
 10 16  1  0  0  0
M  END
> <minimizedAffinity>
-5.73466

> <CNNscore>
0.7050337195

> <CNNaffinity>
4.9665451050

> <CNN_VS>
3.5015816689

> <CNNaffinity_variance>
0.1766637117

$$$$
[H]c1c(OC([H])([H])[H])c([H])c2c(N([H])[H])nc(N([H])[H])nc2c1OC([H])([H])[H]


 20 21  0  0  0  0  0  0  0  0999 V2000
    0.9064  -50.1541  -20.3709 C   0  0  0  0  0  0  0  0  0  0  0  0
    0.3719  -50.9920  -19.3997 C   0  0  0  0  0  0  0  0  0  0  0  0
   -0.1964  -52.2061  -19.7164 C   0  0  0  0  0  0  0  0  0  0  0  0
   -0.2500  -52.6306  -21.0437 C   0  0  0  0  0  0  0  0  0  0  0  0
   -0.8010  -53.8164  -21.3876 N   0  0  0  0  0  0  0  0  0  0  0  0
   -0.8381  -54.1992  -22.6779 C   0  0  0  0  0  0  0  0  0  0  0  0
   -1.4184  -55.4466  -23.0349 N   0  0  0  0  0  0  0  0  0  0  0  0
   -0.3215  -53.3940  -23.6375 N   0  0  0  0  0  0  0  0  0  0  0  0
    0.2352  -52.2123  -23.3588 C   0  0  0  0  0  0  0  0  0  0  0  0
    0.7883  -51.3337  -24.3172 N   0  0  0  0  0  0  0  0  0  0  0  0
    0.2747  -51.8141  -22.0230 C   0  0  0  0  0  0  0  0  0  0  0  0
    0.8367  -50.6036  -21.6681 C   0  0  0  0  0  0  0  0  0  0  0  0
   -1.2044  -56.3463  -22.5519 H   0  0  0  0  0  0  0  0  0  0  0  0
   -2.1054  -55.4921  -23.8276 H   0  0  0  0  0  0  0  0  0  0  0  0
    0.3517  -50.4393  -24.5967 H   0  0  0  0  0  0  0  0  0  0  0  0
    1.6819  -51.5998  -24.7660 H   0  0  0  0  0  0  0  0  0  0  0  0
    2.1768  -48.1875  -21.0240 C   0  0  0  0  0  0  0  0  0  0  0  0
    1.4804  -48.9250  -20.0379 O   0  0  0  0  0  0  0  0  0  0  0  0
   -0.7122  -53.0002  -18.7176 O   0  0  0  0  0  0  0  0  0  0  0  0
   -0.9498  -52.4465  -17.4466 C   0  0  0  0  0  0  0  0  0  0  0  0
 17 18  1  0  0  0
 18  1  1  0  0  0
  1  2  2  0  0  0
  2  3  1  0  0  0
  3 19  1  0  0  0
 19 20  1  0  0  0
  3  4  2  0  0  0
  4  5  1  0  0  0
  5  6  2  0  0  0
  6  7  1  0  0  0
  6  8  1  0  0  0
  8  9  2  0  0  0
  9 10  1  0  0  0
  9 11  1  0  0  0
 11 12  2  0  0  0
 12  1  1  0  0  0
 11  4  1  0  0  0
  7 13  1  0  0  0
  7 14  1  0  0  0
 10 15  1  0  0  0
 10 16  1  0  0  0
M  END
> <minimizedAffinity>
-5.47482

> <CNNscore>
0.6598781943

> <CNNaffinity>
4.8821954727

> <CNN_VS>
3.2216544151

> <CNNaffinity_variance>
0.1600084603

$$$$
[H]c1c(OC([H])([H])[H])c([H])c2c(N([H])[H])nc(N([H])[H])nc2c1OC([H])([H])[H]


 20 21  0  0  0  0  0  0  0  0999 V2000
    1.8619  -50.3970  -22.9968 C   0  0  0  0  0  0  0  0  0  0  0  0
    1.6896  -51.0484  -21.7815 C   0  0  0  0  0  0  0  0  0  0  0  0
    0.9661  -52.2157  -21.6758 C   0  0  0  0  0  0  0  0  0  0  0  0
    0.3786  -52.7816  -22.8068 C   0  0  0  0  0  0  0  0  0  0  0  0
   -0.3376  -53.9262  -22.7369 N   0  0  0  0  0  0  0  0  0  0  0  0
   -0.8931  -54.4487  -23.8465 C   0  0  0  0  0  0  0  0  0  0  0  0
   -1.6452  -55.6522  -23.7682 N   0  0  0  0  0  0  0  0  0  0  0  0
   -0.7349  -53.8262  -25.0395 N   0  0  0  0  0  0  0  0  0  0  0  0
   -0.0388  -52.6937  -25.1708 C   0  0  0  0  0  0  0  0  0  0  0  0
    0.1582  -52.0030  -26.3875 N   0  0  0  0  0  0  0  0  0  0  0  0
    0.5373  -52.1511  -24.0227 C   0  0  0  0  0  0  0  0  0  0  0  0
    1.2695  -50.9821  -24.0905 C   0  0  0  0  0  0  0  0  0  0  0  0
   -1.3203  -56.5088  -23.2691 H   0  0  0  0  0  0  0  0  0  0  0  0
   -2.5858  -55.7081  -24.2315 H   0  0  0  0  0  0  0  0  0  0  0  0
   -0.2937  -51.1018  -26.6166 H   0  0  0  0  0  0  0  0  0  0  0  0
    0.7910  -52.4223  -27.0907 H   0  0  0  0  0  0  0  0  0  0  0  0
    3.9403  -49.2577  -23.5359 C   0  0  0  0  0  0  0  0  0  0  0  0
    2.5978  -49.2135  -23.0919 O   0  0  0  0  0  0  0  0  0  0  0  0
    0.8245  -52.8229  -20.4488 O   0  0  0  0  0  0  0  0  0  0  0  0
    0.3252  -52.0809  -19.3631 C   0  0  0  0  0  0  0  0  0  0  0  0
 17 18  1  0  0  0
 18  1  1  0  0  0
  1  2  2  0  0  0
  2  3  1  0  0  0
  3 19  1  0  0  0
 19 20  1  0  0  0
  3  4  2  0  0  0
  4  5  1  0  0  0
  5  6  2  0  0  0
  6  7  1  0  0  0
  6  8  1  0  0  0
  8  9  2  0  0  0
  9 10  1  0  0  0
  9 11  1  0  0  0
 11 12  2  0  0  0
 12  1  1  0  0  0
 11  4  1  0  0  0
  7 13  1  0  0  0
  7 14  1  0  0  0
 10 15  1  0  0  0
 10 16  1  0  0  0
M  END
> <minimizedAffinity>
-5.58465

> <CNNscore>
0.5138392448

> <CNNaffinity>
5.0969095230

> <CNN_VS>
2.6189920902

> <CNNaffinity_variance>
0.2286594361

$$$$
[H]c1c(OC([H])([H])[H])c([H])c2c(N([H])[H])nc(N([H])[H])nc2c1OC([H])([H])[H]


 20 21  0  0  0  0  0  0  0  0999 V2000
    0.0393  -52.1448  -21.7998 C   0  0  0  0  0  0  0  0  0  0  0  0
    0.8930  -51.3332  -22.5370 C   0  0  0  0  0  0  0  0  0  0  0  0
    1.2052  -51.6060  -23.8505 C   0  0  0  0  0  0  0  0  0  0  0  0
    0.6620  -52.7237  -24.4831 C   0  0  0  0  0  0  0  0  0  0  0  0
    0.9484  -53.0192  -25.7709 N   0  0  0  0  0  0  0  0  0  0  0  0
    0.4084  -54.1057  -26.3547 C   0  0  0  0  0  0  0  0  0  0  0  0
    0.7124  -54.4126  -27.7088 N   0  0  0  0  0  0  0  0  0  0  0  0
   -0.4259  -54.9078  -25.6501 N   0  0  0  0  0  0  0  0  0  0  0  0
   -0.7457  -54.6672  -24.3758 C   0  0  0  0  0  0  0  0  0  0  0  0
   -1.6087  -55.4679  -23.5944 N   0  0  0  0  0  0  0  0  0  0  0  0
   -0.1875  -53.5423  -23.7695 C   0  0  0  0  0  0  0  0  0  0  0  0
   -0.4779  -53.2374  -22.4542 C   0  0  0  0  0  0  0  0  0  0  0  0
    0.6786  -53.7153  -28.4841 H   0  0  0  0  0  0  0  0  0  0  0  0
    0.9899  -55.3909  -27.9701 H   0  0  0  0  0  0  0  0  0  0  0  0
   -1.2871  -56.0746  -22.8216 H   0  0  0  0  0  0  0  0  0  0  0  0
   -2.6211  -55.4467  -23.8070 H   0  0  0  0  0  0  0  0  0  0  0  0
   -0.2194  -52.8887  -19.5003 C   0  0  0  0  0  0  0  0  0  0  0  0
   -0.2703  -51.8582  -20.4682 O   0  0  0  0  0  0  0  0  0  0  0  0
    2.0563  -50.7708  -24.5380 O   0  0  0  0  0  0  0  0  0  0  0  0
    2.8926  -49.8943  -23.8231 C   0  0  0  0  0  0  0  0  0  0  0  0
 17 18  1  0  0  0
 18  1  1  0  0  0
  1  2  2  0  0  0
  2  3  1  0  0  0
  3 19  1  0  0  0
 19 20  1  0  0  0
  3  4  2  0  0  0
  4  5  1  0  0  0
  5  6  2  0  0  0
  6  7  1  0  0  0
  6  8  1  0  0  0
  8  9  2  0  0  0
  9 10  1  0  0  0
  9 11  1  0  0  0
 11 12  2  0  0  0
 12  1  1  0  0  0
 11  4  1  0  0  0
  7 13  1  0  0  0
  7 14  1  0  0  0
 10 15  1  0  0  0
 10 16  1  0  0  0
M  END
> <minimizedAffinity>
-6.26580

> <CNNscore>
0.4586883187

> <CNNaffinity>
5.2589673996

> <CNN_VS>
2.4122269154

> <CNNaffinity_variance>
0.2240941525

$$$$
[H]c1c(OC([H])([H])[H])c([H])c2c(N([H])[H])nc(N([H])[H])nc2c1OC([H])([H])[H]


 20 21  0  0  0  0  0  0  0  0999 V2000
    3.2299  -51.4980  -22.5537 C   0  0  0  0  0  0  0  0  0  0  0  0
    3.6546  -51.4311  -21.2323 C   0  0  0  0  0  0  0  0  0  0  0  0
    2.8335  -51.7827  -20.1837 C   0  0  0  0  0  0  0  0  0  0  0  0
    1.5328  -52.2219  -20.4281 C   0  0  0  0  0  0  0  0  0  0  0  0
    0.7020  -52.5742  -19.4213 N   0  0  0  0  0  0  0  0  0  0  0  0
   -0.5489  -52.9945  -19.6886 C   0  0  0  0  0  0  0  0  0  0  0  0
   -1.4189  -53.3638  -18.6270 N   0  0  0  0  0  0  0  0  0  0  0  0
   -0.9790  -53.0655  -20.9715 N   0  0  0  0  0  0  0  0  0  0  0  0
   -0.2045  -52.7311  -22.0071 C   0  0  0  0  0  0  0  0  0  0  0  0
   -0.5999  -52.7855  -23.3624 N   0  0  0  0  0  0  0  0  0  0  0  0
    1.0914  -52.2955  -21.7322 C   0  0  0  0  0  0  0  0  0  0  0  0
    1.9427  -51.9349  -22.7581 C   0  0  0  0  0  0  0  0  0  0  0  0
   -1.1442  -53.9967  -17.8443 H   0  0  0  0  0  0  0  0  0  0  0  0
   -2.4004  -52.9915  -18.6063 H   0  0  0  0  0  0  0  0  0  0  0  0
   -0.7848  -51.9492  -23.9413 H   0  0  0  0  0  0  0  0  0  0  0  0
   -0.7112  -53.7156  -23.8021 H   0  0  0  0  0  0  0  0  0  0  0  0
    4.2711  -52.0386  -24.6826 C   0  0  0  0  0  0  0  0  0  0  0  0
    4.0715  -51.1389  -23.6092 O   0  0  0  0  0  0  0  0  0  0  0  0
    3.3014  -51.6990  -18.8920 O   0  0  0  0  0  0  0  0  0  0  0  0
    3.6608  -50.4449  -18.3662 C   0  0  0  0  0  0  0  0  0  0  0  0
 17 18  1  0  0  0
 18  1  1  0  0  0
  1  2  2  0  0  0
  2  3  1  0  0  0
  3 19  1  0  0  0
 19 20  1  0  0  0
  3  4  2  0  0  0
  4  5  1  0  0  0
  5  6  2  0  0  0
  6  7  1  0  0  0
  6  8  1  0  0  0
  8  9  2  0  0  0
  9 10  1  0  0  0
  9 11  1  0  0  0
 11 12  2  0  0  0
 12  1  1  0  0  0
 11  4  1  0  0  0
  7 13  1  0  0  0
  7 14  1  0  0  0
 10 15  1  0  0  0
 10 16  1  0  0  0
M  END
> <minimizedAffinity>
-5.32426

> <CNNscore>
0.4560446739

> <CNNaffinity>
4.6222333908

> <CNN_VS>
2.1079449654

> <CNNaffinity_variance>
0.2454200089

$$$$
[H]OC1(c2c([H])c([H])c([H])c([H])c2[H])C([H])([H])C([H])([H])N(C([H])([H])C([H])([H])C([H])(/C(=N/OC([H])([H])[H])C([H])([H])OC([H])([H])c2c([H])c(C(F)(F)F)c([H])c(C(F)(F)F)c2[H])c2c([H])c([H])c(Cl)c(Cl)c2[H])C([H])([H])C1([H])[H]


 46 49  0  0  0  0  0  0  0  0999 V2000
    2.8077  -50.5857  -21.8693 C   0  0  0  0  0  0  0  0  0  0  0  0
    1.5393  -51.2976  -21.5475 C   0  0  0  0  0  0  0  0  0  0  0  0
    0.7905  -51.7349  -22.6545 C   0  0  0  0  0  0  0  0  0  0  0  0
   -0.3353  -52.4651  -22.4677 C   0  0  0  0  0  0  0  0  0  0  0  0
   -0.7469  -52.7686  -21.1601 C   0  0  0  0  0  0  0  0  0  0  0  0
   -2.1852  -53.7166  -20.8623 Cl  0  0  0  0  0  0  0  0  0  0  0  0
   -0.0042  -52.3225  -20.0739 C   0  0  0  0  0  0  0  0  0  0  0  0
   -0.4705  -52.7211  -18.4587 Cl  0  0  0  0  0  0  0  0  0  0  0  0
    1.1287  -51.5977  -20.3042 C   0  0  0  0  0  0  0  0  0  0  0  0
    2.5984  -48.4590  -20.8698 N   0  0  0  0  0  0  0  0  0  0  0  0
    3.1180  -49.6397  -20.7500 C   0  0  0  0  0  0  0  0  0  0  0  0
    3.6962  -46.3887  -20.9827 C   0  0  0  0  0  0  0  0  0  0  0  0
    3.0721  -47.3676  -20.1051 O   0  0  0  0  0  0  0  0  0  0  0  0
    4.1773  -49.9151  -19.8171 C   0  0  0  0  0  0  0  0  0  0  0  0
    3.8684  -50.5497  -18.6291 O   0  0  0  0  0  0  0  0  0  0  0  0
    3.6383  -49.5879  -17.6631 C   0  0  0  0  0  0  0  0  0  0  0  0
    2.8071  -50.1993  -16.5894 C   0  0  0  0  0  0  0  0  0  0  0  0
    1.4749  -50.1360  -16.5270 C   0  0  0  0  0  0  0  0  0  0  0  0
    0.8035  -50.8003  -15.4745 C   0  0  0  0  0  0  0  0  0  0  0  0
    1.5585  -51.4908  -14.5473 C   0  0  0  0  0  0  0  0  0  0  0  0
    2.9257  -51.5641  -14.5928 C   0  0  0  0  0  0  0  0  0  0  0  0
    3.5392  -50.9087  -15.6212 C   0  0  0  0  0  0  0  0  0  0  0  0
    3.7600  -52.3378  -13.6729 C   0  0  0  0  0  0  0  0  0  0  0  0
    4.6016  -53.2280  -14.3036 F   0  0  0  0  0  0  0  0  0  0  0  0
    2.9308  -53.0306  -12.7790 F   0  0  0  0  0  0  0  0  0  0  0  0
    4.5277  -51.4028  -12.9700 F   0  0  0  0  0  0  0  0  0  0  0  0
   -0.6548  -50.8342  -15.3483 C   0  0  0  0  0  0  0  0  0  0  0  0
   -1.2495  -50.2605  -16.4709 F   0  0  0  0  0  0  0  0  0  0  0  0
   -1.1323  -50.2461  -14.2006 F   0  0  0  0  0  0  0  0  0  0  0  0
   -1.0486  -52.1667  -15.2874 F   0  0  0  0  0  0  0  0  0  0  0  0
    3.8927  -51.4100  -22.4017 C   0  0  0  0  0  0  0  0  0  0  0  0
    4.4656  -50.6655  -23.6217 C   0  0  0  0  0  0  0  0  0  0  0  0
    4.0752  -51.3380  -24.8046 N   0  0  0  0  0  0  0  0  0  0  0  0
    3.7765  -52.7219  -24.7251 C   0  0  0  0  0  0  0  0  0  0  0  0
    2.4584  -53.1174  -25.3189 C   0  0  0  0  0  0  0  0  0  0  0  0
    2.2905  -52.6276  -26.7034 C   0  0  0  0  0  0  0  0  0  0  0  0
    3.0438  -53.3956  -27.5774 O   0  0  0  0  0  0  0  0  0  0  0  0
    2.8399  -51.1803  -26.8263 C   0  0  0  0  0  0  0  0  0  0  0  0
    3.0105  -50.5937  -25.4860 C   0  0  0  0  0  0  0  0  0  0  0  0
    3.5601  -52.8043  -28.2212 H   0  0  0  0  0  0  0  0  0  0  0  0
    0.9257  -52.4957  -27.2253 C   0  0  0  0  0  0  0  0  0  0  0  0
   -0.0726  -52.2633  -26.2881 C   0  0  0  0  0  0  0  0  0  0  0  0
   -1.4059  -52.3207  -26.6341 C   0  0  0  0  0  0  0  0  0  0  0  0
   -1.7469  -52.6077  -27.9273 C   0  0  0  0  0  0  0  0  0  0  0  0
   -0.7918  -52.8346  -28.8853 C   0  0  0  0  0  0  0  0  0  0  0  0
    0.5381  -52.7707  -28.5056 C   0  0  0  0  0  0  0  0  0  0  0  0
 12 13  1  0  0  0
 13 10  1  0  0  0
 10 11  2  0  0  0
 11 14  1  0  0  0
 14 15  1  0  0  0
 15 16  1  0  0  0
 16 17  1  0  0  0
 17 18  2  0  0  0
 18 19  1  0  0  0
 19 20  2  0  0  0
 20 21  1  0  0  0
 21 22  2  0  0  0
 21 23  1  0  0  0
 23 24  1  0  0  0
 23 25  1  0  0  0
 23 26  1  0  0  0
 19 27  1  0  0  0
 27 28  1  0  0  0
 27 29  1  0  0  0
 27 30  1  0  0  0
 11  1  1  0  0  0
  1 31  1  0  0  0
 31 32  1  0  0  0
 32 33  1  0  0  0
 33 34  1  0  0  0
 34 35  1  0  0  0
 35 36  1  0  0  0
 36 37  1  0  0  0
 36 38  1  0  0  0
 38 39  1  0  0  0
 36 41  1  0  0  0
 41 42  2  0  0  0
 42 43  1  0  0  0
 43 44  2  0  0  0
 44 45  1  0  0  0
 45 46  2  0  0  0
  1  2  1  0  0  0
  2  3  2  0  0  0
  3  4  1  0  0  0
  4  5  2  0  0  0
  5  6  1  0  0  0
  5  7  1  0  0  0
  7  8  1  0  0  0
  7  9  2  0  0  0
 22 17  1  0  0  0
 39 33  1  0  0  0
 46 41  1  0  0  0
  9  2  1  0  0  0
 37 40  1  0  0  0
M  END
> <minimizedAffinity>
-8.73274

> <CNNscore>
0.3724499941

> <CNNaffinity>
7.7450675964

> <CNN_VS>
2.8846504688

> <CNNaffinity_variance>
0.2465898991

$$$$
[H]OC1(c2c([H])c([H])c([H])c([H])c2[H])C([H])([H])C([H])([H])N(C([H])([H])C([H])([H])C([H])(/C(=N/OC([H])([H])[H])C([H])([H])OC([H])([H])c2c([H])c(C(F)(F)F)c([H])c(C(F)(F)F)c2[H])c2c([H])c([H])c(Cl)c(Cl)c2[H])C([H])([H])C1([H])[H]


 46 49  0  0  0  0  0  0  0  0999 V2000
    2.4684  -51.6687  -25.5053 C   0  0  0  0  0  0  0  0  0  0  0  0
    1.1643  -51.9658  -26.1612 C   0  0  0  0  0  0  0  0  0  0  0  0
    0.0232  -51.7569  -25.3666 C   0  0  0  0  0  0  0  0  0  0  0  0
   -1.2130  -51.9178  -25.8970 C   0  0  0  0  0  0  0  0  0  0  0  0
   -1.3377  -52.3038  -27.2412 C   0  0  0  0  0  0  0  0  0  0  0  0
   -2.9084  -52.5149  -27.9791 Cl  0  0  0  0  0  0  0  0  0  0  0  0
   -0.2027  -52.5171  -28.0137 C   0  0  0  0  0  0  0  0  0  0  0  0
   -0.3350  -52.9513  -29.6807 Cl  0  0  0  0  0  0  0  0  0  0  0  0
    1.0243  -52.3355  -27.4451 C   0  0  0  0  0  0  0  0  0  0  0  0
    2.9544  -49.5125  -26.3298 N   0  0  0  0  0  0  0  0  0  0  0  0
    2.5674  -50.1889  -25.2949 C   0  0  0  0  0  0  0  0  0  0  0  0
    4.8759  -48.1672  -26.3777 C   0  0  0  0  0  0  0  0  0  0  0  0
    3.4312  -48.1868  -26.2040 O   0  0  0  0  0  0  0  0  0  0  0  0
    2.5700  -49.6255  -23.9717 C   0  0  0  0  0  0  0  0  0  0  0  0
    1.4908  -49.8688  -23.1437 O   0  0  0  0  0  0  0  0  0  0  0  0
    1.7817  -49.3762  -21.8852 C   0  0  0  0  0  0  0  0  0  0  0  0
    1.1649  -50.2838  -20.8784 C   0  0  0  0  0  0  0  0  0  0  0  0
    1.0252  -50.0010  -19.5810 C   0  0  0  0  0  0  0  0  0  0  0  0
    0.3793  -50.9359  -18.7392 C   0  0  0  0  0  0  0  0  0  0  0  0
   -0.0826  -52.1115  -19.2972 C   0  0  0  0  0  0  0  0  0  0  0  0
    0.0545  -52.4206  -20.6247 C   0  0  0  0  0  0  0  0  0  0  0  0
    0.6853  -51.4955  -21.4058 C   0  0  0  0  0  0  0  0  0  0  0  0
   -0.4773  -53.6209  -21.2706 C   0  0  0  0  0  0  0  0  0  0  0  0
   -0.5060  -53.5434  -22.6460 F   0  0  0  0  0  0  0  0  0  0  0  0
   -1.7718  -53.8621  -20.7882 F   0  0  0  0  0  0  0  0  0  0  0  0
    0.3669  -54.6696  -20.8896 F   0  0  0  0  0  0  0  0  0  0  0  0
    0.1311  -50.6966  -17.3163 C   0  0  0  0  0  0  0  0  0  0  0  0
   -0.0518  -49.3349  -17.0809 F   0  0  0  0  0  0  0  0  0  0  0  0
    1.1042  -51.1995  -16.4849 F   0  0  0  0  0  0  0  0  0  0  0  0
   -1.0446  -51.3540  -16.9700 F   0  0  0  0  0  0  0  0  0  0  0  0
    2.8533  -52.5529  -24.4052 C   0  0  0  0  0  0  0  0  0  0  0  0
    4.3314  -52.9249  -24.6235 C   0  0  0  0  0  0  0  0  0  0  0  0
    5.1166  -52.3356  -23.6038 N   0  0  0  0  0  0  0  0  0  0  0  0
    6.0460  -51.3281  -23.9669 C   0  0  0  0  0  0  0  0  0  0  0  0
    5.9487  -50.0634  -23.1686 C   0  0  0  0  0  0  0  0  0  0  0  0
    5.9896  -50.3082  -21.7114 C   0  0  0  0  0  0  0  0  0  0  0  0
    7.2849  -50.5960  -21.3107 O   0  0  0  0  0  0  0  0  0  0  0  0
    5.1459  -51.5633  -21.3586 C   0  0  0  0  0  0  0  0  0  0  0  0
    4.2655  -51.9087  -22.4879 C   0  0  0  0  0  0  0  0  0  0  0  0
    7.2993  -51.4037  -20.6958 H   0  0  0  0  0  0  0  0  0  0  0  0
    5.4235  -49.2845  -20.8260 C   0  0  0  0  0  0  0  0  0  0  0  0
    4.9326  -49.7288  -19.6051 C   0  0  0  0  0  0  0  0  0  0  0  0
    4.2027  -48.8976  -18.7823 C   0  0  0  0  0  0  0  0  0  0  0  0
    3.9641  -47.6102  -19.1782 C   0  0  0  0  0  0  0  0  0  0  0  0
    4.4387  -47.1294  -20.3719 C   0  0  0  0  0  0  0  0  0  0  0  0
    5.1673  -47.9895  -21.1759 C   0  0  0  0  0  0  0  0  0  0  0  0
 12 13  1  0  0  0
 13 10  1  0  0  0
 10 11  2  0  0  0
 11 14  1  0  0  0
 14 15  1  0  0  0
 15 16  1  0  0  0
 16 17  1  0  0  0
 17 18  2  0  0  0
 18 19  1  0  0  0
 19 20  2  0  0  0
 20 21  1  0  0  0
 21 22  2  0  0  0
 21 23  1  0  0  0
 23 24  1  0  0  0
 23 25  1  0  0  0
 23 26  1  0  0  0
 19 27  1  0  0  0
 27 28  1  0  0  0
 27 29  1  0  0  0
 27 30  1  0  0  0
 11  1  1  0  0  0
  1 31  1  0  0  0
 31 32  1  0  0  0
 32 33  1  0  0  0
 33 34  1  0  0  0
 34 35  1  0  0  0
 35 36  1  0  0  0
 36 37  1  0  0  0
 36 38  1  0  0  0
 38 39  1  0  0  0
 36 41  1  0  0  0
 41 42  2  0  0  0
 42 43  1  0  0  0
 43 44  2  0  0  0
 44 45  1  0  0  0
 45 46  2  0  0  0
  1  2  1  0  0  0
  2  3  2  0  0  0
  3  4  1  0  0  0
  4  5  2  0  0  0
  5  6  1  0  0  0
  5  7  1  0  0  0
  7  8  1  0  0  0
  7  9  2  0  0  0
 22 17  1  0  0  0
 39 33  1  0  0  0
 46 41  1  0  0  0
  9  2  1  0  0  0
 37 40  1  0  0  0
M  END
> <minimizedAffinity>
-8.63511

> <CNNscore>
0.3218460977

> <CNNaffinity>
7.4561524391

> <CNN_VS>
2.3997335434

> <CNNaffinity_variance>
1.0014860630

$$$$
[H]OC1(c2c([H])c([H])c([H])c([H])c2[H])C([H])([H])C([H])([H])N(C([H])([H])C([H])([H])C([H])(/C(=N/OC([H])([H])[H])C([H])([H])OC([H])([H])c2c([H])c(C(F)(F)F)c([H])c(C(F)(F)F)c2[H])c2c([H])c([H])c(Cl)c(Cl)c2[H])C([H])([H])C1([H])[H]


 46 49  0  0  0  0  0  0  0  0999 V2000
    2.5786  -51.7916  -25.6847 C   0  0  0  0  0  0  0  0  0  0  0  0
    1.2454  -52.0617  -26.2922 C   0  0  0  0  0  0  0  0  0  0  0  0
    0.1414  -51.8752  -25.4415 C   0  0  0  0  0  0  0  0  0  0  0  0
   -1.1177  -52.0137  -25.9221 C   0  0  0  0  0  0  0  0  0  0  0  0
   -1.3033  -52.3539  -27.2716 C   0  0  0  0  0  0  0  0  0  0  0  0
   -2.9059  -52.5342  -27.9463 Cl  0  0  0  0  0  0  0  0  0  0  0  0
   -0.2044  -52.5453  -28.1000 C   0  0  0  0  0  0  0  0  0  0  0  0
   -0.4119  -52.9228  -29.7732 Cl  0  0  0  0  0  0  0  0  0  0  0  0
    1.0473  -52.3875  -27.5802 C   0  0  0  0  0  0  0  0  0  0  0  0
    3.2762  -49.7596  -26.6594 N   0  0  0  0  0  0  0  0  0  0  0  0
    2.7699  -50.3083  -25.6006 C   0  0  0  0  0  0  0  0  0  0  0  0
    4.5113  -48.1784  -27.8753 C   0  0  0  0  0  0  0  0  0  0  0  0
    3.8380  -48.4623  -26.6167 O   0  0  0  0  0  0  0  0  0  0  0  0
    2.7212  -49.6238  -24.3367 C   0  0  0  0  0  0  0  0  0  0  0  0
    1.5587  -49.6846  -23.5922 O   0  0  0  0  0  0  0  0  0  0  0  0
    1.8690  -49.4286  -22.2697 C   0  0  0  0  0  0  0  0  0  0  0  0
    1.1454  -50.4181  -21.4241 C   0  0  0  0  0  0  0  0  0  0  0  0
    0.6398  -51.5726  -21.8647 C   0  0  0  0  0  0  0  0  0  0  0  0
    0.0132  -52.4446  -20.9444 C   0  0  0  0  0  0  0  0  0  0  0  0
   -0.0516  -52.0630  -19.6189 C   0  0  0  0  0  0  0  0  0  0  0  0
    0.4580  -50.8814  -19.1489 C   0  0  0  0  0  0  0  0  0  0  0  0
    1.0531  -50.0644  -20.0665 C   0  0  0  0  0  0  0  0  0  0  0  0
    0.4715  -50.4674  -17.7457 C   0  0  0  0  0  0  0  0  0  0  0  0
   -0.6682  -50.8159  -17.0542 F   0  0  0  0  0  0  0  0  0  0  0  0
    0.6509  -49.0780  -17.6825 F   0  0  0  0  0  0  0  0  0  0  0  0
    1.5717  -51.1080  -17.1655 F   0  0  0  0  0  0  0  0  0  0  0  0
   -0.5247  -53.7539  -21.3185 C   0  0  0  0  0  0  0  0  0  0  0  0
   -0.4479  -53.9303  -22.6991 F   0  0  0  0  0  0  0  0  0  0  0  0
   -1.8076  -53.9799  -20.8778 F   0  0  0  0  0  0  0  0  0  0  0  0
    0.2635  -54.7288  -20.7165 F   0  0  0  0  0  0  0  0  0  0  0  0
    2.9335  -52.6038  -24.5209 C   0  0  0  0  0  0  0  0  0  0  0  0
    4.4168  -52.9868  -24.6755 C   0  0  0  0  0  0  0  0  0  0  0  0
    5.1622  -52.4016  -23.6240 N   0  0  0  0  0  0  0  0  0  0  0  0
    6.1016  -51.3896  -23.9465 C   0  0  0  0  0  0  0  0  0  0  0  0
    5.9713  -50.1299  -23.1450 C   0  0  0  0  0  0  0  0  0  0  0  0
    5.9590  -50.3832  -21.6887 C   0  0  0  0  0  0  0  0  0  0  0  0
    7.2393  -50.6701  -21.2420 O   0  0  0  0  0  0  0  0  0  0  0  0
    5.1062  -51.6426  -21.3748 C   0  0  0  0  0  0  0  0  0  0  0  0
    4.2692  -51.9835  -22.5379 C   0  0  0  0  0  0  0  0  0  0  0  0
    7.2332  -51.4815  -20.6318 H   0  0  0  0  0  0  0  0  0  0  0  0
    5.3576  -49.3663  -20.8190 C   0  0  0  0  0  0  0  0  0  0  0  0
    4.8380  -49.8166  -19.6122 C   0  0  0  0  0  0  0  0  0  0  0  0
    4.0768  -48.9938  -18.8095 C   0  0  0  0  0  0  0  0  0  0  0  0
    3.8353  -47.7088  -19.2115 C   0  0  0  0  0  0  0  0  0  0  0  0
    4.3375  -47.2222  -20.3915 C   0  0  0  0  0  0  0  0  0  0  0  0
    5.0972  -48.0739  -21.1753 C   0  0  0  0  0  0  0  0  0  0  0  0
 12 13  1  0  0  0
 13 10  1  0  0  0
 10 11  2  0  0  0
 11 14  1  0  0  0
 14 15  1  0  0  0
 15 16  1  0  0  0
 16 17  1  0  0  0
 17 18  2  0  0  0
 18 19  1  0  0  0
 19 20  2  0  0  0
 20 21  1  0  0  0
 21 22  2  0  0  0
 21 23  1  0  0  0
 23 24  1  0  0  0
 23 25  1  0  0  0
 23 26  1  0  0  0
 19 27  1  0  0  0
 27 28  1  0  0  0
 27 29  1  0  0  0
 27 30  1  0  0  0
 11  1  1  0  0  0
  1 31  1  0  0  0
 31 32  1  0  0  0
 32 33  1  0  0  0
 33 34  1  0  0  0
 34 35  1  0  0  0
 35 36  1  0  0  0
 36 37  1  0  0  0
 36 38  1  0  0  0
 38 39  1  0  0  0
 36 41  1  0  0  0
 41 42  2  0  0  0
 42 43  1  0  0  0
 43 44  2  0  0  0
 44 45  1  0  0  0
 45 46  2  0  0  0
  1  2  1  0  0  0
  2  3  2  0  0  0
  3  4  1  0  0  0
  4  5  2  0  0  0
  5  6  1  0  0  0
  5  7  1  0  0  0
  7  8  1  0  0  0
  7  9  2  0  0  0
 22 17  1  0  0  0
 39 33  1  0  0  0
 46 41  1  0  0  0
  9  2  1  0  0  0
 37 40  1  0  0  0
M  END
> <minimizedAffinity>
-8.52887

> <CNNscore>
0.3168913424

> <CNNaffinity>
7.4936904907

> <CNN_VS>
2.3746855259

> <CNNaffinity_variance>
1.0073325634

$$$$
[H]OC1(c2c([H])c([H])c([H])c([H])c2[H])C([H])([H])C([H])([H])N(C([H])([H])C([H])([H])C([H])(/C(=N/OC([H])([H])[H])C([H])([H])OC([H])([H])c2c([H])c(C(F)(F)F)c([H])c(C(F)(F)F)c2[H])c2c([H])c([H])c(Cl)c(Cl)c2[H])C([H])([H])C1([H])[H]


 46 49  0  0  0  0  0  0  0  0999 V2000
    4.6363  -49.9814  -21.3678 C   0  0  0  0  0  0  0  0  0  0  0  0
    3.3450  -50.6261  -20.9987 C   0  0  0  0  0  0  0  0  0  0  0  0
    3.4442  -51.7401  -20.1464 C   0  0  0  0  0  0  0  0  0  0  0  0
    2.3229  -52.3450  -19.6856 C   0  0  0  0  0  0  0  0  0  0  0  0
    1.0676  -51.8526  -20.0770 C   0  0  0  0  0  0  0  0  0  0  0  0
   -0.4109  -52.5881  -19.5033 Cl  0  0  0  0  0  0  0  0  0  0  0  0
    0.9824  -50.7573  -20.9275 C   0  0  0  0  0  0  0  0  0  0  0  0
   -0.5522  -50.1102  -21.3870 Cl  0  0  0  0  0  0  0  0  0  0  0  0
    2.1349  -50.1702  -21.3624 C   0  0  0  0  0  0  0  0  0  0  0  0
    4.7282  -49.1679  -23.5804 N   0  0  0  0  0  0  0  0  0  0  0  0
    4.8811  -50.2113  -22.8277 C   0  0  0  0  0  0  0  0  0  0  0  0
    3.2441  -48.8463  -25.3687 C   0  0  0  0  0  0  0  0  0  0  0  0
    4.5750  -49.2895  -24.9812 O   0  0  0  0  0  0  0  0  0  0  0  0
    4.9353  -51.5417  -23.3711 C   0  0  0  0  0  0  0  0  0  0  0  0
    3.7529  -52.2324  -23.5569 O   0  0  0  0  0  0  0  0  0  0  0  0
    3.6244  -52.5319  -24.9003 C   0  0  0  0  0  0  0  0  0  0  0  0
    2.1853  -52.7917  -25.1815 C   0  0  0  0  0  0  0  0  0  0  0  0
    1.6225  -52.7371  -26.3910 C   0  0  0  0  0  0  0  0  0  0  0  0
    0.2502  -53.0508  -26.5257 C   0  0  0  0  0  0  0  0  0  0  0  0
   -0.4567  -53.4020  -25.3928 C   0  0  0  0  0  0  0  0  0  0  0  0
    0.1022  -53.4602  -24.1434 C   0  0  0  0  0  0  0  0  0  0  0  0
    1.4282  -53.1483  -24.0518 C   0  0  0  0  0  0  0  0  0  0  0  0
   -0.5903  -53.8910  -22.9287 C   0  0  0  0  0  0  0  0  0  0  0  0
    0.2546  -54.3564  -21.9448 F   0  0  0  0  0  0  0  0  0  0  0  0
   -1.5158  -54.8904  -23.2623 F   0  0  0  0  0  0  0  0  0  0  0  0
   -1.2697  -52.7645  -22.4524 F   0  0  0  0  0  0  0  0  0  0  0  0
   -0.4454  -53.0709  -27.8139 C   0  0  0  0  0  0  0  0  0  0  0  0
   -0.3668  -54.3402  -28.3847 F   0  0  0  0  0  0  0  0  0  0  0  0
   -0.0065  -52.1182  -28.7032 F   0  0  0  0  0  0  0  0  0  0  0  0
   -1.7868  -52.7871  -27.5808 F   0  0  0  0  0  0  0  0  0  0  0  0
    4.8653  -48.6409  -20.8288 C   0  0  0  0  0  0  0  0  0  0  0  0
    5.5095  -48.8182  -19.4416 C   0  0  0  0  0  0  0  0  0  0  0  0
    4.5802  -48.4390  -18.4434 N   0  0  0  0  0  0  0  0  0  0  0  0
    3.4208  -47.7249  -18.8390 C   0  0  0  0  0  0  0  0  0  0  0  0
    2.1280  -48.2958  -18.3402 C   0  0  0  0  0  0  0  0  0  0  0  0
    2.1310  -48.5138  -16.8782 C   0  0  0  0  0  0  0  0  0  0  0  0
    1.9856  -47.3060  -16.2140 O   0  0  0  0  0  0  0  0  0  0  0  0
    3.5033  -49.0848  -16.4281 C   0  0  0  0  0  0  0  0  0  0  0  0
    4.2438  -49.5892  -17.5972 C   0  0  0  0  0  0  0  0  0  0  0  0
    2.6564  -47.2304  -15.4556 H   0  0  0  0  0  0  0  0  0  0  0  0
    1.1838  -49.4887  -16.3264 C   0  0  0  0  0  0  0  0  0  0  0  0
    1.5456  -50.0889  -15.1273 C   0  0  0  0  0  0  0  0  0  0  0  0
    0.8372  -51.1572  -14.6197 C   0  0  0  0  0  0  0  0  0  0  0  0
   -0.2446  -51.6284  -15.3115 C   0  0  0  0  0  0  0  0  0  0  0  0
   -0.6406  -51.0584  -16.4946 C   0  0  0  0  0  0  0  0  0  0  0  0
    0.0923  -49.9878  -16.9780 C   0  0  0  0  0  0  0  0  0  0  0  0
 12 13  1  0  0  0
 13 10  1  0  0  0
 10 11  2  0  0  0
 11 14  1  0  0  0
 14 15  1  0  0  0
 15 16  1  0  0  0
 16 17  1  0  0  0
 17 18  2  0  0  0
 18 19  1  0  0  0
 19 20  2  0  0  0
 20 21  1  0  0  0
 21 22  2  0  0  0
 21 23  1  0  0  0
 23 24  1  0  0  0
 23 25  1  0  0  0
 23 26  1  0  0  0
 19 27  1  0  0  0
 27 28  1  0  0  0
 27 29  1  0  0  0
 27 30  1  0  0  0
 11  1  1  0  0  0
  1 31  1  0  0  0
 31 32  1  0  0  0
 32 33  1  0  0  0
 33 34  1  0  0  0
 34 35  1  0  0  0
 35 36  1  0  0  0
 36 37  1  0  0  0
 36 38  1  0  0  0
 38 39  1  0  0  0
 36 41  1  0  0  0
 41 42  2  0  0  0
 42 43  1  0  0  0
 43 44  2  0  0  0
 44 45  1  0  0  0
 45 46  2  0  0  0
  1  2  1  0  0  0
  2  3  2  0  0  0
  3  4  1  0  0  0
  4  5  2  0  0  0
  5  6  1  0  0  0
  5  7  1  0  0  0
  7  8  1  0  0  0
  7  9  2  0  0  0
 22 17  1  0  0  0
 39 33  1  0  0  0
 46 41  1  0  0  0
  9  2  1  0  0  0
 37 40  1  0  0  0
M  END
> <minimizedAffinity>
-7.03356

> <CNNscore>
0.2814404070

> <CNNaffinity>
7.3034553528

> <CNN_VS>
2.0554873943

> <CNNaffinity_variance>
0.5060156584

$$$$
[H]OC1(c2c([H])c([H])c([H])c([H])c2[H])C([H])([H])C([H])([H])N(C([H])([H])C([H])([H])C([H])(/C(=N/OC([H])([H])[H])C([H])([H])OC([H])([H])c2c([H])c(C(F)(F)F)c([H])c(C(F)(F)F)c2[H])c2c([H])c([H])c(Cl)c(Cl)c2[H])C([H])([H])C1([H])[H]


 46 49  0  0  0  0  0  0  0  0999 V2000
    2.2653  -48.9513  -21.8967 C   0  0  0  0  0  0  0  0  0  0  0  0
    1.8021  -50.3118  -21.5045 C   0  0  0  0  0  0  0  0  0  0  0  0
    2.6967  -51.0529  -20.7122 C   0  0  0  0  0  0  0  0  0  0  0  0
    2.3347  -52.2677  -20.2339 C   0  0  0  0  0  0  0  0  0  0  0  0
    1.0645  -52.7775  -20.5471 C   0  0  0  0  0  0  0  0  0  0  0  0
    0.5421  -54.3341  -19.9472 Cl  0  0  0  0  0  0  0  0  0  0  0  0
    0.1930  -52.0402  -21.3391 C   0  0  0  0  0  0  0  0  0  0  0  0
   -1.3898  -52.6310  -21.7009 Cl  0  0  0  0  0  0  0  0  0  0  0  0
    0.5915  -50.8169  -21.7938 C   0  0  0  0  0  0  0  0  0  0  0  0
    4.1859  -48.1958  -20.7539 N   0  0  0  0  0  0  0  0  0  0  0  0
    2.8958  -48.3023  -20.7029 C   0  0  0  0  0  0  0  0  0  0  0  0
    5.9237  -49.0041  -19.4008 C   0  0  0  0  0  0  0  0  0  0  0  0
    4.9480  -47.9410  -19.5900 O   0  0  0  0  0  0  0  0  0  0  0  0
    2.1655  -48.1377  -19.4749 C   0  0  0  0  0  0  0  0  0  0  0  0
    2.2058  -49.1514  -18.5367 O   0  0  0  0  0  0  0  0  0  0  0  0
    2.2439  -48.5838  -17.2767 C   0  0  0  0  0  0  0  0  0  0  0  0
    0.9607  -48.8964  -16.5887 C   0  0  0  0  0  0  0  0  0  0  0  0
    0.2970  -48.0542  -15.7932 C   0  0  0  0  0  0  0  0  0  0  0  0
   -0.9371  -48.4625  -15.2364 C   0  0  0  0  0  0  0  0  0  0  0  0
   -1.4078  -49.7248  -15.5394 C   0  0  0  0  0  0  0  0  0  0  0  0
   -0.7397  -50.6038  -16.3503 C   0  0  0  0  0  0  0  0  0  0  0  0
    0.4491  -50.1759  -16.8674 C   0  0  0  0  0  0  0  0  0  0  0  0
   -1.2315  -51.9221  -16.7516 C   0  0  0  0  0  0  0  0  0  0  0  0
   -1.0742  -52.1869  -18.0946 F   0  0  0  0  0  0  0  0  0  0  0  0
   -2.5876  -52.0257  -16.4098 F   0  0  0  0  0  0  0  0  0  0  0  0
   -0.4906  -52.8510  -16.0128 F   0  0  0  0  0  0  0  0  0  0  0  0
   -1.7643  -47.5947  -14.3961 C   0  0  0  0  0  0  0  0  0  0  0  0
   -0.9579  -46.7917  -13.5912 F   0  0  0  0  0  0  0  0  0  0  0  0
   -2.6854  -48.2690  -13.6293 F   0  0  0  0  0  0  0  0  0  0  0  0
   -2.4999  -46.7625  -15.2332 F   0  0  0  0  0  0  0  0  0  0  0  0
    2.9517  -48.8499  -23.1846 C   0  0  0  0  0  0  0  0  0  0  0  0
    4.0319  -49.9470  -23.2057 C   0  0  0  0  0  0  0  0  0  0  0  0
    3.8286  -50.7807  -24.3315 N   0  0  0  0  0  0  0  0  0  0  0  0
    3.7429  -52.1811  -24.1256 C   0  0  0  0  0  0  0  0  0  0  0  0
    2.5437  -52.8364  -24.7409 C   0  0  0  0  0  0  0  0  0  0  0  0
    2.3933  -52.5113  -26.1750 C   0  0  0  0  0  0  0  0  0  0  0  0
    3.3120  -53.2267  -26.9269 O   0  0  0  0  0  0  0  0  0  0  0  0
    2.7192  -51.0125  -26.4180 C   0  0  0  0  0  0  0  0  0  0  0  0
    2.7087  -50.2837  -25.1380 C   0  0  0  0  0  0  0  0  0  0  0  0
    3.7718  -52.6230  -27.6012 H   0  0  0  0  0  0  0  0  0  0  0  0
    1.0618  -52.6492  -26.7753 C   0  0  0  0  0  0  0  0  0  0  0  0
    1.0245  -52.8980  -28.1413 C   0  0  0  0  0  0  0  0  0  0  0  0
   -0.1598  -52.8480  -28.8454 C   0  0  0  0  0  0  0  0  0  0  0  0
   -1.3181  -52.5520  -28.1807 C   0  0  0  0  0  0  0  0  0  0  0  0
   -1.3260  -52.3090  -26.8308 C   0  0  0  0  0  0  0  0  0  0  0  0
   -0.1202  -52.3658  -26.1527 C   0  0  0  0  0  0  0  0  0  0  0  0
 12 13  1  0  0  0
 13 10  1  0  0  0
 10 11  2  0  0  0
 11 14  1  0  0  0
 14 15  1  0  0  0
 15 16  1  0  0  0
 16 17  1  0  0  0
 17 18  2  0  0  0
 18 19  1  0  0  0
 19 20  2  0  0  0
 20 21  1  0  0  0
 21 22  2  0  0  0
 21 23  1  0  0  0
 23 24  1  0  0  0
 23 25  1  0  0  0
 23 26  1  0  0  0
 19 27  1  0  0  0
 27 28  1  0  0  0
 27 29  1  0  0  0
 27 30  1  0  0  0
 11  1  1  0  0  0
  1 31  1  0  0  0
 31 32  1  0  0  0
 32 33  1  0  0  0
 33 34  1  0  0  0
 34 35  1  0  0  0
 35 36  1  0  0  0
 36 37  1  0  0  0
 36 38  1  0  0  0
 38 39  1  0  0  0
 36 41  1  0  0  0
 41 42  2  0  0  0
 42 43  1  0  0  0
 43 44  2  0  0  0
 44 45  1  0  0  0
 45 46  2  0  0  0
  1  2  1  0  0  0
  2  3  2  0  0  0
  3  4  1  0  0  0
  4  5  2  0  0  0
  5  6  1  0  0  0
  5  7  1  0  0  0
  7  8  1  0  0  0
  7  9  2  0  0  0
 22 17  1  0  0  0
 39 33  1  0  0  0
 46 41  1  0  0  0
  9  2  1  0  0  0
 37 40  1  0  0  0
M  END
> <minimizedAffinity>
-8.09319

> <CNNscore>
0.2718027830

> <CNNaffinity>
7.4592452049

> <CNN_VS>
2.0274436474

> <CNNaffinity_variance>
0.2647931278

$$$$
[H]OC1(c2c([H])c([H])c([H])c([H])c2[H])C([H])([H])C([H])([H])N(C([H])([H])C([H])([H])C([H])(/C(=N/OC([H])([H])[H])C([H])([H])OC([H])([H])c2c([H])c(C(F)(F)F)c([H])c(C(F)(F)F)c2[H])c2c([H])c([H])c(Cl)c(Cl)c2[H])C([H])([H])C1([H])[H]


 46 49  0  0  0  0  0  0  0  0999 V2000
    4.1976  -48.8798  -23.9678 C   0  0  0  0  0  0  0  0  0  0  0  0
    4.1690  -48.1702  -25.2774 C   0  0  0  0  0  0  0  0  0  0  0  0
    5.2803  -48.3885  -26.1108 C   0  0  0  0  0  0  0  0  0  0  0  0
    5.3108  -47.8558  -27.3561 C   0  0  0  0  0  0  0  0  0  0  0  0
    4.2274  -47.0787  -27.7964 C   0  0  0  0  0  0  0  0  0  0  0  0
    4.2100  -46.3771  -29.3975 Cl  0  0  0  0  0  0  0  0  0  0  0  0
    3.1393  -46.8618  -26.9602 C   0  0  0  0  0  0  0  0  0  0  0  0
    1.7780  -45.9440  -27.4984 Cl  0  0  0  0  0  0  0  0  0  0  0  0
    3.1425  -47.4234  -25.7166 C   0  0  0  0  0  0  0  0  0  0  0  0
    5.3805  -47.4962  -22.4671 N   0  0  0  0  0  0  0  0  0  0  0  0
    4.2044  -47.8566  -22.8738 C   0  0  0  0  0  0  0  0  0  0  0  0
    6.3341  -47.6622  -20.3300 C   0  0  0  0  0  0  0  0  0  0  0  0
    5.5575  -46.8268  -21.2338 O   0  0  0  0  0  0  0  0  0  0  0  0
    3.0156  -47.5715  -22.1162 C   0  0  0  0  0  0  0  0  0  0  0  0
    2.6209  -48.4641  -21.1380 O   0  0  0  0  0  0  0  0  0  0  0  0
    1.2435  -48.5755  -21.1736 C   0  0  0  0  0  0  0  0  0  0  0  0
    0.8495  -49.7269  -20.3152 C   0  0  0  0  0  0  0  0  0  0  0  0
    0.9278  -49.7466  -18.9825 C   0  0  0  0  0  0  0  0  0  0  0  0
    0.4773  -50.8907  -18.2841 C   0  0  0  0  0  0  0  0  0  0  0  0
   -0.0274  -51.9485  -19.0142 C   0  0  0  0  0  0  0  0  0  0  0  0
   -0.1125  -51.9481  -20.3815 C   0  0  0  0  0  0  0  0  0  0  0  0
    0.3341  -50.8280  -21.0214 C   0  0  0  0  0  0  0  0  0  0  0  0
   -0.7004  -53.0162  -21.1904 C   0  0  0  0  0  0  0  0  0  0  0  0
   -1.7066  -53.7062  -20.5501 F   0  0  0  0  0  0  0  0  0  0  0  0
    0.3117  -53.9096  -21.5700 F   0  0  0  0  0  0  0  0  0  0  0  0
   -1.2255  -52.3935  -22.3279 F   0  0  0  0  0  0  0  0  0  0  0  0
    0.4727  -50.9887  -16.8232 C   0  0  0  0  0  0  0  0  0  0  0  0
    1.7730  -50.8964  -16.3295 F   0  0  0  0  0  0  0  0  0  0  0  0
   -0.1442  -52.1182  -16.3388 F   0  0  0  0  0  0  0  0  0  0  0  0
   -0.2535  -49.9127  -16.3241 F   0  0  0  0  0  0  0  0  0  0  0  0
    3.3017  -50.0289  -23.8371 C   0  0  0  0  0  0  0  0  0  0  0  0
    4.1263  -51.2831  -24.1801 C   0  0  0  0  0  0  0  0  0  0  0  0
    3.2924  -52.2285  -24.8239 N   0  0  0  0  0  0  0  0  0  0  0  0
    2.2582  -52.8384  -24.0694 C   0  0  0  0  0  0  0  0  0  0  0  0
    0.8996  -52.7794  -24.6993 C   0  0  0  0  0  0  0  0  0  0  0  0
    0.8965  -53.2838  -26.0888 C   0  0  0  0  0  0  0  0  0  0  0  0
    0.9648  -54.6681  -26.0956 O   0  0  0  0  0  0  0  0  0  0  0  0
    2.1652  -52.7911  -26.8367 C   0  0  0  0  0  0  0  0  0  0  0  0
    2.7889  -51.6851  -26.0900 C   0  0  0  0  0  0  0  0  0  0  0  0
    1.6542  -54.9902  -26.7678 H   0  0  0  0  0  0  0  0  0  0  0  0
   -0.1866  -52.8466  -26.9765 C   0  0  0  0  0  0  0  0  0  0  0  0
   -1.3556  -52.4207  -26.3590 C   0  0  0  0  0  0  0  0  0  0  0  0
   -2.5015  -52.1786  -27.0862 C   0  0  0  0  0  0  0  0  0  0  0  0
   -2.4805  -52.3582  -28.4421 C   0  0  0  0  0  0  0  0  0  0  0  0
   -1.3444  -52.7689  -29.0917 C   0  0  0  0  0  0  0  0  0  0  0  0
   -0.2106  -53.0045  -28.3328 C   0  0  0  0  0  0  0  0  0  0  0  0
 12 13  1  0  0  0
 13 10  1  0  0  0
 10 11  2  0  0  0
 11 14  1  0  0  0
 14 15  1  0  0  0
 15 16  1  0  0  0
 16 17  1  0  0  0
 17 18  2  0  0  0
 18 19  1  0  0  0
 19 20  2  0  0  0
 20 21  1  0  0  0
 21 22  2  0  0  0
 21 23  1  0  0  0
 23 24  1  0  0  0
 23 25  1  0  0  0
 23 26  1  0  0  0
 19 27  1  0  0  0
 27 28  1  0  0  0
 27 29  1  0  0  0
 27 30  1  0  0  0
 11  1  1  0  0  0
  1 31  1  0  0  0
 31 32  1  0  0  0
 32 33  1  0  0  0
 33 34  1  0  0  0
 34 35  1  0  0  0
 35 36  1  0  0  0
 36 37  1  0  0  0
 36 38  1  0  0  0
 38 39  1  0  0  0
 36 41  1  0  0  0
 41 42  2  0  0  0
 42 43  1  0  0  0
 43 44  2  0  0  0
 44 45  1  0  0  0
 45 46  2  0  0  0
  1  2  1  0  0  0
  2  3  2  0  0  0
  3  4  1  0  0  0
  4  5  2  0  0  0
  5  6  1  0  0  0
  5  7  1  0  0  0
  7  8  1  0  0  0
  7  9  2  0  0  0
 22 17  1  0  0  0
 39 33  1  0  0  0
 46 41  1  0  0  0
  9  2  1  0  0  0
 37 40  1  0  0  0
M  END
> <minimizedAffinity>
-8.72155

> <CNNscore>
0.2202614248

> <CNNaffinity>
7.5039300919

> <CNN_VS>
1.6528263092

> <CNNaffinity_variance>
0.4348784983

$$$$
[H]OC1(c2c([H])c([H])c([H])c([H])c2[H])C([H])([H])C([H])([H])N(C([H])([H])C([H])([H])C([H])(/C(=N/OC([H])([H])[H])C([H])([H])OC([H])([H])c2c([H])c(C(F)(F)F)c([H])c(C(F)(F)F)c2[H])c2c([H])c([H])c(Cl)c(Cl)c2[H])C([H])([H])C1([H])[H]


 46 49  0  0  0  0  0  0  0  0999 V2000
    2.5709  -49.1141  -22.0793 C   0  0  0  0  0  0  0  0  0  0  0  0
    1.6813  -50.2240  -21.6365 C   0  0  0  0  0  0  0  0  0  0  0  0
    1.1740  -50.1112  -20.3298 C   0  0  0  0  0  0  0  0  0  0  0  0
    0.2898  -51.0254  -19.8630 C   0  0  0  0  0  0  0  0  0  0  0  0
   -0.1029  -52.0867  -20.6943 C   0  0  0  0  0  0  0  0  0  0  0  0
   -1.2491  -53.2875  -20.1465 Cl  0  0  0  0  0  0  0  0  0  0  0  0
    0.4129  -52.1931  -21.9800 C   0  0  0  0  0  0  0  0  0  0  0  0
   -0.0897  -53.4673  -23.0330 Cl  0  0  0  0  0  0  0  0  0  0  0  0
    1.2940  -51.2469  -22.4163 C   0  0  0  0  0  0  0  0  0  0  0  0
    4.5491  -50.1621  -21.3348 N   0  0  0  0  0  0  0  0  0  0  0  0
    3.7956  -49.1148  -21.2167 C   0  0  0  0  0  0  0  0  0  0  0  0
    6.8541  -50.2426  -20.9050 C   0  0  0  0  0  0  0  0  0  0  0  0
    5.5250  -50.4779  -20.3609 O   0  0  0  0  0  0  0  0  0  0  0  0
    3.9274  -48.2017  -20.1135 C   0  0  0  0  0  0  0  0  0  0  0  0
    3.9748  -48.7121  -18.8302 O   0  0  0  0  0  0  0  0  0  0  0  0
    2.9661  -48.1284  -18.0867 C   0  0  0  0  0  0  0  0  0  0  0  0
    2.5144  -49.1132  -17.0650 C   0  0  0  0  0  0  0  0  0  0  0  0
    3.3205  -49.9370  -16.3911 C   0  0  0  0  0  0  0  0  0  0  0  0
    2.7655  -50.7944  -15.4131 C   0  0  0  0  0  0  0  0  0  0  0  0
    1.4030  -50.7451  -15.1945 C   0  0  0  0  0  0  0  0  0  0  0  0
    0.5597  -49.9095  -15.8782 C   0  0  0  0  0  0  0  0  0  0  0  0
    1.1308  -49.0983  -16.8161 C   0  0  0  0  0  0  0  0  0  0  0  0
   -0.8766  -49.7758  -15.6335 C   0  0  0  0  0  0  0  0  0  0  0  0
   -1.2362  -49.9811  -14.3194 F   0  0  0  0  0  0  0  0  0  0  0  0
   -1.5645  -50.6815  -16.4540 F   0  0  0  0  0  0  0  0  0  0  0  0
   -1.2096  -48.4672  -15.9994 F   0  0  0  0  0  0  0  0  0  0  0  0
    3.5706  -51.6949  -14.5857 C   0  0  0  0  0  0  0  0  0  0  0  0
    4.4689  -52.4057  -15.3800 F   0  0  0  0  0  0  0  0  0  0  0  0
    2.8304  -52.5572  -13.8114 F   0  0  0  0  0  0  0  0  0  0  0  0
    4.3053  -50.9177  -13.6967 F   0  0  0  0  0  0  0  0  0  0  0  0
    2.7404  -48.9608  -23.5242 C   0  0  0  0  0  0  0  0  0  0  0  0
    4.0926  -49.6008  -23.8887 C   0  0  0  0  0  0  0  0  0  0  0  0
    3.9023  -50.5252  -24.9437 N   0  0  0  0  0  0  0  0  0  0  0  0
    3.8848  -51.9084  -24.6320 C   0  0  0  0  0  0  0  0  0  0  0  0
    2.7032  -52.6600  -25.1659 C   0  0  0  0  0  0  0  0  0  0  0  0
    2.5063  -52.4509  -26.6159 C   0  0  0  0  0  0  0  0  0  0  0  0
    3.4395  -53.1804  -27.3358 O   0  0  0  0  0  0  0  0  0  0  0  0
    2.7583  -50.9619  -26.9781 C   0  0  0  0  0  0  0  0  0  0  0  0
    2.7433  -50.1397  -25.7560 C   0  0  0  0  0  0  0  0  0  0  0  0
    3.8564  -52.6097  -28.0648 H   0  0  0  0  0  0  0  0  0  0  0  0
    1.1694  -52.6917  -27.1700 C   0  0  0  0  0  0  0  0  0  0  0  0
    1.1102  -53.0094  -28.5208 C   0  0  0  0  0  0  0  0  0  0  0  0
   -0.0931  -53.0598  -29.1918 C   0  0  0  0  0  0  0  0  0  0  0  0
   -1.2484  -52.7956  -28.5087 C   0  0  0  0  0  0  0  0  0  0  0  0
   -1.2345  -52.4868  -27.1724 C   0  0  0  0  0  0  0  0  0  0  0  0
   -0.0099  -52.4434  -26.5277 C   0  0  0  0  0  0  0  0  0  0  0  0
 12 13  1  0  0  0
 13 10  1  0  0  0
 10 11  2  0  0  0
 11 14  1  0  0  0
 14 15  1  0  0  0
 15 16  1  0  0  0
 16 17  1  0  0  0
 17 18  2  0  0  0
 18 19  1  0  0  0
 19 20  2  0  0  0
 20 21  1  0  0  0
 21 22  2  0  0  0
 21 23  1  0  0  0
 23 24  1  0  0  0
 23 25  1  0  0  0
 23 26  1  0  0  0
 19 27  1  0  0  0
 27 28  1  0  0  0
 27 29  1  0  0  0
 27 30  1  0  0  0
 11  1  1  0  0  0
  1 31  1  0  0  0
 31 32  1  0  0  0
 32 33  1  0  0  0
 33 34  1  0  0  0
 34 35  1  0  0  0
 35 36  1  0  0  0
 36 37  1  0  0  0
 36 38  1  0  0  0
 38 39  1  0  0  0
 36 41  1  0  0  0
 41 42  2  0  0  0
 42 43  1  0  0  0
 43 44  2  0  0  0
 44 45  1  0  0  0
 45 46  2  0  0  0
  1  2  1  0  0  0
  2  3  2  0  0  0
  3  4  1  0  0  0
  4  5  2  0  0  0
  5  6  1  0  0  0
  5  7  1  0  0  0
  7  8  1  0  0  0
  7  9  2  0  0  0
 22 17  1  0  0  0
 39 33  1  0  0  0
 46 41  1  0  0  0
  9  2  1  0  0  0
 37 40  1  0  0  0
M  END
> <minimizedAffinity>
-8.41018

> <CNNscore>
0.2115755975

> <CNNaffinity>
7.2740936279

> <CNN_VS>
1.5390206575

> <CNNaffinity_variance>
0.4407925010

$$$$
[H]OC1(c2c([H])c([H])c([H])c([H])c2[H])C([H])([H])C([H])([H])N(C([H])([H])C([H])([H])C([H])(/C(=N/OC([H])([H])[H])C([H])([H])OC([H])([H])c2c([H])c(C(F)(F)F)c([H])c(C(F)(F)F)c2[H])c2c([H])c([H])c(Cl)c(Cl)c2[H])C([H])([H])C1([H])[H]


 46 49  0  0  0  0  0  0  0  0999 V2000
    4.7123  -48.8004  -23.5853 C   0  0  0  0  0  0  0  0  0  0  0  0
    4.4827  -47.5465  -24.3564 C   0  0  0  0  0  0  0  0  0  0  0  0
    5.5486  -46.6293  -24.3558 C   0  0  0  0  0  0  0  0  0  0  0  0
    5.4711  -45.4971  -25.0957 C   0  0  0  0  0  0  0  0  0  0  0  0
    4.3137  -45.2491  -25.8510 C   0  0  0  0  0  0  0  0  0  0  0  0
    4.1656  -43.8097  -26.8319 Cl  0  0  0  0  0  0  0  0  0  0  0  0
    3.2630  -46.1580  -25.8358 C   0  0  0  0  0  0  0  0  0  0  0  0
    1.8481  -45.8920  -26.7910 Cl  0  0  0  0  0  0  0  0  0  0  0  0
    3.3835  -47.2911  -25.0850 C   0  0  0  0  0  0  0  0  0  0  0  0
    6.0875  -48.9576  -21.6749 N   0  0  0  0  0  0  0  0  0  0  0  0
    5.0069  -48.4352  -22.1627 C   0  0  0  0  0  0  0  0  0  0  0  0
    7.7473  -49.0038  -20.0174 C   0  0  0  0  0  0  0  0  0  0  0  0
    6.3158  -49.0029  -20.2798 O   0  0  0  0  0  0  0  0  0  0  0  0
    3.9984  -47.8470  -21.3229 C   0  0  0  0  0  0  0  0  0  0  0  0
    3.1822  -48.6799  -20.5816 O   0  0  0  0  0  0  0  0  0  0  0  0
    1.8919  -48.5779  -21.0672 C   0  0  0  0  0  0  0  0  0  0  0  0
    1.1266  -49.7679  -20.6024 C   0  0  0  0  0  0  0  0  0  0  0  0
    0.6276  -50.7136  -21.4020 C   0  0  0  0  0  0  0  0  0  0  0  0
   -0.0426  -51.8177  -20.8260 C   0  0  0  0  0  0  0  0  0  0  0  0
   -0.1552  -51.8722  -19.4509 C   0  0  0  0  0  0  0  0  0  0  0  0
    0.3469  -50.9102  -18.6148 C   0  0  0  0  0  0  0  0  0  0  0  0
    0.9849  -49.8583  -19.2066 C   0  0  0  0  0  0  0  0  0  0  0  0
    0.3097  -50.9600  -17.1530 C   0  0  0  0  0  0  0  0  0  0  0  0
   -0.3646  -49.9040  -16.5796 F   0  0  0  0  0  0  0  0  0  0  0  0
    1.6239  -50.9966  -16.6650 F   0  0  0  0  0  0  0  0  0  0  0  0
   -0.3446  -52.1523  -16.8246 F   0  0  0  0  0  0  0  0  0  0  0  0
   -0.5779  -52.9305  -21.6126 C   0  0  0  0  0  0  0  0  0  0  0  0
    0.4276  -53.8570  -21.8840 F   0  0  0  0  0  0  0  0  0  0  0  0
   -1.2012  -52.5460  -22.7765 F   0  0  0  0  0  0  0  0  0  0  0  0
   -1.5519  -53.5652  -20.8491 F   0  0  0  0  0  0  0  0  0  0  0  0
    3.7764  -49.8953  -23.8408 C   0  0  0  0  0  0  0  0  0  0  0  0
    4.4546  -50.8402  -24.8498 C   0  0  0  0  0  0  0  0  0  0  0  0
    3.5343  -51.8411  -25.2435 N   0  0  0  0  0  0  0  0  0  0  0  0
    2.5585  -52.2649  -24.3060 C   0  0  0  0  0  0  0  0  0  0  0  0
    1.1485  -52.2504  -24.8138 C   0  0  0  0  0  0  0  0  0  0  0  0
    0.9975  -52.9826  -26.0889 C   0  0  0  0  0  0  0  0  0  0  0  0
    1.0222  -54.3497  -25.8617 O   0  0  0  0  0  0  0  0  0  0  0  0
    2.2037  -52.6838  -27.0203 C   0  0  0  0  0  0  0  0  0  0  0  0
    2.9296  -51.4976  -26.5350 C   0  0  0  0  0  0  0  0  0  0  0  0
    1.6341  -54.8130  -26.5262 H   0  0  0  0  0  0  0  0  0  0  0  0
   -0.1513  -52.6523  -26.9396 C   0  0  0  0  0  0  0  0  0  0  0  0
   -1.3328  -52.3328  -26.2828 C   0  0  0  0  0  0  0  0  0  0  0  0
   -2.5205  -52.2017  -26.9704 C   0  0  0  0  0  0  0  0  0  0  0  0
   -2.5296  -52.3861  -28.3258 C   0  0  0  0  0  0  0  0  0  0  0  0
   -1.3833  -52.6936  -29.0135 C   0  0  0  0  0  0  0  0  0  0  0  0
   -0.2071  -52.8192  -28.2938 C   0  0  0  0  0  0  0  0  0  0  0  0
 12 13  1  0  0  0
 13 10  1  0  0  0
 10 11  2  0  0  0
 11 14  1  0  0  0
 14 15  1  0  0  0
 15 16  1  0  0  0
 16 17  1  0  0  0
 17 18  2  0  0  0
 18 19  1  0  0  0
 19 20  2  0  0  0
 20 21  1  0  0  0
 21 22  2  0  0  0
 21 23  1  0  0  0
 23 24  1  0  0  0
 23 25  1  0  0  0
 23 26  1  0  0  0
 19 27  1  0  0  0
 27 28  1  0  0  0
 27 29  1  0  0  0
 27 30  1  0  0  0
 11  1  1  0  0  0
  1 31  1  0  0  0
 31 32  1  0  0  0
 32 33  1  0  0  0
 33 34  1  0  0  0
 34 35  1  0  0  0
 35 36  1  0  0  0
 36 37  1  0  0  0
 36 38  1  0  0  0
 38 39  1  0  0  0
 36 41  1  0  0  0
 41 42  2  0  0  0
 42 43  1  0  0  0
 43 44  2  0  0  0
 44 45  1  0  0  0
 45 46  2  0  0  0
  1  2  1  0  0  0
  2  3  2  0  0  0
  3  4  1  0  0  0
  4  5  2  0  0  0
  5  6  1  0  0  0
  5  7  1  0  0  0
  7  8  1  0  0  0
  7  9  2  0  0  0
 22 17  1  0  0  0
 39 33  1  0  0  0
 46 41  1  0  0  0
  9  2  1  0  0  0
 37 40  1  0  0  0
M  END
> <minimizedAffinity>
-8.55949

> <CNNscore>
0.2043128908

> <CNNaffinity>
7.5653505325

> <CNN_VS>
1.5456986427

> <CNNaffinity_variance>
0.3381066620

$$$$
[H]OC1(c2c([H])c([H])c([H])c([H])c2[H])C([H])([H])C([H])([H])N(C([H])([H])C([H])([H])C([H])(/C(=N/OC([H])([H])[H])C([H])([H])OC([H])([H])c2c([H])c(C(F)(F)F)c([H])c(C(F)(F)F)c2[H])c2c([H])c([H])c(Cl)c(Cl)c2[H])C([H])([H])C1([H])[H]


 46 49  0  0  0  0  0  0  0  0999 V2000
    2.9751  -49.5653  -25.3301 C   0  0  0  0  0  0  0  0  0  0  0  0
    2.2259  -50.7081  -25.9236 C   0  0  0  0  0  0  0  0  0  0  0  0
    2.9432  -51.4916  -26.8450 C   0  0  0  0  0  0  0  0  0  0  0  0
    2.3787  -52.6023  -27.3769 C   0  0  0  0  0  0  0  0  0  0  0  0
    1.0708  -52.9524  -27.0048 C   0  0  0  0  0  0  0  0  0  0  0  0
    0.2987  -54.3811  -27.6520 Cl  0  0  0  0  0  0  0  0  0  0  0  0
    0.3684  -52.1649  -26.1011 C   0  0  0  0  0  0  0  0  0  0  0  0
   -1.2258  -52.6016  -25.5982 Cl  0  0  0  0  0  0  0  0  0  0  0  0
    0.9755  -51.0592  -25.5807 C   0  0  0  0  0  0  0  0  0  0  0  0
    3.8472  -50.9787  -23.6546 N   0  0  0  0  0  0  0  0  0  0  0  0
    3.2285  -49.8639  -23.8842 C   0  0  0  0  0  0  0  0  0  0  0  0
    5.1495  -51.3833  -21.7455 C   0  0  0  0  0  0  0  0  0  0  0  0
    3.8471  -51.5668  -22.3683 O   0  0  0  0  0  0  0  0  0  0  0  0
    2.5370  -49.1482  -22.8460 C   0  0  0  0  0  0  0  0  0  0  0  0
    1.3620  -49.6750  -22.3447 O   0  0  0  0  0  0  0  0  0  0  0  0
    1.2030  -49.2366  -21.0433 C   0  0  0  0  0  0  0  0  0  0  0  0
    0.6957  -50.3758  -20.2293 C   0  0  0  0  0  0  0  0  0  0  0  0
    0.5436  -50.3574  -18.9030 C   0  0  0  0  0  0  0  0  0  0  0  0
    0.0081  -51.4953  -18.2564 C   0  0  0  0  0  0  0  0  0  0  0  0
   -0.3367  -52.5869  -19.0285 C   0  0  0  0  0  0  0  0  0  0  0  0
   -0.1848  -52.6258  -20.3894 C   0  0  0  0  0  0  0  0  0  0  0  0
    0.3374  -51.5104  -20.9783 C   0  0  0  0  0  0  0  0  0  0  0  0
   -0.5976  -53.7324  -21.2530 C   0  0  0  0  0  0  0  0  0  0  0  0
   -1.9369  -54.0414  -21.1554 F   0  0  0  0  0  0  0  0  0  0  0  0
    0.1680  -54.8647  -20.9397 F   0  0  0  0  0  0  0  0  0  0  0  0
   -0.3168  -53.3252  -22.5617 F   0  0  0  0  0  0  0  0  0  0  0  0
   -0.2458  -51.5541  -16.8157 C   0  0  0  0  0  0  0  0  0  0  0  0
   -1.1225  -50.5381  -16.4386 F   0  0  0  0  0  0  0  0  0  0  0  0
    0.8916  -51.5157  -16.0437 F   0  0  0  0  0  0  0  0  0  0  0  0
   -0.8556  -52.7727  -16.5375 F   0  0  0  0  0  0  0  0  0  0  0  0
    4.0762  -49.0304  -26.1311 C   0  0  0  0  0  0  0  0  0  0  0  0
    4.2348  -47.5485  -25.7442 C   0  0  0  0  0  0  0  0  0  0  0  0
    4.4825  -46.7854  -26.9105 N   0  0  0  0  0  0  0  0  0  0  0  0
    5.6229  -47.1007  -27.6919 C   0  0  0  0  0  0  0  0  0  0  0  0
    5.3508  -47.3008  -29.1521 C   0  0  0  0  0  0  0  0  0  0  0  0
    4.6063  -46.1723  -29.7499 C   0  0  0  0  0  0  0  0  0  0  0  0
    5.4500  -45.0890  -29.9390 O   0  0  0  0  0  0  0  0  0  0  0  0
    3.5016  -45.6862  -28.7726 C   0  0  0  0  0  0  0  0  0  0  0  0
    3.2703  -46.7031  -27.7324 C   0  0  0  0  0  0  0  0  0  0  0  0
    5.0141  -44.2329  -29.6106 H   0  0  0  0  0  0  0  0  0  0  0  0
    3.8529  -46.4223  -30.9836 C   0  0  0  0  0  0  0  0  0  0  0  0
    2.4871  -46.1750  -30.9324 C   0  0  0  0  0  0  0  0  0  0  0  0
    1.6515  -46.5597  -31.9593 C   0  0  0  0  0  0  0  0  0  0  0  0
    2.1830  -47.1926  -33.0492 C   0  0  0  0  0  0  0  0  0  0  0  0
    3.5275  -47.4475  -33.1431 C   0  0  0  0  0  0  0  0  0  0  0  0
    4.3396  -47.0494  -32.0948 C   0  0  0  0  0  0  0  0  0  0  0  0
 12 13  1  0  0  0
 13 10  1  0  0  0
 10 11  2  0  0  0
 11 14  1  0  0  0
 14 15  1  0  0  0
 15 16  1  0  0  0
 16 17  1  0  0  0
 17 18  2  0  0  0
 18 19  1  0  0  0
 19 20  2  0  0  0
 20 21  1  0  0  0
 21 22  2  0  0  0
 21 23  1  0  0  0
 23 24  1  0  0  0
 23 25  1  0  0  0
 23 26  1  0  0  0
 19 27  1  0  0  0
 27 28  1  0  0  0
 27 29  1  0  0  0
 27 30  1  0  0  0
 11  1  1  0  0  0
  1 31  1  0  0  0
 31 32  1  0  0  0
 32 33  1  0  0  0
 33 34  1  0  0  0
 34 35  1  0  0  0
 35 36  1  0  0  0
 36 37  1  0  0  0
 36 38  1  0  0  0
 38 39  1  0  0  0
 36 41  1  0  0  0
 41 42  2  0  0  0
 42 43  1  0  0  0
 43 44  2  0  0  0
 44 45  1  0  0  0
 45 46  2  0  0  0
  1  2  1  0  0  0
  2  3  2  0  0  0
  3  4  1  0  0  0
  4  5  2  0  0  0
  5  6  1  0  0  0
  5  7  1  0  0  0
  7  8  1  0  0  0
  7  9  2  0  0  0
 22 17  1  0  0  0
 39 33  1  0  0  0
 46 41  1  0  0  0
  9  2  1  0  0  0
 37 40  1  0  0  0
M  END
> <minimizedAffinity>
-8.72081

> <CNNscore>
0.2009578049

> <CNNaffinity>
6.8157072067

> <CNN_VS>
1.3696695566

> <CNNaffinity_variance>
0.8849280477

$$$$
[H]c1nc(N([H])c2c([H])c([H])c(N3C([H])([H])C([H])([H])N(C(=O)C([H])([H])[H])C([H])([H])C3([H])[H])c([H])c2OC([H])([H])[H])nc(N([H])c2c([H])c([H])c([H])c([H])c2C(=O)N([H])C([H])([H])[H])c1Cl


 39 42  0  0  0  0  0  0  0  0999 V2000
   -1.0983  -53.7611  -21.0571 C   0  0  0  0  0  0  0  0  0  0  0  0
   -1.5543  -54.7798  -21.7926 N   0  0  0  0  0  0  0  0  0  0  0  0
   -1.2838  -54.9332  -23.0951 C   0  0  0  0  0  0  0  0  0  0  0  0
   -0.5038  -54.0129  -23.7237 C   0  0  0  0  0  0  0  0  0  0  0  0
   -0.1342  -54.1854  -25.4208 Cl  0  0  0  0  0  0  0  0  0  0  0  0
    0.0129  -52.9098  -23.0078 C   0  0  0  0  0  0  0  0  0  0  0  0
   -0.3278  -52.8775  -21.7366 N   0  0  0  0  0  0  0  0  0  0  0  0
   -1.3593  -53.5614  -19.6792 N   0  0  0  0  0  0  0  0  0  0  0  0
   -2.1887  -54.1278  -19.3041 H   0  0  0  0  0  0  0  0  0  0  0  0
   -1.2877  -52.5918  -17.4942 C   0  0  0  0  0  0  0  0  0  0  0  0
   -0.7091  -51.8096  -16.5309 C   0  0  0  0  0  0  0  0  0  0  0  0
    0.4726  -51.1339  -16.7437 C   0  0  0  0  0  0  0  0  0  0  0  0
    1.0382  -51.2911  -17.9826 C   0  0  0  0  0  0  0  0  0  0  0  0
    0.4755  -52.0800  -18.9868 C   0  0  0  0  0  0  0  0  0  0  0  0
   -0.7004  -52.7465  -18.7610 C   0  0  0  0  0  0  0  0  0  0  0  0
    1.0848  -50.3344  -15.7453 N   0  0  0  0  0  0  0  0  0  0  0  0
    0.9698  -48.8743  -15.7628 C   0  0  0  0  0  0  0  0  0  0  0  0
    2.3712  -48.3695  -16.0519 C   0  0  0  0  0  0  0  0  0  0  0  0
    3.1947  -48.8701  -14.9420 N   0  0  0  0  0  0  0  0  0  0  0  0
    3.3026  -50.2805  -14.7207 C   0  0  0  0  0  0  0  0  0  0  0  0
    1.8812  -50.8592  -14.6462 C   0  0  0  0  0  0  0  0  0  0  0  0
    3.8687  -47.9308  -14.1099 C   0  0  0  0  0  0  0  0  0  0  0  0
    4.6996  -48.4481  -12.9894 C   0  0  0  0  0  0  0  0  0  0  0  0
    3.7550  -46.6902  -14.3295 O   0  0  0  0  0  0  0  0  0  0  0  0
   -3.4516  -52.6008  -16.4099 C   0  0  0  0  0  0  0  0  0  0  0  0
   -2.4928  -53.2452  -17.1919 O   0  0  0  0  0  0  0  0  0  0  0  0
    0.8540  -51.9854  -23.6760 N   0  0  0  0  0  0  0  0  0  0  0  0
    0.3283  -51.2398  -24.2277 H   0  0  0  0  0  0  0  0  0  0  0  0
    2.2541  -51.9392  -23.6264 C   0  0  0  0  0  0  0  0  0  0  0  0
    3.0169  -52.7916  -24.4014 C   0  0  0  0  0  0  0  0  0  0  0  0
    4.3892  -52.8174  -24.2686 C   0  0  0  0  0  0  0  0  0  0  0  0
    5.0323  -52.0093  -23.3743 C   0  0  0  0  0  0  0  0  0  0  0  0
    4.2581  -51.1655  -22.6099 C   0  0  0  0  0  0  0  0  0  0  0  0
    2.8662  -51.0882  -22.6953 C   0  0  0  0  0  0  0  0  0  0  0  0
    2.1507  -50.1070  -21.9008 C   0  0  0  0  0  0  0  0  0  0  0  0
    0.9778  -49.7039  -22.1005 O   0  0  0  0  0  0  0  0  0  0  0  0
    2.7769  -49.4963  -20.7632 N   0  0  0  0  0  0  0  0  0  0  0  0
    2.0874  -48.5076  -19.9459 C   0  0  0  0  0  0  0  0  0  0  0  0
    3.7253  -49.7374  -20.4877 H   0  0  0  0  0  0  0  0  0  0  0  0
 25 26  1  0  0  0
 26 10  1  0  0  0
 10 11  2  0  0  0
 11 12  1  0  0  0
 12 13  2  0  0  0
 13 14  1  0  0  0
 14 15  2  0  0  0
 15  8  1  0  0  0
  8  1  1  0  0  0
  1  2  2  0  0  0
  2  3  1  0  0  0
  3  4  2  0  0  0
  4  5  1  0  0  0
  4  6  1  0  0  0
  6 27  1  0  0  0
 27 29  1  0  0  0
 29 30  2  0  0  0
 30 31  1  0  0  0
 31 32  2  0  0  0
 32 33  1  0  0  0
 33 34  2  0  0  0
 34 35  1  0  0  0
 35 36  2  0  0  0
 35 37  1  0  0  0
 37 38  1  0  0  0
  6  7  2  0  0  0
 12 16  1  0  0  0
 16 17  1  0  0  0
 17 18  1  0  0  0
 18 19  1  0  0  0
 19 20  1  0  0  0
 20 21  1  0  0  0
 19 22  1  0  0  0
 22 23  1  0  0  0
 22 24  2  0  0  0
 15 10  1  0  0  0
  7  1  1  0  0  0
 21 16  1  0  0  0
 34 29  1  0  0  0
  8  9  1  0  0  0
 27 28  1  0  0  0
 37 39  1  0  0  0
M  END
> <minimizedAffinity>
-8.12578

> <CNNscore>
0.9083366394

> <CNNaffinity>
7.5185537338

> <CNN_VS>
6.8293776512

> <CNNaffinity_variance>
0.0255557336

$$$$
[H]c1nc(N([H])c2c([H])c([H])c(N3C([H])([H])C([H])([H])N(C(=O)C([H])([H])[H])C([H])([H])C3([H])[H])c([H])c2OC([H])([H])[H])nc(N([H])c2c([H])c([H])c([H])c([H])c2C(=O)N([H])C([H])([H])[H])c1Cl


 39 42  0  0  0  0  0  0  0  0999 V2000
   -1.1078  -53.6694  -21.5685 C   0  0  0  0  0  0  0  0  0  0  0  0
   -1.1463  -54.9576  -21.9233 N   0  0  0  0  0  0  0  0  0  0  0  0
   -0.9136  -55.3908  -23.1689 C   0  0  0  0  0  0  0  0  0  0  0  0
   -0.6200  -54.4865  -24.1418 C   0  0  0  0  0  0  0  0  0  0  0  0
   -0.3125  -55.0206  -25.7749 Cl  0  0  0  0  0  0  0  0  0  0  0  0
   -0.5623  -53.1078  -23.8383 C   0  0  0  0  0  0  0  0  0  0  0  0
   -0.8107  -52.8165  -22.5787 N   0  0  0  0  0  0  0  0  0  0  0  0
   -1.3465  -53.1690  -20.2650 N   0  0  0  0  0  0  0  0  0  0  0  0
   -2.3177  -53.4042  -19.8767 H   0  0  0  0  0  0  0  0  0  0  0  0
   -0.8556  -52.3465  -18.0736 C   0  0  0  0  0  0  0  0  0  0  0  0
   -0.0912  -51.6393  -17.1848 C   0  0  0  0  0  0  0  0  0  0  0  0
    1.0520  -50.9713  -17.5662 C   0  0  0  0  0  0  0  0  0  0  0  0
    1.3809  -51.0563  -18.8944 C   0  0  0  0  0  0  0  0  0  0  0  0
    0.6245  -51.7678  -19.8266 C   0  0  0  0  0  0  0  0  0  0  0  0
   -0.5102  -52.4276  -19.4329 C   0  0  0  0  0  0  0  0  0  0  0  0
    1.8562  -50.2496  -16.6479 N   0  0  0  0  0  0  0  0  0  0  0  0
    1.7230  -50.4445  -15.2024 C   0  0  0  0  0  0  0  0  0  0  0  0
    1.1593  -49.1376  -14.6763 C   0  0  0  0  0  0  0  0  0  0  0  0
    2.1583  -48.1195  -15.0316 N   0  0  0  0  0  0  0  0  0  0  0  0
    2.4882  -47.9014  -16.4076 C   0  0  0  0  0  0  0  0  0  0  0  0
    2.8514  -49.2587  -17.0294 C   0  0  0  0  0  0  0  0  0  0  0  0
    2.7761  -47.3714  -13.9887 C   0  0  0  0  0  0  0  0  0  0  0  0
    3.7858  -46.3435  -14.3592 C   0  0  0  0  0  0  0  0  0  0  0  0
    2.4645  -47.5858  -12.7816 O   0  0  0  0  0  0  0  0  0  0  0  0
   -2.7098  -52.4592  -16.5221 C   0  0  0  0  0  0  0  0  0  0  0  0
   -2.0050  -52.9977  -17.5987 O   0  0  0  0  0  0  0  0  0  0  0  0
   -0.2170  -52.1892  -24.8608 N   0  0  0  0  0  0  0  0  0  0  0  0
    0.4502  -51.4196  -24.5461 H   0  0  0  0  0  0  0  0  0  0  0  0
   -0.6170  -52.2408  -26.2032 C   0  0  0  0  0  0  0  0  0  0  0  0
   -1.9560  -52.2970  -26.5397 C   0  0  0  0  0  0  0  0  0  0  0  0
   -2.3403  -52.4574  -27.8542 C   0  0  0  0  0  0  0  0  0  0  0  0
   -1.4182  -52.5658  -28.8564 C   0  0  0  0  0  0  0  0  0  0  0  0
   -0.0883  -52.5074  -28.5047 C   0  0  0  0  0  0  0  0  0  0  0  0
    0.3686  -52.3450  -27.1950 C   0  0  0  0  0  0  0  0  0  0  0  0
    1.7914  -52.2153  -26.9409 C   0  0  0  0  0  0  0  0  0  0  0  0
    2.5650  -51.3764  -27.4660 O   0  0  0  0  0  0  0  0  0  0  0  0
    2.4472  -53.0925  -26.0137 N   0  0  0  0  0  0  0  0  0  0  0  0
    3.8733  -52.9899  -25.7369 C   0  0  0  0  0  0  0  0  0  0  0  0
    1.9346  -53.8152  -25.5152 H   0  0  0  0  0  0  0  0  0  0  0  0
 25 26  1  0  0  0
 26 10  1  0  0  0
 10 11  2  0  0  0
 11 12  1  0  0  0
 12 13  2  0  0  0
 13 14  1  0  0  0
 14 15  2  0  0  0
 15  8  1  0  0  0
  8  1  1  0  0  0
  1  2  2  0  0  0
  2  3  1  0  0  0
  3  4  2  0  0  0
  4  5  1  0  0  0
  4  6  1  0  0  0
  6 27  1  0  0  0
 27 29  1  0  0  0
 29 30  2  0  0  0
 30 31  1  0  0  0
 31 32  2  0  0  0
 32 33  1  0  0  0
 33 34  2  0  0  0
 34 35  1  0  0  0
 35 36  2  0  0  0
 35 37  1  0  0  0
 37 38  1  0  0  0
  6  7  2  0  0  0
 12 16  1  0  0  0
 16 17  1  0  0  0
 17 18  1  0  0  0
 18 19  1  0  0  0
 19 20  1  0  0  0
 20 21  1  0  0  0
 19 22  1  0  0  0
 22 23  1  0  0  0
 22 24  2  0  0  0
 15 10  1  0  0  0
  7  1  1  0  0  0
 21 16  1  0  0  0
 34 29  1  0  0  0
  8  9  1  0  0  0
 27 28  1  0  0  0
 37 39  1  0  0  0
M  END
> <minimizedAffinity>
-8.24641

> <CNNscore>
0.8589876294

> <CNNaffinity>
7.7259864807

> <CNN_VS>
6.6365265846

> <CNNaffinity_variance>
0.1250875890

$$$$
[H]c1nc(N([H])c2c([H])c([H])c(N3C([H])([H])C([H])([H])N(C(=O)C([H])([H])[H])C([H])([H])C3([H])[H])c([H])c2OC([H])([H])[H])nc(N([H])c2c([H])c([H])c([H])c([H])c2C(=O)N([H])C([H])([H])[H])c1Cl


 39 42  0  0  0  0  0  0  0  0999 V2000
   -1.1373  -53.7912  -21.1615 C   0  0  0  0  0  0  0  0  0  0  0  0
   -1.4404  -54.9154  -21.8181 N   0  0  0  0  0  0  0  0  0  0  0  0
   -1.2239  -55.0902  -23.1280 C   0  0  0  0  0  0  0  0  0  0  0  0
   -0.6657  -54.0806  -23.8487 C   0  0  0  0  0  0  0  0  0  0  0  0
   -0.3718  -54.2784  -25.5579 Cl  0  0  0  0  0  0  0  0  0  0  0  0
   -0.3198  -52.8637  -23.2197 C   0  0  0  0  0  0  0  0  0  0  0  0
   -0.5846  -52.8223  -21.9308 N   0  0  0  0  0  0  0  0  0  0  0  0
   -1.3485  -53.5650  -19.7792 N   0  0  0  0  0  0  0  0  0  0  0  0
   -2.1676  -54.1190  -19.3650 H   0  0  0  0  0  0  0  0  0  0  0  0
   -1.1871  -52.5677  -17.6115 C   0  0  0  0  0  0  0  0  0  0  0  0
   -0.5698  -51.7730  -16.6831 C   0  0  0  0  0  0  0  0  0  0  0  0
    0.6014  -51.0994  -16.9535 C   0  0  0  0  0  0  0  0  0  0  0  0
    1.1150  -51.2720  -18.2128 C   0  0  0  0  0  0  0  0  0  0  0  0
    0.5118  -52.0739  -19.1826 C   0  0  0  0  0  0  0  0  0  0  0  0
   -0.6529  -52.7382  -18.8996 C   0  0  0  0  0  0  0  0  0  0  0  0
    1.2537  -50.2869  -15.9917 N   0  0  0  0  0  0  0  0  0  0  0  0
    1.2402  -48.8258  -16.0943 C   0  0  0  0  0  0  0  0  0  0  0  0
    2.6769  -48.4355  -16.3871 C   0  0  0  0  0  0  0  0  0  0  0  0
    3.4487  -48.9259  -15.2361 N   0  0  0  0  0  0  0  0  0  0  0  0
    3.4557  -50.3251  -14.9330 C   0  0  0  0  0  0  0  0  0  0  0  0
    1.9968  -50.8001  -14.8506 C   0  0  0  0  0  0  0  0  0  0  0  0
    4.1746  -47.9880  -14.4472 C   0  0  0  0  0  0  0  0  0  0  0  0
    4.9523  -48.4949  -13.2846 C   0  0  0  0  0  0  0  0  0  0  0  0
    4.1500  -46.7574  -14.7390 O   0  0  0  0  0  0  0  0  0  0  0  0
   -3.3018  -52.5659  -16.4342 C   0  0  0  0  0  0  0  0  0  0  0  0
   -2.3779  -53.2179  -17.2510 O   0  0  0  0  0  0  0  0  0  0  0  0
    0.2954  -51.8412  -23.9843 N   0  0  0  0  0  0  0  0  0  0  0  0
   -0.2227  -51.6008  -24.8846 H   0  0  0  0  0  0  0  0  0  0  0  0
    1.4440  -51.1147  -23.6414 C   0  0  0  0  0  0  0  0  0  0  0  0
    1.4193  -50.2025  -22.6039 C   0  0  0  0  0  0  0  0  0  0  0  0
    2.5186  -49.4126  -22.3411 C   0  0  0  0  0  0  0  0  0  0  0  0
    3.6563  -49.5052  -23.0917 C   0  0  0  0  0  0  0  0  0  0  0  0
    3.6651  -50.4191  -24.1215 C   0  0  0  0  0  0  0  0  0  0  0  0
    2.5885  -51.2497  -24.4400 C   0  0  0  0  0  0  0  0  0  0  0  0
    2.7290  -52.2359  -25.4953 C   0  0  0  0  0  0  0  0  0  0  0  0
    2.8114  -53.4799  -25.3413 O   0  0  0  0  0  0  0  0  0  0  0  0
    2.7856  -51.8270  -26.8696 N   0  0  0  0  0  0  0  0  0  0  0  0
    2.9274  -52.7908  -27.9522 C   0  0  0  0  0  0  0  0  0  0  0  0
    2.7249  -50.8472  -27.1336 H   0  0  0  0  0  0  0  0  0  0  0  0
 25 26  1  0  0  0
 26 10  1  0  0  0
 10 11  2  0  0  0
 11 12  1  0  0  0
 12 13  2  0  0  0
 13 14  1  0  0  0
 14 15  2  0  0  0
 15  8  1  0  0  0
  8  1  1  0  0  0
  1  2  2  0  0  0
  2  3  1  0  0  0
  3  4  2  0  0  0
  4  5  1  0  0  0
  4  6  1  0  0  0
  6 27  1  0  0  0
 27 29  1  0  0  0
 29 30  2  0  0  0
 30 31  1  0  0  0
 31 32  2  0  0  0
 32 33  1  0  0  0
 33 34  2  0  0  0
 34 35  1  0  0  0
 35 36  2  0  0  0
 35 37  1  0  0  0
 37 38  1  0  0  0
  6  7  2  0  0  0
 12 16  1  0  0  0
 16 17  1  0  0  0
 17 18  1  0  0  0
 18 19  1  0  0  0
 19 20  1  0  0  0
 20 21  1  0  0  0
 19 22  1  0  0  0
 22 23  1  0  0  0
 22 24  2  0  0  0
 15 10  1  0  0  0
  7  1  1  0  0  0
 21 16  1  0  0  0
 34 29  1  0  0  0
  8  9  1  0  0  0
 27 28  1  0  0  0
 37 39  1  0  0  0
M  END
> <minimizedAffinity>
-8.45094

> <CNNscore>
0.7999913096

> <CNNaffinity>
7.5067472458

> <CNN_VS>
6.0053324699

> <CNNaffinity_variance>
0.0601439476

$$$$
[H]c1nc(N([H])c2c([H])c([H])c(N3C([H])([H])C([H])([H])N(C(=O)C([H])([H])[H])C([H])([H])C3([H])[H])c([H])c2OC([H])([H])[H])nc(N([H])c2c([H])c([H])c([H])c([H])c2C(=O)N([H])C([H])([H])[H])c1Cl


 39 42  0  0  0  0  0  0  0  0999 V2000
    0.2941  -52.8168  -20.9511 C   0  0  0  0  0  0  0  0  0  0  0  0
   -0.6698  -53.5645  -21.4974 N   0  0  0  0  0  0  0  0  0  0  0  0
   -0.9427  -53.5803  -22.8083 C   0  0  0  0  0  0  0  0  0  0  0  0
   -0.2104  -52.7998  -23.6479 C   0  0  0  0  0  0  0  0  0  0  0  0
   -0.5429  -52.7985  -25.3614 Cl  0  0  0  0  0  0  0  0  0  0  0  0
    0.8247  -51.9835  -23.1395 C   0  0  0  0  0  0  0  0  0  0  0  0
    0.9890  -52.0612  -21.8356 N   0  0  0  0  0  0  0  0  0  0  0  0
    0.6160  -52.7706  -19.5724 N   0  0  0  0  0  0  0  0  0  0  0  0
    0.6280  -53.7295  -19.0932 H   0  0  0  0  0  0  0  0  0  0  0  0
    2.2567  -51.2680  -18.6951 C   0  0  0  0  0  0  0  0  0  0  0  0
    2.6390  -50.1999  -17.9286 C   0  0  0  0  0  0  0  0  0  0  0  0
    1.7380  -49.4644  -17.1898 C   0  0  0  0  0  0  0  0  0  0  0  0
    0.4297  -49.8668  -17.2671 C   0  0  0  0  0  0  0  0  0  0  0  0
    0.0061  -50.9503  -18.0377 C   0  0  0  0  0  0  0  0  0  0  0  0
    0.9134  -51.6727  -18.7677 C   0  0  0  0  0  0  0  0  0  0  0  0
    2.1253  -48.3480  -16.4060 N   0  0  0  0  0  0  0  0  0  0  0  0
    2.9002  -47.2461  -16.9810 C   0  0  0  0  0  0  0  0  0  0  0  0
    4.2565  -47.3199  -16.3048 C   0  0  0  0  0  0  0  0  0  0  0  0
    3.9797  -47.1444  -14.8719 N   0  0  0  0  0  0  0  0  0  0  0  0
    3.1309  -48.0780  -14.1953 C   0  0  0  0  0  0  0  0  0  0  0  0
    1.8216  -48.1922  -14.9914 C   0  0  0  0  0  0  0  0  0  0  0  0
    4.5682  -46.0411  -14.1897 C   0  0  0  0  0  0  0  0  0  0  0  0
    4.2814  -45.8726  -12.7395 C   0  0  0  0  0  0  0  0  0  0  0  0
    5.3142  -45.2321  -14.8135 O   0  0  0  0  0  0  0  0  0  0  0  0
    4.1154  -51.2578  -20.2453 C   0  0  0  0  0  0  0  0  0  0  0  0
    3.2414  -51.9613  -19.4165 O   0  0  0  0  0  0  0  0  0  0  0  0
    1.5982  -51.2083  -24.0392 N   0  0  0  0  0  0  0  0  0  0  0  0
    1.0219  -50.5666  -24.6658 H   0  0  0  0  0  0  0  0  0  0  0  0
    2.9966  -51.1758  -24.1284 C   0  0  0  0  0  0  0  0  0  0  0  0
    3.7002  -52.2693  -24.5957 C   0  0  0  0  0  0  0  0  0  0  0  0
    5.0791  -52.2725  -24.5792 C   0  0  0  0  0  0  0  0  0  0  0  0
    5.7869  -51.2051  -24.1038 C   0  0  0  0  0  0  0  0  0  0  0  0
    5.0711  -50.1233  -23.6423 C   0  0  0  0  0  0  0  0  0  0  0  0
    3.6762  -50.0543  -23.6323 C   0  0  0  0  0  0  0  0  0  0  0  0
    3.0199  -48.8349  -23.1985 C   0  0  0  0  0  0  0  0  0  0  0  0
    2.0605  -48.7560  -22.3913 O   0  0  0  0  0  0  0  0  0  0  0  0
    3.4531  -47.5600  -23.6947 N   0  0  0  0  0  0  0  0  0  0  0  0
    2.8154  -46.3179  -23.2807 C   0  0  0  0  0  0  0  0  0  0  0  0
    4.2247  -47.4820  -24.3519 H   0  0  0  0  0  0  0  0  0  0  0  0
 25 26  1  0  0  0
 26 10  1  0  0  0
 10 11  2  0  0  0
 11 12  1  0  0  0
 12 13  2  0  0  0
 13 14  1  0  0  0
 14 15  2  0  0  0
 15  8  1  0  0  0
  8  1  1  0  0  0
  1  2  2  0  0  0
  2  3  1  0  0  0
  3  4  2  0  0  0
  4  5  1  0  0  0
  4  6  1  0  0  0
  6 27  1  0  0  0
 27 29  1  0  0  0
 29 30  2  0  0  0
 30 31  1  0  0  0
 31 32  2  0  0  0
 32 33  1  0  0  0
 33 34  2  0  0  0
 34 35  1  0  0  0
 35 36  2  0  0  0
 35 37  1  0  0  0
 37 38  1  0  0  0
  6  7  2  0  0  0
 12 16  1  0  0  0
 16 17  1  0  0  0
 17 18  1  0  0  0
 18 19  1  0  0  0
 19 20  1  0  0  0
 20 21  1  0  0  0
 19 22  1  0  0  0
 22 23  1  0  0  0
 22 24  2  0  0  0
 15 10  1  0  0  0
  7  1  1  0  0  0
 21 16  1  0  0  0
 34 29  1  0  0  0
  8  9  1  0  0  0
 27 28  1  0  0  0
 37 39  1  0  0  0
M  END
> <minimizedAffinity>
-6.49564

> <CNNscore>
0.3496146500

> <CNNaffinity>
6.6567487717

> <CNN_VS>
2.3272969723

> <CNNaffinity_variance>
0.1766937673

$$$$
[H]c1nc(N([H])c2c([H])c([H])c(N3C([H])([H])C([H])([H])N(C(=O)C([H])([H])[H])C([H])([H])C3([H])[H])c([H])c2OC([H])([H])[H])nc(N([H])c2c([H])c([H])c([H])c([H])c2C(=O)N([H])C([H])([H])[H])c1Cl


 39 42  0  0  0  0  0  0  0  0999 V2000
    0.1041  -52.8341  -22.6485 C   0  0  0  0  0  0  0  0  0  0  0  0
   -0.6640  -53.1643  -23.6915 N   0  0  0  0  0  0  0  0  0  0  0  0
   -0.2130  -53.2389  -24.9501 C   0  0  0  0  0  0  0  0  0  0  0  0
    1.0958  -52.9677  -25.2031 C   0  0  0  0  0  0  0  0  0  0  0  0
    1.7130  -53.0560  -26.8334 Cl  0  0  0  0  0  0  0  0  0  0  0  0
    1.9658  -52.6118  -24.1482 C   0  0  0  0  0  0  0  0  0  0  0  0
    1.3968  -52.5753  -22.9617 N   0  0  0  0  0  0  0  0  0  0  0  0
   -0.3315  -52.7440  -21.3036 N   0  0  0  0  0  0  0  0  0  0  0  0
   -1.1796  -53.3590  -21.0759 H   0  0  0  0  0  0  0  0  0  0  0  0
   -0.3449  -52.2108  -18.9723 C   0  0  0  0  0  0  0  0  0  0  0  0
    0.0985  -51.5072  -17.8848 C   0  0  0  0  0  0  0  0  0  0  0  0
    1.0765  -50.5415  -17.9821 C   0  0  0  0  0  0  0  0  0  0  0  0
    1.5821  -50.3250  -19.2379 C   0  0  0  0  0  0  0  0  0  0  0  0
    1.1530  -51.0237  -20.3671 C   0  0  0  0  0  0  0  0  0  0  0  0
    0.1795  -51.9817  -20.2553 C   0  0  0  0  0  0  0  0  0  0  0  0
    1.5507  -49.8198  -16.8574 N   0  0  0  0  0  0  0  0  0  0  0  0
    2.1296  -48.4819  -17.0001 C   0  0  0  0  0  0  0  0  0  0  0  0
    3.5967  -48.6451  -16.6491 C   0  0  0  0  0  0  0  0  0  0  0  0
    3.6065  -49.1330  -15.2626 N   0  0  0  0  0  0  0  0  0  0  0  0
    2.9666  -50.3736  -14.9442 C   0  0  0  0  0  0  0  0  0  0  0  0
    1.5317  -50.3215  -15.4915 C   0  0  0  0  0  0  0  0  0  0  0  0
    4.2577  -48.3521  -14.2651 C   0  0  0  0  0  0  0  0  0  0  0  0
    4.2617  -48.8550  -12.8649 C   0  0  0  0  0  0  0  0  0  0  0  0
    4.8150  -47.2598  -14.5758 O   0  0  0  0  0  0  0  0  0  0  0  0
   -2.0902  -53.1791  -17.6031 C   0  0  0  0  0  0  0  0  0  0  0  0
   -1.3450  -53.1775  -18.7823 O   0  0  0  0  0  0  0  0  0  0  0  0
    3.3333  -52.3712  -24.4320 N   0  0  0  0  0  0  0  0  0  0  0  0
    3.6932  -52.8791  -25.2976 H   0  0  0  0  0  0  0  0  0  0  0  0
    4.1957  -51.5149  -23.7337 C   0  0  0  0  0  0  0  0  0  0  0  0
    4.7804  -51.9149  -22.5474 C   0  0  0  0  0  0  0  0  0  0  0  0
    5.5400  -51.0316  -21.8096 C   0  0  0  0  0  0  0  0  0  0  0  0
    5.7361  -49.7445  -22.2236 C   0  0  0  0  0  0  0  0  0  0  0  0
    5.1472  -49.3617  -23.4078 C   0  0  0  0  0  0  0  0  0  0  0  0
    4.3685  -50.2051  -24.2033 C   0  0  0  0  0  0  0  0  0  0  0  0
    3.8591  -49.7259  -25.4749 C   0  0  0  0  0  0  0  0  0  0  0  0
    2.6582  -49.7342  -25.8431 O   0  0  0  0  0  0  0  0  0  0  0  0
    4.7517  -49.1762  -26.4548 N   0  0  0  0  0  0  0  0  0  0  0  0
    4.2734  -48.6877  -27.7407 C   0  0  0  0  0  0  0  0  0  0  0  0
    5.7509  -49.1065  -26.2812 H   0  0  0  0  0  0  0  0  0  0  0  0
 25 26  1  0  0  0
 26 10  1  0  0  0
 10 11  2  0  0  0
 11 12  1  0  0  0
 12 13  2  0  0  0
 13 14  1  0  0  0
 14 15  2  0  0  0
 15  8  1  0  0  0
  8  1  1  0  0  0
  1  2  2  0  0  0
  2  3  1  0  0  0
  3  4  2  0  0  0
  4  5  1  0  0  0
  4  6  1  0  0  0
  6 27  1  0  0  0
 27 29  1  0  0  0
 29 30  2  0  0  0
 30 31  1  0  0  0
 31 32  2  0  0  0
 32 33  1  0  0  0
 33 34  2  0  0  0
 34 35  1  0  0  0
 35 36  2  0  0  0
 35 37  1  0  0  0
 37 38  1  0  0  0
  6  7  2  0  0  0
 12 16  1  0  0  0
 16 17  1  0  0  0
 17 18  1  0  0  0
 18 19  1  0  0  0
 19 20  1  0  0  0
 20 21  1  0  0  0
 19 22  1  0  0  0
 22 23  1  0  0  0
 22 24  2  0  0  0
 15 10  1  0  0  0
  7  1  1  0  0  0
 21 16  1  0  0  0
 34 29  1  0  0  0
  8  9  1  0  0  0
 27 28  1  0  0  0
 37 39  1  0  0  0
M  END
> <minimizedAffinity>
-6.76975

> <CNNscore>
0.3253335059

> <CNNaffinity>
6.9910521507

> <CNN_VS>
2.2744235992

> <CNNaffinity_variance>
0.3813834786

$$$$
[H]c1nc(N([H])c2c([H])c([H])c(N3C([H])([H])C([H])([H])N(C(=O)C([H])([H])[H])C([H])([H])C3([H])[H])c([H])c2OC([H])([H])[H])nc(N([H])c2c([H])c([H])c([H])c([H])c2C(=O)N([H])C([H])([H])[H])c1Cl


 39 42  0  0  0  0  0  0  0  0999 V2000
    0.3404  -52.7980  -21.3112 C   0  0  0  0  0  0  0  0  0  0  0  0
   -0.6635  -53.2788  -22.0514 N   0  0  0  0  0  0  0  0  0  0  0  0
   -0.8346  -52.9878  -23.3472 C   0  0  0  0  0  0  0  0  0  0  0  0
    0.0508  -52.1592  -23.9637 C   0  0  0  0  0  0  0  0  0  0  0  0
   -0.1460  -51.7609  -25.6517 Cl  0  0  0  0  0  0  0  0  0  0  0  0
    1.1365  -51.6140  -23.2423 C   0  0  0  0  0  0  0  0  0  0  0  0
    1.1892  -51.9793  -21.9786 N   0  0  0  0  0  0  0  0  0  0  0  0
    0.5583  -53.0802  -19.9403 N   0  0  0  0  0  0  0  0  0  0  0  0
    1.0116  -54.0341  -19.7563 H   0  0  0  0  0  0  0  0  0  0  0  0
    1.1044  -51.2035  -18.5621 C   0  0  0  0  0  0  0  0  0  0  0  0
    0.8955  -50.3877  -17.4825 C   0  0  0  0  0  0  0  0  0  0  0  0
   -0.1349  -50.5956  -16.5917 C   0  0  0  0  0  0  0  0  0  0  0  0
   -0.9428  -51.6726  -16.8506 C   0  0  0  0  0  0  0  0  0  0  0  0
   -0.7582  -52.5238  -17.9409 C   0  0  0  0  0  0  0  0  0  0  0  0
    0.2709  -52.3048  -18.8189 C   0  0  0  0  0  0  0  0  0  0  0  0
   -0.3657  -49.7459  -15.4803 N   0  0  0  0  0  0  0  0  0  0  0  0
   -1.7242  -49.4073  -15.0499 C   0  0  0  0  0  0  0  0  0  0  0  0
   -1.8741  -47.9253  -15.3389 C   0  0  0  0  0  0  0  0  0  0  0  0
   -0.8336  -47.2712  -14.5325 N   0  0  0  0  0  0  0  0  0  0  0  0
    0.5429  -47.5968  -14.7541 C   0  0  0  0  0  0  0  0  0  0  0  0
    0.6855  -49.1253  -14.6881 C   0  0  0  0  0  0  0  0  0  0  0  0
   -1.2262  -46.3233  -13.5444 C   0  0  0  0  0  0  0  0  0  0  0  0
   -0.1652  -45.6671  -12.7338 C   0  0  0  0  0  0  0  0  0  0  0  0
   -2.4502  -46.0554  -13.3709 O   0  0  0  0  0  0  0  0  0  0  0  0
    3.4865  -51.0045  -18.9418 C   0  0  0  0  0  0  0  0  0  0  0  0
    2.1787  -50.9180  -19.4194 O   0  0  0  0  0  0  0  0  0  0  0  0
    2.0666  -50.7840  -23.9165 N   0  0  0  0  0  0  0  0  0  0  0  0
    1.6254  -49.9464  -24.4069 H   0  0  0  0  0  0  0  0  0  0  0  0
    3.4598  -50.9354  -23.9417 C   0  0  0  0  0  0  0  0  0  0  0  0
    4.0379  -52.0636  -24.4914 C   0  0  0  0  0  0  0  0  0  0  0  0
    5.4010  -52.2580  -24.4162 C   0  0  0  0  0  0  0  0  0  0  0  0
    6.2157  -51.3504  -23.8007 C   0  0  0  0  0  0  0  0  0  0  0  0
    5.6244  -50.2315  -23.2585 C   0  0  0  0  0  0  0  0  0  0  0  0
    4.2526  -49.9726  -23.3011 C   0  0  0  0  0  0  0  0  0  0  0  0
    3.7399  -48.7235  -22.7694 C   0  0  0  0  0  0  0  0  0  0  0  0
    3.0380  -47.8863  -23.3894 O   0  0  0  0  0  0  0  0  0  0  0  0
    4.0190  -48.3410  -21.4148 N   0  0  0  0  0  0  0  0  0  0  0  0
    3.5208  -47.0941  -20.8508 C   0  0  0  0  0  0  0  0  0  0  0  0
    4.5734  -48.9322  -20.8010 H   0  0  0  0  0  0  0  0  0  0  0  0
 25 26  1  0  0  0
 26 10  1  0  0  0
 10 11  2  0  0  0
 11 12  1  0  0  0
 12 13  2  0  0  0
 13 14  1  0  0  0
 14 15  2  0  0  0
 15  8  1  0  0  0
  8  1  1  0  0  0
  1  2  2  0  0  0
  2  3  1  0  0  0
  3  4  2  0  0  0
  4  5  1  0  0  0
  4  6  1  0  0  0
  6 27  1  0  0  0
 27 29  1  0  0  0
 29 30  2  0  0  0
 30 31  1  0  0  0
 31 32  2  0  0  0
 32 33  1  0  0  0
 33 34  2  0  0  0
 34 35  1  0  0  0
 35 36  2  0  0  0
 35 37  1  0  0  0
 37 38  1  0  0  0
  6  7  2  0  0  0
 12 16  1  0  0  0
 16 17  1  0  0  0
 17 18  1  0  0  0
 18 19  1  0  0  0
 19 20  1  0  0  0
 20 21  1  0  0  0
 19 22  1  0  0  0
 22 23  1  0  0  0
 22 24  2  0  0  0
 15 10  1  0  0  0
  7  1  1  0  0  0
 21 16  1  0  0  0
 34 29  1  0  0  0
  8  9  1  0  0  0
 27 28  1  0  0  0
 37 39  1  0  0  0
M  END
> <minimizedAffinity>
-6.79562

> <CNNscore>
0.2996160984

> <CNNaffinity>
6.7226114273

> <CNN_VS>
2.0142025948

> <CNNaffinity_variance>
0.0770390183

$$$$
[H]c1nc(N([H])c2c([H])c([H])c(N3C([H])([H])C([H])([H])N(C(=O)C([H])([H])[H])C([H])([H])C3([H])[H])c([H])c2OC([H])([H])[H])nc(N([H])c2c([H])c([H])c([H])c([H])c2C(=O)N([H])C([H])([H])[H])c1Cl


 39 42  0  0  0  0  0  0  0  0999 V2000
   -1.7584  -52.7030  -17.1326 C   0  0  0  0  0  0  0  0  0  0  0  0
   -3.0584  -53.0022  -17.2183 N   0  0  0  0  0  0  0  0  0  0  0  0
   -3.9917  -52.4922  -16.4047 C   0  0  0  0  0  0  0  0  0  0  0  0
   -3.6177  -51.6196  -15.4306 C   0  0  0  0  0  0  0  0  0  0  0  0
   -4.8113  -50.9385  -14.3544 Cl  0  0  0  0  0  0  0  0  0  0  0  0
   -2.2599  -51.2581  -15.2818 C   0  0  0  0  0  0  0  0  0  0  0  0
   -1.4464  -51.8298  -16.1445 N   0  0  0  0  0  0  0  0  0  0  0  0
   -0.7399  -53.2183  -17.9714 N   0  0  0  0  0  0  0  0  0  0  0  0
   -0.0275  -53.8388  -17.4646 H   0  0  0  0  0  0  0  0  0  0  0  0
    0.5196  -52.1981  -19.7299 C   0  0  0  0  0  0  0  0  0  0  0  0
    0.7890  -51.9610  -21.0511 C   0  0  0  0  0  0  0  0  0  0  0  0
    0.0455  -52.5229  -22.0660 C   0  0  0  0  0  0  0  0  0  0  0  0
   -0.9852  -53.3374  -21.6736 C   0  0  0  0  0  0  0  0  0  0  0  0
   -1.2872  -53.6001  -20.3368 C   0  0  0  0  0  0  0  0  0  0  0  0
   -0.5390  -53.0343  -19.3378 C   0  0  0  0  0  0  0  0  0  0  0  0
    0.3286  -52.2934  -23.4364 N   0  0  0  0  0  0  0  0  0  0  0  0
   -0.6328  -52.6495  -24.4824 C   0  0  0  0  0  0  0  0  0  0  0  0
    0.0174  -53.7865  -25.2484 C   0  0  0  0  0  0  0  0  0  0  0  0
    1.2669  -53.2241  -25.7804 N   0  0  0  0  0  0  0  0  0  0  0  0
    2.2558  -52.7172  -24.8778 C   0  0  0  0  0  0  0  0  0  0  0  0
    1.5691  -51.7179  -23.9340 C   0  0  0  0  0  0  0  0  0  0  0  0
    1.4616  -53.1985  -27.1913 C   0  0  0  0  0  0  0  0  0  0  0  0
    2.7297  -52.6271  -27.7193 C   0  0  0  0  0  0  0  0  0  0  0  0
    0.5701  -53.6536  -27.9647 O   0  0  0  0  0  0  0  0  0  0  0  0
    2.6611  -51.2947  -19.0548 C   0  0  0  0  0  0  0  0  0  0  0  0
    1.3287  -51.5844  -18.7607 O   0  0  0  0  0  0  0  0  0  0  0  0
   -1.9007  -50.3180  -14.2839 N   0  0  0  0  0  0  0  0  0  0  0  0
   -1.8162  -50.7338  -13.3058 H   0  0  0  0  0  0  0  0  0  0  0  0
   -1.6054  -48.9617  -14.4782 C   0  0  0  0  0  0  0  0  0  0  0  0
   -2.6165  -48.0371  -14.6568 C   0  0  0  0  0  0  0  0  0  0  0  0
   -2.3187  -46.7243  -14.9558 C   0  0  0  0  0  0  0  0  0  0  0  0
   -1.0265  -46.3001  -15.0848 C   0  0  0  0  0  0  0  0  0  0  0  0
   -0.0306  -47.2334  -14.9034 C   0  0  0  0  0  0  0  0  0  0  0  0
   -0.2626  -48.5763  -14.5977 C   0  0  0  0  0  0  0  0  0  0  0  0
    0.8602  -49.4609  -14.3473 C   0  0  0  0  0  0  0  0  0  0  0  0
    1.5006  -49.5597  -13.2711 O   0  0  0  0  0  0  0  0  0  0  0  0
    1.3405  -50.3356  -15.3784 N   0  0  0  0  0  0  0  0  0  0  0  0
    2.4654  -51.2345  -15.1603 C   0  0  0  0  0  0  0  0  0  0  0  0
    0.9072  -50.3587  -16.2977 H   0  0  0  0  0  0  0  0  0  0  0  0
 25 26  1  0  0  0
 26 10  1  0  0  0
 10 11  2  0  0  0
 11 12  1  0  0  0
 12 13  2  0  0  0
 13 14  1  0  0  0
 14 15  2  0  0  0
 15  8  1  0  0  0
  8  1  1  0  0  0
  1  2  2  0  0  0
  2  3  1  0  0  0
  3  4  2  0  0  0
  4  5  1  0  0  0
  4  6  1  0  0  0
  6 27  1  0  0  0
 27 29  1  0  0  0
 29 30  2  0  0  0
 30 31  1  0  0  0
 31 32  2  0  0  0
 32 33  1  0  0  0
 33 34  2  0  0  0
 34 35  1  0  0  0
 35 36  2  0  0  0
 35 37  1  0  0  0
 37 38  1  0  0  0
  6  7  2  0  0  0
 12 16  1  0  0  0
 16 17  1  0  0  0
 17 18  1  0  0  0
 18 19  1  0  0  0
 19 20  1  0  0  0
 20 21  1  0  0  0
 19 22  1  0  0  0
 22 23  1  0  0  0
 22 24  2  0  0  0
 15 10  1  0  0  0
  7  1  1  0  0  0
 21 16  1  0  0  0
 34 29  1  0  0  0
  8  9  1  0  0  0
 27 28  1  0  0  0
 37 39  1  0  0  0
M  END
> <minimizedAffinity>
-7.85897

> <CNNscore>
0.2395513654

> <CNNaffinity>
6.5976362228

> <CNN_VS>
1.5804727077

> <CNNaffinity_variance>
0.1771159470

$$$$
[H]c1nc(N([H])c2c([H])c([H])c(N3C([H])([H])C([H])([H])N(C(=O)C([H])([H])[H])C([H])([H])C3([H])[H])c([H])c2OC([H])([H])[H])nc(N([H])c2c([H])c([H])c([H])c([H])c2C(=O)N([H])C([H])([H])[H])c1Cl


 39 42  0  0  0  0  0  0  0  0999 V2000
    1.0195  -50.5688  -20.6425 C   0  0  0  0  0  0  0  0  0  0  0  0
    0.4364  -51.0489  -21.7453 N   0  0  0  0  0  0  0  0  0  0  0  0
   -0.4000  -52.0946  -21.7464 C   0  0  0  0  0  0  0  0  0  0  0  0
   -0.6856  -52.7170  -20.5710 C   0  0  0  0  0  0  0  0  0  0  0  0
   -1.7717  -54.0831  -20.5405 Cl  0  0  0  0  0  0  0  0  0  0  0  0
   -0.1047  -52.2630  -19.3656 C   0  0  0  0  0  0  0  0  0  0  0  0
    0.6976  -51.2285  -19.5035 N   0  0  0  0  0  0  0  0  0  0  0  0
    1.9083  -49.4668  -20.5967 N   0  0  0  0  0  0  0  0  0  0  0  0
    2.0234  -49.0373  -19.6211 H   0  0  0  0  0  0  0  0  0  0  0  0
    3.7937  -49.5433  -22.0660 C   0  0  0  0  0  0  0  0  0  0  0  0
    4.5724  -49.0336  -23.0702 C   0  0  0  0  0  0  0  0  0  0  0  0
    4.2743  -47.8459  -23.7017 C   0  0  0  0  0  0  0  0  0  0  0  0
    3.1467  -47.2007  -23.2635 C   0  0  0  0  0  0  0  0  0  0  0  0
    2.3313  -47.6917  -22.2430 C   0  0  0  0  0  0  0  0  0  0  0  0
    2.6401  -48.8745  -21.6239 C   0  0  0  0  0  0  0  0  0  0  0  0
    5.0682  -47.3202  -24.7525 N   0  0  0  0  0  0  0  0  0  0  0  0
    4.4830  -46.9783  -26.0510 C   0  0  0  0  0  0  0  0  0  0  0  0
    5.0757  -47.9763  -27.0282 C   0  0  0  0  0  0  0  0  0  0  0  0
    6.5271  -47.7508  -26.9722 N   0  0  0  0  0  0  0  0  0  0  0  0
    7.2232  -47.9246  -25.7332 C   0  0  0  0  0  0  0  0  0  0  0  0
    6.5023  -47.0905  -24.6629 C   0  0  0  0  0  0  0  0  0  0  0  0
    7.2074  -47.3623  -28.1618 C   0  0  0  0  0  0  0  0  0  0  0  0
    8.6764  -47.1366  -28.0941 C   0  0  0  0  0  0  0  0  0  0  0  0
    6.5662  -47.2164  -29.2424 O   0  0  0  0  0  0  0  0  0  0  0  0
    5.1514  -51.5469  -22.0837 C   0  0  0  0  0  0  0  0  0  0  0  0
    4.1715  -50.7606  -21.4777 O   0  0  0  0  0  0  0  0  0  0  0  0
   -0.4477  -52.9042  -18.1492 N   0  0  0  0  0  0  0  0  0  0  0  0
    0.1586  -53.7502  -17.9182 H   0  0  0  0  0  0  0  0  0  0  0  0
   -1.4350  -52.5016  -17.2393 C   0  0  0  0  0  0  0  0  0  0  0  0
   -2.6858  -53.0887  -17.2486 C   0  0  0  0  0  0  0  0  0  0  0  0
   -3.6864  -52.6153  -16.4264 C   0  0  0  0  0  0  0  0  0  0  0  0
   -3.4753  -51.5600  -15.5849 C   0  0  0  0  0  0  0  0  0  0  0  0
   -2.2237  -50.9864  -15.5872 C   0  0  0  0  0  0  0  0  0  0  0  0
   -1.1668  -51.4170  -16.3922 C   0  0  0  0  0  0  0  0  0  0  0  0
    0.1375  -50.7947  -16.2600 C   0  0  0  0  0  0  0  0  0  0  0  0
    1.1293  -51.2729  -15.6554 O   0  0  0  0  0  0  0  0  0  0  0  0
    0.3940  -49.5120  -16.8499 N   0  0  0  0  0  0  0  0  0  0  0  0
    1.6909  -48.8595  -16.7349 C   0  0  0  0  0  0  0  0  0  0  0  0
   -0.3234  -49.0163  -17.3724 H   0  0  0  0  0  0  0  0  0  0  0  0
 25 26  1  0  0  0
 26 10  1  0  0  0
 10 11  2  0  0  0
 11 12  1  0  0  0
 12 13  2  0  0  0
 13 14  1  0  0  0
 14 15  2  0  0  0
 15  8  1  0  0  0
  8  1  1  0  0  0
  1  2  2  0  0  0
  2  3  1  0  0  0
  3  4  2  0  0  0
  4  5  1  0  0  0
  4  6  1  0  0  0
  6 27  1  0  0  0
 27 29  1  0  0  0
 29 30  2  0  0  0
 30 31  1  0  0  0
 31 32  2  0  0  0
 32 33  1  0  0  0
 33 34  2  0  0  0
 34 35  1  0  0  0
 35 36  2  0  0  0
 35 37  1  0  0  0
 37 38  1  0  0  0
  6  7  2  0  0  0
 12 16  1  0  0  0
 16 17  1  0  0  0
 17 18  1  0  0  0
 18 19  1  0  0  0
 19 20  1  0  0  0
 20 21  1  0  0  0
 19 22  1  0  0  0
 22 23  1  0  0  0
 22 24  2  0  0  0
 15 10  1  0  0  0
  7  1  1  0  0  0
 21 16  1  0  0  0
 34 29  1  0  0  0
  8  9  1  0  0  0
 27 28  1  0  0  0
 37 39  1  0  0  0
M  END
> <minimizedAffinity>
-6.72724

> <CNNscore>
0.1957800239

> <CNNaffinity>
6.2676601410

> <CNN_VS>
1.2270826101

> <CNNaffinity_variance>
0.0751740113

$$$$
[H]c1nc(N([H])c2c([H])c([H])c(N3C([H])([H])C([H])([H])N(C(=O)C([H])([H])[H])C([H])([H])C3([H])[H])c([H])c2OC([H])([H])[H])nc(N([H])c2c([H])c([H])c([H])c([H])c2C(=O)N([H])C([H])([H])[H])c1Cl


 39 42  0  0  0  0  0  0  0  0999 V2000
   -0.0805  -52.1294  -20.5987 C   0  0  0  0  0  0  0  0  0  0  0  0
   -0.6848  -53.2340  -20.1499 N   0  0  0  0  0  0  0  0  0  0  0  0
   -1.0532  -54.2505  -20.9399 C   0  0  0  0  0  0  0  0  0  0  0  0
   -0.8083  -54.1751  -22.2758 C   0  0  0  0  0  0  0  0  0  0  0  0
   -1.2773  -55.4839  -23.3312 Cl  0  0  0  0  0  0  0  0  0  0  0  0
   -0.1727  -53.0365  -22.8198 C   0  0  0  0  0  0  0  0  0  0  0  0
    0.1370  -52.1113  -21.9361 N   0  0  0  0  0  0  0  0  0  0  0  0
    0.3258  -51.0329  -19.7992 N   0  0  0  0  0  0  0  0  0  0  0  0
   -0.1512  -50.9899  -18.8400 H   0  0  0  0  0  0  0  0  0  0  0  0
    2.5168  -50.1224  -19.4998 C   0  0  0  0  0  0  0  0  0  0  0  0
    3.4787  -49.1738  -19.7221 C   0  0  0  0  0  0  0  0  0  0  0  0
    3.2563  -48.0738  -20.5216 C   0  0  0  0  0  0  0  0  0  0  0  0
    2.0093  -47.9841  -21.0842 C   0  0  0  0  0  0  0  0  0  0  0  0
    1.0064  -48.9324  -20.8785 C   0  0  0  0  0  0  0  0  0  0  0  0
    1.2418  -50.0215  -20.0808 C   0  0  0  0  0  0  0  0  0  0  0  0
    4.2529  -47.0957  -20.7680 N   0  0  0  0  0  0  0  0  0  0  0  0
    4.4980  -46.5816  -22.1174 C   0  0  0  0  0  0  0  0  0  0  0  0
    5.8790  -47.0880  -22.4900 C   0  0  0  0  0  0  0  0  0  0  0  0
    6.7817  -46.5147  -21.4815 N   0  0  0  0  0  0  0  0  0  0  0  0
    6.5876  -46.8280  -20.0980 C   0  0  0  0  0  0  0  0  0  0  0  0
    5.1216  -46.5320  -19.7455 C   0  0  0  0  0  0  0  0  0  0  0  0
    7.8336  -45.6559  -21.9114 C   0  0  0  0  0  0  0  0  0  0  0  0
    8.7415  -45.0809  -20.8825 C   0  0  0  0  0  0  0  0  0  0  0  0
    7.9810  -45.3969  -23.1408 O   0  0  0  0  0  0  0  0  0  0  0  0
    3.3157  -50.9839  -17.3837 C   0  0  0  0  0  0  0  0  0  0  0  0
    2.8292  -51.2116  -18.6711 O   0  0  0  0  0  0  0  0  0  0  0  0
    0.1057  -52.9984  -24.2089 N   0  0  0  0  0  0  0  0  0  0  0  0
   -0.7637  -52.9852  -24.8259 H   0  0  0  0  0  0  0  0  0  0  0  0
    1.3705  -52.9221  -24.8080 C   0  0  0  0  0  0  0  0  0  0  0  0
    2.4970  -52.6664  -24.0498 C   0  0  0  0  0  0  0  0  0  0  0  0
    3.7217  -52.4844  -24.6567 C   0  0  0  0  0  0  0  0  0  0  0  0
    3.8591  -52.5493  -26.0143 C   0  0  0  0  0  0  0  0  0  0  0  0
    2.7274  -52.8052  -26.7556 C   0  0  0  0  0  0  0  0  0  0  0  0
    1.4588  -53.0008  -26.2051 C   0  0  0  0  0  0  0  0  0  0  0  0
    0.3451  -53.3444  -27.0697 C   0  0  0  0  0  0  0  0  0  0  0  0
   -0.4339  -54.3189  -26.9236 O   0  0  0  0  0  0  0  0  0  0  0  0
    0.0428  -52.5409  -28.2197 N   0  0  0  0  0  0  0  0  0  0  0  0
   -1.0665  -52.8586  -29.1081 C   0  0  0  0  0  0  0  0  0  0  0  0
    0.5937  -51.7184  -28.4507 H   0  0  0  0  0  0  0  0  0  0  0  0
 25 26  1  0  0  0
 26 10  1  0  0  0
 10 11  2  0  0  0
 11 12  1  0  0  0
 12 13  2  0  0  0
 13 14  1  0  0  0
 14 15  2  0  0  0
 15  8  1  0  0  0
  8  1  1  0  0  0
  1  2  2  0  0  0
  2  3  1  0  0  0
  3  4  2  0  0  0
  4  5  1  0  0  0
  4  6  1  0  0  0
  6 27  1  0  0  0
 27 29  1  0  0  0
 29 30  2  0  0  0
 30 31  1  0  0  0
 31 32  2  0  0  0
 32 33  1  0  0  0
 33 34  2  0  0  0
 34 35  1  0  0  0
 35 36  2  0  0  0
 35 37  1  0  0  0
 37 38  1  0  0  0
  6  7  2  0  0  0
 12 16  1  0  0  0
 16 17  1  0  0  0
 17 18  1  0  0  0
 18 19  1  0  0  0
 19 20  1  0  0  0
 20 21  1  0  0  0
 19 22  1  0  0  0
 22 23  1  0  0  0
 22 24  2  0  0  0
 15 10  1  0  0  0
  7  1  1  0  0  0
 21 16  1  0  0  0
 34 29  1  0  0  0
  8  9  1  0  0  0
 27 28  1  0  0  0
 37 39  1  0  0  0
M  END
> <minimizedAffinity>
-7.69229

> <CNNscore>
0.1882938892

> <CNNaffinity>
6.6964402199

> <CNN_VS>
1.2608988285

> <CNNaffinity_variance>
0.1605387032

$$$$
[H]OC(=O)C([H])([H])C([H])([H])[C@@]([H])(C(=O)N([H])[C@]([H])(C(=O)N([H])[C@]([H])(C(=O)N([H])[C@]([H])(C(=O)N([H])[C@]([H])(C(=O)N([H])[H])C([H])([H])c1c([H])c([H])c([H])c([H])c1[H])C([H])([H])c1c([H])nc([H])n1[H])C([H])([H])C([H])(C([H])([H])[H])C([H])([H])[H])C([H])([H])C([H])([H])C(=O)N([H])[H])N([H])[H]


 60 61  0  0  0  0  0  0  0  0999 V2000
    3.6161  -49.5877  -20.0930 C   0  0  0  0  0  0  0  0  0  0  0  0
    4.8619  -49.8625  -20.7742 N   0  0  0  0  0  0  0  0  0  0  0  0
    6.0643  -49.1834  -20.5238 C   0  0  0  0  0  0  0  0  0  0  0  0
    6.0723  -48.2776  -19.6490 O   0  0  0  0  0  0  0  0  0  0  0  0
    4.8620  -50.6142  -21.4973 H   0  0  0  0  0  0  0  0  0  0  0  0
    7.3384  -49.4473  -21.2141 C   0  0  0  0  0  0  0  0  0  0  0  0
    7.1736  -49.6772  -22.6227 N   0  0  0  0  0  0  0  0  0  0  0  0
    6.6563  -48.7055  -23.5166 C   0  0  0  0  0  0  0  0  0  0  0  0
    6.3259  -47.5984  -23.0515 O   0  0  0  0  0  0  0  0  0  0  0  0
    7.4470  -50.5999  -23.0141 H   0  0  0  0  0  0  0  0  0  0  0  0
    6.5126  -48.9902  -24.9482 C   0  0  0  0  0  0  0  0  0  0  0  0
    7.2709  -50.1884  -25.3270 N   0  0  0  0  0  0  0  0  0  0  0  0
    6.6352  -51.0336  -25.2511 H   0  0  0  0  0  0  0  0  0  0  0  0
    7.6387  -50.1195  -26.2994 H   0  0  0  0  0  0  0  0  0  0  0  0
    5.1109  -49.1299  -25.4544 C   0  0  0  0  0  0  0  0  0  0  0  0
    4.6905  -48.0049  -26.3264 C   0  0  0  0  0  0  0  0  0  0  0  0
    5.0476  -48.3190  -27.7300 C   0  0  0  0  0  0  0  0  0  0  0  0
    4.3744  -49.3217  -28.3863 O   0  0  0  0  0  0  0  0  0  0  0  0
    5.9449  -47.6818  -28.3033 O   0  0  0  0  0  0  0  0  0  0  0  0
    3.5328  -49.7563  -27.9785 H   0  0  0  0  0  0  0  0  0  0  0  0
    8.2431  -48.2562  -21.0206 C   0  0  0  0  0  0  0  0  0  0  0  0
    9.5627  -48.7317  -20.4674 C   0  0  0  0  0  0  0  0  0  0  0  0
    9.4234  -49.1203  -19.0279 C   0  0  0  0  0  0  0  0  0  0  0  0
    8.7481  -48.2475  -18.1401 N   0  0  0  0  0  0  0  0  0  0  0  0
    9.9082  -50.2010  -18.6639 O   0  0  0  0  0  0  0  0  0  0  0  0
    7.7190  -48.2469  -18.0278 H   0  0  0  0  0  0  0  0  0  0  0  0
    9.3085  -47.5810  -17.5794 H   0  0  0  0  0  0  0  0  0  0  0  0
    2.8440  -50.8381  -19.8372 C   0  0  0  0  0  0  0  0  0  0  0  0
    3.5065  -51.8903  -19.6324 O   0  0  0  0  0  0  0  0  0  0  0  0
    1.4506  -50.8895  -19.8155 N   0  0  0  0  0  0  0  0  0  0  0  0
    0.8977  -50.0279  -19.9808 H   0  0  0  0  0  0  0  0  0  0  0  0
    0.6558  -52.1059  -19.5690 C   0  0  0  0  0  0  0  0  0  0  0  0
    0.0030  -52.4258  -20.8394 C   0  0  0  0  0  0  0  0  0  0  0  0
   -1.0046  -51.6868  -21.1624 O   0  0  0  0  0  0  0  0  0  0  0  0
    0.3225  -53.4224  -21.7658 N   0  0  0  0  0  0  0  0  0  0  0  0
    1.0952  -54.0763  -21.6416 H   0  0  0  0  0  0  0  0  0  0  0  0
   -0.4812  -53.5401  -22.9968 C   0  0  0  0  0  0  0  0  0  0  0  0
   -1.2419  -54.7795  -22.9564 C   0  0  0  0  0  0  0  0  0  0  0  0
   -1.2228  -55.7371  -23.9921 N   0  0  0  0  0  0  0  0  0  0  0  0
   -1.9762  -55.0553  -21.9647 O   0  0  0  0  0  0  0  0  0  0  0  0
   -1.2309  -55.4424  -24.9968 H   0  0  0  0  0  0  0  0  0  0  0  0
   -1.2003  -56.7659  -23.7725 H   0  0  0  0  0  0  0  0  0  0  0  0
    0.5396  -53.4657  -24.1188 C   0  0  0  0  0  0  0  0  0  0  0  0
   -0.0191  -53.1857  -25.4360 C   0  0  0  0  0  0  0  0  0  0  0  0
   -1.0588  -52.3096  -25.6349 C   0  0  0  0  0  0  0  0  0  0  0  0
   -1.5876  -52.0350  -26.8549 C   0  0  0  0  0  0  0  0  0  0  0  0
   -1.0480  -52.6743  -27.9571 C   0  0  0  0  0  0  0  0  0  0  0  0
    0.0054  -53.5643  -27.7702 C   0  0  0  0  0  0  0  0  0  0  0  0
    0.5343  -53.8364  -26.5343 C   0  0  0  0  0  0  0  0  0  0  0  0
   -0.2009  -51.9060  -18.3788 C   0  0  0  0  0  0  0  0  0  0  0  0
    0.2222  -50.9757  -17.3421 C   0  0  0  0  0  0  0  0  0  0  0  0
    0.9382  -51.2463  -16.1650 C   0  0  0  0  0  0  0  0  0  0  0  0
    1.1601  -50.0949  -15.5162 N   0  0  0  0  0  0  0  0  0  0  0  0
    0.6189  -49.1065  -16.2251 C   0  0  0  0  0  0  0  0  0  0  0  0
    0.0639  -49.6419  -17.3091 N   0  0  0  0  0  0  0  0  0  0  0  0
   -0.4295  -49.0344  -18.0231 H   0  0  0  0  0  0  0  0  0  0  0  0
    2.7578  -48.6367  -20.9006 C   0  0  0  0  0  0  0  0  0  0  0  0
    2.1550  -49.6956  -23.0760 C   0  0  0  0  0  0  0  0  0  0  0  0
    3.0512  -48.7001  -22.3648 C   0  0  0  0  0  0  0  0  0  0  0  0
    2.8752  -47.3112  -22.9987 C   0  0  0  0  0  0  0  0  0  0  0  0
 58 59  1  0  0  0
 59 60  1  0  0  0
 59 57  1  0  0  0
 57  1  1  0  0  0
  1  2  1  0  0  0
  2  3  1  0  0  0
  3  4  2  0  0  0
  3  6  1  0  0  0
  6 21  1  0  0  0
 21 22  1  0  0  0
 22 23  1  0  0  0
 23 24  1  0  0  0
 23 25  2  0  0  0
  6  7  1  0  0  0
  7  8  1  0  0  0
  8  9  2  0  0  0
  8 11  1  0  0  0
 11 12  1  0  0  0
 11 15  1  0  0  0
 15 16  1  0  0  0
 16 17  1  0  0  0
 17 18  1  0  0  0
 17 19  2  0  0  0
  1 28  1  0  0  0
 28 29  2  0  0  0
 28 30  1  0  0  0
 30 32  1  0  0  0
 32 50  1  0  0  0
 50 51  1  0  0  0
 51 52  2  0  0  0
 52 53  1  0  0  0
 53 54  2  0  0  0
 54 55  1  0  0  0
 32 33  1  0  0  0
 33 34  2  0  0  0
 33 35  1  0  0  0
 35 37  1  0  0  0
 37 43  1  0  0  0
 43 44  1  0  0  0
 44 45  2  0  0  0
 45 46  1  0  0  0
 46 47  2  0  0  0
 47 48  1  0  0  0
 48 49  2  0  0  0
 37 38  1  0  0  0
 38 39  1  0  0  0
 38 40  2  0  0  0
 55 51  1  0  0  0
 49 44  1  0  0  0
  2  5  1  0  0  0
 24 26  1  0  0  0
 24 27  1  0  0  0
  7 10  1  0  0  0
 12 13  1  0  0  0
 12 14  1  0  0  0
 18 20  1  0  0  0
 30 31  1  0  0  0
 55 56  1  0  0  0
 35 36  1  0  0  0
 39 41  1  0  0  0
 39 42  1  0  0  0
M  END
> <minimizedAffinity>
-7.05183

> <CNNscore>
0.5737373829

> <CNNaffinity>
7.2319183350

> <CNN_VS>
4.1492218971

> <CNNaffinity_variance>
0.4324655533

$$$$
[H]OC(=O)C([H])([H])C([H])([H])[C@@]([H])(C(=O)N([H])[C@]([H])(C(=O)N([H])[C@]([H])(C(=O)N([H])[C@]([H])(C(=O)N([H])[C@]([H])(C(=O)N([H])[H])C([H])([H])c1c([H])c([H])c([H])c([H])c1[H])C([H])([H])c1c([H])nc([H])n1[H])C([H])([H])C([H])(C([H])([H])[H])C([H])([H])[H])C([H])([H])C([H])([H])C(=O)N([H])[H])N([H])[H]


 60 61  0  0  0  0  0  0  0  0999 V2000
    4.4963  -49.5533  -21.0225 C   0  0  0  0  0  0  0  0  0  0  0  0
    4.5080  -49.5064  -22.4679 N   0  0  0  0  0  0  0  0  0  0  0  0
    3.3608  -49.3527  -23.2615 C   0  0  0  0  0  0  0  0  0  0  0  0
    2.2442  -49.2433  -22.6895 O   0  0  0  0  0  0  0  0  0  0  0  0
    5.4305  -49.5929  -22.9470 H   0  0  0  0  0  0  0  0  0  0  0  0
    3.3565  -49.3102  -24.7339 C   0  0  0  0  0  0  0  0  0  0  0  0
    4.2809  -48.3487  -25.2679 N   0  0  0  0  0  0  0  0  0  0  0  0
    3.9611  -46.9802  -25.4566 C   0  0  0  0  0  0  0  0  0  0  0  0
    2.8177  -46.5972  -25.1453 O   0  0  0  0  0  0  0  0  0  0  0  0
    5.2353  -48.6648  -25.5298 H   0  0  0  0  0  0  0  0  0  0  0  0
    4.9445  -46.0384  -26.0019 C   0  0  0  0  0  0  0  0  0  0  0  0
    4.3153  -45.1036  -26.9424 N   0  0  0  0  0  0  0  0  0  0  0  0
    4.0085  -44.2387  -26.4114 H   0  0  0  0  0  0  0  0  0  0  0  0
    4.9691  -44.8266  -27.7049 H   0  0  0  0  0  0  0  0  0  0  0  0
    5.7307  -45.2531  -24.9992 C   0  0  0  0  0  0  0  0  0  0  0  0
    5.3816  -45.5840  -23.5951 C   0  0  0  0  0  0  0  0  0  0  0  0
    4.6483  -44.4442  -22.9958 C   0  0  0  0  0  0  0  0  0  0  0  0
    3.2953  -44.3289  -23.2090 O   0  0  0  0  0  0  0  0  0  0  0  0
    5.2522  -43.6050  -22.3096 O   0  0  0  0  0  0  0  0  0  0  0  0
    2.7564  -45.0910  -23.6474 H   0  0  0  0  0  0  0  0  0  0  0  0
    3.7260  -50.6772  -25.2531 C   0  0  0  0  0  0  0  0  0  0  0  0
    2.8348  -51.0112  -26.4225 C   0  0  0  0  0  0  0  0  0  0  0  0
    3.1548  -52.3721  -26.9593 C   0  0  0  0  0  0  0  0  0  0  0  0
    3.1754  -52.5733  -28.3611 N   0  0  0  0  0  0  0  0  0  0  0  0
    3.3922  -53.2797  -26.1497 O   0  0  0  0  0  0  0  0  0  0  0  0
    4.0060  -52.3716  -28.9452 H   0  0  0  0  0  0  0  0  0  0  0  0
    2.3222  -52.9378  -28.8214 H   0  0  0  0  0  0  0  0  0  0  0  0
    3.6155  -50.6458  -20.5167 C   0  0  0  0  0  0  0  0  0  0  0  0
    4.0115  -51.8294  -20.6903 O   0  0  0  0  0  0  0  0  0  0  0  0
    2.3994  -50.4164  -19.8740 N   0  0  0  0  0  0  0  0  0  0  0  0
    2.0671  -49.4454  -19.7251 H   0  0  0  0  0  0  0  0  0  0  0  0
    1.5036  -51.4699  -19.3644 C   0  0  0  0  0  0  0  0  0  0  0  0
    0.6755  -51.8795  -20.4997 C   0  0  0  0  0  0  0  0  0  0  0  0
   -0.1199  -50.9815  -20.9760 O   0  0  0  0  0  0  0  0  0  0  0  0
    0.6275  -53.1140  -21.1532 N   0  0  0  0  0  0  0  0  0  0  0  0
    1.2025  -53.9127  -20.8856 H   0  0  0  0  0  0  0  0  0  0  0  0
   -0.2870  -53.2834  -22.2978 C   0  0  0  0  0  0  0  0  0  0  0  0
   -1.2667  -54.3111  -21.9812 C   0  0  0  0  0  0  0  0  0  0  0  0
   -1.6753  -55.3037  -22.8967 N   0  0  0  0  0  0  0  0  0  0  0  0
   -1.8114  -54.3558  -20.8410 O   0  0  0  0  0  0  0  0  0  0  0  0
   -1.8370  -55.0712  -23.9047 H   0  0  0  0  0  0  0  0  0  0  0  0
   -1.8251  -56.2964  -22.5817 H   0  0  0  0  0  0  0  0  0  0  0  0
    0.6282  -53.6247  -23.4608 C   0  0  0  0  0  0  0  0  0  0  0  0
    0.1207  -53.2383  -24.7718 C   0  0  0  0  0  0  0  0  0  0  0  0
    0.1389  -54.0808  -25.8571 C   0  0  0  0  0  0  0  0  0  0  0  0
   -0.3332  -53.7378  -27.0830 C   0  0  0  0  0  0  0  0  0  0  0  0
   -0.8612  -52.4691  -27.2457 C   0  0  0  0  0  0  0  0  0  0  0  0
   -0.8859  -51.6055  -26.1549 C   0  0  0  0  0  0  0  0  0  0  0  0
   -0.4070  -51.9594  -24.9193 C   0  0  0  0  0  0  0  0  0  0  0  0
    0.8194  -50.9912  -18.1424 C   0  0  0  0  0  0  0  0  0  0  0  0
   -0.3500  -51.7061  -17.6518 C   0  0  0  0  0  0  0  0  0  0  0  0
   -1.1734  -51.3883  -16.5598 C   0  0  0  0  0  0  0  0  0  0  0  0
   -2.1671  -52.2846  -16.4889 N   0  0  0  0  0  0  0  0  0  0  0  0
   -2.0137  -53.1561  -17.4834 C   0  0  0  0  0  0  0  0  0  0  0  0
   -0.9298  -52.8023  -18.1688 N   0  0  0  0  0  0  0  0  0  0  0  0
   -0.6143  -53.3604  -19.0123 H   0  0  0  0  0  0  0  0  0  0  0  0
    4.0261  -48.2353  -20.4437 C   0  0  0  0  0  0  0  0  0  0  0  0
    4.3226  -47.9627  -17.9831 C   0  0  0  0  0  0  0  0  0  0  0  0
    4.9212  -47.7326  -19.3574 C   0  0  0  0  0  0  0  0  0  0  0  0
    6.2909  -48.4245  -19.4399 C   0  0  0  0  0  0  0  0  0  0  0  0
 58 59  1  0  0  0
 59 60  1  0  0  0
 59 57  1  0  0  0
 57  1  1  0  0  0
  1  2  1  0  0  0
  2  3  1  0  0  0
  3  4  2  0  0  0
  3  6  1  0  0  0
  6 21  1  0  0  0
 21 22  1  0  0  0
 22 23  1  0  0  0
 23 24  1  0  0  0
 23 25  2  0  0  0
  6  7  1  0  0  0
  7  8  1  0  0  0
  8  9  2  0  0  0
  8 11  1  0  0  0
 11 12  1  0  0  0
 11 15  1  0  0  0
 15 16  1  0  0  0
 16 17  1  0  0  0
 17 18  1  0  0  0
 17 19  2  0  0  0
  1 28  1  0  0  0
 28 29  2  0  0  0
 28 30  1  0  0  0
 30 32  1  0  0  0
 32 50  1  0  0  0
 50 51  1  0  0  0
 51 52  2  0  0  0
 52 53  1  0  0  0
 53 54  2  0  0  0
 54 55  1  0  0  0
 32 33  1  0  0  0
 33 34  2  0  0  0
 33 35  1  0  0  0
 35 37  1  0  0  0
 37 43  1  0  0  0
 43 44  1  0  0  0
 44 45  2  0  0  0
 45 46  1  0  0  0
 46 47  2  0  0  0
 47 48  1  0  0  0
 48 49  2  0  0  0
 37 38  1  0  0  0
 38 39  1  0  0  0
 38 40  2  0  0  0
 55 51  1  0  0  0
 49 44  1  0  0  0
  2  5  1  0  0  0
 24 26  1  0  0  0
 24 27  1  0  0  0
  7 10  1  0  0  0
 12 13  1  0  0  0
 12 14  1  0  0  0
 18 20  1  0  0  0
 30 31  1  0  0  0
 55 56  1  0  0  0
 35 36  1  0  0  0
 39 41  1  0  0  0
 39 42  1  0  0  0
M  END
> <minimizedAffinity>
-6.83879

> <CNNscore>
0.3930421174

> <CNNaffinity>
7.1648015976

> <CNN_VS>
2.8160688877

> <CNNaffinity_variance>
0.3263465166

$$$$
[H]OC(=O)C([H])([H])C([H])([H])[C@@]([H])(C(=O)N([H])[C@]([H])(C(=O)N([H])[C@]([H])(C(=O)N([H])[C@]([H])(C(=O)N([H])[C@]([H])(C(=O)N([H])[H])C([H])([H])c1c([H])c([H])c([H])c([H])c1[H])C([H])([H])c1c([H])nc([H])n1[H])C([H])([H])C([H])(C([H])([H])[H])C([H])([H])[H])C([H])([H])C([H])([H])C(=O)N([H])[H])N([H])[H]


 60 61  0  0  0  0  0  0  0  0999 V2000
    3.8842  -49.2430  -19.4860 C   0  0  0  0  0  0  0  0  0  0  0  0
    4.8618  -49.6484  -20.4715 N   0  0  0  0  0  0  0  0  0  0  0  0
    6.2475  -49.4836  -20.3222 C   0  0  0  0  0  0  0  0  0  0  0  0
    6.6795  -48.9538  -19.2646 O   0  0  0  0  0  0  0  0  0  0  0  0
    4.5100  -50.0912  -21.3480 H   0  0  0  0  0  0  0  0  0  0  0  0
    7.2542  -49.8849  -21.3197 C   0  0  0  0  0  0  0  0  0  0  0  0
    6.7294  -50.7780  -22.3153 N   0  0  0  0  0  0  0  0  0  0  0  0
    6.0275  -50.3379  -23.4661 C   0  0  0  0  0  0  0  0  0  0  0  0
    5.8566  -49.1133  -23.6155 O   0  0  0  0  0  0  0  0  0  0  0  0
    6.8689  -51.8003  -22.1933 H   0  0  0  0  0  0  0  0  0  0  0  0
    5.5157  -51.2924  -24.4551 C   0  0  0  0  0  0  0  0  0  0  0  0
    6.3877  -52.4688  -24.5541 N   0  0  0  0  0  0  0  0  0  0  0  0
    6.0382  -53.2111  -23.8826 H   0  0  0  0  0  0  0  0  0  0  0  0
    6.4017  -52.8570  -25.5209 H   0  0  0  0  0  0  0  0  0  0  0  0
    4.1064  -51.7557  -24.2553 C   0  0  0  0  0  0  0  0  0  0  0  0
    3.1364  -50.6388  -24.1356 C   0  0  0  0  0  0  0  0  0  0  0  0
    2.4506  -50.7299  -22.8250 C   0  0  0  0  0  0  0  0  0  0  0  0
    1.3446  -49.9484  -22.5896 O   0  0  0  0  0  0  0  0  0  0  0  0
    2.8730  -51.5042  -21.9521 O   0  0  0  0  0  0  0  0  0  0  0  0
    0.8955  -49.4149  -23.3492 H   0  0  0  0  0  0  0  0  0  0  0  0
    7.7693  -48.6443  -22.0056 C   0  0  0  0  0  0  0  0  0  0  0  0
    9.2634  -48.5686  -21.8174 C   0  0  0  0  0  0  0  0  0  0  0  0
    9.6096  -47.6204  -20.7113 C   0  0  0  0  0  0  0  0  0  0  0  0
    9.6001  -46.2276  -20.9684 N   0  0  0  0  0  0  0  0  0  0  0  0
    9.8937  -48.0938  -19.6019 O   0  0  0  0  0  0  0  0  0  0  0  0
    8.7406  -45.6529  -20.9165 H   0  0  0  0  0  0  0  0  0  0  0  0
   10.4919  -45.7645  -21.2195 H   0  0  0  0  0  0  0  0  0  0  0  0
    2.9927  -50.3752  -19.1002 C   0  0  0  0  0  0  0  0  0  0  0  0
    3.5054  -51.3032  -18.4191 O   0  0  0  0  0  0  0  0  0  0  0  0
    1.6458  -50.4471  -19.4541 N   0  0  0  0  0  0  0  0  0  0  0  0
    1.2155  -49.6867  -20.0127 H   0  0  0  0  0  0  0  0  0  0  0  0
    0.7374  -51.5501  -19.0933 C   0  0  0  0  0  0  0  0  0  0  0  0
    0.1009  -51.9735  -20.3414 C   0  0  0  0  0  0  0  0  0  0  0  0
   -0.7264  -51.1357  -20.8701 O   0  0  0  0  0  0  0  0  0  0  0  0
    0.2678  -53.1642  -21.0540 N   0  0  0  0  0  0  0  0  0  0  0  0
    0.8916  -53.9136  -20.7551 H   0  0  0  0  0  0  0  0  0  0  0  0
   -0.4793  -53.3576  -22.3108 C   0  0  0  0  0  0  0  0  0  0  0  0
   -1.4316  -54.4441  -22.1404 C   0  0  0  0  0  0  0  0  0  0  0  0
   -1.6771  -55.4238  -23.1255 N   0  0  0  0  0  0  0  0  0  0  0  0
   -2.1008  -54.5560  -21.0736 O   0  0  0  0  0  0  0  0  0  0  0  0
   -1.7339  -55.1649  -24.1384 H   0  0  0  0  0  0  0  0  0  0  0  0
   -1.8079  -56.4332  -22.8587 H   0  0  0  0  0  0  0  0  0  0  0  0
    0.5969  -53.6222  -23.3491 C   0  0  0  0  0  0  0  0  0  0  0  0
    0.2516  -53.2131  -24.7053 C   0  0  0  0  0  0  0  0  0  0  0  0
   -0.2719  -51.9778  -25.0018 C   0  0  0  0  0  0  0  0  0  0  0  0
   -0.5949  -51.5804  -26.2593 C   0  0  0  0  0  0  0  0  0  0  0  0
   -0.3844  -52.4706  -27.2976 C   0  0  0  0  0  0  0  0  0  0  0  0
    0.1451  -53.7252  -27.0115 C   0  0  0  0  0  0  0  0  0  0  0  0
    0.4690  -54.1195  -25.7384 C   0  0  0  0  0  0  0  0  0  0  0  0
   -0.1367  -51.1276  -17.9762 C   0  0  0  0  0  0  0  0  0  0  0  0
    0.4489  -50.4536  -16.8263 C   0  0  0  0  0  0  0  0  0  0  0  0
    0.1453  -49.1836  -16.3103 C   0  0  0  0  0  0  0  0  0  0  0  0
    0.8847  -48.9717  -15.2130 N   0  0  0  0  0  0  0  0  0  0  0  0
    1.6434  -50.0462  -15.0081 C   0  0  0  0  0  0  0  0  0  0  0  0
    1.3759  -50.9214  -15.9736 N   0  0  0  0  0  0  0  0  0  0  0  0
    1.8693  -51.8582  -16.0096 H   0  0  0  0  0  0  0  0  0  0  0  0
    3.0337  -48.1033  -20.0067 C   0  0  0  0  0  0  0  0  0  0  0  0
    2.8130  -47.0101  -22.2367 C   0  0  0  0  0  0  0  0  0  0  0  0
    3.7269  -47.3048  -21.0629 C   0  0  0  0  0  0  0  0  0  0  0  0
    4.2415  -45.9827  -20.4722 C   0  0  0  0  0  0  0  0  0  0  0  0
 58 59  1  0  0  0
 59 60  1  0  0  0
 59 57  1  0  0  0
 57  1  1  0  0  0
  1  2  1  0  0  0
  2  3  1  0  0  0
  3  4  2  0  0  0
  3  6  1  0  0  0
  6 21  1  0  0  0
 21 22  1  0  0  0
 22 23  1  0  0  0
 23 24  1  0  0  0
 23 25  2  0  0  0
  6  7  1  0  0  0
  7  8  1  0  0  0
  8  9  2  0  0  0
  8 11  1  0  0  0
 11 12  1  0  0  0
 11 15  1  0  0  0
 15 16  1  0  0  0
 16 17  1  0  0  0
 17 18  1  0  0  0
 17 19  2  0  0  0
  1 28  1  0  0  0
 28 29  2  0  0  0
 28 30  1  0  0  0
 30 32  1  0  0  0
 32 50  1  0  0  0
 50 51  1  0  0  0
 51 52  2  0  0  0
 52 53  1  0  0  0
 53 54  2  0  0  0
 54 55  1  0  0  0
 32 33  1  0  0  0
 33 34  2  0  0  0
 33 35  1  0  0  0
 35 37  1  0  0  0
 37 43  1  0  0  0
 43 44  1  0  0  0
 44 45  2  0  0  0
 45 46  1  0  0  0
 46 47  2  0  0  0
 47 48  1  0  0  0
 48 49  2  0  0  0
 37 38  1  0  0  0
 38 39  1  0  0  0
 38 40  2  0  0  0
 55 51  1  0  0  0
 49 44  1  0  0  0
  2  5  1  0  0  0
 24 26  1  0  0  0
 24 27  1  0  0  0
  7 10  1  0  0  0
 12 13  1  0  0  0
 12 14  1  0  0  0
 18 20  1  0  0  0
 30 31  1  0  0  0
 55 56  1  0  0  0
 35 36  1  0  0  0
 39 41  1  0  0  0
 39 42  1  0  0  0
M  END
> <minimizedAffinity>
-6.60512

> <CNNscore>
0.3305695057

> <CNNaffinity>
7.0931639671

> <CNN_VS>
2.3447837830

> <CNNaffinity_variance>
0.3333666921

$$$$
[H]OC(=O)C([H])([H])C([H])([H])[C@@]([H])(C(=O)N([H])[C@]([H])(C(=O)N([H])[C@]([H])(C(=O)N([H])[C@]([H])(C(=O)N([H])[C@]([H])(C(=O)N([H])[H])C([H])([H])c1c([H])c([H])c([H])c([H])c1[H])C([H])([H])c1c([H])nc([H])n1[H])C([H])([H])C([H])(C([H])([H])[H])C([H])([H])[H])C([H])([H])C([H])([H])C(=O)N([H])[H])N([H])[H]


 60 61  0  0  0  0  0  0  0  0999 V2000
    4.3364  -49.7141  -20.5695 C   0  0  0  0  0  0  0  0  0  0  0  0
    4.6262  -49.8764  -21.9770 N   0  0  0  0  0  0  0  0  0  0  0  0
    3.6531  -49.8736  -22.9882 C   0  0  0  0  0  0  0  0  0  0  0  0
    2.4471  -49.7161  -22.6616 O   0  0  0  0  0  0  0  0  0  0  0  0
    5.6238  -50.0036  -22.2537 H   0  0  0  0  0  0  0  0  0  0  0  0
    3.9323  -50.0446  -24.4243 C   0  0  0  0  0  0  0  0  0  0  0  0
    5.3353  -50.1630  -24.7105 N   0  0  0  0  0  0  0  0  0  0  0  0
    6.0940  -49.1386  -25.3315 C   0  0  0  0  0  0  0  0  0  0  0  0
    5.5092  -48.0851  -25.6463 O   0  0  0  0  0  0  0  0  0  0  0  0
    5.8263  -51.0408  -24.4504 H   0  0  0  0  0  0  0  0  0  0  0  0
    7.5263  -49.3090  -25.5974 C   0  0  0  0  0  0  0  0  0  0  0  0
    7.8521  -48.9530  -26.9835 N   0  0  0  0  0  0  0  0  0  0  0  0
    8.1233  -47.9286  -27.0189 H   0  0  0  0  0  0  0  0  0  0  0  0
    8.6357  -49.5305  -27.3550 H   0  0  0  0  0  0  0  0  0  0  0  0
    8.4577  -48.5765  -24.6828 C   0  0  0  0  0  0  0  0  0  0  0  0
    7.8341  -48.2090  -23.3871 C   0  0  0  0  0  0  0  0  0  0  0  0
    8.1892  -49.2278  -22.3711 C   0  0  0  0  0  0  0  0  0  0  0  0
    9.1637  -48.9419  -21.4449 O   0  0  0  0  0  0  0  0  0  0  0  0
    7.6111  -50.3258  -22.3598 O   0  0  0  0  0  0  0  0  0  0  0  0
    9.5452  -47.9888  -21.3472 H   0  0  0  0  0  0  0  0  0  0  0  0
    3.2338  -51.2930  -24.9021 C   0  0  0  0  0  0  0  0  0  0  0  0
    2.9845  -51.1745  -26.3844 C   0  0  0  0  0  0  0  0  0  0  0  0
    3.2239  -52.4855  -27.0673 C   0  0  0  0  0  0  0  0  0  0  0  0
    2.8449  -52.6361  -28.4236 N   0  0  0  0  0  0  0  0  0  0  0  0
    3.7500  -53.3981  -26.4146 O   0  0  0  0  0  0  0  0  0  0  0  0
    3.4512  -52.3474  -29.2115 H   0  0  0  0  0  0  0  0  0  0  0  0
    1.9207  -53.0529  -28.6360 H   0  0  0  0  0  0  0  0  0  0  0  0
    3.3426  -50.7202  -20.0949 C   0  0  0  0  0  0  0  0  0  0  0  0
    3.7298  -51.9168  -20.0161 O   0  0  0  0  0  0  0  0  0  0  0  0
    2.0323  -50.3984  -19.7425 N   0  0  0  0  0  0  0  0  0  0  0  0
    1.7061  -49.4159  -19.8023 H   0  0  0  0  0  0  0  0  0  0  0  0
    1.0242  -51.3654  -19.2728 C   0  0  0  0  0  0  0  0  0  0  0  0
    0.3199  -51.8276  -20.4698 C   0  0  0  0  0  0  0  0  0  0  0  0
   -0.4104  -50.9512  -21.0733 O   0  0  0  0  0  0  0  0  0  0  0  0
    0.3308  -53.0931  -21.0630 N   0  0  0  0  0  0  0  0  0  0  0  0
    0.8657  -53.8799  -20.6955 H   0  0  0  0  0  0  0  0  0  0  0  0
   -0.4560  -53.3156  -22.2904 C   0  0  0  0  0  0  0  0  0  0  0  0
   -1.3785  -54.4196  -22.0754 C   0  0  0  0  0  0  0  0  0  0  0  0
   -1.6227  -55.4261  -23.0334 N   0  0  0  0  0  0  0  0  0  0  0  0
   -2.0214  -54.5233  -20.9916 O   0  0  0  0  0  0  0  0  0  0  0  0
   -1.7078  -55.1909  -24.0501 H   0  0  0  0  0  0  0  0  0  0  0  0
   -1.7239  -56.4321  -22.7421 H   0  0  0  0  0  0  0  0  0  0  0  0
    0.5883  -53.5691  -23.3636 C   0  0  0  0  0  0  0  0  0  0  0  0
    0.1539  -53.2682  -24.7224 C   0  0  0  0  0  0  0  0  0  0  0  0
    0.2508  -54.1705  -25.7541 C   0  0  0  0  0  0  0  0  0  0  0  0
   -0.1526  -53.9072  -27.0235 C   0  0  0  0  0  0  0  0  0  0  0  0
   -0.6905  -52.6605  -27.2902 C   0  0  0  0  0  0  0  0  0  0  0  0
   -0.7944  -51.7368  -26.2547 C   0  0  0  0  0  0  0  0  0  0  0  0
   -0.3846  -52.0103  -24.9746 C   0  0  0  0  0  0  0  0  0  0  0  0
    0.2231  -50.7587  -18.1862 C   0  0  0  0  0  0  0  0  0  0  0  0
    0.5349  -51.0836  -16.8018 C   0  0  0  0  0  0  0  0  0  0  0  0
   -0.2203  -51.8393  -15.8907 C   0  0  0  0  0  0  0  0  0  0  0  0
    0.4567  -51.9345  -14.7381 N   0  0  0  0  0  0  0  0  0  0  0  0
    1.6052  -51.2751  -14.8740 C   0  0  0  0  0  0  0  0  0  0  0  0
    1.6411  -50.7731  -16.1055 N   0  0  0  0  0  0  0  0  0  0  0  0
    2.4718  -50.2050  -16.4365 H   0  0  0  0  0  0  0  0  0  0  0  0
    3.8039  -48.3253  -20.2849 C   0  0  0  0  0  0  0  0  0  0  0  0
    3.9083  -47.8061  -17.8484 C   0  0  0  0  0  0  0  0  0  0  0  0
    4.5650  -47.6282  -19.2038 C   0  0  0  0  0  0  0  0  0  0  0  0
    6.0060  -48.1591  -19.1466 C   0  0  0  0  0  0  0  0  0  0  0  0
 58 59  1  0  0  0
 59 60  1  0  0  0
 59 57  1  0  0  0
 57  1  1  0  0  0
  1  2  1  0  0  0
  2  3  1  0  0  0
  3  4  2  0  0  0
  3  6  1  0  0  0
  6 21  1  0  0  0
 21 22  1  0  0  0
 22 23  1  0  0  0
 23 24  1  0  0  0
 23 25  2  0  0  0
  6  7  1  0  0  0
  7  8  1  0  0  0
  8  9  2  0  0  0
  8 11  1  0  0  0
 11 12  1  0  0  0
 11 15  1  0  0  0
 15 16  1  0  0  0
 16 17  1  0  0  0
 17 18  1  0  0  0
 17 19  2  0  0  0
  1 28  1  0  0  0
 28 29  2  0  0  0
 28 30  1  0  0  0
 30 32  1  0  0  0
 32 50  1  0  0  0
 50 51  1  0  0  0
 51 52  2  0  0  0
 52 53  1  0  0  0
 53 54  2  0  0  0
 54 55  1  0  0  0
 32 33  1  0  0  0
 33 34  2  0  0  0
 33 35  1  0  0  0
 35 37  1  0  0  0
 37 43  1  0  0  0
 43 44  1  0  0  0
 44 45  2  0  0  0
 45 46  1  0  0  0
 46 47  2  0  0  0
 47 48  1  0  0  0
 48 49  2  0  0  0
 37 38  1  0  0  0
 38 39  1  0  0  0
 38 40  2  0  0  0
 55 51  1  0  0  0
 49 44  1  0  0  0
  2  5  1  0  0  0
 24 26  1  0  0  0
 24 27  1  0  0  0
  7 10  1  0  0  0
 12 13  1  0  0  0
 12 14  1  0  0  0
 18 20  1  0  0  0
 30 31  1  0  0  0
 55 56  1  0  0  0
 35 36  1  0  0  0
 39 41  1  0  0  0
 39 42  1  0  0  0
M  END
> <minimizedAffinity>
-6.79098

> <CNNscore>
0.3145980537

> <CNNaffinity>
7.2676634789

> <CNN_VS>
2.2863926888

> <CNNaffinity_variance>
0.2104424983

$$$$
[H]OC(=O)C([H])([H])C([H])([H])[C@@]([H])(C(=O)N([H])[C@]([H])(C(=O)N([H])[C@]([H])(C(=O)N([H])[C@]([H])(C(=O)N([H])[C@]([H])(C(=O)N([H])[H])C([H])([H])c1c([H])c([H])c([H])c([H])c1[H])C([H])([H])c1c([H])nc([H])n1[H])C([H])([H])C([H])(C([H])([H])[H])C([H])([H])[H])C([H])([H])C([H])([H])C(=O)N([H])[H])N([H])[H]


 60 61  0  0  0  0  0  0  0  0999 V2000
    4.4346  -49.4162  -21.0643 C   0  0  0  0  0  0  0  0  0  0  0  0
    4.3736  -49.4022  -22.5092 N   0  0  0  0  0  0  0  0  0  0  0  0
    3.3199  -48.8436  -23.2488 C   0  0  0  0  0  0  0  0  0  0  0  0
    2.3624  -48.3139  -22.6255 O   0  0  0  0  0  0  0  0  0  0  0  0
    5.1657  -49.8364  -23.0308 H   0  0  0  0  0  0  0  0  0  0  0  0
    3.2407  -48.8281  -24.7195 C   0  0  0  0  0  0  0  0  0  0  0  0
    3.9604  -47.7319  -25.3064 N   0  0  0  0  0  0  0  0  0  0  0  0
    4.1269  -47.5673  -26.7050 C   0  0  0  0  0  0  0  0  0  0  0  0
    3.6245  -48.4214  -27.4594 O   0  0  0  0  0  0  0  0  0  0  0  0
    4.3819  -47.0182  -24.6801 H   0  0  0  0  0  0  0  0  0  0  0  0
    4.8679  -46.4262  -27.2528 C   0  0  0  0  0  0  0  0  0  0  0  0
    5.6208  -46.8122  -28.4521 N   0  0  0  0  0  0  0  0  0  0  0  0
    5.0180  -46.6351  -29.3062 H   0  0  0  0  0  0  0  0  0  0  0  0
    6.5087  -46.2739  -28.5388 H   0  0  0  0  0  0  0  0  0  0  0  0
    4.0602  -45.2056  -27.5660 C   0  0  0  0  0  0  0  0  0  0  0  0
    2.6465  -45.5109  -27.8993 C   0  0  0  0  0  0  0  0  0  0  0  0
    2.4718  -45.4562  -29.3699 C   0  0  0  0  0  0  0  0  0  0  0  0
    1.2371  -45.7257  -29.9104 O   0  0  0  0  0  0  0  0  0  0  0  0
    3.4319  -45.1699  -30.1022 O   0  0  0  0  0  0  0  0  0  0  0  0
    0.4010  -45.8176  -29.3138 H   0  0  0  0  0  0  0  0  0  0  0  0
    3.8156  -50.1204  -25.2433 C   0  0  0  0  0  0  0  0  0  0  0  0
    2.6870  -51.0866  -25.5006 C   0  0  0  0  0  0  0  0  0  0  0  0
    2.9868  -51.9450  -26.6905 C   0  0  0  0  0  0  0  0  0  0  0  0
    3.7678  -53.1139  -26.5185 N   0  0  0  0  0  0  0  0  0  0  0  0
    2.5360  -51.5977  -27.7913 O   0  0  0  0  0  0  0  0  0  0  0  0
    3.3644  -54.0202  -26.2225 H   0  0  0  0  0  0  0  0  0  0  0  0
    4.7867  -53.0591  -26.6965 H   0  0  0  0  0  0  0  0  0  0  0  0
    3.5200  -50.4435  -20.4870 C   0  0  0  0  0  0  0  0  0  0  0  0
    3.9758  -51.6113  -20.3591 O   0  0  0  0  0  0  0  0  0  0  0  0
    2.2108  -50.1708  -20.0917 N   0  0  0  0  0  0  0  0  0  0  0  0
    1.8284  -49.2121  -20.1915 H   0  0  0  0  0  0  0  0  0  0  0  0
    1.2794  -51.1602  -19.5208 C   0  0  0  0  0  0  0  0  0  0  0  0
    0.5039  -51.6814  -20.6474 C   0  0  0  0  0  0  0  0  0  0  0  0
   -0.2161  -50.8225  -21.2874 O   0  0  0  0  0  0  0  0  0  0  0  0
    0.4364  -52.9880  -21.1391 N   0  0  0  0  0  0  0  0  0  0  0  0
    0.9545  -53.7671  -20.7331 H   0  0  0  0  0  0  0  0  0  0  0  0
   -0.4129  -53.2692  -22.3115 C   0  0  0  0  0  0  0  0  0  0  0  0
   -1.3177  -54.3640  -21.9969 C   0  0  0  0  0  0  0  0  0  0  0  0
   -1.7121  -55.3403  -22.9359 N   0  0  0  0  0  0  0  0  0  0  0  0
   -1.8054  -54.4868  -20.8369 O   0  0  0  0  0  0  0  0  0  0  0  0
   -1.9334  -55.0765  -23.9247 H   0  0  0  0  0  0  0  0  0  0  0  0
   -1.7913  -56.3521  -22.6581 H   0  0  0  0  0  0  0  0  0  0  0  0
    0.5745  -53.5702  -23.4254 C   0  0  0  0  0  0  0  0  0  0  0  0
    0.0764  -53.3096  -24.7707 C   0  0  0  0  0  0  0  0  0  0  0  0
    0.3141  -54.1511  -25.8306 C   0  0  0  0  0  0  0  0  0  0  0  0
   -0.1458  -53.9248  -27.0879 C   0  0  0  0  0  0  0  0  0  0  0  0
   -0.8947  -52.7829  -27.3115 C   0  0  0  0  0  0  0  0  0  0  0  0
   -1.1430  -51.9218  -26.2469 C   0  0  0  0  0  0  0  0  0  0  0  0
   -0.6750  -52.1573  -24.9793 C   0  0  0  0  0  0  0  0  0  0  0  0
    0.5411  -50.5524  -18.3913 C   0  0  0  0  0  0  0  0  0  0  0  0
    0.9414  -50.8628  -17.0265 C   0  0  0  0  0  0  0  0  0  0  0  0
    2.1954  -50.6815  -16.4215 C   0  0  0  0  0  0  0  0  0  0  0  0
    2.1166  -51.0543  -15.1367 N   0  0  0  0  0  0  0  0  0  0  0  0
    0.8727  -51.4637  -14.8974 C   0  0  0  0  0  0  0  0  0  0  0  0
    0.1823  -51.3454  -16.0285 N   0  0  0  0  0  0  0  0  0  0  0  0
   -0.8409  -51.6167  -16.0712 H   0  0  0  0  0  0  0  0  0  0  0  0
    4.0721  -48.0603  -20.4958 C   0  0  0  0  0  0  0  0  0  0  0  0
    5.2395  -46.0314  -21.3545 C   0  0  0  0  0  0  0  0  0  0  0  0
    5.2586  -47.1638  -20.3460 C   0  0  0  0  0  0  0  0  0  0  0  0
    5.3034  -46.5810  -18.9247 C   0  0  0  0  0  0  0  0  0  0  0  0
 58 59  1  0  0  0
 59 60  1  0  0  0
 59 57  1  0  0  0
 57  1  1  0  0  0
  1  2  1  0  0  0
  2  3  1  0  0  0
  3  4  2  0  0  0
  3  6  1  0  0  0
  6 21  1  0  0  0
 21 22  1  0  0  0
 22 23  1  0  0  0
 23 24  1  0  0  0
 23 25  2  0  0  0
  6  7  1  0  0  0
  7  8  1  0  0  0
  8  9  2  0  0  0
  8 11  1  0  0  0
 11 12  1  0  0  0
 11 15  1  0  0  0
 15 16  1  0  0  0
 16 17  1  0  0  0
 17 18  1  0  0  0
 17 19  2  0  0  0
  1 28  1  0  0  0
 28 29  2  0  0  0
 28 30  1  0  0  0
 30 32  1  0  0  0
 32 50  1  0  0  0
 50 51  1  0  0  0
 51 52  2  0  0  0
 52 53  1  0  0  0
 53 54  2  0  0  0
 54 55  1  0  0  0
 32 33  1  0  0  0
 33 34  2  0  0  0
 33 35  1  0  0  0
 35 37  1  0  0  0
 37 43  1  0  0  0
 43 44  1  0  0  0
 44 45  2  0  0  0
 45 46  1  0  0  0
 46 47  2  0  0  0
 47 48  1  0  0  0
 48 49  2  0  0  0
 37 38  1  0  0  0
 38 39  1  0  0  0
 38 40  2  0  0  0
 55 51  1  0  0  0
 49 44  1  0  0  0
  2  5  1  0  0  0
 24 26  1  0  0  0
 24 27  1  0  0  0
  7 10  1  0  0  0
 12 13  1  0  0  0
 12 14  1  0  0  0
 18 20  1  0  0  0
 30 31  1  0  0  0
 55 56  1  0  0  0
 35 36  1  0  0  0
 39 41  1  0  0  0
 39 42  1  0  0  0
M  END
> <minimizedAffinity>
-6.79898

> <CNNscore>
0.3110273182

> <CNNaffinity>
7.0197257996

> <CNN_VS>
2.1833264828

> <CNNaffinity_variance>
0.5321966410

$$$$
[H]OC(=O)C([H])([H])C([H])([H])[C@@]([H])(C(=O)N([H])[C@]([H])(C(=O)N([H])[C@]([H])(C(=O)N([H])[C@]([H])(C(=O)N([H])[C@]([H])(C(=O)N([H])[H])C([H])([H])c1c([H])c([H])c([H])c([H])c1[H])C([H])([H])c1c([H])nc([H])n1[H])C([H])([H])C([H])(C([H])([H])[H])C([H])([H])[H])C([H])([H])C([H])([H])C(=O)N([H])[H])N([H])[H]


 60 61  0  0  0  0  0  0  0  0999 V2000
    4.8214  -49.7277  -19.8190 C   0  0  0  0  0  0  0  0  0  0  0  0
    5.0974  -50.0980  -21.1895 N   0  0  0  0  0  0  0  0  0  0  0  0
    6.3708  -50.4334  -21.6749 C   0  0  0  0  0  0  0  0  0  0  0  0
    7.3425  -50.4187  -20.8740 O   0  0  0  0  0  0  0  0  0  0  0  0
    4.2956  -50.1154  -21.8565 H   0  0  0  0  0  0  0  0  0  0  0  0
    6.6681  -50.8055  -23.0687 C   0  0  0  0  0  0  0  0  0  0  0  0
    5.6608  -50.3624  -23.9924 N   0  0  0  0  0  0  0  0  0  0  0  0
    4.6788  -51.2217  -24.5473 C   0  0  0  0  0  0  0  0  0  0  0  0
    4.6964  -52.4223  -24.2166 O   0  0  0  0  0  0  0  0  0  0  0  0
    5.6439  -49.3618  -24.2714 H   0  0  0  0  0  0  0  0  0  0  0  0
    3.6691  -50.7168  -25.4836 C   0  0  0  0  0  0  0  0  0  0  0  0
    3.3183  -51.7345  -26.4813 N   0  0  0  0  0  0  0  0  0  0  0  0
    2.4888  -52.2909  -26.1253 H   0  0  0  0  0  0  0  0  0  0  0  0
    3.0776  -51.3058  -27.3999 H   0  0  0  0  0  0  0  0  0  0  0  0
    2.4084  -50.1905  -24.8719 C   0  0  0  0  0  0  0  0  0  0  0  0
    2.4063  -50.2590  -23.3893 C   0  0  0  0  0  0  0  0  0  0  0  0
    2.5447  -48.8896  -22.8399 C   0  0  0  0  0  0  0  0  0  0  0  0
    3.5901  -48.1007  -23.2571 O   0  0  0  0  0  0  0  0  0  0  0  0
    1.7240  -48.4632  -22.0126 O   0  0  0  0  0  0  0  0  0  0  0  0
    4.1893  -48.3817  -24.0480 H   0  0  0  0  0  0  0  0  0  0  0  0
    7.9876  -50.1872  -23.4579 C   0  0  0  0  0  0  0  0  0  0  0  0
    7.9139  -49.7491  -24.8987 C   0  0  0  0  0  0  0  0  0  0  0  0
    9.1620  -49.0226  -25.2949 C   0  0  0  0  0  0  0  0  0  0  0  0
    9.4536  -47.7739  -24.6937 N   0  0  0  0  0  0  0  0  0  0  0  0
    9.9002  -49.5460  -26.1415 O   0  0  0  0  0  0  0  0  0  0  0  0
    9.9376  -47.6887  -23.7825 H   0  0  0  0  0  0  0  0  0  0  0  0
    9.1700  -46.9086  -25.1872 H   0  0  0  0  0  0  0  0  0  0  0  0
    3.6929  -50.5224  -19.2532 C   0  0  0  0  0  0  0  0  0  0  0  0
    3.9173  -51.1624  -18.1912 O   0  0  0  0  0  0  0  0  0  0  0  0
    2.4284  -50.5845  -19.8377 N   0  0  0  0  0  0  0  0  0  0  0  0
    2.2346  -50.0590  -20.7105 H   0  0  0  0  0  0  0  0  0  0  0  0
    1.2925  -51.3603  -19.3086 C   0  0  0  0  0  0  0  0  0  0  0  0
    0.5321  -51.8097  -20.4757 C   0  0  0  0  0  0  0  0  0  0  0  0
   -0.2318  -50.9291  -21.0296 O   0  0  0  0  0  0  0  0  0  0  0  0
    0.5202  -53.0665  -21.0870 N   0  0  0  0  0  0  0  0  0  0  0  0
    1.0767  -53.8552  -20.7578 H   0  0  0  0  0  0  0  0  0  0  0  0
   -0.3254  -53.2762  -22.2770 C   0  0  0  0  0  0  0  0  0  0  0  0
   -1.2406  -54.3790  -22.0269 C   0  0  0  0  0  0  0  0  0  0  0  0
   -1.5877  -55.3372  -23.0025 N   0  0  0  0  0  0  0  0  0  0  0  0
   -1.7815  -54.5260  -20.8936 O   0  0  0  0  0  0  0  0  0  0  0  0
   -1.7633  -55.0541  -23.9951 H   0  0  0  0  0  0  0  0  0  0  0  0
   -1.6767  -56.3545  -22.7489 H   0  0  0  0  0  0  0  0  0  0  0  0
    0.6653  -53.5242  -23.4011 C   0  0  0  0  0  0  0  0  0  0  0  0
    0.1664  -53.2129  -24.7352 C   0  0  0  0  0  0  0  0  0  0  0  0
    0.4678  -53.9715  -25.8405 C   0  0  0  0  0  0  0  0  0  0  0  0
    0.0083  -53.6973  -27.0884 C   0  0  0  0  0  0  0  0  0  0  0  0
   -0.8082  -52.5924  -27.2534 C   0  0  0  0  0  0  0  0  0  0  0  0
   -1.1215  -51.8152  -26.1424 C   0  0  0  0  0  0  0  0  0  0  0  0
   -0.6534  -52.0986  -24.8847 C   0  0  0  0  0  0  0  0  0  0  0  0
    0.5834  -50.5644  -18.2819 C   0  0  0  0  0  0  0  0  0  0  0  0
   -0.4000  -51.2141  -17.4274 C   0  0  0  0  0  0  0  0  0  0  0  0
   -0.9576  -50.7476  -16.2263 C   0  0  0  0  0  0  0  0  0  0  0  0
   -1.8603  -51.6373  -15.7912 N   0  0  0  0  0  0  0  0  0  0  0  0
   -1.9020  -52.6464  -16.6585 C   0  0  0  0  0  0  0  0  0  0  0  0
   -1.0294  -52.3841  -17.6278 N   0  0  0  0  0  0  0  0  0  0  0  0
   -0.8939  -53.0582  -18.4338 H   0  0  0  0  0  0  0  0  0  0  0  0
    4.4857  -48.2546  -19.7153 C   0  0  0  0  0  0  0  0  0  0  0  0
    4.9672  -46.0157  -20.7012 C   0  0  0  0  0  0  0  0  0  0  0  0
    5.5210  -47.3831  -20.3496 C   0  0  0  0  0  0  0  0  0  0  0  0
    6.7232  -47.2198  -19.4063 C   0  0  0  0  0  0  0  0  0  0  0  0
 58 59  1  0  0  0
 59 60  1  0  0  0
 59 57  1  0  0  0
 57  1  1  0  0  0
  1  2  1  0  0  0
  2  3  1  0  0  0
  3  4  2  0  0  0
  3  6  1  0  0  0
  6 21  1  0  0  0
 21 22  1  0  0  0
 22 23  1  0  0  0
 23 24  1  0  0  0
 23 25  2  0  0  0
  6  7  1  0  0  0
  7  8  1  0  0  0
  8  9  2  0  0  0
  8 11  1  0  0  0
 11 12  1  0  0  0
 11 15  1  0  0  0
 15 16  1  0  0  0
 16 17  1  0  0  0
 17 18  1  0  0  0
 17 19  2  0  0  0
  1 28  1  0  0  0
 28 29  2  0  0  0
 28 30  1  0  0  0
 30 32  1  0  0  0
 32 50  1  0  0  0
 50 51  1  0  0  0
 51 52  2  0  0  0
 52 53  1  0  0  0
 53 54  2  0  0  0
 54 55  1  0  0  0
 32 33  1  0  0  0
 33 34  2  0  0  0
 33 35  1  0  0  0
 35 37  1  0  0  0
 37 43  1  0  0  0
 43 44  1  0  0  0
 44 45  2  0  0  0
 45 46  1  0  0  0
 46 47  2  0  0  0
 47 48  1  0  0  0
 48 49  2  0  0  0
 37 38  1  0  0  0
 38 39  1  0  0  0
 38 40  2  0  0  0
 55 51  1  0  0  0
 49 44  1  0  0  0
  2  5  1  0  0  0
 24 26  1  0  0  0
 24 27  1  0  0  0
  7 10  1  0  0  0
 12 13  1  0  0  0
 12 14  1  0  0  0
 18 20  1  0  0  0
 30 31  1  0  0  0
 55 56  1  0  0  0
 35 36  1  0  0  0
 39 41  1  0  0  0
 39 42  1  0  0  0
M  END
> <minimizedAffinity>
-6.95800

> <CNNscore>
0.2662041485

> <CNNaffinity>
6.9302878380

> <CNN_VS>
1.8448714018

> <CNNaffinity_variance>
0.4904666841

$$$$
[H]OC(=O)C([H])([H])C([H])([H])[C@@]([H])(C(=O)N([H])[C@]([H])(C(=O)N([H])[C@]([H])(C(=O)N([H])[C@]([H])(C(=O)N([H])[C@]([H])(C(=O)N([H])[H])C([H])([H])c1c([H])c([H])c([H])c([H])c1[H])C([H])([H])c1c([H])nc([H])n1[H])C([H])([H])C([H])(C([H])([H])[H])C([H])([H])[H])C([H])([H])C([H])([H])C(=O)N([H])[H])N([H])[H]


 60 61  0  0  0  0  0  0  0  0999 V2000
    3.2382  -50.5383  -23.1378 C   0  0  0  0  0  0  0  0  0  0  0  0
    3.3309  -49.0993  -23.2490 N   0  0  0  0  0  0  0  0  0  0  0  0
    3.3077  -48.3990  -24.4649 C   0  0  0  0  0  0  0  0  0  0  0  0
    3.1951  -49.0545  -25.5343 O   0  0  0  0  0  0  0  0  0  0  0  0
    3.4207  -48.5509  -22.3663 H   0  0  0  0  0  0  0  0  0  0  0  0
    3.4081  -46.9352  -24.5941 C   0  0  0  0  0  0  0  0  0  0  0  0
    4.2569  -46.3432  -23.5975 N   0  0  0  0  0  0  0  0  0  0  0  0
    3.9461  -45.1330  -22.9269 C   0  0  0  0  0  0  0  0  0  0  0  0
    2.8833  -44.5553  -23.2229 O   0  0  0  0  0  0  0  0  0  0  0  0
    5.1449  -46.8216  -23.3488 H   0  0  0  0  0  0  0  0  0  0  0  0
    4.8462  -44.5734  -21.9131 C   0  0  0  0  0  0  0  0  0  0  0  0
    5.0577  -43.1373  -22.1296 N   0  0  0  0  0  0  0  0  0  0  0  0
    4.3382  -42.5971  -21.5686 H   0  0  0  0  0  0  0  0  0  0  0  0
    6.0139  -42.8412  -21.8403 H   0  0  0  0  0  0  0  0  0  0  0  0
    4.4472  -44.7896  -20.4867 C   0  0  0  0  0  0  0  0  0  0  0  0
    4.7572  -46.1550  -19.9945 C   0  0  0  0  0  0  0  0  0  0  0  0
    3.5012  -46.9368  -19.9086 C   0  0  0  0  0  0  0  0  0  0  0  0
    2.7245  -46.8385  -18.7788 O   0  0  0  0  0  0  0  0  0  0  0  0
    3.1577  -47.6711  -20.8481 O   0  0  0  0  0  0  0  0  0  0  0  0
    2.9163  -46.1259  -18.0586 H   0  0  0  0  0  0  0  0  0  0  0  0
    3.9651  -46.6123  -25.9581 C   0  0  0  0  0  0  0  0  0  0  0  0
    2.9916  -45.7172  -26.6823 C   0  0  0  0  0  0  0  0  0  0  0  0
    3.6297  -44.4050  -27.0191 C   0  0  0  0  0  0  0  0  0  0  0  0
    3.8453  -43.4581  -25.9882 N   0  0  0  0  0  0  0  0  0  0  0  0
    3.9488  -44.1948  -28.1979 O   0  0  0  0  0  0  0  0  0  0  0  0
    4.6800  -43.4746  -25.3761 H   0  0  0  0  0  0  0  0  0  0  0  0
    3.1367  -42.7173  -25.8405 H   0  0  0  0  0  0  0  0  0  0  0  0
    2.0106  -50.9530  -22.3988 C   0  0  0  0  0  0  0  0  0  0  0  0
    0.9951  -51.2395  -23.0876 O   0  0  0  0  0  0  0  0  0  0  0  0
    1.9421  -51.0351  -21.0084 N   0  0  0  0  0  0  0  0  0  0  0  0
    2.7739  -50.8032  -20.4341 H   0  0  0  0  0  0  0  0  0  0  0  0
    0.7470  -51.4379  -20.2458 C   0  0  0  0  0  0  0  0  0  0  0  0
    0.7693  -50.6480  -19.0137 C   0  0  0  0  0  0  0  0  0  0  0  0
    0.9620  -49.3797  -19.1553 O   0  0  0  0  0  0  0  0  0  0  0  0
    0.6027  -51.0737  -17.6929 N   0  0  0  0  0  0  0  0  0  0  0  0
    0.4401  -52.0466  -17.4339 H   0  0  0  0  0  0  0  0  0  0  0  0
    0.6494  -50.0762  -16.6076 C   0  0  0  0  0  0  0  0  0  0  0  0
    2.0355  -49.8334  -16.2386 C   0  0  0  0  0  0  0  0  0  0  0  0
    2.7560  -48.6873  -16.6358 N   0  0  0  0  0  0  0  0  0  0  0  0
    2.6712  -50.6654  -15.5299 O   0  0  0  0  0  0  0  0  0  0  0  0
    2.6571  -48.2989  -17.6031 H   0  0  0  0  0  0  0  0  0  0  0  0
    3.4066  -48.2025  -15.9658 H   0  0  0  0  0  0  0  0  0  0  0  0
   -0.1975  -50.6845  -15.5035 C   0  0  0  0  0  0  0  0  0  0  0  0
   -1.5215  -50.0930  -15.3524 C   0  0  0  0  0  0  0  0  0  0  0  0
   -1.7261  -48.7384  -15.2465 C   0  0  0  0  0  0  0  0  0  0  0  0
   -2.9523  -48.1718  -15.1094 C   0  0  0  0  0  0  0  0  0  0  0  0
   -4.0551  -49.0069  -15.0744 C   0  0  0  0  0  0  0  0  0  0  0  0
   -3.8624  -50.3809  -15.1805 C   0  0  0  0  0  0  0  0  0  0  0  0
   -2.6202  -50.9459  -15.3189 C   0  0  0  0  0  0  0  0  0  0  0  0
    0.7093  -52.9125  -20.1250 C   0  0  0  0  0  0  0  0  0  0  0  0
   -0.2192  -53.6732  -20.9486 C   0  0  0  0  0  0  0  0  0  0  0  0
   -1.5418  -54.0445  -20.6584 C   0  0  0  0  0  0  0  0  0  0  0  0
   -2.0520  -54.6964  -21.7123 N   0  0  0  0  0  0  0  0  0  0  0  0
   -1.1164  -54.7568  -22.6574 C   0  0  0  0  0  0  0  0  0  0  0  0
   -0.0304  -54.1450  -22.1924 N   0  0  0  0  0  0  0  0  0  0  0  0
    0.8466  -54.0723  -22.7822 H   0  0  0  0  0  0  0  0  0  0  0  0
    4.4521  -51.1041  -22.4309 C   0  0  0  0  0  0  0  0  0  0  0  0
    6.2042  -50.0114  -21.0334 C   0  0  0  0  0  0  0  0  0  0  0  0
    5.6056  -50.1538  -22.4196 C   0  0  0  0  0  0  0  0  0  0  0  0
    6.6910  -50.6299  -23.3979 C   0  0  0  0  0  0  0  0  0  0  0  0
 58 59  1  0  0  0
 59 60  1  0  0  0
 59 57  1  0  0  0
 57  1  1  0  0  0
  1  2  1  0  0  0
  2  3  1  0  0  0
  3  4  2  0  0  0
  3  6  1  0  0  0
  6 21  1  0  0  0
 21 22  1  0  0  0
 22 23  1  0  0  0
 23 24  1  0  0  0
 23 25  2  0  0  0
  6  7  1  0  0  0
  7  8  1  0  0  0
  8  9  2  0  0  0
  8 11  1  0  0  0
 11 12  1  0  0  0
 11 15  1  0  0  0
 15 16  1  0  0  0
 16 17  1  0  0  0
 17 18  1  0  0  0
 17 19  2  0  0  0
  1 28  1  0  0  0
 28 29  2  0  0  0
 28 30  1  0  0  0
 30 32  1  0  0  0
 32 50  1  0  0  0
 50 51  1  0  0  0
 51 52  2  0  0  0
 52 53  1  0  0  0
 53 54  2  0  0  0
 54 55  1  0  0  0
 32 33  1  0  0  0
 33 34  2  0  0  0
 33 35  1  0  0  0
 35 37  1  0  0  0
 37 43  1  0  0  0
 43 44  1  0  0  0
 44 45  2  0  0  0
 45 46  1  0  0  0
 46 47  2  0  0  0
 47 48  1  0  0  0
 48 49  2  0  0  0
 37 38  1  0  0  0
 38 39  1  0  0  0
 38 40  2  0  0  0
 55 51  1  0  0  0
 49 44  1  0  0  0
  2  5  1  0  0  0
 24 26  1  0  0  0
 24 27  1  0  0  0
  7 10  1  0  0  0
 12 13  1  0  0  0
 12 14  1  0  0  0
 18 20  1  0  0  0
 30 31  1  0  0  0
 55 56  1  0  0  0
 35 36  1  0  0  0
 39 41  1  0  0  0
 39 42  1  0  0  0
M  END
> <minimizedAffinity>
-6.38422

> <CNNscore>
0.2615451515

> <CNNaffinity>
6.4610571861

> <CNN_VS>
1.6898581982

> <CNNaffinity_variance>
0.4192066789

$$$$
[H]OC(=O)C([H])([H])C([H])([H])[C@@]([H])(C(=O)N([H])[C@]([H])(C(=O)N([H])[C@]([H])(C(=O)N([H])[C@]([H])(C(=O)N([H])[C@]([H])(C(=O)N([H])[H])C([H])([H])c1c([H])c([H])c([H])c([H])c1[H])C([H])([H])c1c([H])nc([H])n1[H])C([H])([H])C([H])(C([H])([H])[H])C([H])([H])[H])C([H])([H])C([H])([H])C(=O)N([H])[H])N([H])[H]


 60 61  0  0  0  0  0  0  0  0999 V2000
    4.3426  -49.9746  -24.5366 C   0  0  0  0  0  0  0  0  0  0  0  0
    4.5818  -48.7652  -25.2927 N   0  0  0  0  0  0  0  0  0  0  0  0
    4.2483  -48.6022  -26.6461 C   0  0  0  0  0  0  0  0  0  0  0  0
    3.7014  -49.5621  -27.2505 O   0  0  0  0  0  0  0  0  0  0  0  0
    5.0313  -47.9656  -24.7963 H   0  0  0  0  0  0  0  0  0  0  0  0
    4.4921  -47.3796  -27.4307 C   0  0  0  0  0  0  0  0  0  0  0  0
    5.5626  -47.5274  -28.3774 N   0  0  0  0  0  0  0  0  0  0  0  0
    6.9199  -47.6912  -28.0011 C   0  0  0  0  0  0  0  0  0  0  0  0
    7.1938  -47.7035  -26.7862 O   0  0  0  0  0  0  0  0  0  0  0  0
    5.3381  -47.5164  -29.3917 H   0  0  0  0  0  0  0  0  0  0  0  0
    7.9748  -47.8424  -29.0089 C   0  0  0  0  0  0  0  0  0  0  0  0
    8.6553  -49.1355  -28.8710 N   0  0  0  0  0  0  0  0  0  0  0  0
    8.1712  -49.8449  -29.4928 H   0  0  0  0  0  0  0  0  0  0  0  0
    9.6604  -49.0718  -29.1379 H   0  0  0  0  0  0  0  0  0  0  0  0
    7.5526  -47.6725  -30.4348 C   0  0  0  0  0  0  0  0  0  0  0  0
    7.3832  -48.9615  -31.1508 C   0  0  0  0  0  0  0  0  0  0  0  0
    5.9406  -49.1931  -31.3989 C   0  0  0  0  0  0  0  0  0  0  0  0
    5.4306  -48.9699  -32.6556 O   0  0  0  0  0  0  0  0  0  0  0  0
    5.2042  -49.5842  -30.4798 O   0  0  0  0  0  0  0  0  0  0  0  0
    6.0505  -48.7905  -33.4600 H   0  0  0  0  0  0  0  0  0  0  0  0
    3.2294  -47.0312  -28.1783 C   0  0  0  0  0  0  0  0  0  0  0  0
    3.5995  -46.5193  -29.5473 C   0  0  0  0  0  0  0  0  0  0  0  0
    2.6697  -45.4248  -29.9718 C   0  0  0  0  0  0  0  0  0  0  0  0
    1.2732  -45.6604  -29.9536 N   0  0  0  0  0  0  0  0  0  0  0  0
    3.1611  -44.3438  -30.3259 O   0  0  0  0  0  0  0  0  0  0  0  0
    0.6950  -45.5432  -29.1029 H   0  0  0  0  0  0  0  0  0  0  0  0
    0.8109  -45.9633  -30.8296 H   0  0  0  0  0  0  0  0  0  0  0  0
    2.8918  -50.1596  -24.2431 C   0  0  0  0  0  0  0  0  0  0  0  0
    2.4120  -49.5013  -23.2817 O   0  0  0  0  0  0  0  0  0  0  0  0
    2.0633  -51.0117  -24.9725 N   0  0  0  0  0  0  0  0  0  0  0  0
    2.4495  -51.5555  -25.7665 H   0  0  0  0  0  0  0  0  0  0  0  0
    0.6283  -51.2209  -24.7093 C   0  0  0  0  0  0  0  0  0  0  0  0
    0.5554  -52.2102  -23.6330 C   0  0  0  0  0  0  0  0  0  0  0  0
    1.4216  -53.1658  -23.6800 O   0  0  0  0  0  0  0  0  0  0  0  0
   -0.3222  -52.2647  -22.5466 N   0  0  0  0  0  0  0  0  0  0  0  0
   -1.0546  -51.5742  -22.3824 H   0  0  0  0  0  0  0  0  0  0  0  0
   -0.1878  -53.3632  -21.5718 C   0  0  0  0  0  0  0  0  0  0  0  0
   -1.2574  -54.3262  -21.7838 C   0  0  0  0  0  0  0  0  0  0  0  0
   -1.3586  -55.1341  -22.9359 N   0  0  0  0  0  0  0  0  0  0  0  0
   -2.1692  -54.4801  -20.9214 O   0  0  0  0  0  0  0  0  0  0  0  0
   -1.1464  -54.7458  -23.8848 H   0  0  0  0  0  0  0  0  0  0  0  0
   -1.6499  -56.1424  -22.8614 H   0  0  0  0  0  0  0  0  0  0  0  0
   -0.2241  -52.6711  -20.2204 C   0  0  0  0  0  0  0  0  0  0  0  0
    0.8530  -51.7148  -19.9944 C   0  0  0  0  0  0  0  0  0  0  0  0
    0.6270  -50.3911  -19.7034 C   0  0  0  0  0  0  0  0  0  0  0  0
    1.6185  -49.4892  -19.4864 C   0  0  0  0  0  0  0  0  0  0  0  0
    2.9279  -49.9301  -19.5632 C   0  0  0  0  0  0  0  0  0  0  0  0
    3.1712  -51.2683  -19.8572 C   0  0  0  0  0  0  0  0  0  0  0  0
    2.1641  -52.1736  -20.0752 C   0  0  0  0  0  0  0  0  0  0  0  0
   -0.0700  -51.5228  -25.9788 C   0  0  0  0  0  0  0  0  0  0  0  0
    0.1729  -52.7954  -26.6427 C   0  0  0  0  0  0  0  0  0  0  0  0
    0.9982  -53.0608  -27.7471 C   0  0  0  0  0  0  0  0  0  0  0  0
    0.9708  -54.3756  -28.0047 N   0  0  0  0  0  0  0  0  0  0  0  0
    0.1673  -54.9573  -27.1169 C   0  0  0  0  0  0  0  0  0  0  0  0
   -0.3017  -54.0080  -26.3116 N   0  0  0  0  0  0  0  0  0  0  0  0
   -0.9670  -54.2453  -25.5220 H   0  0  0  0  0  0  0  0  0  0  0  0
    5.1096  -49.9553  -23.2310 C   0  0  0  0  0  0  0  0  0  0  0  0
    5.8070  -52.1789  -24.1175 C   0  0  0  0  0  0  0  0  0  0  0  0
    6.1066  -51.0645  -23.1334 C   0  0  0  0  0  0  0  0  0  0  0  0
    7.5227  -50.5250  -23.3887 C   0  0  0  0  0  0  0  0  0  0  0  0
 58 59  1  0  0  0
 59 60  1  0  0  0
 59 57  1  0  0  0
 57  1  1  0  0  0
  1  2  1  0  0  0
  2  3  1  0  0  0
  3  4  2  0  0  0
  3  6  1  0  0  0
  6 21  1  0  0  0
 21 22  1  0  0  0
 22 23  1  0  0  0
 23 24  1  0  0  0
 23 25  2  0  0  0
  6  7  1  0  0  0
  7  8  1  0  0  0
  8  9  2  0  0  0
  8 11  1  0  0  0
 11 12  1  0  0  0
 11 15  1  0  0  0
 15 16  1  0  0  0
 16 17  1  0  0  0
 17 18  1  0  0  0
 17 19  2  0  0  0
  1 28  1  0  0  0
 28 29  2  0  0  0
 28 30  1  0  0  0
 30 32  1  0  0  0
 32 50  1  0  0  0
 50 51  1  0  0  0
 51 52  2  0  0  0
 52 53  1  0  0  0
 53 54  2  0  0  0
 54 55  1  0  0  0
 32 33  1  0  0  0
 33 34  2  0  0  0
 33 35  1  0  0  0
 35 37  1  0  0  0
 37 43  1  0  0  0
 43 44  1  0  0  0
 44 45  2  0  0  0
 45 46  1  0  0  0
 46 47  2  0  0  0
 47 48  1  0  0  0
 48 49  2  0  0  0
 37 38  1  0  0  0
 38 39  1  0  0  0
 38 40  2  0  0  0
 55 51  1  0  0  0
 49 44  1  0  0  0
  2  5  1  0  0  0
 24 26  1  0  0  0
 24 27  1  0  0  0
  7 10  1  0  0  0
 12 13  1  0  0  0
 12 14  1  0  0  0
 18 20  1  0  0  0
 30 31  1  0  0  0
 55 56  1  0  0  0
 35 36  1  0  0  0
 39 41  1  0  0  0
 39 42  1  0  0  0
M  END
> <minimizedAffinity>
-7.29612

> <CNNscore>
0.2374621779

> <CNNaffinity>
7.2515802383

> <CNN_VS>
1.7219760418

> <CNNaffinity_variance>
0.2579758465

$$$$
[H]OC(=O)C([H])([H])C([H])([H])[C@@]([H])(C(=O)N([H])[C@]([H])(C(=O)N([H])[C@]([H])(C(=O)N([H])[C@]([H])(C(=O)N([H])[C@]([H])(C(=O)N([H])[H])C([H])([H])c1c([H])c([H])c([H])c([H])c1[H])C([H])([H])c1c([H])nc([H])n1[H])C([H])([H])C([H])(C([H])([H])[H])C([H])([H])[H])C([H])([H])C([H])([H])C(=O)N([H])[H])N([H])[H]


 60 61  0  0  0  0  0  0  0  0999 V2000
    4.0609  -48.1275  -19.9895 C   0  0  0  0  0  0  0  0  0  0  0  0
    4.5010  -48.2792  -21.3588 N   0  0  0  0  0  0  0  0  0  0  0  0
    3.6580  -48.1677  -22.4752 C   0  0  0  0  0  0  0  0  0  0  0  0
    2.4389  -47.9153  -22.2853 O   0  0  0  0  0  0  0  0  0  0  0  0
    5.5105  -48.4847  -21.5222 H   0  0  0  0  0  0  0  0  0  0  0  0
    4.0902  -48.3265  -23.8743 C   0  0  0  0  0  0  0  0  0  0  0  0
    4.0790  -49.6953  -24.3107 N   0  0  0  0  0  0  0  0  0  0  0  0
    5.1059  -50.6221  -23.9988 C   0  0  0  0  0  0  0  0  0  0  0  0
    6.0668  -50.2236  -23.3140 O   0  0  0  0  0  0  0  0  0  0  0  0
    3.2796  -50.0310  -24.8831 H   0  0  0  0  0  0  0  0  0  0  0  0
    5.0434  -52.0110  -24.4661 C   0  0  0  0  0  0  0  0  0  0  0  0
    5.5717  -52.9330  -23.4538 N   0  0  0  0  0  0  0  0  0  0  0  0
    4.7717  -53.2638  -22.8416 H   0  0  0  0  0  0  0  0  0  0  0  0
    6.0365  -53.7575  -23.8895 H   0  0  0  0  0  0  0  0  0  0  0  0
    3.6975  -52.4989  -24.9031 C   0  0  0  0  0  0  0  0  0  0  0  0
    3.6614  -52.9137  -26.3277 C   0  0  0  0  0  0  0  0  0  0  0  0
    2.8638  -51.9315  -27.0992 C   0  0  0  0  0  0  0  0  0  0  0  0
    2.4925  -52.2316  -28.3882 O   0  0  0  0  0  0  0  0  0  0  0  0
    2.5365  -50.8510  -26.5841 O   0  0  0  0  0  0  0  0  0  0  0  0
    2.6265  -53.1774  -28.7766 H   0  0  0  0  0  0  0  0  0  0  0  0
    3.1610  -47.5298  -24.7555 C   0  0  0  0  0  0  0  0  0  0  0  0
    3.8701  -47.2092  -26.0469 C   0  0  0  0  0  0  0  0  0  0  0  0
    3.8888  -45.7311  -26.2869 C   0  0  0  0  0  0  0  0  0  0  0  0
    2.7311  -44.9699  -25.9935 N   0  0  0  0  0  0  0  0  0  0  0  0
    4.9262  -45.2243  -26.7370 O   0  0  0  0  0  0  0  0  0  0  0  0
    2.5226  -44.6073  -25.0465 H   0  0  0  0  0  0  0  0  0  0  0  0
    2.0642  -44.7678  -26.7598 H   0  0  0  0  0  0  0  0  0  0  0  0
    3.4080  -49.3693  -19.4828 C   0  0  0  0  0  0  0  0  0  0  0  0
    4.1281  -50.1713  -18.8301 O   0  0  0  0  0  0  0  0  0  0  0  0
    2.0637  -49.6723  -19.6967 N   0  0  0  0  0  0  0  0  0  0  0  0
    1.4635  -49.0168  -20.2309 H   0  0  0  0  0  0  0  0  0  0  0  0
    1.3869  -50.8892  -19.2139 C   0  0  0  0  0  0  0  0  0  0  0  0
    0.6201  -51.4024  -20.3502 C   0  0  0  0  0  0  0  0  0  0  0  0
    0.0518  -50.5174  -21.0983 O   0  0  0  0  0  0  0  0  0  0  0  0
    0.4193  -52.7266  -20.7495 N   0  0  0  0  0  0  0  0  0  0  0  0
    0.8114  -53.5271  -20.2539 H   0  0  0  0  0  0  0  0  0  0  0  0
   -0.3880  -52.9970  -21.9538 C   0  0  0  0  0  0  0  0  0  0  0  0
   -1.2817  -54.1144  -21.6913 C   0  0  0  0  0  0  0  0  0  0  0  0
   -1.5909  -55.1036  -22.6485 N   0  0  0  0  0  0  0  0  0  0  0  0
   -1.8377  -54.2465  -20.5635 O   0  0  0  0  0  0  0  0  0  0  0  0
   -1.7565  -54.8487  -23.6505 H   0  0  0  0  0  0  0  0  0  0  0  0
   -1.6608  -56.1163  -22.3715 H   0  0  0  0  0  0  0  0  0  0  0  0
    0.6389  -53.2559  -23.0424 C   0  0  0  0  0  0  0  0  0  0  0  0
    0.1594  -53.0316  -24.4009 C   0  0  0  0  0  0  0  0  0  0  0  0
   -0.3963  -51.8432  -24.8095 C   0  0  0  0  0  0  0  0  0  0  0  0
   -0.8437  -51.6172  -26.0713 C   0  0  0  0  0  0  0  0  0  0  0  0
   -0.7330  -52.6419  -26.9946 C   0  0  0  0  0  0  0  0  0  0  0  0
   -0.1723  -53.8509  -26.5942 C   0  0  0  0  0  0  0  0  0  0  0  0
    0.2777  -54.0717  -25.3175 C   0  0  0  0  0  0  0  0  0  0  0  0
    0.6565  -50.5874  -17.9625 C   0  0  0  0  0  0  0  0  0  0  0  0
    1.2898  -50.8642  -16.6812 C   0  0  0  0  0  0  0  0  0  0  0  0
    0.6831  -51.2187  -15.4656 C   0  0  0  0  0  0  0  0  0  0  0  0
    1.6371  -51.4303  -14.5487 N   0  0  0  0  0  0  0  0  0  0  0  0
    2.8202  -51.2268  -15.1240 C   0  0  0  0  0  0  0  0  0  0  0  0
    2.6017  -50.8906  -16.3925 N   0  0  0  0  0  0  0  0  0  0  0  0
    3.4090  -50.6810  -17.0457 H   0  0  0  0  0  0  0  0  0  0  0  0
    3.0892  -46.9733  -19.8598 C   0  0  0  0  0  0  0  0  0  0  0  0
    4.9751  -46.0442  -18.5193 C   0  0  0  0  0  0  0  0  0  0  0  0
    3.7377  -45.7317  -19.3385 C   0  0  0  0  0  0  0  0  0  0  0  0
    4.1179  -44.8056  -20.5045 C   0  0  0  0  0  0  0  0  0  0  0  0
 58 59  1  0  0  0
 59 60  1  0  0  0
 59 57  1  0  0  0
 57  1  1  0  0  0
  1  2  1  0  0  0
  2  3  1  0  0  0
  3  4  2  0  0  0
  3  6  1  0  0  0
  6 21  1  0  0  0
 21 22  1  0  0  0
 22 23  1  0  0  0
 23 24  1  0  0  0
 23 25  2  0  0  0
  6  7  1  0  0  0
  7  8  1  0  0  0
  8  9  2  0  0  0
  8 11  1  0  0  0
 11 12  1  0  0  0
 11 15  1  0  0  0
 15 16  1  0  0  0
 16 17  1  0  0  0
 17 18  1  0  0  0
 17 19  2  0  0  0
  1 28  1  0  0  0
 28 29  2  0  0  0
 28 30  1  0  0  0
 30 32  1  0  0  0
 32 50  1  0  0  0
 50 51  1  0  0  0
 51 52  2  0  0  0
 52 53  1  0  0  0
 53 54  2  0  0  0
 54 55  1  0  0  0
 32 33  1  0  0  0
 33 34  2  0  0  0
 33 35  1  0  0  0
 35 37  1  0  0  0
 37 43  1  0  0  0
 43 44  1  0  0  0
 44 45  2  0  0  0
 45 46  1  0  0  0
 46 47  2  0  0  0
 47 48  1  0  0  0
 48 49  2  0  0  0
 37 38  1  0  0  0
 38 39  1  0  0  0
 38 40  2  0  0  0
 55 51  1  0  0  0
 49 44  1  0  0  0
  2  5  1  0  0  0
 24 26  1  0  0  0
 24 27  1  0  0  0
  7 10  1  0  0  0
 12 13  1  0  0  0
 12 14  1  0  0  0
 18 20  1  0  0  0
 30 31  1  0  0  0
 55 56  1  0  0  0
 35 36  1  0  0  0
 39 41  1  0  0  0
 39 42  1  0  0  0
M  END
> <minimizedAffinity>
-6.62424

> <CNNscore>
0.2118672729

> <CNNaffinity>
6.9173378944

> <CNN_VS>
1.4655574560

> <CNNaffinity_variance>
0.4545737207

$$$$
[H]c1nc2c([H])c(OC([H])([H])C([H])([H])C([H])([H])N3C([H])([H])C([H])([H])OC([H])([H])C3([H])[H])c(OC([H])([H])[H])c([H])c2c(Oc2c([H])c([H])c(N([H])C(=O)N([H])N3C(=O)C([H])([H])SC3([H])c3c(F)c([H])c([H])c([H])c3F)c([H])c2F)c1[H]


 50 55  0  0  0  0  0  0  0  0999 V2000
    1.5937  -51.5957  -24.7484 C   0  0  0  0  0  0  0  0  0  0  0  0
    1.9195  -52.0831  -26.0426 C   0  0  0  0  0  0  0  0  0  0  0  0
    2.7099  -51.4027  -26.8821 C   0  0  0  0  0  0  0  0  0  0  0  0
    3.2777  -50.1499  -26.5296 C   0  0  0  0  0  0  0  0  0  0  0  0
    2.9784  -49.6782  -25.2682 C   0  0  0  0  0  0  0  0  0  0  0  0
    2.1809  -50.3497  -24.4146 C   0  0  0  0  0  0  0  0  0  0  0  0
    1.8731  -49.8411  -23.1863 F   0  0  0  0  0  0  0  0  0  0  0  0
    3.7857  -49.3382  -27.5080 N   0  0  0  0  0  0  0  0  0  0  0  0
    3.8737  -47.9993  -27.8917 C   0  0  0  0  0  0  0  0  0  0  0  0
    3.3958  -47.0850  -27.1770 O   0  0  0  0  0  0  0  0  0  0  0  0
    4.5061  -47.8455  -29.0635 N   0  0  0  0  0  0  0  0  0  0  0  0
    4.2949  -49.9566  -28.3443 H   0  0  0  0  0  0  0  0  0  0  0  0
    4.1777  -46.5201  -29.0866 H   0  0  0  0  0  0  0  0  0  0  0  0
    5.1607  -47.6784  -30.2784 N   0  0  0  0  0  0  0  0  0  0  0  0
    5.3840  -46.6171  -31.1275 C   0  0  0  0  0  0  0  0  0  0  0  0
    7.1329  -46.9812  -31.7312 S   0  0  0  0  0  0  0  0  0  0  0  0
    7.2079  -48.6897  -31.0802 C   0  0  0  0  0  0  0  0  0  0  0  0
    5.8418  -48.9326  -30.6820 C   0  0  0  0  0  0  0  0  0  0  0  0
    5.2314  -50.0150  -30.6482 O   0  0  0  0  0  0  0  0  0  0  0  0
    4.5774  -46.2041  -32.2411 C   0  0  0  0  0  0  0  0  0  0  0  0
    3.5581  -46.8906  -32.7809 C   0  0  0  0  0  0  0  0  0  0  0  0
    3.2236  -48.1083  -32.3167 F   0  0  0  0  0  0  0  0  0  0  0  0
    2.8076  -46.4536  -33.8793 C   0  0  0  0  0  0  0  0  0  0  0  0
    3.0990  -45.2462  -34.4814 C   0  0  0  0  0  0  0  0  0  0  0  0
    4.1548  -44.5076  -33.9399 C   0  0  0  0  0  0  0  0  0  0  0  0
    4.8663  -44.9818  -32.8489 C   0  0  0  0  0  0  0  0  0  0  0  0
    5.8773  -44.2135  -32.4060 F   0  0  0  0  0  0  0  0  0  0  0  0
    0.7965  -52.2245  -23.9909 O   0  0  0  0  0  0  0  0  0  0  0  0
    0.3367  -51.8853  -19.9448 C   0  0  0  0  0  0  0  0  0  0  0  0
    0.4790  -52.0176  -21.2734 C   0  0  0  0  0  0  0  0  0  0  0  0
   -0.1988  -53.0200  -21.9805 C   0  0  0  0  0  0  0  0  0  0  0  0
    0.0747  -53.0623  -23.3347 C   0  0  0  0  0  0  0  0  0  0  0  0
   -0.5630  -54.1529  -23.9837 C   0  0  0  0  0  0  0  0  0  0  0  0
   -1.3675  -55.0279  -23.2846 C   0  0  0  0  0  0  0  0  0  0  0  0
   -1.5595  -54.8576  -21.9750 N   0  0  0  0  0  0  0  0  0  0  0  0
   -0.9915  -53.8609  -21.2765 C   0  0  0  0  0  0  0  0  0  0  0  0
   -1.1541  -53.7292  -19.9030 C   0  0  0  0  0  0  0  0  0  0  0  0
   -0.4894  -52.7356  -19.1919 C   0  0  0  0  0  0  0  0  0  0  0  0
    1.1108  -49.6467  -19.8535 C   0  0  0  0  0  0  0  0  0  0  0  0
    0.9931  -50.9276  -19.2038 O   0  0  0  0  0  0  0  0  0  0  0  0
   -0.6070  -52.5718  -17.9244 O   0  0  0  0  0  0  0  0  0  0  0  0
   -0.8890  -52.1405  -16.7047 C   0  0  0  0  0  0  0  0  0  0  0  0
    0.1707  -51.2120  -16.0924 C   0  0  0  0  0  0  0  0  0  0  0  0
    0.1207  -51.2480  -14.6530 C   0  0  0  0  0  0  0  0  0  0  0  0
    0.9386  -52.3392  -14.0854 N   0  0  0  0  0  0  0  0  0  0  0  0
    0.4103  -52.9247  -12.9625 C   0  0  0  0  0  0  0  0  0  0  0  0
    1.3466  -53.0997  -11.7808 C   0  0  0  0  0  0  0  0  0  0  0  0
    2.6589  -53.0781  -12.0951 O   0  0  0  0  0  0  0  0  0  0  0  0
    2.9626  -51.8541  -12.7032 C   0  0  0  0  0  0  0  0  0  0  0  0
    2.2827  -51.9588  -14.0908 C   0  0  0  0  0  0  0  0  0  0  0  0
 39 40  1  0  0  0
 40 29  1  0  0  0
 29 30  2  0  0  0
 30 31  1  0  0  0
 31 32  2  0  0  0
 32 28  1  0  0  0
 28  1  1  0  0  0
  1  2  2  0  0  0
  2  3  1  0  0  0
  3  4  2  0  0  0
  4  8  1  0  0  0
  8  9  1  0  0  0
  9 10  2  0  0  0
  9 11  1  0  0  0
 11 14  1  0  0  0
 14 15  1  0  0  0
 15 16  1  0  0  0
 16 17  1  0  0  0
 17 18  1  0  0  0
 18 19  2  0  0  0
 15 20  1  0  0  0
 20 21  2  0  0  0
 21 22  1  0  0  0
 21 23  1  0  0  0
 23 24  2  0  0  0
 24 25  1  0  0  0
 25 26  2  0  0  0
 26 27  1  0  0  0
  4  5  1  0  0  0
  5  6  2  0  0  0
  6  7  1  0  0  0
 32 33  1  0  0  0
 33 34  2  0  0  0
 34 35  1  0  0  0
 35 36  2  0  0  0
 36 37  1  0  0  0
 37 38  2  0  0  0
 38 41  1  0  0  0
 41 42  1  0  0  0
 42 43  1  0  0  0
 43 44  1  0  0  0
 44 45  1  0  0  0
 45 46  1  0  0  0
 46 47  1  0  0  0
 47 48  1  0  0  0
 48 49  1  0  0  0
 49 50  1  0  0  0
 38 29  1  0  0  0
 50 45  1  0  0  0
 36 31  1  0  0  0
  6  1  1  0  0  0
 18 14  1  0  0  0
 26 20  1  0  0  0
  8 12  1  0  0  0
 11 13  1  0  0  0
M  END
> <minimizedAffinity>
-9.39673

> <CNNscore>
0.2256457359

> <CNNaffinity>
6.7488451004

> <CNN_VS>
1.5228481293

> <CNNaffinity_variance>
0.2351135761

$$$$
[H]c1nc2c([H])c(OC([H])([H])C([H])([H])C([H])([H])N3C([H])([H])C([H])([H])OC([H])([H])C3([H])[H])c(OC([H])([H])[H])c([H])c2c(Oc2c([H])c([H])c(N([H])C(=O)N([H])N3C(=O)C([H])([H])SC3([H])c3c(F)c([H])c([H])c([H])c3F)c([H])c2F)c1[H]


 50 55  0  0  0  0  0  0  0  0999 V2000
    1.6168  -51.6803  -24.6063 C   0  0  0  0  0  0  0  0  0  0  0  0
    1.9114  -52.1192  -25.9251 C   0  0  0  0  0  0  0  0  0  0  0  0
    2.7533  -51.4541  -26.7259 C   0  0  0  0  0  0  0  0  0  0  0  0
    3.4103  -50.2677  -26.3052 C   0  0  0  0  0  0  0  0  0  0  0  0
    3.1411  -49.8447  -25.0200 C   0  0  0  0  0  0  0  0  0  0  0  0
    2.2927  -50.5011  -24.2047 C   0  0  0  0  0  0  0  0  0  0  0  0
    2.0179  -50.0390  -22.9504 F   0  0  0  0  0  0  0  0  0  0  0  0
    3.9809  -49.4435  -27.2376 N   0  0  0  0  0  0  0  0  0  0  0  0
    3.8990  -48.1535  -27.7637 C   0  0  0  0  0  0  0  0  0  0  0  0
    3.0850  -47.3149  -27.3061 O   0  0  0  0  0  0  0  0  0  0  0  0
    4.7657  -47.9562  -28.7668 N   0  0  0  0  0  0  0  0  0  0  0  0
    4.7974  -49.9973  -27.8442 H   0  0  0  0  0  0  0  0  0  0  0  0
    4.2004  -46.7434  -29.0400 H   0  0  0  0  0  0  0  0  0  0  0  0
    5.6619  -47.7444  -29.8083 N   0  0  0  0  0  0  0  0  0  0  0  0
    6.9348  -47.2278  -29.9090 C   0  0  0  0  0  0  0  0  0  0  0  0
    7.6873  -48.3400  -31.2328 S   0  0  0  0  0  0  0  0  0  0  0  0
    6.1103  -49.1046  -31.7590 C   0  0  0  0  0  0  0  0  0  0  0  0
    5.1280  -48.2955  -31.0775 C   0  0  0  0  0  0  0  0  0  0  0  0
    3.9640  -48.0393  -31.4304 O   0  0  0  0  0  0  0  0  0  0  0  0
    7.3072  -45.8660  -30.1701 C   0  0  0  0  0  0  0  0  0  0  0  0
    8.0585  -45.0830  -29.3802 C   0  0  0  0  0  0  0  0  0  0  0  0
    8.5108  -45.5301  -28.1945 F   0  0  0  0  0  0  0  0  0  0  0  0
    8.3841  -43.7523  -29.6697 C   0  0  0  0  0  0  0  0  0  0  0  0
    7.9236  -43.1629  -30.8298 C   0  0  0  0  0  0  0  0  0  0  0  0
    7.1397  -43.9546  -31.6738 C   0  0  0  0  0  0  0  0  0  0  0  0
    6.8473  -45.2689  -31.3443 C   0  0  0  0  0  0  0  0  0  0  0  0
    6.0713  -45.9499  -32.2061 F   0  0  0  0  0  0  0  0  0  0  0  0
    0.7722  -52.2890  -23.8845 O   0  0  0  0  0  0  0  0  0  0  0  0
    0.2076  -51.9263  -19.8538 C   0  0  0  0  0  0  0  0  0  0  0  0
    0.3839  -52.0661  -21.1775 C   0  0  0  0  0  0  0  0  0  0  0  0
   -0.2944  -53.0570  -21.9001 C   0  0  0  0  0  0  0  0  0  0  0  0
    0.0156  -53.1097  -23.2462 C   0  0  0  0  0  0  0  0  0  0  0  0
   -0.6259  -54.1895  -23.9093 C   0  0  0  0  0  0  0  0  0  0  0  0
   -1.4672  -55.0454  -23.2303 C   0  0  0  0  0  0  0  0  0  0  0  0
   -1.6919  -54.8667  -21.9270 N   0  0  0  0  0  0  0  0  0  0  0  0
   -1.1232  -53.8793  -21.2160 C   0  0  0  0  0  0  0  0  0  0  0  0
   -1.3210  -53.7394  -19.8479 C   0  0  0  0  0  0  0  0  0  0  0  0
   -0.6561  -52.7570  -19.1215 C   0  0  0  0  0  0  0  0  0  0  0  0
    2.2765  -51.2117  -18.9438 C   0  0  0  0  0  0  0  0  0  0  0  0
    0.8626  -50.9795  -19.0977 O   0  0  0  0  0  0  0  0  0  0  0  0
   -0.8055  -52.5863  -17.8583 O   0  0  0  0  0  0  0  0  0  0  0  0
   -0.9334  -52.1011  -16.6330 C   0  0  0  0  0  0  0  0  0  0  0  0
   -2.3845  -51.9545  -16.1502 C   0  0  0  0  0  0  0  0  0  0  0  0
   -2.5516  -50.7548  -15.3702 C   0  0  0  0  0  0  0  0  0  0  0  0
   -3.3262  -50.9868  -14.1340 N   0  0  0  0  0  0  0  0  0  0  0  0
   -2.6632  -51.7041  -13.1703 C   0  0  0  0  0  0  0  0  0  0  0  0
   -3.4176  -52.8627  -12.5438 C   0  0  0  0  0  0  0  0  0  0  0  0
   -4.7597  -52.7920  -12.6667 O   0  0  0  0  0  0  0  0  0  0  0  0
   -5.0922  -52.7509  -14.0261 C   0  0  0  0  0  0  0  0  0  0  0  0
   -4.6357  -51.3391  -14.4696 C   0  0  0  0  0  0  0  0  0  0  0  0
 39 40  1  0  0  0
 40 29  1  0  0  0
 29 30  2  0  0  0
 30 31  1  0  0  0
 31 32  2  0  0  0
 32 28  1  0  0  0
 28  1  1  0  0  0
  1  2  2  0  0  0
  2  3  1  0  0  0
  3  4  2  0  0  0
  4  8  1  0  0  0
  8  9  1  0  0  0
  9 10  2  0  0  0
  9 11  1  0  0  0
 11 14  1  0  0  0
 14 15  1  0  0  0
 15 16  1  0  0  0
 16 17  1  0  0  0
 17 18  1  0  0  0
 18 19  2  0  0  0
 15 20  1  0  0  0
 20 21  2  0  0  0
 21 22  1  0  0  0
 21 23  1  0  0  0
 23 24  2  0  0  0
 24 25  1  0  0  0
 25 26  2  0  0  0
 26 27  1  0  0  0
  4  5  1  0  0  0
  5  6  2  0  0  0
  6  7  1  0  0  0
 32 33  1  0  0  0
 33 34  2  0  0  0
 34 35  1  0  0  0
 35 36  2  0  0  0
 36 37  1  0  0  0
 37 38  2  0  0  0
 38 41  1  0  0  0
 41 42  1  0  0  0
 42 43  1  0  0  0
 43 44  1  0  0  0
 44 45  1  0  0  0
 45 46  1  0  0  0
 46 47  1  0  0  0
 47 48  1  0  0  0
 48 49  1  0  0  0
 49 50  1  0  0  0
 38 29  1  0  0  0
 50 45  1  0  0  0
 36 31  1  0  0  0
  6  1  1  0  0  0
 18 14  1  0  0  0
 26 20  1  0  0  0
  8 12  1  0  0  0
 11 13  1  0  0  0
M  END
> <minimizedAffinity>
-8.07956

> <CNNscore>
0.2191997021

> <CNNaffinity>
6.8985581398

> <CNN_VS>
1.5121618509

> <CNNaffinity_variance>
0.3101690114

$$$$
[H]c1nc2c([H])c(OC([H])([H])C([H])([H])C([H])([H])N3C([H])([H])C([H])([H])OC([H])([H])C3([H])[H])c(OC([H])([H])[H])c([H])c2c(Oc2c([H])c([H])c(N([H])C(=O)N([H])N3C(=O)C([H])([H])SC3([H])c3c(F)c([H])c([H])c([H])c3F)c([H])c2F)c1[H]


 50 55  0  0  0  0  0  0  0  0999 V2000
    1.5376  -51.3850  -24.2814 C   0  0  0  0  0  0  0  0  0  0  0  0
    1.5999  -51.7994  -25.6390 C   0  0  0  0  0  0  0  0  0  0  0  0
    2.3372  -51.1505  -26.5488 C   0  0  0  0  0  0  0  0  0  0  0  0
    3.1091  -50.0071  -26.2127 C   0  0  0  0  0  0  0  0  0  0  0  0
    3.0658  -49.6088  -24.8926 C   0  0  0  0  0  0  0  0  0  0  0  0
    2.3248  -50.2491  -23.9673 C   0  0  0  0  0  0  0  0  0  0  0  0
    2.2729  -49.8106  -22.6760 F   0  0  0  0  0  0  0  0  0  0  0  0
    3.5659  -49.1835  -27.2063 N   0  0  0  0  0  0  0  0  0  0  0  0
    4.3451  -48.0459  -27.4217 C   0  0  0  0  0  0  0  0  0  0  0  0
    4.9342  -47.4718  -26.4737 O   0  0  0  0  0  0  0  0  0  0  0  0
    4.3698  -47.6818  -28.7114 N   0  0  0  0  0  0  0  0  0  0  0  0
    3.1416  -49.4946  -28.2380 H   0  0  0  0  0  0  0  0  0  0  0  0
    5.0231  -46.5262  -28.3908 H   0  0  0  0  0  0  0  0  0  0  0  0
    4.3996  -47.2981  -30.0473 N   0  0  0  0  0  0  0  0  0  0  0  0
    4.9614  -47.8097  -31.1961 C   0  0  0  0  0  0  0  0  0  0  0  0
    3.6313  -47.4137  -32.4727 S   0  0  0  0  0  0  0  0  0  0  0  0
    2.6679  -46.2858  -31.4011 C   0  0  0  0  0  0  0  0  0  0  0  0
    3.5443  -46.1067  -30.2681 C   0  0  0  0  0  0  0  0  0  0  0  0
    3.6391  -45.1204  -29.5174 O   0  0  0  0  0  0  0  0  0  0  0  0
    6.2509  -47.5051  -31.7490 C   0  0  0  0  0  0  0  0  0  0  0  0
    6.7086  -46.2849  -32.0707 C   0  0  0  0  0  0  0  0  0  0  0  0
    5.9305  -45.1965  -31.9289 F   0  0  0  0  0  0  0  0  0  0  0  0
    7.9712  -46.0371  -32.6230 C   0  0  0  0  0  0  0  0  0  0  0  0
    8.8356  -47.0838  -32.8733 C   0  0  0  0  0  0  0  0  0  0  0  0
    8.3871  -48.3667  -32.5468 C   0  0  0  0  0  0  0  0  0  0  0  0
    7.1288  -48.5604  -31.9986 C   0  0  0  0  0  0  0  0  0  0  0  0
    6.7739  -49.8301  -31.7330 F   0  0  0  0  0  0  0  0  0  0  0  0
    0.7879  -51.9753  -23.4480 O   0  0  0  0  0  0  0  0  0  0  0  0
    0.4280  -51.3094  -19.4325 C   0  0  0  0  0  0  0  0  0  0  0  0
    0.5383  -51.5492  -20.7490 C   0  0  0  0  0  0  0  0  0  0  0  0
   -0.1199  -52.6319  -21.3480 C   0  0  0  0  0  0  0  0  0  0  0  0
    0.1174  -52.7796  -22.7017 C   0  0  0  0  0  0  0  0  0  0  0  0
   -0.4957  -53.9437  -23.2366 C   0  0  0  0  0  0  0  0  0  0  0  0
   -1.2463  -54.7843  -22.4419 C   0  0  0  0  0  0  0  0  0  0  0  0
   -1.4083  -54.5100  -21.1460 N   0  0  0  0  0  0  0  0  0  0  0  0
   -0.8598  -53.4377  -20.5517 C   0  0  0  0  0  0  0  0  0  0  0  0
   -0.9891  -53.1954  -19.1897 C   0  0  0  0  0  0  0  0  0  0  0  0
   -0.3436  -52.1216  -18.5855 C   0  0  0  0  0  0  0  0  0  0  0  0
    1.3041  -49.1153  -19.6257 C   0  0  0  0  0  0  0  0  0  0  0  0
    1.0674  -50.2691  -18.7953 O   0  0  0  0  0  0  0  0  0  0  0  0
   -0.4322  -51.8547  -17.3333 O   0  0  0  0  0  0  0  0  0  0  0  0
   -0.5751  -51.8941  -16.0176 C   0  0  0  0  0  0  0  0  0  0  0  0
   -1.9793  -51.5267  -15.5143 C   0  0  0  0  0  0  0  0  0  0  0  0
   -2.9971  -52.1754  -16.3009 C   0  0  0  0  0  0  0  0  0  0  0  0
   -4.3312  -52.1033  -15.6707 N   0  0  0  0  0  0  0  0  0  0  0  0
   -4.3903  -51.3196  -14.5459 C   0  0  0  0  0  0  0  0  0  0  0  0
   -5.0684  -51.9235  -13.3297 C   0  0  0  0  0  0  0  0  0  0  0  0
   -5.9058  -52.9462  -13.6026 O   0  0  0  0  0  0  0  0  0  0  0  0
   -5.1892  -53.9648  -14.2421 C   0  0  0  0  0  0  0  0  0  0  0  0
   -4.8992  -53.3792  -15.6462 C   0  0  0  0  0  0  0  0  0  0  0  0
 39 40  1  0  0  0
 40 29  1  0  0  0
 29 30  2  0  0  0
 30 31  1  0  0  0
 31 32  2  0  0  0
 32 28  1  0  0  0
 28  1  1  0  0  0
  1  2  2  0  0  0
  2  3  1  0  0  0
  3  4  2  0  0  0
  4  8  1  0  0  0
  8  9  1  0  0  0
  9 10  2  0  0  0
  9 11  1  0  0  0
 11 14  1  0  0  0
 14 15  1  0  0  0
 15 16  1  0  0  0
 16 17  1  0  0  0
 17 18  1  0  0  0
 18 19  2  0  0  0
 15 20  1  0  0  0
 20 21  2  0  0  0
 21 22  1  0  0  0
 21 23  1  0  0  0
 23 24  2  0  0  0
 24 25  1  0  0  0
 25 26  2  0  0  0
 26 27  1  0  0  0
  4  5  1  0  0  0
  5  6  2  0  0  0
  6  7  1  0  0  0
 32 33  1  0  0  0
 33 34  2  0  0  0
 34 35  1  0  0  0
 35 36  2  0  0  0
 36 37  1  0  0  0
 37 38  2  0  0  0
 38 41  1  0  0  0
 41 42  1  0  0  0
 42 43  1  0  0  0
 43 44  1  0  0  0
 44 45  1  0  0  0
 45 46  1  0  0  0
 46 47  1  0  0  0
 47 48  1  0  0  0
 48 49  1  0  0  0
 49 50  1  0  0  0
 38 29  1  0  0  0
 50 45  1  0  0  0
 36 31  1  0  0  0
  6  1  1  0  0  0
 18 14  1  0  0  0
 26 20  1  0  0  0
  8 12  1  0  0  0
 11 13  1  0  0  0
M  END
> <minimizedAffinity>
-8.76886

> <CNNscore>
0.2033526003

> <CNNaffinity>
6.7988157272

> <CNN_VS>
1.3825569153

> <CNNaffinity_variance>
0.2122926414

$$$$
[H]c1nc2c([H])c(OC([H])([H])C([H])([H])C([H])([H])N3C([H])([H])C([H])([H])OC([H])([H])C3([H])[H])c(OC([H])([H])[H])c([H])c2c(Oc2c([H])c([H])c(N([H])C(=O)N([H])N3C(=O)C([H])([H])SC3([H])c3c(F)c([H])c([H])c([H])c3F)c([H])c2F)c1[H]


 50 55  0  0  0  0  0  0  0  0999 V2000
    1.3825  -51.2211  -24.6473 C   0  0  0  0  0  0  0  0  0  0  0  0
    2.2760  -50.3085  -24.0248 C   0  0  0  0  0  0  0  0  0  0  0  0
    3.1444  -49.5704  -24.7273 C   0  0  0  0  0  0  0  0  0  0  0  0
    3.2243  -49.6497  -26.1428 C   0  0  0  0  0  0  0  0  0  0  0  0
    2.3484  -50.5221  -26.7550 C   0  0  0  0  0  0  0  0  0  0  0  0
    1.4726  -51.2746  -26.0607 C   0  0  0  0  0  0  0  0  0  0  0  0
    0.6427  -52.1559  -26.6907 F   0  0  0  0  0  0  0  0  0  0  0  0
    4.3258  -49.1534  -26.7869 N   0  0  0  0  0  0  0  0  0  0  0  0
    4.7104  -48.4655  -27.9386 C   0  0  0  0  0  0  0  0  0  0  0  0
    3.8604  -48.0564  -28.7664 O   0  0  0  0  0  0  0  0  0  0  0  0
    6.0397  -48.3154  -28.0225 N   0  0  0  0  0  0  0  0  0  0  0  0
    5.2992  -49.4144  -26.2163 H   0  0  0  0  0  0  0  0  0  0  0  0
    5.9214  -47.8202  -29.2897 H   0  0  0  0  0  0  0  0  0  0  0  0
    7.4176  -48.1564  -28.1163 N   0  0  0  0  0  0  0  0  0  0  0  0
    8.4986  -48.5572  -27.3627 C   0  0  0  0  0  0  0  0  0  0  0  0
    9.7702  -48.9359  -28.7026 S   0  0  0  0  0  0  0  0  0  0  0  0
    8.8413  -48.1566  -30.0732 C   0  0  0  0  0  0  0  0  0  0  0  0
    7.7795  -47.4677  -29.3791 C   0  0  0  0  0  0  0  0  0  0  0  0
    7.1855  -46.4298  -29.7183 O   0  0  0  0  0  0  0  0  0  0  0  0
    9.1368  -47.8365  -26.2975 C   0  0  0  0  0  0  0  0  0  0  0  0
    9.2966  -48.2627  -25.0348 C   0  0  0  0  0  0  0  0  0  0  0  0
    8.8041  -49.4509  -24.6400 F   0  0  0  0  0  0  0  0  0  0  0  0
    9.9138  -47.5168  -24.0233 C   0  0  0  0  0  0  0  0  0  0  0  0
   10.4033  -46.2548  -24.2935 C   0  0  0  0  0  0  0  0  0  0  0  0
   10.2530  -45.7843  -25.6010 C   0  0  0  0  0  0  0  0  0  0  0  0
    9.6371  -46.5626  -26.5687 C   0  0  0  0  0  0  0  0  0  0  0  0
    9.5196  -46.0222  -27.7946 F   0  0  0  0  0  0  0  0  0  0  0  0
    0.6096  -51.9546  -23.9621 O   0  0  0  0  0  0  0  0  0  0  0  0
    0.0846  -51.7825  -19.9134 C   0  0  0  0  0  0  0  0  0  0  0  0
    0.2505  -51.8607  -21.2435 C   0  0  0  0  0  0  0  0  0  0  0  0
   -0.3140  -52.9068  -21.9859 C   0  0  0  0  0  0  0  0  0  0  0  0
   -0.0267  -52.8813  -23.3378 C   0  0  0  0  0  0  0  0  0  0  0  0
   -0.5427  -54.0126  -24.0240 C   0  0  0  0  0  0  0  0  0  0  0  0
   -1.2578  -54.9860  -23.3587 C   0  0  0  0  0  0  0  0  0  0  0  0
   -1.4769  -54.8746  -22.0469 N   0  0  0  0  0  0  0  0  0  0  0  0
   -1.0209  -53.8453  -21.3146 C   0  0  0  0  0  0  0  0  0  0  0  0
   -1.2073  -53.7710  -19.9397 C   0  0  0  0  0  0  0  0  0  0  0  0
   -0.6548  -52.7351  -19.1938 C   0  0  0  0  0  0  0  0  0  0  0  0
    1.3118  -49.7546  -19.8839 C   0  0  0  0  0  0  0  0  0  0  0  0
    0.6323  -50.7840  -19.1386 O   0  0  0  0  0  0  0  0  0  0  0  0
   -0.7990  -52.6212  -17.9235 O   0  0  0  0  0  0  0  0  0  0  0  0
   -1.1488  -52.2692  -16.6960 C   0  0  0  0  0  0  0  0  0  0  0  0
   -0.7369  -50.8442  -16.2962 C   0  0  0  0  0  0  0  0  0  0  0  0
    0.4900  -50.8529  -15.5410 C   0  0  0  0  0  0  0  0  0  0  0  0
    1.0495  -49.4985  -15.3547 N   0  0  0  0  0  0  0  0  0  0  0  0
    1.9563  -49.1182  -16.3118 C   0  0  0  0  0  0  0  0  0  0  0  0
    3.2619  -48.5242  -15.8154 C   0  0  0  0  0  0  0  0  0  0  0  0
    3.2150  -48.0342  -14.5588 O   0  0  0  0  0  0  0  0  0  0  0  0
    2.8526  -49.0629  -13.6809 C   0  0  0  0  0  0  0  0  0  0  0  0
    1.3584  -49.3087  -14.0057 C   0  0  0  0  0  0  0  0  0  0  0  0
 39 40  1  0  0  0
 40 29  1  0  0  0
 29 30  2  0  0  0
 30 31  1  0  0  0
 31 32  2  0  0  0
 32 28  1  0  0  0
 28  1  1  0  0  0
  1  2  2  0  0  0
  2  3  1  0  0  0
  3  4  2  0  0  0
  4  8  1  0  0  0
  8  9  1  0  0  0
  9 10  2  0  0  0
  9 11  1  0  0  0
 11 14  1  0  0  0
 14 15  1  0  0  0
 15 16  1  0  0  0
 16 17  1  0  0  0
 17 18  1  0  0  0
 18 19  2  0  0  0
 15 20  1  0  0  0
 20 21  2  0  0  0
 21 22  1  0  0  0
 21 23  1  0  0  0
 23 24  2  0  0  0
 24 25  1  0  0  0
 25 26  2  0  0  0
 26 27  1  0  0  0
  4  5  1  0  0  0
  5  6  2  0  0  0
  6  7  1  0  0  0
 32 33  1  0  0  0
 33 34  2  0  0  0
 34 35  1  0  0  0
 35 36  2  0  0  0
 36 37  1  0  0  0
 37 38  2  0  0  0
 38 41  1  0  0  0
 41 42  1  0  0  0
 42 43  1  0  0  0
 43 44  1  0  0  0
 44 45  1  0  0  0
 45 46  1  0  0  0
 46 47  1  0  0  0
 47 48  1  0  0  0
 48 49  1  0  0  0
 49 50  1  0  0  0
 38 29  1  0  0  0
 50 45  1  0  0  0
 36 31  1  0  0  0
  6  1  1  0  0  0
 18 14  1  0  0  0
 26 20  1  0  0  0
  8 12  1  0  0  0
 11 13  1  0  0  0
M  END
> <minimizedAffinity>
-7.75466

> <CNNscore>
0.1951573789

> <CNNaffinity>
7.0060014725

> <CNN_VS>
1.3672728539

> <CNNaffinity_variance>
0.1893930882

$$$$
[H]c1nc2c([H])c(OC([H])([H])C([H])([H])C([H])([H])N3C([H])([H])C([H])([H])OC([H])([H])C3([H])[H])c(OC([H])([H])[H])c([H])c2c(Oc2c([H])c([H])c(N([H])C(=O)N([H])N3C(=O)C([H])([H])SC3([H])c3c(F)c([H])c([H])c([H])c3F)c([H])c2F)c1[H]


 50 55  0  0  0  0  0  0  0  0999 V2000
    2.0138  -51.7608  -24.3597 C   0  0  0  0  0  0  0  0  0  0  0  0
    2.2871  -52.0838  -25.7160 C   0  0  0  0  0  0  0  0  0  0  0  0
    3.0170  -51.2857  -26.5052 C   0  0  0  0  0  0  0  0  0  0  0  0
    3.5694  -50.0654  -26.0342 C   0  0  0  0  0  0  0  0  0  0  0  0
    3.3213  -49.7535  -24.7135 C   0  0  0  0  0  0  0  0  0  0  0  0
    2.5848  -50.5445  -23.9089 C   0  0  0  0  0  0  0  0  0  0  0  0
    2.3257  -50.1925  -22.6162 F   0  0  0  0  0  0  0  0  0  0  0  0
    4.0071  -49.1297  -26.9327 N   0  0  0  0  0  0  0  0  0  0  0  0
    5.1339  -48.3866  -27.2870 C   0  0  0  0  0  0  0  0  0  0  0  0
    6.2263  -48.5354  -26.6872 O   0  0  0  0  0  0  0  0  0  0  0  0
    4.8907  -47.5440  -28.3006 N   0  0  0  0  0  0  0  0  0  0  0  0
    3.1513  -48.7889  -27.6347 H   0  0  0  0  0  0  0  0  0  0  0  0
    6.1188  -46.9686  -28.1400 H   0  0  0  0  0  0  0  0  0  0  0  0
    4.6456  -46.6674  -29.3514 N   0  0  0  0  0  0  0  0  0  0  0  0
    3.7960  -46.6587  -30.4355 C   0  0  0  0  0  0  0  0  0  0  0  0
    3.3331  -44.8335  -30.5347 S   0  0  0  0  0  0  0  0  0  0  0  0
    4.6147  -44.2477  -29.3673 C   0  0  0  0  0  0  0  0  0  0  0  0
    5.4346  -45.4222  -29.1882 C   0  0  0  0  0  0  0  0  0  0  0  0
    6.6488  -45.4802  -28.9284 O   0  0  0  0  0  0  0  0  0  0  0  0
    4.0618  -47.1500  -31.7581 C   0  0  0  0  0  0  0  0  0  0  0  0
    5.2615  -47.4976  -32.2497 C   0  0  0  0  0  0  0  0  0  0  0  0
    6.3762  -47.3640  -31.5082 F   0  0  0  0  0  0  0  0  0  0  0  0
    5.4752  -47.9586  -33.5545 C   0  0  0  0  0  0  0  0  0  0  0  0
    4.4145  -48.0779  -34.4296 C   0  0  0  0  0  0  0  0  0  0  0  0
    3.1517  -47.7248  -33.9453 C   0  0  0  0  0  0  0  0  0  0  0  0
    2.9910  -47.2764  -32.6436 C   0  0  0  0  0  0  0  0  0  0  0  0
    1.7435  -46.9416  -32.2692 F   0  0  0  0  0  0  0  0  0  0  0  0
    1.2717  -52.4983  -23.6454 O   0  0  0  0  0  0  0  0  0  0  0  0
    0.2473  -51.9793  -19.7238 C   0  0  0  0  0  0  0  0  0  0  0  0
    0.5725  -52.1693  -21.0126 C   0  0  0  0  0  0  0  0  0  0  0  0
   -0.1146  -53.0982  -21.8059 C   0  0  0  0  0  0  0  0  0  0  0  0
    0.3548  -53.2167  -23.1007 C   0  0  0  0  0  0  0  0  0  0  0  0
   -0.3134  -54.2364  -23.8293 C   0  0  0  0  0  0  0  0  0  0  0  0
   -1.3227  -54.9796  -23.2547 C   0  0  0  0  0  0  0  0  0  0  0  0
   -1.6887  -54.7462  -21.9927 N   0  0  0  0  0  0  0  0  0  0  0  0
   -1.1086  -53.8092  -21.2250 C   0  0  0  0  0  0  0  0  0  0  0  0
   -1.4606  -53.6157  -19.8949 C   0  0  0  0  0  0  0  0  0  0  0  0
   -0.7881  -52.6937  -19.0996 C   0  0  0  0  0  0  0  0  0  0  0  0
    2.3211  -51.3168  -18.7858 C   0  0  0  0  0  0  0  0  0  0  0  0
    0.9024  -51.0909  -18.8999 O   0  0  0  0  0  0  0  0  0  0  0  0
   -1.0756  -52.4774  -17.8676 O   0  0  0  0  0  0  0  0  0  0  0  0
   -1.3718  -52.5737  -16.5807 C   0  0  0  0  0  0  0  0  0  0  0  0
   -0.5100  -51.6987  -15.6577 C   0  0  0  0  0  0  0  0  0  0  0  0
   -1.3310  -50.8306  -14.8529 C   0  0  0  0  0  0  0  0  0  0  0  0
   -2.7651  -51.1765  -14.9295 N   0  0  0  0  0  0  0  0  0  0  0  0
   -3.5787  -50.1525  -15.3447 C   0  0  0  0  0  0  0  0  0  0  0  0
   -4.8213  -49.8899  -14.5137 C   0  0  0  0  0  0  0  0  0  0  0  0
   -5.2186  -50.9307  -13.7518 O   0  0  0  0  0  0  0  0  0  0  0  0
   -4.1833  -51.2760  -12.8749 C   0  0  0  0  0  0  0  0  0  0  0  0
   -3.1214  -51.9188  -13.8010 C   0  0  0  0  0  0  0  0  0  0  0  0
 39 40  1  0  0  0
 40 29  1  0  0  0
 29 30  2  0  0  0
 30 31  1  0  0  0
 31 32  2  0  0  0
 32 28  1  0  0  0
 28  1  1  0  0  0
  1  2  2  0  0  0
  2  3  1  0  0  0
  3  4  2  0  0  0
  4  8  1  0  0  0
  8  9  1  0  0  0
  9 10  2  0  0  0
  9 11  1  0  0  0
 11 14  1  0  0  0
 14 15  1  0  0  0
 15 16  1  0  0  0
 16 17  1  0  0  0
 17 18  1  0  0  0
 18 19  2  0  0  0
 15 20  1  0  0  0
 20 21  2  0  0  0
 21 22  1  0  0  0
 21 23  1  0  0  0
 23 24  2  0  0  0
 24 25  1  0  0  0
 25 26  2  0  0  0
 26 27  1  0  0  0
  4  5  1  0  0  0
  5  6  2  0  0  0
  6  7  1  0  0  0
 32 33  1  0  0  0
 33 34  2  0  0  0
 34 35  1  0  0  0
 35 36  2  0  0  0
 36 37  1  0  0  0
 37 38  2  0  0  0
 38 41  1  0  0  0
 41 42  1  0  0  0
 42 43  1  0  0  0
 43 44  1  0  0  0
 44 45  1  0  0  0
 45 46  1  0  0  0
 46 47  1  0  0  0
 47 48  1  0  0  0
 48 49  1  0  0  0
 49 50  1  0  0  0
 38 29  1  0  0  0
 50 45  1  0  0  0
 36 31  1  0  0  0
  6  1  1  0  0  0
 18 14  1  0  0  0
 26 20  1  0  0  0
  8 12  1  0  0  0
 11 13  1  0  0  0
M  END
> <minimizedAffinity>
-8.42976

> <CNNscore>
0.1934843063

> <CNNaffinity>
6.8279252052

> <CNN_VS>
1.3210964203

> <CNNaffinity_variance>
0.1291801929

$$$$
[H]c1nc2c([H])c(OC([H])([H])C([H])([H])C([H])([H])N3C([H])([H])C([H])([H])OC([H])([H])C3([H])[H])c(OC([H])([H])[H])c([H])c2c(Oc2c([H])c([H])c(N([H])C(=O)N([H])N3C(=O)C([H])([H])SC3([H])c3c(F)c([H])c([H])c([H])c3F)c([H])c2F)c1[H]


 50 55  0  0  0  0  0  0  0  0999 V2000
    1.4251  -51.7596  -24.4720 C   0  0  0  0  0  0  0  0  0  0  0  0
    1.0548  -51.2858  -25.7592 C   0  0  0  0  0  0  0  0  0  0  0  0
    1.9111  -50.6259  -26.5489 C   0  0  0  0  0  0  0  0  0  0  0  0
    3.2481  -50.3610  -26.1509 C   0  0  0  0  0  0  0  0  0  0  0  0
    3.6190  -50.8323  -24.9086 C   0  0  0  0  0  0  0  0  0  0  0  0
    2.7669  -51.4938  -24.1013 C   0  0  0  0  0  0  0  0  0  0  0  0
    3.1515  -51.9170  -22.8622 F   0  0  0  0  0  0  0  0  0  0  0  0
    3.9761  -49.4110  -26.8155 N   0  0  0  0  0  0  0  0  0  0  0  0
    4.8242  -48.3238  -26.5998 C   0  0  0  0  0  0  0  0  0  0  0  0
    5.1667  -47.9859  -25.4406 O   0  0  0  0  0  0  0  0  0  0  0  0
    5.1958  -47.7326  -27.7439 N   0  0  0  0  0  0  0  0  0  0  0  0
    3.8236  -49.4900  -27.9608 H   0  0  0  0  0  0  0  0  0  0  0  0
    5.7838  -46.7155  -27.0476 H   0  0  0  0  0  0  0  0  0  0  0  0
    5.5851  -47.1141  -28.9265 N   0  0  0  0  0  0  0  0  0  0  0  0
    4.9737  -46.2827  -29.8387 C   0  0  0  0  0  0  0  0  0  0  0  0
    6.3922  -45.1318  -30.3068 S   0  0  0  0  0  0  0  0  0  0  0  0
    7.7127  -46.1282  -29.5245 C   0  0  0  0  0  0  0  0  0  0  0  0
    7.0246  -47.3528  -29.1919 C   0  0  0  0  0  0  0  0  0  0  0  0
    7.4935  -48.5013  -29.1127 O   0  0  0  0  0  0  0  0  0  0  0  0
    4.2626  -46.6616  -31.0270 C   0  0  0  0  0  0  0  0  0  0  0  0
    4.7752  -47.3041  -32.0881 C   0  0  0  0  0  0  0  0  0  0  0  0
    6.0814  -47.6228  -32.1371 F   0  0  0  0  0  0  0  0  0  0  0  0
    4.0447  -47.6405  -33.2344 C   0  0  0  0  0  0  0  0  0  0  0  0
    2.7081  -47.3084  -33.3264 C   0  0  0  0  0  0  0  0  0  0  0  0
    2.1455  -46.6400  -32.2354 C   0  0  0  0  0  0  0  0  0  0  0  0
    2.9101  -46.3318  -31.1210 C   0  0  0  0  0  0  0  0  0  0  0  0
    2.2907  -45.6715  -30.1266 F   0  0  0  0  0  0  0  0  0  0  0  0
    0.5844  -52.3294  -23.7147 O   0  0  0  0  0  0  0  0  0  0  0  0
    0.4783  -51.4239  -19.7314 C   0  0  0  0  0  0  0  0  0  0  0  0
    0.5044  -51.7418  -21.0357 C   0  0  0  0  0  0  0  0  0  0  0  0
   -0.2367  -52.8212  -21.5354 C   0  0  0  0  0  0  0  0  0  0  0  0
   -0.0817  -53.0559  -22.8888 C   0  0  0  0  0  0  0  0  0  0  0  0
   -0.7783  -54.2152  -23.3222 C   0  0  0  0  0  0  0  0  0  0  0  0
   -1.5233  -54.9710  -22.4418 C   0  0  0  0  0  0  0  0  0  0  0  0
   -1.6004  -54.6173  -21.1573 N   0  0  0  0  0  0  0  0  0  0  0  0
   -0.9694  -53.5429  -20.6560 C   0  0  0  0  0  0  0  0  0  0  0  0
   -1.0118  -53.2189  -19.3055 C   0  0  0  0  0  0  0  0  0  0  0  0
   -0.2833  -52.1475  -18.7995 C   0  0  0  0  0  0  0  0  0  0  0  0
    2.5736  -50.3207  -19.6242 C   0  0  0  0  0  0  0  0  0  0  0  0
    1.2009  -50.3837  -19.1902 O   0  0  0  0  0  0  0  0  0  0  0  0
   -0.2900  -51.8072  -17.5620 O   0  0  0  0  0  0  0  0  0  0  0  0
   -0.5189  -51.6855  -16.2636 C   0  0  0  0  0  0  0  0  0  0  0  0
   -1.8972  -51.1081  -15.9072 C   0  0  0  0  0  0  0  0  0  0  0  0
   -2.9410  -52.0693  -16.1562 C   0  0  0  0  0  0  0  0  0  0  0  0
   -4.2320  -51.6701  -15.5597 N   0  0  0  0  0  0  0  0  0  0  0  0
   -4.3804  -50.3192  -15.3695 C   0  0  0  0  0  0  0  0  0  0  0  0
   -4.8725  -49.8734  -14.0047 C   0  0  0  0  0  0  0  0  0  0  0  0
   -5.5167  -50.8272  -13.3000 O   0  0  0  0  0  0  0  0  0  0  0  0
   -4.6553  -51.9143  -13.1094 C   0  0  0  0  0  0  0  0  0  0  0  0
   -4.5499  -52.5464  -14.5193 C   0  0  0  0  0  0  0  0  0  0  0  0
 39 40  1  0  0  0
 40 29  1  0  0  0
 29 30  2  0  0  0
 30 31  1  0  0  0
 31 32  2  0  0  0
 32 28  1  0  0  0
 28  1  1  0  0  0
  1  2  2  0  0  0
  2  3  1  0  0  0
  3  4  2  0  0  0
  4  8  1  0  0  0
  8  9  1  0  0  0
  9 10  2  0  0  0
  9 11  1  0  0  0
 11 14  1  0  0  0
 14 15  1  0  0  0
 15 16  1  0  0  0
 16 17  1  0  0  0
 17 18  1  0  0  0
 18 19  2  0  0  0
 15 20  1  0  0  0
 20 21  2  0  0  0
 21 22  1  0  0  0
 21 23  1  0  0  0
 23 24  2  0  0  0
 24 25  1  0  0  0
 25 26  2  0  0  0
 26 27  1  0  0  0
  4  5  1  0  0  0
  5  6  2  0  0  0
  6  7  1  0  0  0
 32 33  1  0  0  0
 33 34  2  0  0  0
 34 35  1  0  0  0
 35 36  2  0  0  0
 36 37  1  0  0  0
 37 38  2  0  0  0
 38 41  1  0  0  0
 41 42  1  0  0  0
 42 43  1  0  0  0
 43 44  1  0  0  0
 44 45  1  0  0  0
 45 46  1  0  0  0
 46 47  1  0  0  0
 47 48  1  0  0  0
 48 49  1  0  0  0
 49 50  1  0  0  0
 38 29  1  0  0  0
 50 45  1  0  0  0
 36 31  1  0  0  0
  6  1  1  0  0  0
 18 14  1  0  0  0
 26 20  1  0  0  0
  8 12  1  0  0  0
 11 13  1  0  0  0
M  END
> <minimizedAffinity>
-8.74233

> <CNNscore>
0.1916624755

> <CNNaffinity>
6.8418531418

> <CNN_VS>
1.3113265038

> <CNNaffinity_variance>
0.2287844121

$$$$
[H]c1nc2c([H])c(OC([H])([H])C([H])([H])C([H])([H])N3C([H])([H])C([H])([H])OC([H])([H])C3([H])[H])c(OC([H])([H])[H])c([H])c2c(Oc2c([H])c([H])c(N([H])C(=O)N([H])N3C(=O)C([H])([H])SC3([H])c3c(F)c([H])c([H])c([H])c3F)c([H])c2F)c1[H]


 50 55  0  0  0  0  0  0  0  0999 V2000
    1.7754  -51.3996  -24.3585 C   0  0  0  0  0  0  0  0  0  0  0  0
    1.9261  -51.8832  -25.6859 C   0  0  0  0  0  0  0  0  0  0  0  0
    2.6501  -51.2308  -26.6039 C   0  0  0  0  0  0  0  0  0  0  0  0
    3.3186  -50.0137  -26.3069 C   0  0  0  0  0  0  0  0  0  0  0  0
    3.1895  -49.5468  -25.0152 C   0  0  0  0  0  0  0  0  0  0  0  0
    2.4605  -50.1901  -24.0824 C   0  0  0  0  0  0  0  0  0  0  0  0
    2.3212  -49.6855  -22.8221 F   0  0  0  0  0  0  0  0  0  0  0  0
    3.7534  -49.2139  -27.3293 N   0  0  0  0  0  0  0  0  0  0  0  0
    3.6499  -47.9161  -27.8319 C   0  0  0  0  0  0  0  0  0  0  0  0
    2.9841  -47.0374  -27.2321 O   0  0  0  0  0  0  0  0  0  0  0  0
    4.3263  -47.7581  -28.9783 N   0  0  0  0  0  0  0  0  0  0  0  0
    4.4105  -49.8069  -28.0762 H   0  0  0  0  0  0  0  0  0  0  0  0
    3.7909  -46.5126  -29.1429 H   0  0  0  0  0  0  0  0  0  0  0  0
    5.0253  -47.5870  -30.1677 N   0  0  0  0  0  0  0  0  0  0  0  0
    5.2585  -46.5285  -31.0177 C   0  0  0  0  0  0  0  0  0  0  0  0
    7.0380  -46.8579  -31.5474 S   0  0  0  0  0  0  0  0  0  0  0  0
    7.1252  -48.5583  -30.8770 C   0  0  0  0  0  0  0  0  0  0  0  0
    5.7500  -48.8289  -30.5313 C   0  0  0  0  0  0  0  0  0  0  0  0
    5.1634  -49.9246  -30.5112 O   0  0  0  0  0  0  0  0  0  0  0  0
    4.4882  -46.1442  -32.1667 C   0  0  0  0  0  0  0  0  0  0  0  0
    3.4793  -46.8394  -32.7148 C   0  0  0  0  0  0  0  0  0  0  0  0
    3.1212  -48.0396  -32.2235 F   0  0  0  0  0  0  0  0  0  0  0  0
    2.7648  -46.4311  -33.8477 C   0  0  0  0  0  0  0  0  0  0  0  0
    3.0837  -45.2451  -34.4778 C   0  0  0  0  0  0  0  0  0  0  0  0
    4.1295  -44.4979  -33.9284 C   0  0  0  0  0  0  0  0  0  0  0  0
    4.8049  -44.9435  -32.8029 C   0  0  0  0  0  0  0  0  0  0  0  0
    5.8090  -44.1694  -32.3544 F   0  0  0  0  0  0  0  0  0  0  0  0
    1.0379  -51.9989  -23.5207 O   0  0  0  0  0  0  0  0  0  0  0  0
    0.5853  -51.4858  -19.4922 C   0  0  0  0  0  0  0  0  0  0  0  0
    0.7247  -51.6750  -20.8141 C   0  0  0  0  0  0  0  0  0  0  0  0
    0.0221  -52.6876  -21.4813 C   0  0  0  0  0  0  0  0  0  0  0  0
    0.2950  -52.7913  -22.8324 C   0  0  0  0  0  0  0  0  0  0  0  0
   -0.3697  -53.8907  -23.4379 C   0  0  0  0  0  0  0  0  0  0  0  0
   -1.1963  -54.7163  -22.7053 C   0  0  0  0  0  0  0  0  0  0  0  0
   -1.3845  -54.4887  -21.4039 N   0  0  0  0  0  0  0  0  0  0  0  0
   -0.7917  -53.4794  -20.7452 C   0  0  0  0  0  0  0  0  0  0  0  0
   -0.9515  -53.2884  -19.3783 C   0  0  0  0  0  0  0  0  0  0  0  0
   -0.2622  -52.2841  -18.7068 C   0  0  0  0  0  0  0  0  0  0  0  0
    1.5841  -49.3370  -19.5543 C   0  0  0  0  0  0  0  0  0  0  0  0
    1.2653  -50.5159  -18.7893 O   0  0  0  0  0  0  0  0  0  0  0  0
   -0.3762  -52.0665  -17.4471 O   0  0  0  0  0  0  0  0  0  0  0  0
   -0.7875  -51.9599  -16.1931 C   0  0  0  0  0  0  0  0  0  0  0  0
   -2.2289  -51.4533  -16.0324 C   0  0  0  0  0  0  0  0  0  0  0  0
   -3.1787  -52.4582  -16.4370 C   0  0  0  0  0  0  0  0  0  0  0  0
   -4.4812  -52.3128  -15.7556 N   0  0  0  0  0  0  0  0  0  0  0  0
   -4.4949  -51.3905  -14.7396 C   0  0  0  0  0  0  0  0  0  0  0  0
   -5.1056  -51.8360  -13.4234 C   0  0  0  0  0  0  0  0  0  0  0  0
   -5.9428  -52.8901  -13.5201 O   0  0  0  0  0  0  0  0  0  0  0  0
   -5.2459  -53.9788  -14.0579 C   0  0  0  0  0  0  0  0  0  0  0  0
   -5.0319  -53.5781  -15.5385 C   0  0  0  0  0  0  0  0  0  0  0  0
 39 40  1  0  0  0
 40 29  1  0  0  0
 29 30  2  0  0  0
 30 31  1  0  0  0
 31 32  2  0  0  0
 32 28  1  0  0  0
 28  1  1  0  0  0
  1  2  2  0  0  0
  2  3  1  0  0  0
  3  4  2  0  0  0
  4  8  1  0  0  0
  8  9  1  0  0  0
  9 10  2  0  0  0
  9 11  1  0  0  0
 11 14  1  0  0  0
 14 15  1  0  0  0
 15 16  1  0  0  0
 16 17  1  0  0  0
 17 18  1  0  0  0
 18 19  2  0  0  0
 15 20  1  0  0  0
 20 21  2  0  0  0
 21 22  1  0  0  0
 21 23  1  0  0  0
 23 24  2  0  0  0
 24 25  1  0  0  0
 25 26  2  0  0  0
 26 27  1  0  0  0
  4  5  1  0  0  0
  5  6  2  0  0  0
  6  7  1  0  0  0
 32 33  1  0  0  0
 33 34  2  0  0  0
 34 35  1  0  0  0
 35 36  2  0  0  0
 36 37  1  0  0  0
 37 38  2  0  0  0
 38 41  1  0  0  0
 41 42  1  0  0  0
 42 43  1  0  0  0
 43 44  1  0  0  0
 44 45  1  0  0  0
 45 46  1  0  0  0
 46 47  1  0  0  0
 47 48  1  0  0  0
 48 49  1  0  0  0
 49 50  1  0  0  0
 38 29  1  0  0  0
 50 45  1  0  0  0
 36 31  1  0  0  0
  6  1  1  0  0  0
 18 14  1  0  0  0
 26 20  1  0  0  0
  8 12  1  0  0  0
 11 13  1  0  0  0
M  END
> <minimizedAffinity>
-9.37129

> <CNNscore>
0.1876574010

> <CNNaffinity>
6.8053483963

> <CNN_VS>
1.2770739794

> <CNNaffinity_variance>
0.1869498938

$$$$
[H]c1nc2c([H])c(OC([H])([H])C([H])([H])C([H])([H])N3C([H])([H])C([H])([H])OC([H])([H])C3([H])[H])c(OC([H])([H])[H])c([H])c2c(Oc2c([H])c([H])c(N([H])C(=O)N([H])N3C(=O)C([H])([H])SC3([H])c3c(F)c([H])c([H])c([H])c3F)c([H])c2F)c1[H]


 50 55  0  0  0  0  0  0  0  0999 V2000
    1.7735  -51.5429  -24.4482 C   0  0  0  0  0  0  0  0  0  0  0  0
    2.0829  -52.0797  -25.7267 C   0  0  0  0  0  0  0  0  0  0  0  0
    2.8968  -51.4523  -26.5849 C   0  0  0  0  0  0  0  0  0  0  0  0
    3.5074  -50.2099  -26.2689 C   0  0  0  0  0  0  0  0  0  0  0  0
    3.2240  -49.6908  -25.0226 C   0  0  0  0  0  0  0  0  0  0  0  0
    2.4033  -50.3086  -24.1507 C   0  0  0  0  0  0  0  0  0  0  0  0
    2.1126  -49.7533  -22.9385 F   0  0  0  0  0  0  0  0  0  0  0  0
    4.0437  -49.4458  -27.2703 N   0  0  0  0  0  0  0  0  0  0  0  0
    3.9781  -48.1731  -27.8392 C   0  0  0  0  0  0  0  0  0  0  0  0
    3.2345  -47.2834  -27.3588 O   0  0  0  0  0  0  0  0  0  0  0  0
    4.7784  -48.0504  -28.9073 N   0  0  0  0  0  0  0  0  0  0  0  0
    4.7910  -50.0566  -27.9104 H   0  0  0  0  0  0  0  0  0  0  0  0
    4.2460  -46.8244  -29.1873 H   0  0  0  0  0  0  0  0  0  0  0  0
    5.6060  -47.9160  -30.0162 N   0  0  0  0  0  0  0  0  0  0  0  0
    6.8519  -48.3882  -30.3656 C   0  0  0  0  0  0  0  0  0  0  0  0
    6.6281  -48.7078  -32.2105 S   0  0  0  0  0  0  0  0  0  0  0  0
    5.0345  -47.8218  -32.3659 C   0  0  0  0  0  0  0  0  0  0  0  0
    4.9215  -47.1558  -31.0901 C   0  0  0  0  0  0  0  0  0  0  0  0
    4.3457  -46.0854  -30.8297 O   0  0  0  0  0  0  0  0  0  0  0  0
    8.1203  -47.7516  -30.1481 C   0  0  0  0  0  0  0  0  0  0  0  0
    9.1306  -48.2285  -29.4042 C   0  0  0  0  0  0  0  0  0  0  0  0
    9.0063  -49.3882  -28.7335 F   0  0  0  0  0  0  0  0  0  0  0  0
   10.3472  -47.5635  -29.2080 C   0  0  0  0  0  0  0  0  0  0  0  0
   10.5673  -46.3340  -29.7954 C   0  0  0  0  0  0  0  0  0  0  0  0
    9.5333  -45.8123  -30.5780 C   0  0  0  0  0  0  0  0  0  0  0  0
    8.3478  -46.5110  -30.7445 C   0  0  0  0  0  0  0  0  0  0  0  0
    7.4014  -45.9247  -31.4990 F   0  0  0  0  0  0  0  0  0  0  0  0
    0.9546  -52.1209  -23.6735 O   0  0  0  0  0  0  0  0  0  0  0  0
    0.4090  -51.5556  -19.6635 C   0  0  0  0  0  0  0  0  0  0  0  0
    0.5792  -51.7620  -20.9793 C   0  0  0  0  0  0  0  0  0  0  0  0
   -0.0945  -52.7944  -21.6459 C   0  0  0  0  0  0  0  0  0  0  0  0
    0.2086  -52.9139  -22.9893 C   0  0  0  0  0  0  0  0  0  0  0  0
   -0.4274  -54.0316  -23.5921 C   0  0  0  0  0  0  0  0  0  0  0  0
   -1.2575  -54.8583  -22.8649 C   0  0  0  0  0  0  0  0  0  0  0  0
   -1.4766  -54.6145  -21.5713 N   0  0  0  0  0  0  0  0  0  0  0  0
   -0.9125  -53.5871  -20.9155 C   0  0  0  0  0  0  0  0  0  0  0  0
   -1.1040  -53.3785  -19.5552 C   0  0  0  0  0  0  0  0  0  0  0  0
   -0.4436  -52.3545  -18.8844 C   0  0  0  0  0  0  0  0  0  0  0  0
    1.2785  -49.3508  -19.7046 C   0  0  0  0  0  0  0  0  0  0  0  0
    1.0601  -50.5657  -18.9611 O   0  0  0  0  0  0  0  0  0  0  0  0
   -0.5874  -52.1202  -17.6307 O   0  0  0  0  0  0  0  0  0  0  0  0
   -0.8020  -51.5828  -16.4398 C   0  0  0  0  0  0  0  0  0  0  0  0
    0.4715  -51.1957  -15.6727 C   0  0  0  0  0  0  0  0  0  0  0  0
    0.3352  -51.4797  -14.2669 C   0  0  0  0  0  0  0  0  0  0  0  0
    1.3434  -52.4454  -13.7842 N   0  0  0  0  0  0  0  0  0  0  0  0
    1.1792  -52.8391  -12.4800 C   0  0  0  0  0  0  0  0  0  0  0  0
    2.4115  -52.7956  -11.5950 C   0  0  0  0  0  0  0  0  0  0  0  0
    3.5842  -52.8074  -12.2629 O   0  0  0  0  0  0  0  0  0  0  0  0
    3.6335  -51.7004  -13.1186 C   0  0  0  0  0  0  0  0  0  0  0  0
    2.6086  -52.0505  -14.2256 C   0  0  0  0  0  0  0  0  0  0  0  0
 39 40  1  0  0  0
 40 29  1  0  0  0
 29 30  2  0  0  0
 30 31  1  0  0  0
 31 32  2  0  0  0
 32 28  1  0  0  0
 28  1  1  0  0  0
  1  2  2  0  0  0
  2  3  1  0  0  0
  3  4  2  0  0  0
  4  8  1  0  0  0
  8  9  1  0  0  0
  9 10  2  0  0  0
  9 11  1  0  0  0
 11 14  1  0  0  0
 14 15  1  0  0  0
 15 16  1  0  0  0
 16 17  1  0  0  0
 17 18  1  0  0  0
 18 19  2  0  0  0
 15 20  1  0  0  0
 20 21  2  0  0  0
 21 22  1  0  0  0
 21 23  1  0  0  0
 23 24  2  0  0  0
 24 25  1  0  0  0
 25 26  2  0  0  0
 26 27  1  0  0  0
  4  5  1  0  0  0
  5  6  2  0  0  0
  6  7  1  0  0  0
 32 33  1  0  0  0
 33 34  2  0  0  0
 34 35  1  0  0  0
 35 36  2  0  0  0
 36 37  1  0  0  0
 37 38  2  0  0  0
 38 41  1  0  0  0
 41 42  1  0  0  0
 42 43  1  0  0  0
 43 44  1  0  0  0
 44 45  1  0  0  0
 45 46  1  0  0  0
 46 47  1  0  0  0
 47 48  1  0  0  0
 48 49  1  0  0  0
 49 50  1  0  0  0
 38 29  1  0  0  0
 50 45  1  0  0  0
 36 31  1  0  0  0
  6  1  1  0  0  0
 18 14  1  0  0  0
 26 20  1  0  0  0
  8 12  1  0  0  0
 11 13  1  0  0  0
M  END
> <minimizedAffinity>
-8.42681

> <CNNscore>
0.1676454842

> <CNNaffinity>
6.6487741470

> <CNN_VS>
1.1146370173

> <CNNaffinity_variance>
0.1588428468

$$$$
[H]c1nc2c([H])c(OC([H])([H])C([H])([H])C([H])([H])N3C([H])([H])C([H])([H])OC([H])([H])C3([H])[H])c(OC([H])([H])[H])c([H])c2c(Oc2c([H])c([H])c(N([H])C(=O)N([H])N3C(=O)C([H])([H])SC3([H])c3c(F)c([H])c([H])c([H])c3F)c([H])c2F)c1[H]


 50 55  0  0  0  0  0  0  0  0999 V2000
    1.7902  -51.3011  -24.6401 C   0  0  0  0  0  0  0  0  0  0  0  0
    2.3012  -50.0622  -24.1684 C   0  0  0  0  0  0  0  0  0  0  0  0
    3.0751  -49.2757  -24.9268 C   0  0  0  0  0  0  0  0  0  0  0  0
    3.4312  -49.6287  -26.2552 C   0  0  0  0  0  0  0  0  0  0  0  0
    2.9251  -50.8230  -26.7251 C   0  0  0  0  0  0  0  0  0  0  0  0
    2.1491  -51.6267  -25.9719 C   0  0  0  0  0  0  0  0  0  0  0  0
    1.6924  -52.8200  -26.4512 F   0  0  0  0  0  0  0  0  0  0  0  0
    4.4756  -48.9901  -26.8680 N   0  0  0  0  0  0  0  0  0  0  0  0
    5.0545  -48.7787  -28.1201 C   0  0  0  0  0  0  0  0  0  0  0  0
    4.5365  -49.2458  -29.1635 O   0  0  0  0  0  0  0  0  0  0  0  0
    6.1753  -48.0473  -28.0464 N   0  0  0  0  0  0  0  0  0  0  0  0
    5.1567  -48.4615  -26.0947 H   0  0  0  0  0  0  0  0  0  0  0  0
    6.4342  -48.2791  -29.3671 H   0  0  0  0  0  0  0  0  0  0  0  0
    7.3388  -47.2895  -27.9776 N   0  0  0  0  0  0  0  0  0  0  0  0
    8.5681  -47.4434  -27.3757 C   0  0  0  0  0  0  0  0  0  0  0  0
    9.7155  -46.6891  -28.6680 S   0  0  0  0  0  0  0  0  0  0  0  0
    8.3928  -45.9226  -29.6738 C   0  0  0  0  0  0  0  0  0  0  0  0
    7.2291  -46.0843  -28.8350 C   0  0  0  0  0  0  0  0  0  0  0  0
    6.2201  -45.3610  -28.7719 O   0  0  0  0  0  0  0  0  0  0  0  0
    8.9655  -46.9922  -26.0719 C   0  0  0  0  0  0  0  0  0  0  0  0
    8.8975  -45.7328  -25.6128 C   0  0  0  0  0  0  0  0  0  0  0  0
    8.4647  -44.7329  -26.4022 F   0  0  0  0  0  0  0  0  0  0  0  0
    9.3119  -45.3360  -24.3355 C   0  0  0  0  0  0  0  0  0  0  0  0
    9.8332  -46.2641  -23.4568 C   0  0  0  0  0  0  0  0  0  0  0  0
    9.9149  -47.5850  -23.9063 C   0  0  0  0  0  0  0  0  0  0  0  0
    9.4883  -47.9288  -25.1796 C   0  0  0  0  0  0  0  0  0  0  0  0
    9.6212  -49.2193  -25.5339 F   0  0  0  0  0  0  0  0  0  0  0  0
    1.1092  -52.0599  -23.8882 O   0  0  0  0  0  0  0  0  0  0  0  0
    0.4453  -52.0079  -19.8566 C   0  0  0  0  0  0  0  0  0  0  0  0
    0.6540  -52.0455  -21.1824 C   0  0  0  0  0  0  0  0  0  0  0  0
   -0.0156  -52.9683  -21.9975 C   0  0  0  0  0  0  0  0  0  0  0  0
    0.3282  -52.9190  -23.3354 C   0  0  0  0  0  0  0  0  0  0  0  0
   -0.3072  -53.9354  -24.0972 C   0  0  0  0  0  0  0  0  0  0  0  0
   -1.1742  -54.8317  -23.5087 C   0  0  0  0  0  0  0  0  0  0  0  0
   -1.4303  -54.7531  -22.2013 N   0  0  0  0  0  0  0  0  0  0  0  0
   -0.8700  -53.8316  -21.4009 C   0  0  0  0  0  0  0  0  0  0  0  0
   -1.1014  -53.7971  -20.0313 C   0  0  0  0  0  0  0  0  0  0  0  0
   -0.4453  -52.8829  -19.2136 C   0  0  0  0  0  0  0  0  0  0  0  0
    2.4328  -50.7945  -19.4135 C   0  0  0  0  0  0  0  0  0  0  0  0
    1.0904  -51.1314  -19.0123 O   0  0  0  0  0  0  0  0  0  0  0  0
   -0.6252  -52.8102  -17.9450 O   0  0  0  0  0  0  0  0  0  0  0  0
   -0.9653  -52.4657  -16.7126 C   0  0  0  0  0  0  0  0  0  0  0  0
   -1.0907  -50.9520  -16.4819 C   0  0  0  0  0  0  0  0  0  0  0  0
   -1.4542  -50.6648  -15.1178 C   0  0  0  0  0  0  0  0  0  0  0  0
   -2.8274  -50.1337  -14.9978 N   0  0  0  0  0  0  0  0  0  0  0  0
   -3.1096  -49.5466  -13.7901 C   0  0  0  0  0  0  0  0  0  0  0  0
   -4.3995  -49.9704  -13.1115 C   0  0  0  0  0  0  0  0  0  0  0  0
   -5.3170  -50.5152  -13.9379 O   0  0  0  0  0  0  0  0  0  0  0  0
   -4.7649  -51.6465  -14.5506 C   0  0  0  0  0  0  0  0  0  0  0  0
   -3.7273  -51.0560  -15.5371 C   0  0  0  0  0  0  0  0  0  0  0  0
 39 40  1  0  0  0
 40 29  1  0  0  0
 29 30  2  0  0  0
 30 31  1  0  0  0
 31 32  2  0  0  0
 32 28  1  0  0  0
 28  1  1  0  0  0
  1  2  2  0  0  0
  2  3  1  0  0  0
  3  4  2  0  0  0
  4  8  1  0  0  0
  8  9  1  0  0  0
  9 10  2  0  0  0
  9 11  1  0  0  0
 11 14  1  0  0  0
 14 15  1  0  0  0
 15 16  1  0  0  0
 16 17  1  0  0  0
 17 18  1  0  0  0
 18 19  2  0  0  0
 15 20  1  0  0  0
 20 21  2  0  0  0
 21 22  1  0  0  0
 21 23  1  0  0  0
 23 24  2  0  0  0
 24 25  1  0  0  0
 25 26  2  0  0  0
 26 27  1  0  0  0
  4  5  1  0  0  0
  5  6  2  0  0  0
  6  7  1  0  0  0
 32 33  1  0  0  0
 33 34  2  0  0  0
 34 35  1  0  0  0
 35 36  2  0  0  0
 36 37  1  0  0  0
 37 38  2  0  0  0
 38 41  1  0  0  0
 41 42  1  0  0  0
 42 43  1  0  0  0
 43 44  1  0  0  0
 44 45  1  0  0  0
 45 46  1  0  0  0
 46 47  1  0  0  0
 47 48  1  0  0  0
 48 49  1  0  0  0
 49 50  1  0  0  0
 38 29  1  0  0  0
 50 45  1  0  0  0
 36 31  1  0  0  0
  6  1  1  0  0  0
 18 14  1  0  0  0
 26 20  1  0  0  0
  8 12  1  0  0  0
 11 13  1  0  0  0
M  END
> <minimizedAffinity>
-7.35887

> <CNNscore>
0.1607737839

> <CNNaffinity>
6.9506363869

> <CNN_VS>
1.1174801588

> <CNNaffinity_variance>
0.2856261730

$$$$
[H]C1=C(C(=O)[O-])N2C(=O)/C(=C(\[H])c3sc4c(c3[H])C(=O)N([H])C4([H])[H])[C@@]2([H])S1


 22 25  0  0  0  0  0  0  0  0999 V2000
    0.1799  -52.7230  -27.5672 C   0  0  0  0  0  0  0  0  0  0  0  0
   -1.0942  -52.8236  -27.2353 C   0  0  0  0  0  0  0  0  0  0  0  0
   -1.1725  -52.1086  -25.5541 S   0  0  0  0  0  0  0  0  0  0  0  0
    0.6029  -52.5144  -25.2291 C   0  0  0  0  0  0  0  0  0  0  0  0
    1.0120  -52.1071  -26.6071 N   0  0  0  0  0  0  0  0  0  0  0  0
    2.0231  -51.3128  -26.0129 C   0  0  0  0  0  0  0  0  0  0  0  0
    3.0192  -50.6725  -26.4110 O   0  0  0  0  0  0  0  0  0  0  0  0
    1.4507  -51.5191  -24.6566 C   0  0  0  0  0  0  0  0  0  0  0  0
    1.6923  -51.0159  -23.4654 C   0  0  0  0  0  0  0  0  0  0  0  0
    1.0483  -51.4162  -22.2203 C   0  0  0  0  0  0  0  0  0  0  0  0
    0.1048  -52.3473  -21.9132 C   0  0  0  0  0  0  0  0  0  0  0  0
   -0.2477  -52.4973  -20.6152 C   0  0  0  0  0  0  0  0  0  0  0  0
   -1.1791  -53.3557  -19.8298 C   0  0  0  0  0  0  0  0  0  0  0  0
   -1.9632  -54.2477  -20.2336 O   0  0  0  0  0  0  0  0  0  0  0  0
   -1.0758  -53.0277  -18.4503 N   0  0  0  0  0  0  0  0  0  0  0  0
   -0.1249  -51.9769  -18.3018 C   0  0  0  0  0  0  0  0  0  0  0  0
    0.3705  -51.6979  -19.7017 C   0  0  0  0  0  0  0  0  0  0  0  0
    1.4204  -50.7614  -20.6498 S   0  0  0  0  0  0  0  0  0  0  0  0
   -1.5968  -53.4683  -17.6664 H   0  0  0  0  0  0  0  0  0  0  0  0
    1.7982  -54.0169  -28.9943 O   0  0  0  0  0  0  0  0  0  0  0  0
    0.6879  -53.1933  -28.8633 C   0  0  0  0  0  0  0  0  0  0  0  0
    0.1255  -52.8638  -29.9566 O   0  0  0  0  0  0  0  0  0  0  0  0
 20 21  1  0  0  0
 21 22  2  0  0  0
 21  1  1  0  0  0
  1  2  2  0  0  0
  2  3  1  0  0  0
  3  4  1  0  0  0
  4  5  1  0  0  0
  5  6  1  0  0  0
  6  7  2  0  0  0
  6  8  1  0  0  0
  8  9  2  0  0  0
  9 10  1  0  0  0
 10 11  2  0  0  0
 11 12  1  0  0  0
 12 13  1  0  0  0
 13 14  2  0  0  0
 13 15  1  0  0  0
 15 16  1  0  0  0
 16 17  1  0  0  0
 17 18  1  0  0  0
  5  1  1  0  0  0
 18 10  1  0  0  0
  8  4  1  0  0  0
 17 12  2  0  0  0
 15 19  1  0  0  0
M  CHG 1  20  -1
M  END
> <minimizedAffinity>
-7.09971

> <CNNscore>
0.6292753816

> <CNNaffinity>
6.0356550217

> <CNN_VS>
3.7980890274

> <CNNaffinity_variance>
0.2979351878

$$$$
[H]C1=C(C(=O)[O-])N2C(=O)/C(=C(\[H])c3sc4c(c3[H])C(=O)N([H])C4([H])[H])[C@@]2([H])S1


 22 25  0  0  0  0  0  0  0  0999 V2000
    3.7315  -48.8538  -26.6236 C   0  0  0  0  0  0  0  0  0  0  0  0
    4.1623  -48.4061  -25.4584 C   0  0  0  0  0  0  0  0  0  0  0  0
    3.7409  -49.7442  -24.2856 S   0  0  0  0  0  0  0  0  0  0  0  0
    2.3561  -50.3370  -25.3595 C   0  0  0  0  0  0  0  0  0  0  0  0
    3.1579  -50.1439  -26.6053 N   0  0  0  0  0  0  0  0  0  0  0  0
    2.8051  -51.4658  -26.9717 C   0  0  0  0  0  0  0  0  0  0  0  0
    2.9062  -52.1772  -27.9937 O   0  0  0  0  0  0  0  0  0  0  0  0
    2.2317  -51.7335  -25.6266 C   0  0  0  0  0  0  0  0  0  0  0  0
    1.7728  -52.8034  -25.0141 C   0  0  0  0  0  0  0  0  0  0  0  0
    1.1735  -52.8384  -23.6856 C   0  0  0  0  0  0  0  0  0  0  0  0
    0.0746  -53.4545  -23.1717 C   0  0  0  0  0  0  0  0  0  0  0  0
   -0.1799  -53.3120  -21.8502 C   0  0  0  0  0  0  0  0  0  0  0  0
   -1.2057  -53.7875  -20.8792 C   0  0  0  0  0  0  0  0  0  0  0  0
   -2.2079  -54.5147  -21.0799 O   0  0  0  0  0  0  0  0  0  0  0  0
   -0.9012  -53.2848  -19.5846 N   0  0  0  0  0  0  0  0  0  0  0  0
    0.2750  -52.4852  -19.6714 C   0  0  0  0  0  0  0  0  0  0  0  0
    0.6879  -52.5544  -21.1232 C   0  0  0  0  0  0  0  0  0  0  0  0
    1.8312  -52.0581  -22.2742 S   0  0  0  0  0  0  0  0  0  0  0  0
   -1.4337  -53.4595  -18.7094 H   0  0  0  0  0  0  0  0  0  0  0  0
    3.5484  -46.7238  -27.9500 O   0  0  0  0  0  0  0  0  0  0  0  0
    3.8702  -48.0716  -27.8596 C   0  0  0  0  0  0  0  0  0  0  0  0
    4.3015  -48.5990  -28.9348 O   0  0  0  0  0  0  0  0  0  0  0  0
 20 21  1  0  0  0
 21 22  2  0  0  0
 21  1  1  0  0  0
  1  2  2  0  0  0
  2  3  1  0  0  0
  3  4  1  0  0  0
  4  5  1  0  0  0
  5  6  1  0  0  0
  6  7  2  0  0  0
  6  8  1  0  0  0
  8  9  2  0  0  0
  9 10  1  0  0  0
 10 11  2  0  0  0
 11 12  1  0  0  0
 12 13  1  0  0  0
 13 14  2  0  0  0
 13 15  1  0  0  0
 15 16  1  0  0  0
 16 17  1  0  0  0
 17 18  1  0  0  0
  5  1  1  0  0  0
 18 10  1  0  0  0
  8  4  1  0  0  0
 17 12  2  0  0  0
 15 19  1  0  0  0
M  CHG 1  20  -1
M  END
> <minimizedAffinity>
-6.86288

> <CNNscore>
0.4449994266

> <CNNaffinity>
5.6999268532

> <CNN_VS>
2.5364642143

> <CNNaffinity_variance>
0.6276267171

$$$$
[H]C1=C(C(=O)[O-])N2C(=O)/C(=C(\[H])c3sc4c(c3[H])C(=O)N([H])C4([H])[H])[C@@]2([H])S1


 22 25  0  0  0  0  0  0  0  0999 V2000
    0.0170  -53.0402  -24.8656 C   0  0  0  0  0  0  0  0  0  0  0  0
    1.0928  -52.2761  -24.8174 C   0  0  0  0  0  0  0  0  0  0  0  0
    1.4872  -52.1771  -23.0347 S   0  0  0  0  0  0  0  0  0  0  0  0
   -0.2729  -52.4945  -22.5618 C   0  0  0  0  0  0  0  0  0  0  0  0
   -0.4346  -53.5343  -23.6223 N   0  0  0  0  0  0  0  0  0  0  0  0
   -0.9582  -54.3922  -22.6244 C   0  0  0  0  0  0  0  0  0  0  0  0
   -1.5348  -55.5002  -22.5976 O   0  0  0  0  0  0  0  0  0  0  0  0
   -0.5578  -53.4533  -21.5438 C   0  0  0  0  0  0  0  0  0  0  0  0
   -0.5423  -53.5097  -20.2296 C   0  0  0  0  0  0  0  0  0  0  0  0
   -0.1692  -52.4244  -19.3305 C   0  0  0  0  0  0  0  0  0  0  0  0
    0.6233  -51.3269  -19.4684 C   0  0  0  0  0  0  0  0  0  0  0  0
    0.7219  -50.4732  -18.4230 C   0  0  0  0  0  0  0  0  0  0  0  0
    1.4221  -49.1922  -18.1228 C   0  0  0  0  0  0  0  0  0  0  0  0
    2.1901  -48.5207  -18.8527 O   0  0  0  0  0  0  0  0  0  0  0  0
    1.0986  -48.7738  -16.8032 N   0  0  0  0  0  0  0  0  0  0  0  0
    0.2264  -49.7382  -16.2203 C   0  0  0  0  0  0  0  0  0  0  0  0
    0.0169  -50.7766  -17.2977 C   0  0  0  0  0  0  0  0  0  0  0  0
   -0.7636  -52.2268  -17.7054 S   0  0  0  0  0  0  0  0  0  0  0  0
    1.4312  -47.9128  -16.3254 H   0  0  0  0  0  0  0  0  0  0  0  0
   -1.7252  -52.6692  -26.6424 O   0  0  0  0  0  0  0  0  0  0  0  0
   -0.6444  -53.3773  -26.1337 C   0  0  0  0  0  0  0  0  0  0  0  0
   -0.2535  -54.3562  -26.8473 O   0  0  0  0  0  0  0  0  0  0  0  0
 20 21  1  0  0  0
 21 22  2  0  0  0
 21  1  1  0  0  0
  1  2  2  0  0  0
  2  3  1  0  0  0
  3  4  1  0  0  0
  4  5  1  0  0  0
  5  6  1  0  0  0
  6  7  2  0  0  0
  6  8  1  0  0  0
  8  9  2  0  0  0
  9 10  1  0  0  0
 10 11  2  0  0  0
 11 12  1  0  0  0
 12 13  1  0  0  0
 13 14  2  0  0  0
 13 15  1  0  0  0
 15 16  1  0  0  0
 16 17  1  0  0  0
 17 18  1  0  0  0
  5  1  1  0  0  0
 18 10  1  0  0  0
  8  4  1  0  0  0
 17 12  2  0  0  0
 15 19  1  0  0  0
M  CHG 1  20  -1
M  END
> <minimizedAffinity>
-7.37598

> <CNNscore>
0.3885062933

> <CNNaffinity>
5.4786643982

> <CNN_VS>
2.1284956932

> <CNNaffinity_variance>
0.0810837448

$$$$
[H]C1=C(C(=O)[O-])N2C(=O)/C(=C(\[H])c3sc4c(c3[H])C(=O)N([H])C4([H])[H])[C@@]2([H])S1


 22 25  0  0  0  0  0  0  0  0999 V2000
    0.0396  -52.4816  -23.7406 C   0  0  0  0  0  0  0  0  0  0  0  0
    1.0969  -51.7026  -23.8779 C   0  0  0  0  0  0  0  0  0  0  0  0
    1.6589  -51.4108  -22.1625 S   0  0  0  0  0  0  0  0  0  0  0  0
   -0.0396  -51.6996  -21.4886 C   0  0  0  0  0  0  0  0  0  0  0  0
   -0.2784  -52.8476  -22.4144 N   0  0  0  0  0  0  0  0  0  0  0  0
   -0.6832  -53.6022  -21.2862 C   0  0  0  0  0  0  0  0  0  0  0  0
   -1.2285  -54.7087  -21.0880 O   0  0  0  0  0  0  0  0  0  0  0  0
   -0.2026  -52.5493  -20.3534 C   0  0  0  0  0  0  0  0  0  0  0  0
   -0.0592  -52.4664  -19.0484 C   0  0  0  0  0  0  0  0  0  0  0  0
    0.3735  -51.2876  -18.3079 C   0  0  0  0  0  0  0  0  0  0  0  0
   -0.1956  -50.5419  -17.3222 C   0  0  0  0  0  0  0  0  0  0  0  0
    0.5147  -49.5108  -16.8085 C   0  0  0  0  0  0  0  0  0  0  0  0
    0.3248  -48.4718  -15.7571 C   0  0  0  0  0  0  0  0  0  0  0  0
   -0.6640  -48.2726  -15.0113 O   0  0  0  0  0  0  0  0  0  0  0  0
    1.4871  -47.6566  -15.6815 N   0  0  0  0  0  0  0  0  0  0  0  0
    2.4257  -48.1102  -16.6529 C   0  0  0  0  0  0  0  0  0  0  0  0
    1.7577  -49.2899  -17.3201 C   0  0  0  0  0  0  0  0  0  0  0  0
    1.9184  -50.5050  -18.4932 S   0  0  0  0  0  0  0  0  0  0  0  0
    1.6458  -46.8596  -15.0337 H   0  0  0  0  0  0  0  0  0  0  0  0
   -1.1581  -52.1299  -25.9250 O   0  0  0  0  0  0  0  0  0  0  0  0
   -0.7329  -52.9593  -24.8956 C   0  0  0  0  0  0  0  0  0  0  0  0
   -1.0598  -54.1836  -25.0159 O   0  0  0  0  0  0  0  0  0  0  0  0
 20 21  1  0  0  0
 21 22  2  0  0  0
 21  1  1  0  0  0
  1  2  2  0  0  0
  2  3  1  0  0  0
  3  4  1  0  0  0
  4  5  1  0  0  0
  5  6  1  0  0  0
  6  7  2  0  0  0
  6  8  1  0  0  0
  8  9  2  0  0  0
  9 10  1  0  0  0
 10 11  2  0  0  0
 11 12  1  0  0  0
 12 13  1  0  0  0
 13 14  2  0  0  0
 13 15  1  0  0  0
 15 16  1  0  0  0
 16 17  1  0  0  0
 17 18  1  0  0  0
  5  1  1  0  0  0
 18 10  1  0  0  0
  8  4  1  0  0  0
 17 12  2  0  0  0
 15 19  1  0  0  0
M  CHG 1  20  -1
M  END
> <minimizedAffinity>
-6.55081

> <CNNscore>
0.2418716699

> <CNNaffinity>
5.1108403206

> <CNN_VS>
1.2361674309

> <CNNaffinity_variance>
0.0619396679

$$$$
[H]C1=C(C(=O)[O-])N2C(=O)/C(=C(\[H])c3sc4c(c3[H])C(=O)N([H])C4([H])[H])[C@@]2([H])S1


 22 25  0  0  0  0  0  0  0  0999 V2000
   -0.3974  -52.9634  -19.7013 C   0  0  0  0  0  0  0  0  0  0  0  0
   -1.0755  -53.9625  -20.2357 C   0  0  0  0  0  0  0  0  0  0  0  0
   -0.2921  -54.2068  -21.8698 S   0  0  0  0  0  0  0  0  0  0  0  0
    0.2814  -52.4490  -21.9293 C   0  0  0  0  0  0  0  0  0  0  0  0
    0.6640  -52.4605  -20.4852 N   0  0  0  0  0  0  0  0  0  0  0  0
    1.9220  -51.9364  -20.8708 C   0  0  0  0  0  0  0  0  0  0  0  0
    2.9177  -51.4568  -20.2881 O   0  0  0  0  0  0  0  0  0  0  0  0
    1.6284  -52.1691  -22.3093 C   0  0  0  0  0  0  0  0  0  0  0  0
    2.3281  -52.0869  -23.4202 C   0  0  0  0  0  0  0  0  0  0  0  0
    1.8185  -52.2942  -24.7702 C   0  0  0  0  0  0  0  0  0  0  0  0
    2.2437  -53.0404  -25.8257 C   0  0  0  0  0  0  0  0  0  0  0  0
    1.4923  -53.0439  -26.9512 C   0  0  0  0  0  0  0  0  0  0  0  0
    1.5421  -53.6879  -28.2943 C   0  0  0  0  0  0  0  0  0  0  0  0
    2.4031  -54.4691  -28.7654 O   0  0  0  0  0  0  0  0  0  0  0  0
    0.4088  -53.2876  -29.0537 N   0  0  0  0  0  0  0  0  0  0  0  0
   -0.3741  -52.3938  -28.2672 C   0  0  0  0  0  0  0  0  0  0  0  0
    0.3558  -52.2929  -26.9481 C   0  0  0  0  0  0  0  0  0  0  0  0
    0.3490  -51.6018  -25.3987 S   0  0  0  0  0  0  0  0  0  0  0  0
    0.1725  -53.5855  -30.0209 H   0  0  0  0  0  0  0  0  0  0  0  0
   -0.0689  -51.3335  -17.8132 O   0  0  0  0  0  0  0  0  0  0  0  0
   -0.7094  -52.4343  -18.3666 C   0  0  0  0  0  0  0  0  0  0  0  0
   -1.6016  -52.9681  -17.6321 O   0  0  0  0  0  0  0  0  0  0  0  0
 20 21  1  0  0  0
 21 22  2  0  0  0
 21  1  1  0  0  0
  1  2  2  0  0  0
  2  3  1  0  0  0
  3  4  1  0  0  0
  4  5  1  0  0  0
  5  6  1  0  0  0
  6  7  2  0  0  0
  6  8  1  0  0  0
  8  9  2  0  0  0
  9 10  1  0  0  0
 10 11  2  0  0  0
 11 12  1  0  0  0
 12 13  1  0  0  0
 13 14  2  0  0  0
 13 15  1  0  0  0
 15 16  1  0  0  0
 16 17  1  0  0  0
 17 18  1  0  0  0
  5  1  1  0  0  0
 18 10  1  0  0  0
  8  4  1  0  0  0
 17 12  2  0  0  0
 15 19  1  0  0  0
M  CHG 1  20  -1
M  END
> <minimizedAffinity>
-7.23753

> <CNNscore>
0.2308610231

> <CNNaffinity>
5.6434793472

> <CNN_VS>
1.3028594255

> <CNNaffinity_variance>
0.2898434103

$$$$
[H]C1=C(C(=O)[O-])N2C(=O)/C(=C(\[H])c3sc4c(c3[H])C(=O)N([H])C4([H])[H])[C@@]2([H])S1


 22 25  0  0  0  0  0  0  0  0999 V2000
   -0.1814  -52.2918  -25.2828 C   0  0  0  0  0  0  0  0  0  0  0  0
    0.9333  -51.6333  -25.5423 C   0  0  0  0  0  0  0  0  0  0  0  0
    1.8853  -51.7413  -23.9849 S   0  0  0  0  0  0  0  0  0  0  0  0
    0.3444  -51.9468  -22.9820 C   0  0  0  0  0  0  0  0  0  0  0  0
   -0.2654  -52.8615  -23.9936 N   0  0  0  0  0  0  0  0  0  0  0  0
   -0.5372  -53.7621  -22.9347 C   0  0  0  0  0  0  0  0  0  0  0  0
   -1.1978  -54.8126  -22.7895 O   0  0  0  0  0  0  0  0  0  0  0  0
    0.2921  -52.9703  -21.9886 C   0  0  0  0  0  0  0  0  0  0  0  0
    0.7201  -53.1540  -20.7584 C   0  0  0  0  0  0  0  0  0  0  0  0
    1.4825  -52.1973  -19.9655 C   0  0  0  0  0  0  0  0  0  0  0  0
    1.2321  -51.5375  -18.8021 C   0  0  0  0  0  0  0  0  0  0  0  0
    2.1987  -50.7335  -18.3014 C   0  0  0  0  0  0  0  0  0  0  0  0
    2.3819  -49.8609  -17.1071 C   0  0  0  0  0  0  0  0  0  0  0  0
    1.5824  -49.6254  -16.1695 O   0  0  0  0  0  0  0  0  0  0  0  0
    3.6746  -49.2705  -17.1458 N   0  0  0  0  0  0  0  0  0  0  0  0
    4.3406  -49.7089  -18.3267 C   0  0  0  0  0  0  0  0  0  0  0  0
    3.3619  -50.6397  -19.0041 C   0  0  0  0  0  0  0  0  0  0  0  0
    3.0974  -51.6590  -20.3343 S   0  0  0  0  0  0  0  0  0  0  0  0
    4.0842  -48.6254  -16.4413 H   0  0  0  0  0  0  0  0  0  0  0  0
   -2.4381  -51.7325  -26.2443 O   0  0  0  0  0  0  0  0  0  0  0  0
   -1.2473  -52.4459  -26.2824 C   0  0  0  0  0  0  0  0  0  0  0  0
   -1.1330  -53.2581  -27.2558 O   0  0  0  0  0  0  0  0  0  0  0  0
 20 21  1  0  0  0
 21 22  2  0  0  0
 21  1  1  0  0  0
  1  2  2  0  0  0
  2  3  1  0  0  0
  3  4  1  0  0  0
  4  5  1  0  0  0
  5  6  1  0  0  0
  6  7  2  0  0  0
  6  8  1  0  0  0
  8  9  2  0  0  0
  9 10  1  0  0  0
 10 11  2  0  0  0
 11 12  1  0  0  0
 12 13  1  0  0  0
 13 14  2  0  0  0
 13 15  1  0  0  0
 15 16  1  0  0  0
 16 17  1  0  0  0
 17 18  1  0  0  0
  5  1  1  0  0  0
 18 10  1  0  0  0
  8  4  1  0  0  0
 17 12  2  0  0  0
 15 19  1  0  0  0
M  CHG 1  20  -1
M  END
> <minimizedAffinity>
-6.43689

> <CNNscore>
0.2055294514

> <CNNaffinity>
5.4514012337

> <CNN_VS>
1.1204235554

> <CNNaffinity_variance>
0.3448019624

$$$$
[H]C1=C(C(=O)[O-])N2C(=O)/C(=C(\[H])c3sc4c(c3[H])C(=O)N([H])C4([H])[H])[C@@]2([H])S1


 22 25  0  0  0  0  0  0  0  0999 V2000
   -0.4711  -52.9670  -19.8539 C   0  0  0  0  0  0  0  0  0  0  0  0
   -1.1833  -53.9869  -20.2967 C   0  0  0  0  0  0  0  0  0  0  0  0
   -0.6107  -54.2138  -22.0184 S   0  0  0  0  0  0  0  0  0  0  0  0
   -0.1010  -52.4404  -22.1507 C   0  0  0  0  0  0  0  0  0  0  0  0
    0.4650  -52.4362  -20.7681 N   0  0  0  0  0  0  0  0  0  0  0  0
    1.6470  -51.8772  -21.3127 C   0  0  0  0  0  0  0  0  0  0  0  0
    2.6953  -51.3673  -20.8632 O   0  0  0  0  0  0  0  0  0  0  0  0
    1.1770  -52.1230  -22.7013 C   0  0  0  0  0  0  0  0  0  0  0  0
    1.7247  -52.0242  -23.8932 C   0  0  0  0  0  0  0  0  0  0  0  0
    1.0513  -52.2505  -25.1662 C   0  0  0  0  0  0  0  0  0  0  0  0
   -0.2550  -52.2425  -25.5471 C   0  0  0  0  0  0  0  0  0  0  0  0
   -0.5424  -52.4530  -26.8527 C   0  0  0  0  0  0  0  0  0  0  0  0
   -1.7637  -52.5176  -27.7044 C   0  0  0  0  0  0  0  0  0  0  0  0
   -2.9666  -52.3863  -27.3735 O   0  0  0  0  0  0  0  0  0  0  0  0
   -1.3880  -52.7659  -29.0529 N   0  0  0  0  0  0  0  0  0  0  0  0
    0.0307  -52.8826  -29.1165 C   0  0  0  0  0  0  0  0  0  0  0  0
    0.5045  -52.6614  -27.6989 C   0  0  0  0  0  0  0  0  0  0  0  0
    1.8565  -52.5623  -26.6788 S   0  0  0  0  0  0  0  0  0  0  0  0
   -2.0251  -52.8512  -29.8696 H   0  0  0  0  0  0  0  0  0  0  0  0
   -1.5923  -52.8934  -17.6028 O   0  0  0  0  0  0  0  0  0  0  0  0
   -0.6235  -52.4428  -18.4898 C   0  0  0  0  0  0  0  0  0  0  0  0
    0.1403  -51.5292  -18.0399 O   0  0  0  0  0  0  0  0  0  0  0  0
 20 21  1  0  0  0
 21 22  2  0  0  0
 21  1  1  0  0  0
  1  2  2  0  0  0
  2  3  1  0  0  0
  3  4  1  0  0  0
  4  5  1  0  0  0
  5  6  1  0  0  0
  6  7  2  0  0  0
  6  8  1  0  0  0
  8  9  2  0  0  0
  9 10  1  0  0  0
 10 11  2  0  0  0
 11 12  1  0  0  0
 12 13  1  0  0  0
 13 14  2  0  0  0
 13 15  1  0  0  0
 15 16  1  0  0  0
 16 17  1  0  0  0
 17 18  1  0  0  0
  5  1  1  0  0  0
 18 10  1  0  0  0
  8  4  1  0  0  0
 17 12  2  0  0  0
 15 19  1  0  0  0
M  CHG 1  20  -1
M  END
> <minimizedAffinity>
-7.65856

> <CNNscore>
0.2042166293

> <CNNaffinity>
5.5495080948

> <CNN_VS>
1.1333018541

> <CNNaffinity_variance>
0.0858902410

$$$$
[H]C1=C(C(=O)[O-])N2C(=O)/C(=C(\[H])c3sc4c(c3[H])C(=O)N([H])C4([H])[H])[C@@]2([H])S1


 22 25  0  0  0  0  0  0  0  0999 V2000
    0.1504  -52.8247  -25.3908 C   0  0  0  0  0  0  0  0  0  0  0  0
   -0.0633  -52.8366  -26.6938 C   0  0  0  0  0  0  0  0  0  0  0  0
    1.3901  -51.9725  -27.3898 S   0  0  0  0  0  0  0  0  0  0  0  0
    1.6619  -51.0304  -25.8210 C   0  0  0  0  0  0  0  0  0  0  0  0
    1.3613  -52.2268  -24.9783 N   0  0  0  0  0  0  0  0  0  0  0  0
    2.5662  -51.9694  -24.2798 C   0  0  0  0  0  0  0  0  0  0  0  0
    3.1165  -52.3933  -23.2414 O   0  0  0  0  0  0  0  0  0  0  0  0
    2.9793  -50.9483  -25.2781 C   0  0  0  0  0  0  0  0  0  0  0  0
    4.0782  -50.2579  -25.4930 C   0  0  0  0  0  0  0  0  0  0  0  0
    4.2573  -49.2285  -26.5095 C   0  0  0  0  0  0  0  0  0  0  0  0
    4.1418  -49.2234  -27.8653 C   0  0  0  0  0  0  0  0  0  0  0  0
    4.3382  -48.0554  -28.5201 C   0  0  0  0  0  0  0  0  0  0  0  0
    4.3063  -47.5770  -29.9312 C   0  0  0  0  0  0  0  0  0  0  0  0
    4.0706  -48.2230  -30.9804 O   0  0  0  0  0  0  0  0  0  0  0  0
    4.5970  -46.1857  -29.9662 N   0  0  0  0  0  0  0  0  0  0  0  0
    4.8341  -45.7362  -28.6350 C   0  0  0  0  0  0  0  0  0  0  0  0
    4.6418  -46.9598  -27.7697 C   0  0  0  0  0  0  0  0  0  0  0  0
    4.6491  -47.5629  -26.1839 S   0  0  0  0  0  0  0  0  0  0  0  0
    4.6348  -45.5801  -30.8099 H   0  0  0  0  0  0  0  0  0  0  0  0
   -0.4181  -53.9276  -23.2022 O   0  0  0  0  0  0  0  0  0  0  0  0
   -0.7961  -53.4230  -24.4394 C   0  0  0  0  0  0  0  0  0  0  0  0
   -2.0378  -53.5121  -24.7047 O   0  0  0  0  0  0  0  0  0  0  0  0
 20 21  1  0  0  0
 21 22  2  0  0  0
 21  1  1  0  0  0
  1  2  2  0  0  0
  2  3  1  0  0  0
  3  4  1  0  0  0
  4  5  1  0  0  0
  5  6  1  0  0  0
  6  7  2  0  0  0
  6  8  1  0  0  0
  8  9  2  0  0  0
  9 10  1  0  0  0
 10 11  2  0  0  0
 11 12  1  0  0  0
 12 13  1  0  0  0
 13 14  2  0  0  0
 13 15  1  0  0  0
 15 16  1  0  0  0
 16 17  1  0  0  0
 17 18  1  0  0  0
  5  1  1  0  0  0
 18 10  1  0  0  0
  8  4  1  0  0  0
 17 12  2  0  0  0
 15 19  1  0  0  0
M  CHG 1  20  -1
M  END
> <minimizedAffinity>
-3.47021

> <CNNscore>
0.1743539721

> <CNNaffinity>
4.7599349022

> <CNN_VS>
0.8299135566

> <CNNaffinity_variance>
0.4661150873

$$$$
[H]C1=C(C(=O)[O-])N2C(=O)/C(=C(\[H])c3sc4c(c3[H])C(=O)N([H])C4([H])[H])[C@@]2([H])S1


 22 25  0  0  0  0  0  0  0  0999 V2000
    2.7804  -52.8293  -26.1967 C   0  0  0  0  0  0  0  0  0  0  0  0
    3.9013  -52.6077  -25.5349 C   0  0  0  0  0  0  0  0  0  0  0  0
    3.3935  -52.6403  -23.7785 S   0  0  0  0  0  0  0  0  0  0  0  0
    1.6616  -52.1477  -24.2033 C   0  0  0  0  0  0  0  0  0  0  0  0
    1.6350  -53.0431  -25.3990 N   0  0  0  0  0  0  0  0  0  0  0  0
    0.4078  -53.5599  -24.9164 C   0  0  0  0  0  0  0  0  0  0  0  0
   -0.4931  -54.3059  -25.3554 O   0  0  0  0  0  0  0  0  0  0  0  0
    0.5722  -52.8586  -23.6161 C   0  0  0  0  0  0  0  0  0  0  0  0
   -0.0688  -52.8794  -22.4676 C   0  0  0  0  0  0  0  0  0  0  0  0
    0.2191  -52.0397  -21.3112 C   0  0  0  0  0  0  0  0  0  0  0  0
    0.8000  -50.8180  -21.1645 C   0  0  0  0  0  0  0  0  0  0  0  0
    0.8733  -50.2892  -19.9210 C   0  0  0  0  0  0  0  0  0  0  0  0
    1.3825  -49.0353  -19.2968 C   0  0  0  0  0  0  0  0  0  0  0  0
    1.9434  -48.0530  -19.8391 O   0  0  0  0  0  0  0  0  0  0  0  0
    1.1442  -49.0730  -17.8957 N   0  0  0  0  0  0  0  0  0  0  0  0
    0.5129  -50.3094  -17.5741 C   0  0  0  0  0  0  0  0  0  0  0  0
    0.3578  -51.0240  -18.8963 C   0  0  0  0  0  0  0  0  0  0  0  0
   -0.2144  -52.4222  -19.6683 S   0  0  0  0  0  0  0  0  0  0  0  0
    1.3821  -48.3339  -17.2050 H   0  0  0  0  0  0  0  0  0  0  0  0
    2.3502  -54.0071  -28.3778 O   0  0  0  0  0  0  0  0  0  0  0  0
    2.7380  -52.8806  -27.6645 C   0  0  0  0  0  0  0  0  0  0  0  0
    3.0612  -51.8745  -28.3741 O   0  0  0  0  0  0  0  0  0  0  0  0
 20 21  1  0  0  0
 21 22  2  0  0  0
 21  1  1  0  0  0
  1  2  2  0  0  0
  2  3  1  0  0  0
  3  4  1  0  0  0
  4  5  1  0  0  0
  5  6  1  0  0  0
  6  7  2  0  0  0
  6  8  1  0  0  0
  8  9  2  0  0  0
  9 10  1  0  0  0
 10 11  2  0  0  0
 11 12  1  0  0  0
 12 13  1  0  0  0
 13 14  2  0  0  0
 13 15  1  0  0  0
 15 16  1  0  0  0
 16 17  1  0  0  0
 17 18  1  0  0  0
  5  1  1  0  0  0
 18 10  1  0  0  0
  8  4  1  0  0  0
 17 12  2  0  0  0
 15 19  1  0  0  0
M  CHG 1  20  -1
M  END
> <minimizedAffinity>
-7.09195

> <CNNscore>
0.1632936448

> <CNNaffinity>
5.4274702072

> <CNN_VS>
0.8862714171

> <CNNaffinity_variance>
0.5882892609

$$$$
[H]c1nc(N([H])c2c([H])c([H])c(N3C([H])([H])C([H])([H])N(C([H])([H])[H])C([H])([H])C3([H])[H])c([H])c2OC([H])([H])[H])nc(N([H])c2c([H])c([H])c([H])c([H])c2S(=O)(=O)C([H])(C([H])([H])[H])C([H])([H])[H])c1Cl


 38 41  0  0  0  0  0  0  0  0999 V2000
   -1.1448  -53.6492  -20.6087 C   0  0  0  0  0  0  0  0  0  0  0  0
   -1.4463  -54.6447  -21.4419 N   0  0  0  0  0  0  0  0  0  0  0  0
   -1.1310  -54.6980  -22.7286 C   0  0  0  0  0  0  0  0  0  0  0  0
   -0.4314  -53.6453  -23.2749 C   0  0  0  0  0  0  0  0  0  0  0  0
    0.0172  -53.6505  -24.9691 Cl  0  0  0  0  0  0  0  0  0  0  0  0
   -0.0694  -52.5431  -22.4583 C   0  0  0  0  0  0  0  0  0  0  0  0
   -0.4506  -52.6284  -21.1972 N   0  0  0  0  0  0  0  0  0  0  0  0
   -1.4667  -53.5647  -19.2350 N   0  0  0  0  0  0  0  0  0  0  0  0
   -2.1865  -54.3034  -18.9108 H   0  0  0  0  0  0  0  0  0  0  0  0
   -1.6927  -52.4356  -17.1202 C   0  0  0  0  0  0  0  0  0  0  0  0
   -1.2246  -51.5498  -16.1829 C   0  0  0  0  0  0  0  0  0  0  0  0
   -0.0640  -50.8442  -16.3171 C   0  0  0  0  0  0  0  0  0  0  0  0
    0.6538  -51.0612  -17.4779 C   0  0  0  0  0  0  0  0  0  0  0  0
    0.1842  -51.9646  -18.4429 C   0  0  0  0  0  0  0  0  0  0  0  0
   -0.9668  -52.6613  -18.3044 C   0  0  0  0  0  0  0  0  0  0  0  0
    0.3863  -49.9519  -15.3199 N   0  0  0  0  0  0  0  0  0  0  0  0
    1.1667  -50.3587  -14.1591 C   0  0  0  0  0  0  0  0  0  0  0  0
    2.3398  -49.4247  -13.9371 C   0  0  0  0  0  0  0  0  0  0  0  0
    2.0565  -48.0488  -14.1926 N   0  0  0  0  0  0  0  0  0  0  0  0
    1.3440  -47.3897  -13.1379 C   0  0  0  0  0  0  0  0  0  0  0  0
    1.4380  -47.8424  -15.5031 C   0  0  0  0  0  0  0  0  0  0  0  0
    0.0744  -48.5442  -15.3916 C   0  0  0  0  0  0  0  0  0  0  0  0
   -3.9513  -52.4713  -16.2621 C   0  0  0  0  0  0  0  0  0  0  0  0
   -2.8874  -53.1235  -16.9180 O   0  0  0  0  0  0  0  0  0  0  0  0
    0.6670  -51.4945  -23.0565 N   0  0  0  0  0  0  0  0  0  0  0  0
    0.8062  -51.5877  -24.1068 H   0  0  0  0  0  0  0  0  0  0  0  0
    1.1736  -50.3792  -22.3722 C   0  0  0  0  0  0  0  0  0  0  0  0
    0.6794  -49.8765  -21.1896 C   0  0  0  0  0  0  0  0  0  0  0  0
    1.1860  -48.7157  -20.5795 C   0  0  0  0  0  0  0  0  0  0  0  0
    2.2251  -48.0698  -21.2160 C   0  0  0  0  0  0  0  0  0  0  0  0
    2.7364  -48.5499  -22.3955 C   0  0  0  0  0  0  0  0  0  0  0  0
    2.2360  -49.6917  -22.9907 C   0  0  0  0  0  0  0  0  0  0  0  0
    2.9156  -50.3296  -24.4589 S   0  0  0  0  0  0  0  0  0  0  0  0
    1.8870  -50.6782  -25.4948 O   0  0  0  0  0  0  0  0  0  0  0  0
    3.6894  -49.1552  -25.0909 O   0  0  0  0  0  0  0  0  0  0  0  0
    4.1176  -51.5793  -24.1943 C   0  0  0  0  0  0  0  0  0  0  0  0
    3.5216  -52.9565  -24.5201 C   0  0  0  0  0  0  0  0  0  0  0  0
    4.5045  -51.6797  -22.7140 C   0  0  0  0  0  0  0  0  0  0  0  0
 23 24  1  0  0  0
 24 10  1  0  0  0
 10 11  2  0  0  0
 11 12  1  0  0  0
 12 13  2  0  0  0
 13 14  1  0  0  0
 14 15  2  0  0  0
 15  8  1  0  0  0
  8  1  1  0  0  0
  1  2  2  0  0  0
  2  3  1  0  0  0
  3  4  2  0  0  0
  4  5  1  0  0  0
  4  6  1  0  0  0
  6 25  1  0  0  0
 25 27  1  0  0  0
 27 28  2  0  0  0
 28 29  1  0  0  0
 29 30  2  0  0  0
 30 31  1  0  0  0
 31 32  2  0  0  0
 32 33  1  0  0  0
 33 34  2  0  0  0
 33 35  2  0  0  0
 33 36  1  0  0  0
 36 37  1  0  0  0
 36 38  1  0  0  0
  6  7  2  0  0  0
 12 16  1  0  0  0
 16 17  1  0  0  0
 17 18  1  0  0  0
 18 19  1  0  0  0
 19 20  1  0  0  0
 19 21  1  0  0  0
 21 22  1  0  0  0
 15 10  1  0  0  0
  7  1  1  0  0  0
 22 16  1  0  0  0
 32 27  1  0  0  0
  8  9  1  0  0  0
 25 26  1  0  0  0
M  END
> <minimizedAffinity>
-8.00578

> <CNNscore>
0.9281942248

> <CNNaffinity>
7.8141160011

> <CNN_VS>
7.2530174255

> <CNNaffinity_variance>
0.0189937409

$$$$
[H]c1nc(N([H])c2c([H])c([H])c(N3C([H])([H])C([H])([H])N(C([H])([H])[H])C([H])([H])C3([H])[H])c([H])c2OC([H])([H])[H])nc(N([H])c2c([H])c([H])c([H])c([H])c2S(=O)(=O)C([H])(C([H])([H])[H])C([H])([H])[H])c1Cl


 38 41  0  0  0  0  0  0  0  0999 V2000
   -1.0910  -53.5282  -20.5752 C   0  0  0  0  0  0  0  0  0  0  0  0
   -1.5738  -54.6199  -21.1680 N   0  0  0  0  0  0  0  0  0  0  0  0
   -1.4167  -54.9394  -22.4452 C   0  0  0  0  0  0  0  0  0  0  0  0
   -0.6962  -54.0851  -23.2495 C   0  0  0  0  0  0  0  0  0  0  0  0
   -0.4506  -54.4460  -24.9468 Cl  0  0  0  0  0  0  0  0  0  0  0  0
   -0.1462  -52.8987  -22.6994 C   0  0  0  0  0  0  0  0  0  0  0  0
   -0.3835  -52.7121  -21.4141 N   0  0  0  0  0  0  0  0  0  0  0  0
   -1.2417  -53.1617  -19.2185 N   0  0  0  0  0  0  0  0  0  0  0  0
   -2.1240  -53.5766  -18.7513 H   0  0  0  0  0  0  0  0  0  0  0  0
   -0.7808  -52.0151  -17.1518 C   0  0  0  0  0  0  0  0  0  0  0  0
    0.0297  -51.2195  -16.3821 C   0  0  0  0  0  0  0  0  0  0  0  0
    1.2233  -50.7129  -16.8081 C   0  0  0  0  0  0  0  0  0  0  0  0
    1.6037  -51.0420  -18.0952 C   0  0  0  0  0  0  0  0  0  0  0  0
    0.7825  -51.8545  -18.8910 C   0  0  0  0  0  0  0  0  0  0  0  0
   -0.3994  -52.3540  -18.4632 C   0  0  0  0  0  0  0  0  0  0  0  0
    2.0319  -49.9082  -15.9762 N   0  0  0  0  0  0  0  0  0  0  0  0
    2.0354  -48.4519  -16.0110 C   0  0  0  0  0  0  0  0  0  0  0  0
    1.9774  -47.8737  -14.6110 C   0  0  0  0  0  0  0  0  0  0  0  0
    2.7418  -48.5922  -13.6425 N   0  0  0  0  0  0  0  0  0  0  0  0
    4.1488  -48.3219  -13.6859 C   0  0  0  0  0  0  0  0  0  0  0  0
    2.4443  -50.0254  -13.6512 C   0  0  0  0  0  0  0  0  0  0  0  0
    2.9396  -50.5052  -15.0256 C   0  0  0  0  0  0  0  0  0  0  0  0
   -2.7549  -51.6790  -15.7995 C   0  0  0  0  0  0  0  0  0  0  0  0
   -1.9883  -52.4988  -16.6524 O   0  0  0  0  0  0  0  0  0  0  0  0
    0.6044  -52.0618  -23.5572 N   0  0  0  0  0  0  0  0  0  0  0  0
    0.0355  -51.5573  -24.3008 H   0  0  0  0  0  0  0  0  0  0  0  0
    1.9887  -51.8527  -23.4630 C   0  0  0  0  0  0  0  0  0  0  0  0
    2.7308  -51.9325  -22.3061 C   0  0  0  0  0  0  0  0  0  0  0  0
    4.1071  -51.6499  -22.2578 C   0  0  0  0  0  0  0  0  0  0  0  0
    4.7171  -51.2773  -23.4373 C   0  0  0  0  0  0  0  0  0  0  0  0
    4.0006  -51.1902  -24.6044 C   0  0  0  0  0  0  0  0  0  0  0  0
    2.6485  -51.4700  -24.6471 C   0  0  0  0  0  0  0  0  0  0  0  0
    1.7494  -51.4088  -26.1345 S   0  0  0  0  0  0  0  0  0  0  0  0
    0.3760  -50.8231  -25.9823 O   0  0  0  0  0  0  0  0  0  0  0  0
    2.4908  -50.3822  -27.0141 O   0  0  0  0  0  0  0  0  0  0  0  0
    1.7920  -52.9070  -27.0459 C   0  0  0  0  0  0  0  0  0  0  0  0
    3.0427  -52.9429  -27.9361 C   0  0  0  0  0  0  0  0  0  0  0  0
    0.6249  -52.9930  -28.0365 C   0  0  0  0  0  0  0  0  0  0  0  0
 23 24  1  0  0  0
 24 10  1  0  0  0
 10 11  2  0  0  0
 11 12  1  0  0  0
 12 13  2  0  0  0
 13 14  1  0  0  0
 14 15  2  0  0  0
 15  8  1  0  0  0
  8  1  1  0  0  0
  1  2  2  0  0  0
  2  3  1  0  0  0
  3  4  2  0  0  0
  4  5  1  0  0  0
  4  6  1  0  0  0
  6 25  1  0  0  0
 25 27  1  0  0  0
 27 28  2  0  0  0
 28 29  1  0  0  0
 29 30  2  0  0  0
 30 31  1  0  0  0
 31 32  2  0  0  0
 32 33  1  0  0  0
 33 34  2  0  0  0
 33 35  2  0  0  0
 33 36  1  0  0  0
 36 37  1  0  0  0
 36 38  1  0  0  0
  6  7  2  0  0  0
 12 16  1  0  0  0
 16 17  1  0  0  0
 17 18  1  0  0  0
 18 19  1  0  0  0
 19 20  1  0  0  0
 19 21  1  0  0  0
 21 22  1  0  0  0
 15 10  1  0  0  0
  7  1  1  0  0  0
 22 16  1  0  0  0
 32 27  1  0  0  0
  8  9  1  0  0  0
 25 26  1  0  0  0
M  END
> <minimizedAffinity>
-7.50934

> <CNNscore>
0.7721196413

> <CNNaffinity>
7.7033348083

> <CNN_VS>
5.9478960037

> <CNNaffinity_variance>
0.0512098297

$$$$
[H]c1nc(N([H])c2c([H])c([H])c(N3C([H])([H])C([H])([H])N(C([H])([H])[H])C([H])([H])C3([H])[H])c([H])c2OC([H])([H])[H])nc(N([H])c2c([H])c([H])c([H])c([H])c2S(=O)(=O)C([H])(C([H])([H])[H])C([H])([H])[H])c1Cl


 38 41  0  0  0  0  0  0  0  0999 V2000
   -0.3007  -53.6247  -20.3382 C   0  0  0  0  0  0  0  0  0  0  0  0
   -1.0417  -54.4748  -21.0484 N   0  0  0  0  0  0  0  0  0  0  0  0
   -1.1954  -54.4525  -22.3651 C   0  0  0  0  0  0  0  0  0  0  0  0
   -0.5431  -53.4757  -23.0835 C   0  0  0  0  0  0  0  0  0  0  0  0
   -0.7027  -53.3877  -24.8265 Cl  0  0  0  0  0  0  0  0  0  0  0  0
    0.2676  -52.5286  -22.4062 C   0  0  0  0  0  0  0  0  0  0  0  0
    0.3266  -52.6742  -21.0953 N   0  0  0  0  0  0  0  0  0  0  0  0
   -0.1181  -53.6237  -18.9366 N   0  0  0  0  0  0  0  0  0  0  0  0
    0.4029  -54.4953  -18.5653 H   0  0  0  0  0  0  0  0  0  0  0  0
    0.2568  -51.4919  -17.8815 C   0  0  0  0  0  0  0  0  0  0  0  0
   -0.1215  -50.5140  -16.9967 C   0  0  0  0  0  0  0  0  0  0  0  0
   -1.2434  -50.5824  -16.2224 C   0  0  0  0  0  0  0  0  0  0  0  0
   -2.0179  -51.7178  -16.3657 C   0  0  0  0  0  0  0  0  0  0  0  0
   -1.6403  -52.7240  -17.2673 C   0  0  0  0  0  0  0  0  0  0  0  0
   -0.5273  -52.6506  -18.0323 C   0  0  0  0  0  0  0  0  0  0  0  0
   -1.6012  -49.5452  -15.3338 N   0  0  0  0  0  0  0  0  0  0  0  0
   -2.8713  -49.4875  -14.6230 C   0  0  0  0  0  0  0  0  0  0  0  0
   -2.6625  -49.1406  -13.1622 C   0  0  0  0  0  0  0  0  0  0  0  0
   -1.6374  -48.1757  -12.9244 N   0  0  0  0  0  0  0  0  0  0  0  0
   -2.0338  -46.8221  -13.1796 C   0  0  0  0  0  0  0  0  0  0  0  0
   -0.3791  -48.5268  -13.5848 C   0  0  0  0  0  0  0  0  0  0  0  0
   -0.7039  -48.4418  -15.0854 C   0  0  0  0  0  0  0  0  0  0  0  0
    2.6136  -50.9730  -18.0039 C   0  0  0  0  0  0  0  0  0  0  0  0
    1.4164  -51.3566  -18.6419 O   0  0  0  0  0  0  0  0  0  0  0  0
    0.9358  -51.5566  -23.1862 N   0  0  0  0  0  0  0  0  0  0  0  0
    0.9870  -51.7748  -24.2259 H   0  0  0  0  0  0  0  0  0  0  0  0
    1.4824  -50.3651  -22.6859 C   0  0  0  0  0  0  0  0  0  0  0  0
    0.9172  -49.5763  -21.7093 C   0  0  0  0  0  0  0  0  0  0  0  0
    1.4772  -48.3567  -21.2903 C   0  0  0  0  0  0  0  0  0  0  0  0
    2.6460  -47.9551  -21.9025 C   0  0  0  0  0  0  0  0  0  0  0  0
    3.2302  -48.7227  -22.8785 C   0  0  0  0  0  0  0  0  0  0  0  0
    2.6768  -49.9210  -23.2861 C   0  0  0  0  0  0  0  0  0  0  0  0
    3.4421  -50.9192  -24.4869 S   0  0  0  0  0  0  0  0  0  0  0  0
    2.5005  -51.4128  -25.5464 O   0  0  0  0  0  0  0  0  0  0  0  0
    4.3930  -49.9765  -25.2514 O   0  0  0  0  0  0  0  0  0  0  0  0
    4.4774  -52.1643  -23.8127 C   0  0  0  0  0  0  0  0  0  0  0  0
    4.5744  -51.9964  -22.2894 C   0  0  0  0  0  0  0  0  0  0  0  0
    5.9239  -52.0135  -24.2986 C   0  0  0  0  0  0  0  0  0  0  0  0
 23 24  1  0  0  0
 24 10  1  0  0  0
 10 11  2  0  0  0
 11 12  1  0  0  0
 12 13  2  0  0  0
 13 14  1  0  0  0
 14 15  2  0  0  0
 15  8  1  0  0  0
  8  1  1  0  0  0
  1  2  2  0  0  0
  2  3  1  0  0  0
  3  4  2  0  0  0
  4  5  1  0  0  0
  4  6  1  0  0  0
  6 25  1  0  0  0
 25 27  1  0  0  0
 27 28  2  0  0  0
 28 29  1  0  0  0
 29 30  2  0  0  0
 30 31  1  0  0  0
 31 32  2  0  0  0
 32 33  1  0  0  0
 33 34  2  0  0  0
 33 35  2  0  0  0
 33 36  1  0  0  0
 36 37  1  0  0  0
 36 38  1  0  0  0
  6  7  2  0  0  0
 12 16  1  0  0  0
 16 17  1  0  0  0
 17 18  1  0  0  0
 18 19  1  0  0  0
 19 20  1  0  0  0
 19 21  1  0  0  0
 21 22  1  0  0  0
 15 10  1  0  0  0
  7  1  1  0  0  0
 22 16  1  0  0  0
 32 27  1  0  0  0
  8  9  1  0  0  0
 25 26  1  0  0  0
M  END
> <minimizedAffinity>
-7.41914

> <CNNscore>
0.6999086142

> <CNNaffinity>
7.4603223801

> <CNN_VS>
5.2215437889

> <CNNaffinity_variance>
0.0413058922

$$$$
[H]c1nc(N([H])c2c([H])c([H])c(N3C([H])([H])C([H])([H])N(C([H])([H])[H])C([H])([H])C3([H])[H])c([H])c2OC([H])([H])[H])nc(N([H])c2c([H])c([H])c([H])c([H])c2S(=O)(=O)C([H])(C([H])([H])[H])C([H])([H])[H])c1Cl


 38 41  0  0  0  0  0  0  0  0999 V2000
    0.2875  -53.2984  -22.4556 C   0  0  0  0  0  0  0  0  0  0  0  0
   -0.5932  -54.1627  -21.9518 N   0  0  0  0  0  0  0  0  0  0  0  0
   -1.1016  -54.1231  -20.7280 C   0  0  0  0  0  0  0  0  0  0  0  0
   -0.7004  -53.1107  -19.8853 C   0  0  0  0  0  0  0  0  0  0  0  0
   -1.3322  -52.9990  -18.2544 Cl  0  0  0  0  0  0  0  0  0  0  0  0
    0.2353  -52.1467  -20.3410 C   0  0  0  0  0  0  0  0  0  0  0  0
    0.6547  -52.3126  -21.5818 N   0  0  0  0  0  0  0  0  0  0  0  0
    0.8461  -53.3151  -23.7539 N   0  0  0  0  0  0  0  0  0  0  0  0
    0.5392  -54.1642  -24.3485 H   0  0  0  0  0  0  0  0  0  0  0  0
    1.2039  -51.4447  -25.2276 C   0  0  0  0  0  0  0  0  0  0  0  0
    2.0359  -50.5130  -25.7950 C   0  0  0  0  0  0  0  0  0  0  0  0
    3.3715  -50.4242  -25.5282 C   0  0  0  0  0  0  0  0  0  0  0  0
    3.8788  -51.3434  -24.6296 C   0  0  0  0  0  0  0  0  0  0  0  0
    3.0370  -52.3006  -24.0438 C   0  0  0  0  0  0  0  0  0  0  0  0
    1.7139  -52.3836  -24.3119 C   0  0  0  0  0  0  0  0  0  0  0  0
    4.1880  -49.4398  -26.1261 N   0  0  0  0  0  0  0  0  0  0  0  0
    3.9332  -48.8616  -27.4386 C   0  0  0  0  0  0  0  0  0  0  0  0
    4.0768  -47.3530  -27.4062 C   0  0  0  0  0  0  0  0  0  0  0  0
    5.1424  -46.8781  -26.5832 N   0  0  0  0  0  0  0  0  0  0  0  0
    6.4396  -46.9794  -27.1845 C   0  0  0  0  0  0  0  0  0  0  0  0
    5.1014  -47.4491  -25.2359 C   0  0  0  0  0  0  0  0  0  0  0  0
    5.3668  -48.9480  -25.4531 C   0  0  0  0  0  0  0  0  0  0  0  0
   -0.5607  -52.1025  -26.7417 C   0  0  0  0  0  0  0  0  0  0  0  0
   -0.1523  -51.4781  -25.5456 O   0  0  0  0  0  0  0  0  0  0  0  0
    0.6024  -51.1126  -19.4490 N   0  0  0  0  0  0  0  0  0  0  0  0
    0.4251  -51.3236  -18.4217 H   0  0  0  0  0  0  0  0  0  0  0  0
    1.1856  -49.8947  -19.8303 C   0  0  0  0  0  0  0  0  0  0  0  0
    0.9186  -49.2127  -20.9961 C   0  0  0  0  0  0  0  0  0  0  0  0
    1.5805  -48.0265  -21.3585 C   0  0  0  0  0  0  0  0  0  0  0  0
    2.5371  -47.5462  -20.4888 C   0  0  0  0  0  0  0  0  0  0  0  0
    2.8223  -48.2064  -19.3202 C   0  0  0  0  0  0  0  0  0  0  0  0
    2.1684  -49.3712  -18.9678 C   0  0  0  0  0  0  0  0  0  0  0  0
    2.4927  -50.1820  -17.4639 S   0  0  0  0  0  0  0  0  0  0  0  0
    3.3051  -51.4343  -17.6199 O   0  0  0  0  0  0  0  0  0  0  0  0
    3.4264  -49.2335  -16.6855 O   0  0  0  0  0  0  0  0  0  0  0  0
    1.0776  -50.3687  -16.4444 C   0  0  0  0  0  0  0  0  0  0  0  0
    0.3641  -49.0181  -16.2865 C   0  0  0  0  0  0  0  0  0  0  0  0
    1.4662  -50.7562  -15.0127 C   0  0  0  0  0  0  0  0  0  0  0  0
 23 24  1  0  0  0
 24 10  1  0  0  0
 10 11  2  0  0  0
 11 12  1  0  0  0
 12 13  2  0  0  0
 13 14  1  0  0  0
 14 15  2  0  0  0
 15  8  1  0  0  0
  8  1  1  0  0  0
  1  2  2  0  0  0
  2  3  1  0  0  0
  3  4  2  0  0  0
  4  5  1  0  0  0
  4  6  1  0  0  0
  6 25  1  0  0  0
 25 27  1  0  0  0
 27 28  2  0  0  0
 28 29  1  0  0  0
 29 30  2  0  0  0
 30 31  1  0  0  0
 31 32  2  0  0  0
 32 33  1  0  0  0
 33 34  2  0  0  0
 33 35  2  0  0  0
 33 36  1  0  0  0
 36 37  1  0  0  0
 36 38  1  0  0  0
  6  7  2  0  0  0
 12 16  1  0  0  0
 16 17  1  0  0  0
 17 18  1  0  0  0
 18 19  1  0  0  0
 19 20  1  0  0  0
 19 21  1  0  0  0
 21 22  1  0  0  0
 15 10  1  0  0  0
  7  1  1  0  0  0
 22 16  1  0  0  0
 32 27  1  0  0  0
  8  9  1  0  0  0
 25 26  1  0  0  0
M  END
> <minimizedAffinity>
-7.04539

> <CNNscore>
0.3645843267

> <CNNaffinity>
7.1466941833

> <CNN_VS>
2.6055727005

> <CNNaffinity_variance>
0.0629177243

$$$$
[H]c1nc(N([H])c2c([H])c([H])c(N3C([H])([H])C([H])([H])N(C([H])([H])[H])C([H])([H])C3([H])[H])c([H])c2OC([H])([H])[H])nc(N([H])c2c([H])c([H])c([H])c([H])c2S(=O)(=O)C([H])(C([H])([H])[H])C([H])([H])[H])c1Cl


 38 41  0  0  0  0  0  0  0  0999 V2000
    0.5529  -52.8267  -21.8280 C   0  0  0  0  0  0  0  0  0  0  0  0
   -0.5128  -53.1294  -22.5689 N   0  0  0  0  0  0  0  0  0  0  0  0
   -0.7152  -52.7501  -23.8231 C   0  0  0  0  0  0  0  0  0  0  0  0
    0.2445  -51.9755  -24.4354 C   0  0  0  0  0  0  0  0  0  0  0  0
    0.0407  -51.4388  -26.0912 Cl  0  0  0  0  0  0  0  0  0  0  0  0
    1.4120  -51.6066  -23.7187 C   0  0  0  0  0  0  0  0  0  0  0  0
    1.4768  -52.0568  -22.4792 N   0  0  0  0  0  0  0  0  0  0  0  0
    0.7959  -53.2159  -20.4911 N   0  0  0  0  0  0  0  0  0  0  0  0
    1.4951  -54.0351  -20.3969 H   0  0  0  0  0  0  0  0  0  0  0  0
    0.8613  -51.5435  -18.7599 C   0  0  0  0  0  0  0  0  0  0  0  0
    0.3403  -50.9809  -17.6222 C   0  0  0  0  0  0  0  0  0  0  0  0
   -0.7731  -51.4470  -16.9852 C   0  0  0  0  0  0  0  0  0  0  0  0
   -1.3835  -52.5515  -17.5484 C   0  0  0  0  0  0  0  0  0  0  0  0
   -0.8591  -53.1348  -18.7114 C   0  0  0  0  0  0  0  0  0  0  0  0
    0.2446  -52.6683  -19.3386 C   0  0  0  0  0  0  0  0  0  0  0  0
   -1.2819  -50.8279  -15.8227 N   0  0  0  0  0  0  0  0  0  0  0  0
   -2.5331  -51.2092  -15.1815 C   0  0  0  0  0  0  0  0  0  0  0  0
   -2.3611  -51.3295  -13.6803 C   0  0  0  0  0  0  0  0  0  0  0  0
   -1.5042  -50.3443  -13.1027 N   0  0  0  0  0  0  0  0  0  0  0  0
   -2.1207  -49.0633  -12.9200 C   0  0  0  0  0  0  0  0  0  0  0  0
   -0.2159  -50.2548  -13.7918 C   0  0  0  0  0  0  0  0  0  0  0  0
   -0.5736  -49.7378  -15.1950 C   0  0  0  0  0  0  0  0  0  0  0  0
    3.1706  -50.8538  -18.5861 C   0  0  0  0  0  0  0  0  0  0  0  0
    2.0028  -51.0151  -19.3591 O   0  0  0  0  0  0  0  0  0  0  0  0
    2.3807  -50.8286  -24.3940 N   0  0  0  0  0  0  0  0  0  0  0  0
    1.9860  -50.0437  -24.9934 H   0  0  0  0  0  0  0  0  0  0  0  0
    3.7680  -51.0137  -24.2953 C   0  0  0  0  0  0  0  0  0  0  0  0
    4.4184  -52.2250  -24.3665 C   0  0  0  0  0  0  0  0  0  0  0  0
    5.8075  -52.3599  -24.1967 C   0  0  0  0  0  0  0  0  0  0  0  0
    6.5278  -51.2104  -23.9479 C   0  0  0  0  0  0  0  0  0  0  0  0
    5.9043  -49.9904  -23.8722 C   0  0  0  0  0  0  0  0  0  0  0  0
    4.5391  -49.8628  -24.0408 C   0  0  0  0  0  0  0  0  0  0  0  0
    3.7540  -48.3117  -23.9951 S   0  0  0  0  0  0  0  0  0  0  0  0
    3.0112  -47.9772  -25.2557 O   0  0  0  0  0  0  0  0  0  0  0  0
    2.6394  -48.4528  -22.9389 O   0  0  0  0  0  0  0  0  0  0  0  0
    4.7818  -47.0186  -23.4050 C   0  0  0  0  0  0  0  0  0  0  0  0
    3.9404  -45.9918  -22.6331 C   0  0  0  0  0  0  0  0  0  0  0  0
    5.3875  -46.2132  -24.5606 C   0  0  0  0  0  0  0  0  0  0  0  0
 23 24  1  0  0  0
 24 10  1  0  0  0
 10 11  2  0  0  0
 11 12  1  0  0  0
 12 13  2  0  0  0
 13 14  1  0  0  0
 14 15  2  0  0  0
 15  8  1  0  0  0
  8  1  1  0  0  0
  1  2  2  0  0  0
  2  3  1  0  0  0
  3  4  2  0  0  0
  4  5  1  0  0  0
  4  6  1  0  0  0
  6 25  1  0  0  0
 25 27  1  0  0  0
 27 28  2  0  0  0
 28 29  1  0  0  0
 29 30  2  0  0  0
 30 31  1  0  0  0
 31 32  2  0  0  0
 32 33  1  0  0  0
 33 34  2  0  0  0
 33 35  2  0  0  0
 33 36  1  0  0  0
 36 37  1  0  0  0
 36 38  1  0  0  0
  6  7  2  0  0  0
 12 16  1  0  0  0
 16 17  1  0  0  0
 17 18  1  0  0  0
 18 19  1  0  0  0
 19 20  1  0  0  0
 19 21  1  0  0  0
 21 22  1  0  0  0
 15 10  1  0  0  0
  7  1  1  0  0  0
 22 16  1  0  0  0
 32 27  1  0  0  0
  8  9  1  0  0  0
 25 26  1  0  0  0
M  END
> <minimizedAffinity>
-6.62501

> <CNNscore>
0.2519705892

> <CNNaffinity>
6.9223074913

> <CNN_VS>
1.7442178726

> <CNNaffinity_variance>
0.1606138945

$$$$
[H]c1nc(N([H])c2c([H])c([H])c(N3C([H])([H])C([H])([H])N(C([H])([H])[H])C([H])([H])C3([H])[H])c([H])c2OC([H])([H])[H])nc(N([H])c2c([H])c([H])c([H])c([H])c2S(=O)(=O)C([H])(C([H])([H])[H])C([H])([H])[H])c1Cl


 38 41  0  0  0  0  0  0  0  0999 V2000
    0.1012  -51.6232  -19.7880 C   0  0  0  0  0  0  0  0  0  0  0  0
   -0.3499  -52.8034  -19.3638 N   0  0  0  0  0  0  0  0  0  0  0  0
   -0.7227  -53.8123  -20.1391 C   0  0  0  0  0  0  0  0  0  0  0  0
   -0.6464  -53.6513  -21.5044 C   0  0  0  0  0  0  0  0  0  0  0  0
   -1.1236  -54.9439  -22.5873 Cl  0  0  0  0  0  0  0  0  0  0  0  0
   -0.1767  -52.4253  -22.0420 C   0  0  0  0  0  0  0  0  0  0  0  0
    0.1588  -51.5117  -21.1498 N   0  0  0  0  0  0  0  0  0  0  0  0
    0.5053  -50.5309  -18.9871 N   0  0  0  0  0  0  0  0  0  0  0  0
   -0.2980  -50.0940  -18.4102 H   0  0  0  0  0  0  0  0  0  0  0  0
    2.1353  -48.9120  -19.7085 C   0  0  0  0  0  0  0  0  0  0  0  0
    3.3874  -48.3578  -19.6230 C   0  0  0  0  0  0  0  0  0  0  0  0
    4.3523  -48.7898  -18.7596 C   0  0  0  0  0  0  0  0  0  0  0  0
    4.0111  -49.8490  -17.9403 C   0  0  0  0  0  0  0  0  0  0  0  0
    2.7336  -50.4233  -18.0196 C   0  0  0  0  0  0  0  0  0  0  0  0
    1.7813  -49.9908  -18.8771 C   0  0  0  0  0  0  0  0  0  0  0  0
    5.6243  -48.1805  -18.6967 N   0  0  0  0  0  0  0  0  0  0  0  0
    6.8038  -48.6916  -19.3819 C   0  0  0  0  0  0  0  0  0  0  0  0
    7.5491  -47.5765  -20.0883 C   0  0  0  0  0  0  0  0  0  0  0  0
    7.5875  -46.3434  -19.3698 N   0  0  0  0  0  0  0  0  0  0  0  0
    8.5556  -46.3086  -18.3132 C   0  0  0  0  0  0  0  0  0  0  0  0
    6.2590  -45.9149  -18.9290 C   0  0  0  0  0  0  0  0  0  0  0  0
    5.8348  -46.9872  -17.9119 C   0  0  0  0  0  0  0  0  0  0  0  0
    1.6452  -47.8543  -21.8250 C   0  0  0  0  0  0  0  0  0  0  0  0
    1.1975  -48.4201  -20.6140 O   0  0  0  0  0  0  0  0  0  0  0  0
   -0.0948  -52.3120  -23.4492 N   0  0  0  0  0  0  0  0  0  0  0  0
   -0.9202  -52.7218  -23.9802 H   0  0  0  0  0  0  0  0  0  0  0  0
    0.9551  -51.6920  -24.1435 C   0  0  0  0  0  0  0  0  0  0  0  0
    2.0376  -51.0698  -23.5634 C   0  0  0  0  0  0  0  0  0  0  0  0
    3.0298  -50.4075  -24.3072 C   0  0  0  0  0  0  0  0  0  0  0  0
    2.8878  -50.3947  -25.6790 C   0  0  0  0  0  0  0  0  0  0  0  0
    1.8185  -51.0073  -26.2825 C   0  0  0  0  0  0  0  0  0  0  0  0
    0.8465  -51.6579  -25.5474 C   0  0  0  0  0  0  0  0  0  0  0  0
   -0.4824  -52.4777  -26.3131 S   0  0  0  0  0  0  0  0  0  0  0  0
   -0.7321  -53.8543  -25.7697 O   0  0  0  0  0  0  0  0  0  0  0  0
   -1.7393  -51.6863  -25.8993 O   0  0  0  0  0  0  0  0  0  0  0  0
   -0.4463  -52.3950  -28.0649 C   0  0  0  0  0  0  0  0  0  0  0  0
   -1.8272  -52.7513  -28.6344 C   0  0  0  0  0  0  0  0  0  0  0  0
    0.4878  -53.4573  -28.6565 C   0  0  0  0  0  0  0  0  0  0  0  0
 23 24  1  0  0  0
 24 10  1  0  0  0
 10 11  2  0  0  0
 11 12  1  0  0  0
 12 13  2  0  0  0
 13 14  1  0  0  0
 14 15  2  0  0  0
 15  8  1  0  0  0
  8  1  1  0  0  0
  1  2  2  0  0  0
  2  3  1  0  0  0
  3  4  2  0  0  0
  4  5  1  0  0  0
  4  6  1  0  0  0
  6 25  1  0  0  0
 25 27  1  0  0  0
 27 28  2  0  0  0
 28 29  1  0  0  0
 29 30  2  0  0  0
 30 31  1  0  0  0
 31 32  2  0  0  0
 32 33  1  0  0  0
 33 34  2  0  0  0
 33 35  2  0  0  0
 33 36  1  0  0  0
 36 37  1  0  0  0
 36 38  1  0  0  0
  6  7  2  0  0  0
 12 16  1  0  0  0
 16 17  1  0  0  0
 17 18  1  0  0  0
 18 19  1  0  0  0
 19 20  1  0  0  0
 19 21  1  0  0  0
 21 22  1  0  0  0
 15 10  1  0  0  0
  7  1  1  0  0  0
 22 16  1  0  0  0
 32 27  1  0  0  0
  8  9  1  0  0  0
 25 26  1  0  0  0
M  END
> <minimizedAffinity>
-7.39294

> <CNNscore>
0.1800207794

> <CNNaffinity>
6.8918228149

> <CNN_VS>
1.2406712770

> <CNNaffinity_variance>
0.1305350810

$$$$
[H]c1nc(N([H])c2c([H])c([H])c(N3C([H])([H])C([H])([H])N(C([H])([H])[H])C([H])([H])C3([H])[H])c([H])c2OC([H])([H])[H])nc(N([H])c2c([H])c([H])c([H])c([H])c2S(=O)(=O)C([H])(C([H])([H])[H])C([H])([H])[H])c1Cl


 38 41  0  0  0  0  0  0  0  0999 V2000
    0.1450  -52.2457  -20.4940 C   0  0  0  0  0  0  0  0  0  0  0  0
   -0.8533  -53.0546  -20.1399 N   0  0  0  0  0  0  0  0  0  0  0  0
   -1.3823  -54.0063  -20.8963 C   0  0  0  0  0  0  0  0  0  0  0  0
   -0.8734  -54.1949  -22.1617 C   0  0  0  0  0  0  0  0  0  0  0  0
   -1.5261  -55.4347  -23.2145 Cl  0  0  0  0  0  0  0  0  0  0  0  0
    0.1913  -53.3768  -22.6199 C   0  0  0  0  0  0  0  0  0  0  0  0
    0.6161  -52.4716  -21.7579 N   0  0  0  0  0  0  0  0  0  0  0  0
    0.7287  -51.2241  -19.7108 N   0  0  0  0  0  0  0  0  0  0  0  0
    0.5978  -51.3634  -18.6467 H   0  0  0  0  0  0  0  0  0  0  0  0
    2.7616  -49.9345  -19.7604 C   0  0  0  0  0  0  0  0  0  0  0  0
    3.4735  -48.8425  -20.1884 C   0  0  0  0  0  0  0  0  0  0  0  0
    2.9630  -47.8749  -21.0043 C   0  0  0  0  0  0  0  0  0  0  0  0
    1.6496  -48.0389  -21.4013 C   0  0  0  0  0  0  0  0  0  0  0  0
    0.9124  -49.1515  -20.9694 C   0  0  0  0  0  0  0  0  0  0  0  0
    1.4238  -50.1076  -20.1609 C   0  0  0  0  0  0  0  0  0  0  0  0
    3.7370  -46.7737  -21.4308 N   0  0  0  0  0  0  0  0  0  0  0  0
    3.7814  -46.2971  -22.8066 C   0  0  0  0  0  0  0  0  0  0  0  0
    3.6482  -44.7883  -22.8647 C   0  0  0  0  0  0  0  0  0  0  0  0
    4.3289  -44.0940  -21.8192 N   0  0  0  0  0  0  0  0  0  0  0  0
    5.7424  -43.9677  -22.0207 C   0  0  0  0  0  0  0  0  0  0  0  0
    3.9947  -44.6184  -20.4941 C   0  0  0  0  0  0  0  0  0  0  0  0
    4.5651  -46.0464  -20.4984 C   0  0  0  0  0  0  0  0  0  0  0  0
    3.6631  -50.5321  -17.5996 C   0  0  0  0  0  0  0  0  0  0  0  0
    3.3464  -50.8857  -18.9270 O   0  0  0  0  0  0  0  0  0  0  0  0
    0.6967  -53.6201  -23.9180 N   0  0  0  0  0  0  0  0  0  0  0  0
    0.3700  -54.5294  -24.3625 H   0  0  0  0  0  0  0  0  0  0  0  0
    1.5429  -52.7518  -24.6243 C   0  0  0  0  0  0  0  0  0  0  0  0
    2.7106  -52.2065  -24.1399 C   0  0  0  0  0  0  0  0  0  0  0  0
    3.4882  -51.2898  -24.8690 C   0  0  0  0  0  0  0  0  0  0  0  0
    3.0375  -50.9371  -26.1239 C   0  0  0  0  0  0  0  0  0  0  0  0
    1.8771  -51.4661  -26.6304 C   0  0  0  0  0  0  0  0  0  0  0  0
    1.1170  -52.3674  -25.9106 C   0  0  0  0  0  0  0  0  0  0  0  0
   -0.3270  -53.0770  -26.5706 S   0  0  0  0  0  0  0  0  0  0  0  0
   -0.3027  -54.5775  -26.5930 O   0  0  0  0  0  0  0  0  0  0  0  0
   -1.4415  -52.7432  -25.5588 O   0  0  0  0  0  0  0  0  0  0  0  0
   -0.8453  -52.3467  -28.0789 C   0  0  0  0  0  0  0  0  0  0  0  0
   -2.3482  -52.5841  -28.2864 C   0  0  0  0  0  0  0  0  0  0  0  0
   -0.1888  -53.0279  -29.2855 C   0  0  0  0  0  0  0  0  0  0  0  0
 23 24  1  0  0  0
 24 10  1  0  0  0
 10 11  2  0  0  0
 11 12  1  0  0  0
 12 13  2  0  0  0
 13 14  1  0  0  0
 14 15  2  0  0  0
 15  8  1  0  0  0
  8  1  1  0  0  0
  1  2  2  0  0  0
  2  3  1  0  0  0
  3  4  2  0  0  0
  4  5  1  0  0  0
  4  6  1  0  0  0
  6 25  1  0  0  0
 25 27  1  0  0  0
 27 28  2  0  0  0
 28 29  1  0  0  0
 29 30  2  0  0  0
 30 31  1  0  0  0
 31 32  2  0  0  0
 32 33  1  0  0  0
 33 34  2  0  0  0
 33 35  2  0  0  0
 33 36  1  0  0  0
 36 37  1  0  0  0
 36 38  1  0  0  0
  6  7  2  0  0  0
 12 16  1  0  0  0
 16 17  1  0  0  0
 17 18  1  0  0  0
 18 19  1  0  0  0
 19 20  1  0  0  0
 19 21  1  0  0  0
 21 22  1  0  0  0
 15 10  1  0  0  0
  7  1  1  0  0  0
 22 16  1  0  0  0
 32 27  1  0  0  0
  8  9  1  0  0  0
 25 26  1  0  0  0
M  END
> <minimizedAffinity>
-8.14233

> <CNNscore>
0.1779418439

> <CNNaffinity>
6.9604249001

> <CNN_VS>
1.2385507822

> <CNNaffinity_variance>
0.2356306762

$$$$
[H]c1nc(N([H])c2c([H])c([H])c(N3C([H])([H])C([H])([H])N(C([H])([H])[H])C([H])([H])C3([H])[H])c([H])c2OC([H])([H])[H])nc(N([H])c2c([H])c([H])c([H])c([H])c2S(=O)(=O)C([H])(C([H])([H])[H])C([H])([H])[H])c1Cl


 38 41  0  0  0  0  0  0  0  0999 V2000
    1.2381  -52.6202  -23.4286 C   0  0  0  0  0  0  0  0  0  0  0  0
    0.4896  -53.6740  -23.1035 N   0  0  0  0  0  0  0  0  0  0  0  0
   -0.2037  -53.8131  -21.9820 C   0  0  0  0  0  0  0  0  0  0  0  0
   -0.1630  -52.7940  -21.0570 C   0  0  0  0  0  0  0  0  0  0  0  0
   -1.0553  -52.9124  -19.5532 Cl  0  0  0  0  0  0  0  0  0  0  0  0
    0.6099  -51.6344  -21.3228 C   0  0  0  0  0  0  0  0  0  0  0  0
    1.2466  -51.6358  -22.4794 N   0  0  0  0  0  0  0  0  0  0  0  0
    1.9869  -52.4440  -24.6144 N   0  0  0  0  0  0  0  0  0  0  0  0
    1.9384  -53.2876  -25.2887 H   0  0  0  0  0  0  0  0  0  0  0  0
    4.0449  -51.2041  -24.4545 C   0  0  0  0  0  0  0  0  0  0  0  0
    4.8175  -50.1226  -24.7947 C   0  0  0  0  0  0  0  0  0  0  0  0
    4.4055  -49.1284  -25.6342 C   0  0  0  0  0  0  0  0  0  0  0  0
    3.1301  -49.2531  -26.1514 C   0  0  0  0  0  0  0  0  0  0  0  0
    2.3316  -50.3548  -25.8100 C   0  0  0  0  0  0  0  0  0  0  0  0
    2.7454  -51.3372  -24.9776 C   0  0  0  0  0  0  0  0  0  0  0  0
    5.2400  -48.0394  -25.9671 N   0  0  0  0  0  0  0  0  0  0  0  0
    6.4659  -48.1641  -26.7440 C   0  0  0  0  0  0  0  0  0  0  0  0
    6.5413  -47.0963  -27.8174 C   0  0  0  0  0  0  0  0  0  0  0  0
    6.0470  -45.8185  -27.4158 N   0  0  0  0  0  0  0  0  0  0  0  0
    6.9602  -45.0612  -26.6114 C   0  0  0  0  0  0  0  0  0  0  0  0
    4.7109  -45.9001  -26.8235 C   0  0  0  0  0  0  0  0  0  0  0  0
    4.9207  -46.7017  -25.5281 C   0  0  0  0  0  0  0  0  0  0  0  0
    4.9037  -51.8192  -22.2813 C   0  0  0  0  0  0  0  0  0  0  0  0
    4.5296  -52.1840  -23.5906 O   0  0  0  0  0  0  0  0  0  0  0  0
    0.6054  -50.6040  -20.3543 N   0  0  0  0  0  0  0  0  0  0  0  0
   -0.0587  -50.7595  -19.5382 H   0  0  0  0  0  0  0  0  0  0  0  0
    1.4132  -49.4576  -20.4000 C   0  0  0  0  0  0  0  0  0  0  0  0
    1.4045  -48.5148  -21.4032 C   0  0  0  0  0  0  0  0  0  0  0  0
    2.2822  -47.4170  -21.4304 C   0  0  0  0  0  0  0  0  0  0  0  0
    3.1838  -47.3034  -20.3929 C   0  0  0  0  0  0  0  0  0  0  0  0
    3.2134  -48.2291  -19.3804 C   0  0  0  0  0  0  0  0  0  0  0  0
    2.3481  -49.3057  -19.3575 C   0  0  0  0  0  0  0  0  0  0  0  0
    2.3504  -50.4519  -18.0496 S   0  0  0  0  0  0  0  0  0  0  0  0
    0.9758  -50.8619  -17.6081 O   0  0  0  0  0  0  0  0  0  0  0  0
    2.9454  -51.7441  -18.6445 O   0  0  0  0  0  0  0  0  0  0  0  0
    3.4254  -50.0174  -16.7335 C   0  0  0  0  0  0  0  0  0  0  0  0
    3.7196  -51.2516  -15.8685 C   0  0  0  0  0  0  0  0  0  0  0  0
    2.7570  -49.0332  -15.7662 C   0  0  0  0  0  0  0  0  0  0  0  0
 23 24  1  0  0  0
 24 10  1  0  0  0
 10 11  2  0  0  0
 11 12  1  0  0  0
 12 13  2  0  0  0
 13 14  1  0  0  0
 14 15  2  0  0  0
 15  8  1  0  0  0
  8  1  1  0  0  0
  1  2  2  0  0  0
  2  3  1  0  0  0
  3  4  2  0  0  0
  4  5  1  0  0  0
  4  6  1  0  0  0
  6 25  1  0  0  0
 25 27  1  0  0  0
 27 28  2  0  0  0
 28 29  1  0  0  0
 29 30  2  0  0  0
 30 31  1  0  0  0
 31 32  2  0  0  0
 32 33  1  0  0  0
 33 34  2  0  0  0
 33 35  2  0  0  0
 33 36  1  0  0  0
 36 37  1  0  0  0
 36 38  1  0  0  0
  6  7  2  0  0  0
 12 16  1  0  0  0
 16 17  1  0  0  0
 17 18  1  0  0  0
 18 19  1  0  0  0
 19 20  1  0  0  0
 19 21  1  0  0  0
 21 22  1  0  0  0
 15 10  1  0  0  0
  7  1  1  0  0  0
 22 16  1  0  0  0
 32 27  1  0  0  0
  8  9  1  0  0  0
 25 26  1  0  0  0
M  END
> <minimizedAffinity>
-6.04888

> <CNNscore>
0.1452270895

> <CNNaffinity>
6.6934027672

> <CNN_VS>
0.9720634222

> <CNNaffinity_variance>
0.0871195272

$$$$
[H]c1nc(N([H])c2c([H])c([H])c(N3C([H])([H])C([H])([H])N(C([H])([H])[H])C([H])([H])C3([H])[H])c([H])c2OC([H])([H])[H])nc(N([H])c2c([H])c([H])c([H])c([H])c2S(=O)(=O)C([H])(C([H])([H])[H])C([H])([H])[H])c1Cl


 38 41  0  0  0  0  0  0  0  0999 V2000
    0.5629  -52.6880  -21.2287 C   0  0  0  0  0  0  0  0  0  0  0  0
   -0.3648  -53.1544  -22.0642 N   0  0  0  0  0  0  0  0  0  0  0  0
   -0.4729  -52.8461  -23.3492 C   0  0  0  0  0  0  0  0  0  0  0  0
    0.4407  -51.9700  -23.8909 C   0  0  0  0  0  0  0  0  0  0  0  0
    0.3558  -51.5188  -25.5822 Cl  0  0  0  0  0  0  0  0  0  0  0  0
    1.4628  -51.4251  -23.0716 C   0  0  0  0  0  0  0  0  0  0  0  0
    1.4462  -51.8226  -21.8127 N   0  0  0  0  0  0  0  0  0  0  0  0
    0.7031  -52.9980  -19.8568 N   0  0  0  0  0  0  0  0  0  0  0  0
    1.5987  -53.5583  -19.6269 H   0  0  0  0  0  0  0  0  0  0  0  0
    0.1534  -51.5701  -17.9976 C   0  0  0  0  0  0  0  0  0  0  0  0
   -0.6830  -51.2170  -16.9689 C   0  0  0  0  0  0  0  0  0  0  0  0
   -1.8437  -51.8719  -16.6743 C   0  0  0  0  0  0  0  0  0  0  0  0
   -2.1612  -52.9480  -17.4810 C   0  0  0  0  0  0  0  0  0  0  0  0
   -1.3131  -53.3178  -18.5354 C   0  0  0  0  0  0  0  0  0  0  0  0
   -0.1640  -52.6648  -18.8228 C   0  0  0  0  0  0  0  0  0  0  0  0
   -2.6812  -51.4651  -15.6129 N   0  0  0  0  0  0  0  0  0  0  0  0
   -4.1320  -51.5954  -15.6282 C   0  0  0  0  0  0  0  0  0  0  0  0
   -4.6412  -52.1665  -14.3197 C   0  0  0  0  0  0  0  0  0  0  0  0
   -3.9532  -51.6944  -13.1611 N   0  0  0  0  0  0  0  0  0  0  0  0
   -4.3510  -50.3853  -12.7339 C   0  0  0  0  0  0  0  0  0  0  0  0
   -2.5007  -51.8283  -13.2838 C   0  0  0  0  0  0  0  0  0  0  0  0
   -2.1277  -50.8647  -14.4225 C   0  0  0  0  0  0  0  0  0  0  0  0
    2.2974  -50.7658  -17.2263 C   0  0  0  0  0  0  0  0  0  0  0  0
    1.3244  -50.8559  -18.2424 O   0  0  0  0  0  0  0  0  0  0  0  0
    2.3919  -50.5464  -23.6752 N   0  0  0  0  0  0  0  0  0  0  0  0
    2.8940  -50.9410  -24.5257 H   0  0  0  0  0  0  0  0  0  0  0  0
    2.6507  -49.2357  -23.2462 C   0  0  0  0  0  0  0  0  0  0  0  0
    2.0948  -48.6340  -22.1397 C   0  0  0  0  0  0  0  0  0  0  0  0
    2.3406  -47.2942  -21.7917 C   0  0  0  0  0  0  0  0  0  0  0  0
    3.1801  -46.5720  -22.6138 C   0  0  0  0  0  0  0  0  0  0  0  0
    3.7474  -47.1478  -23.7226 C   0  0  0  0  0  0  0  0  0  0  0  0
    3.5038  -48.4650  -24.0599 C   0  0  0  0  0  0  0  0  0  0  0  0
    4.2613  -49.2108  -25.4363 S   0  0  0  0  0  0  0  0  0  0  0  0
    4.9612  -50.4983  -25.1122 O   0  0  0  0  0  0  0  0  0  0  0  0
    3.0994  -49.6452  -26.3522 O   0  0  0  0  0  0  0  0  0  0  0  0
    5.2151  -48.1009  -26.4033 C   0  0  0  0  0  0  0  0  0  0  0  0
    4.8380  -48.2405  -27.8852 C   0  0  0  0  0  0  0  0  0  0  0  0
    6.7053  -48.4598  -26.3609 C   0  0  0  0  0  0  0  0  0  0  0  0
 23 24  1  0  0  0
 24 10  1  0  0  0
 10 11  2  0  0  0
 11 12  1  0  0  0
 12 13  2  0  0  0
 13 14  1  0  0  0
 14 15  2  0  0  0
 15  8  1  0  0  0
  8  1  1  0  0  0
  1  2  2  0  0  0
  2  3  1  0  0  0
  3  4  2  0  0  0
  4  5  1  0  0  0
  4  6  1  0  0  0
  6 25  1  0  0  0
 25 27  1  0  0  0
 27 28  2  0  0  0
 28 29  1  0  0  0
 29 30  2  0  0  0
 30 31  1  0  0  0
 31 32  2  0  0  0
 32 33  1  0  0  0
 33 34  2  0  0  0
 33 35  2  0  0  0
 33 36  1  0  0  0
 36 37  1  0  0  0
 36 38  1  0  0  0
  6  7  2  0  0  0
 12 16  1  0  0  0
 16 17  1  0  0  0
 17 18  1  0  0  0
 18 19  1  0  0  0
 19 20  1  0  0  0
 19 21  1  0  0  0
 21 22  1  0  0  0
 15 10  1  0  0  0
  7  1  1  0  0  0
 22 16  1  0  0  0
 32 27  1  0  0  0
  8  9  1  0  0  0
 25 26  1  0  0  0
M  END
> <minimizedAffinity>
-6.41351

> <CNNscore>
0.1391356736

> <CNNaffinity>
6.7507567406

> <CNN_VS>
0.9392710924

> <CNNaffinity_variance>
0.1633598208

$$$$
[H]C1=C(C(=O)[O-])N2C(=O)/C(=C(\[H])c3nn4c(c3[H])C([H])([H])C([H])([H])C([H])([H])C4([H])[H])[C@@]2([H])S1


 21 24  0  0  0  0  0  0  0  0999 V2000
    0.3583  -53.4011  -24.8821 C   0  0  0  0  0  0  0  0  0  0  0  0
    1.2915  -52.4863  -24.8774 C   0  0  0  0  0  0  0  0  0  0  0  0
    1.3846  -51.8727  -23.2008 S   0  0  0  0  0  0  0  0  0  0  0  0
   -0.2646  -52.5450  -22.7210 C   0  0  0  0  0  0  0  0  0  0  0  0
   -0.2658  -53.6595  -23.6518 N   0  0  0  0  0  0  0  0  0  0  0  0
   -0.9703  -54.3863  -22.6170 C   0  0  0  0  0  0  0  0  0  0  0  0
   -1.8187  -55.3166  -22.5618 O   0  0  0  0  0  0  0  0  0  0  0  0
   -0.2325  -53.5315  -21.6579 C   0  0  0  0  0  0  0  0  0  0  0  0
    0.2005  -53.7128  -20.4211 C   0  0  0  0  0  0  0  0  0  0  0  0
    0.9102  -52.6095  -19.7920 C   0  0  0  0  0  0  0  0  0  0  0  0
    0.3026  -51.5406  -19.1613 C   0  0  0  0  0  0  0  0  0  0  0  0
    1.2951  -50.7037  -18.6950 C   0  0  0  0  0  0  0  0  0  0  0  0
    1.1514  -49.4336  -17.9560 C   0  0  0  0  0  0  0  0  0  0  0  0
    2.4341  -48.6839  -17.8217 C   0  0  0  0  0  0  0  0  0  0  0  0
    3.5108  -49.1553  -18.7550 C   0  0  0  0  0  0  0  0  0  0  0  0
    3.7083  -50.6489  -18.7093 C   0  0  0  0  0  0  0  0  0  0  0  0
    2.4453  -51.2634  -19.0404 N   0  0  0  0  0  0  0  0  0  0  0  0
    2.2127  -52.4078  -19.6990 N   0  0  0  0  0  0  0  0  0  0  0  0
   -0.9287  -53.5665  -26.9603 O   0  0  0  0  0  0  0  0  0  0  0  0
   -0.0215  -54.1460  -26.0917 C   0  0  0  0  0  0  0  0  0  0  0  0
    0.4270  -55.2779  -26.3876 O   0  0  0  0  0  0  0  0  0  0  0  0
 19 20  1  0  0  0
 20 21  2  0  0  0
 20  1  1  0  0  0
  1  2  2  0  0  0
  2  3  1  0  0  0
  3  4  1  0  0  0
  4  5  1  0  0  0
  5  6  1  0  0  0
  6  7  2  0  0  0
  6  8  1  0  0  0
  8  9  2  0  0  0
  9 10  1  0  0  0
 10 11  1  0  0  0
 11 12  2  0  0  0
 12 13  1  0  0  0
 13 14  1  0  0  0
 14 15  1  0  0  0
 15 16  1  0  0  0
 16 17  1  0  0  0
 17 18  1  0  0  0
  5  1  1  0  0  0
 18 10  2  0  0  0
  8  4  1  0  0  0
 17 12  1  0  0  0
M  CHG 1  19  -1
M  END
> <minimizedAffinity>
-7.71447

> <CNNscore>
0.3683447838

> <CNNaffinity>
5.7098817825

> <CNN_VS>
2.1032052040

> <CNNaffinity_variance>
0.1538598239

$$$$
[H]C1=C(C(=O)[O-])N2C(=O)/C(=C(\[H])c3nn4c(c3[H])C([H])([H])C([H])([H])C([H])([H])C4([H])[H])[C@@]2([H])S1


 21 24  0  0  0  0  0  0  0  0999 V2000
    0.3056  -53.2974  -24.8046 C   0  0  0  0  0  0  0  0  0  0  0  0
    1.1796  -52.3259  -24.8173 C   0  0  0  0  0  0  0  0  0  0  0  0
    1.2510  -51.6929  -23.1469 S   0  0  0  0  0  0  0  0  0  0  0  0
   -0.3478  -52.4629  -22.6440 C   0  0  0  0  0  0  0  0  0  0  0  0
   -0.2886  -53.5834  -23.5656 N   0  0  0  0  0  0  0  0  0  0  0  0
   -0.9356  -54.3438  -22.5175 C   0  0  0  0  0  0  0  0  0  0  0  0
   -1.7233  -55.3249  -22.4456 O   0  0  0  0  0  0  0  0  0  0  0  0
   -0.2432  -53.4360  -21.5733 C   0  0  0  0  0  0  0  0  0  0  0  0
    0.2129  -53.5788  -20.3398 C   0  0  0  0  0  0  0  0  0  0  0  0
    0.8582  -52.4278  -19.7273 C   0  0  0  0  0  0  0  0  0  0  0  0
    2.2198  -52.1917  -19.7362 C   0  0  0  0  0  0  0  0  0  0  0  0
    2.4499  -51.0127  -19.0581 C   0  0  0  0  0  0  0  0  0  0  0  0
    3.7386  -50.3403  -18.7992 C   0  0  0  0  0  0  0  0  0  0  0  0
    3.6272  -49.2093  -17.8328 C   0  0  0  0  0  0  0  0  0  0  0  0
    2.3497  -49.2102  -17.0452 C   0  0  0  0  0  0  0  0  0  0  0  0
    1.1279  -49.3460  -17.9175 C   0  0  0  0  0  0  0  0  0  0  0  0
    1.2634  -50.5725  -18.6655 N   0  0  0  0  0  0  0  0  0  0  0  0
    0.3085  -51.4232  -19.0680 N   0  0  0  0  0  0  0  0  0  0  0  0
   -0.9442  -53.5336  -26.8985 O   0  0  0  0  0  0  0  0  0  0  0  0
   -0.0389  -54.0752  -26.0039 C   0  0  0  0  0  0  0  0  0  0  0  0
    0.4381  -55.2031  -26.2689 O   0  0  0  0  0  0  0  0  0  0  0  0
 19 20  1  0  0  0
 20 21  2  0  0  0
 20  1  1  0  0  0
  1  2  2  0  0  0
  2  3  1  0  0  0
  3  4  1  0  0  0
  4  5  1  0  0  0
  5  6  1  0  0  0
  6  7  2  0  0  0
  6  8  1  0  0  0
  8  9  2  0  0  0
  9 10  1  0  0  0
 10 11  1  0  0  0
 11 12  2  0  0  0
 12 13  1  0  0  0
 13 14  1  0  0  0
 14 15  1  0  0  0
 15 16  1  0  0  0
 16 17  1  0  0  0
 17 18  1  0  0  0
  5  1  1  0  0  0
 18 10  2  0  0  0
  8  4  1  0  0  0
 17 12  1  0  0  0
M  CHG 1  19  -1
M  END
> <minimizedAffinity>
-7.30006

> <CNNscore>
0.2587771416

> <CNNaffinity>
5.5671558380

> <CNN_VS>
1.4406527281

> <CNNaffinity_variance>
0.1457130909

$$$$
[H]C1=C(C(=O)[O-])N2C(=O)/C(=C(\[H])c3nn4c(c3[H])C([H])([H])C([H])([H])C([H])([H])C4([H])[H])[C@@]2([H])S1


 21 24  0  0  0  0  0  0  0  0999 V2000
    2.2911  -52.1562  -25.5935 C   0  0  0  0  0  0  0  0  0  0  0  0
    2.9880  -51.4691  -24.7274 C   0  0  0  0  0  0  0  0  0  0  0  0
    2.0935  -51.5550  -23.1819 S   0  0  0  0  0  0  0  0  0  0  0  0
    0.5149  -52.0910  -23.9710 C   0  0  0  0  0  0  0  0  0  0  0  0
    1.1182  -52.7577  -25.1112 N   0  0  0  0  0  0  0  0  0  0  0  0
    0.0251  -53.7006  -25.0047 C   0  0  0  0  0  0  0  0  0  0  0  0
   -0.6329  -54.4377  -25.7870 O   0  0  0  0  0  0  0  0  0  0  0  0
    0.0405  -53.3971  -23.5547 C   0  0  0  0  0  0  0  0  0  0  0  0
   -0.2633  -54.0963  -22.4736 C   0  0  0  0  0  0  0  0  0  0  0  0
   -0.1109  -53.4373  -21.1856 C   0  0  0  0  0  0  0  0  0  0  0  0
   -1.0078  -53.5379  -20.1392 C   0  0  0  0  0  0  0  0  0  0  0  0
   -0.5269  -52.7766  -19.0941 C   0  0  0  0  0  0  0  0  0  0  0  0
   -1.1264  -52.5656  -17.7615 C   0  0  0  0  0  0  0  0  0  0  0  0
   -0.4484  -51.4943  -16.9754 C   0  0  0  0  0  0  0  0  0  0  0  0
    0.4366  -50.6065  -17.8007 C   0  0  0  0  0  0  0  0  0  0  0  0
    1.3967  -51.3829  -18.6653 C   0  0  0  0  0  0  0  0  0  0  0  0
    0.6135  -52.2482  -19.5138 N   0  0  0  0  0  0  0  0  0  0  0  0
    0.8620  -52.6458  -20.7698 N   0  0  0  0  0  0  0  0  0  0  0  0
    2.9173  -53.6028  -27.4689 O   0  0  0  0  0  0  0  0  0  0  0  0
    2.7019  -52.3211  -26.9957 C   0  0  0  0  0  0  0  0  0  0  0  0
    2.8696  -51.3697  -27.7935 O   0  0  0  0  0  0  0  0  0  0  0  0
 19 20  1  0  0  0
 20 21  2  0  0  0
 20  1  1  0  0  0
  1  2  2  0  0  0
  2  3  1  0  0  0
  3  4  1  0  0  0
  4  5  1  0  0  0
  5  6  1  0  0  0
  6  7  2  0  0  0
  6  8  1  0  0  0
  8  9  2  0  0  0
  9 10  1  0  0  0
 10 11  1  0  0  0
 11 12  2  0  0  0
 12 13  1  0  0  0
 13 14  1  0  0  0
 14 15  1  0  0  0
 15 16  1  0  0  0
 16 17  1  0  0  0
 17 18  1  0  0  0
  5  1  1  0  0  0
 18 10  2  0  0  0
  8  4  1  0  0  0
 17 12  1  0  0  0
M  CHG 1  19  -1
M  END
> <minimizedAffinity>
-7.65057

> <CNNscore>
0.2541150153

> <CNNaffinity>
5.6682577133

> <CNN_VS>
1.4403893948

> <CNNaffinity_variance>
0.0630640611

$$$$
[H]C1=C(C(=O)[O-])N2C(=O)/C(=C(\[H])c3nn4c(c3[H])C([H])([H])C([H])([H])C([H])([H])C4([H])[H])[C@@]2([H])S1


 21 24  0  0  0  0  0  0  0  0999 V2000
   -0.5123  -52.7836  -27.7023 C   0  0  0  0  0  0  0  0  0  0  0  0
   -1.5275  -52.4317  -26.9584 C   0  0  0  0  0  0  0  0  0  0  0  0
   -0.9297  -52.4037  -25.2738 S   0  0  0  0  0  0  0  0  0  0  0  0
    0.5658  -53.4170  -25.6461 C   0  0  0  0  0  0  0  0  0  0  0  0
    0.7007  -53.0090  -27.0331 N   0  0  0  0  0  0  0  0  0  0  0  0
    2.1281  -53.1023  -26.8119 C   0  0  0  0  0  0  0  0  0  0  0  0
    3.1502  -53.3649  -27.5009 O   0  0  0  0  0  0  0  0  0  0  0  0
    1.8293  -52.7464  -25.4052 C   0  0  0  0  0  0  0  0  0  0  0  0
    2.5010  -52.1016  -24.4654 C   0  0  0  0  0  0  0  0  0  0  0  0
    1.8551  -51.9411  -23.1717 C   0  0  0  0  0  0  0  0  0  0  0  0
    1.9214  -50.8000  -22.3952 C   0  0  0  0  0  0  0  0  0  0  0  0
    1.1916  -51.0261  -21.2466 C   0  0  0  0  0  0  0  0  0  0  0  0
    0.9621  -50.1109  -20.1110 C   0  0  0  0  0  0  0  0  0  0  0  0
    0.3211  -50.7769  -18.9401 C   0  0  0  0  0  0  0  0  0  0  0  0
    0.3770  -52.2758  -18.9916 C   0  0  0  0  0  0  0  0  0  0  0  0
   -0.1058  -52.8317  -20.3069 C   0  0  0  0  0  0  0  0  0  0  0  0
    0.7134  -52.2578  -21.3469 N   0  0  0  0  0  0  0  0  0  0  0  0
    1.1126  -52.8061  -22.5034 N   0  0  0  0  0  0  0  0  0  0  0  0
   -1.8235  -53.2832  -29.7106 O   0  0  0  0  0  0  0  0  0  0  0  0
   -0.6053  -52.9235  -29.1631 C   0  0  0  0  0  0  0  0  0  0  0  0
    0.3535  -52.7364  -29.9477 O   0  0  0  0  0  0  0  0  0  0  0  0
 19 20  1  0  0  0
 20 21  2  0  0  0
 20  1  1  0  0  0
  1  2  2  0  0  0
  2  3  1  0  0  0
  3  4  1  0  0  0
  4  5  1  0  0  0
  5  6  1  0  0  0
  6  7  2  0  0  0
  6  8  1  0  0  0
  8  9  2  0  0  0
  9 10  1  0  0  0
 10 11  1  0  0  0
 11 12  2  0  0  0
 12 13  1  0  0  0
 13 14  1  0  0  0
 14 15  1  0  0  0
 15 16  1  0  0  0
 16 17  1  0  0  0
 17 18  1  0  0  0
  5  1  1  0  0  0
 18 10  2  0  0  0
  8  4  1  0  0  0
 17 12  1  0  0  0
M  CHG 1  19  -1
M  END
> <minimizedAffinity>
-7.04264

> <CNNscore>
0.2359994650

> <CNNaffinity>
5.8965692520

> <CNN_VS>
1.3915871382

> <CNNaffinity_variance>
0.0912482217

$$$$
[H]C1=C(C(=O)[O-])N2C(=O)/C(=C(\[H])c3nn4c(c3[H])C([H])([H])C([H])([H])C([H])([H])C4([H])[H])[C@@]2([H])S1


 21 24  0  0  0  0  0  0  0  0999 V2000
    1.8394  -51.4664  -21.2230 C   0  0  0  0  0  0  0  0  0  0  0  0
    0.5549  -51.3594  -21.4389 C   0  0  0  0  0  0  0  0  0  0  0  0
    0.3278  -51.5178  -23.2051 S   0  0  0  0  0  0  0  0  0  0  0  0
    2.0975  -51.1778  -23.5982 C   0  0  0  0  0  0  0  0  0  0  0  0
    2.6439  -51.6850  -22.3521 N   0  0  0  0  0  0  0  0  0  0  0  0
    3.7662  -52.1331  -23.1489 C   0  0  0  0  0  0  0  0  0  0  0  0
    5.0001  -52.3219  -22.9751 O   0  0  0  0  0  0  0  0  0  0  0  0
    2.7932  -52.2662  -24.2581 C   0  0  0  0  0  0  0  0  0  0  0  0
    2.7136  -53.0643  -25.3102 C   0  0  0  0  0  0  0  0  0  0  0  0
    1.5734  -52.8907  -26.1970 C   0  0  0  0  0  0  0  0  0  0  0  0
    0.2680  -52.7215  -25.7766 C   0  0  0  0  0  0  0  0  0  0  0  0
   -0.5252  -52.5936  -26.8980 C   0  0  0  0  0  0  0  0  0  0  0  0
   -1.9863  -52.3939  -26.9698 C   0  0  0  0  0  0  0  0  0  0  0  0
   -2.5313  -52.5358  -28.3512 C   0  0  0  0  0  0  0  0  0  0  0  0
   -1.5881  -53.2051  -29.3077 C   0  0  0  0  0  0  0  0  0  0  0  0
   -0.2106  -52.5932  -29.2912 C   0  0  0  0  0  0  0  0  0  0  0  0
    0.2880  -52.6843  -27.9402 N   0  0  0  0  0  0  0  0  0  0  0  0
    1.5479  -52.8627  -27.5179 N   0  0  0  0  0  0  0  0  0  0  0  0
    1.9171  -50.4572  -18.9919 O   0  0  0  0  0  0  0  0  0  0  0  0
    2.4311  -51.3854  -19.8793 C   0  0  0  0  0  0  0  0  0  0  0  0
    3.3759  -52.1075  -19.4847 O   0  0  0  0  0  0  0  0  0  0  0  0
 19 20  1  0  0  0
 20 21  2  0  0  0
 20  1  1  0  0  0
  1  2  2  0  0  0
  2  3  1  0  0  0
  3  4  1  0  0  0
  4  5  1  0  0  0
  5  6  1  0  0  0
  6  7  2  0  0  0
  6  8  1  0  0  0
  8  9  2  0  0  0
  9 10  1  0  0  0
 10 11  1  0  0  0
 11 12  2  0  0  0
 12 13  1  0  0  0
 13 14  1  0  0  0
 14 15  1  0  0  0
 15 16  1  0  0  0
 16 17  1  0  0  0
 17 18  1  0  0  0
  5  1  1  0  0  0
 18 10  2  0  0  0
  8  4  1  0  0  0
 17 12  1  0  0  0
M  CHG 1  19  -1
M  END
> <minimizedAffinity>
-6.72527

> <CNNscore>
0.2332164049

> <CNNaffinity>
5.7179818153

> <CNN_VS>
1.3335272074

> <CNNaffinity_variance>
0.3592187762

$$$$
[H]C1=C(C(=O)[O-])N2C(=O)/C(=C(\[H])c3nn4c(c3[H])C([H])([H])C([H])([H])C([H])([H])C4([H])[H])[C@@]2([H])S1


 21 24  0  0  0  0  0  0  0  0999 V2000
   -0.2190  -52.4629  -19.6216 C   0  0  0  0  0  0  0  0  0  0  0  0
   -0.5079  -53.5711  -20.2511 C   0  0  0  0  0  0  0  0  0  0  0  0
   -0.2961  -53.2289  -21.9930 S   0  0  0  0  0  0  0  0  0  0  0  0
   -0.3442  -51.3979  -21.7760 C   0  0  0  0  0  0  0  0  0  0  0  0
    0.1758  -51.3785  -20.4204 N   0  0  0  0  0  0  0  0  0  0  0  0
    0.8284  -50.1437  -20.8008 C   0  0  0  0  0  0  0  0  0  0  0  0
    1.1925  -49.0818  -20.2280 O   0  0  0  0  0  0  0  0  0  0  0  0
    0.8690  -50.7074  -22.1703 C   0  0  0  0  0  0  0  0  0  0  0  0
    1.6982  -50.5640  -23.1910 C   0  0  0  0  0  0  0  0  0  0  0  0
    1.3996  -51.3073  -24.4055 C   0  0  0  0  0  0  0  0  0  0  0  0
    2.3497  -51.8344  -25.2592 C   0  0  0  0  0  0  0  0  0  0  0  0
    1.6879  -52.4625  -26.2939 C   0  0  0  0  0  0  0  0  0  0  0  0
    2.2633  -53.1741  -27.4525 C   0  0  0  0  0  0  0  0  0  0  0  0
    1.2498  -53.5222  -28.4904 C   0  0  0  0  0  0  0  0  0  0  0  0
   -0.0449  -52.7772  -28.3454 C   0  0  0  0  0  0  0  0  0  0  0  0
   -0.6037  -52.8472  -26.9473 C   0  0  0  0  0  0  0  0  0  0  0  0
    0.3938  -52.3090  -26.0543 N   0  0  0  0  0  0  0  0  0  0  0  0
    0.2221  -51.6152  -24.9200 N   0  0  0  0  0  0  0  0  0  0  0  0
    0.5022  -51.3723  -17.5497 O   0  0  0  0  0  0  0  0  0  0  0  0
   -0.2777  -52.3394  -18.1575 C   0  0  0  0  0  0  0  0  0  0  0  0
   -0.9932  -53.0580  -17.4216 O   0  0  0  0  0  0  0  0  0  0  0  0
 19 20  1  0  0  0
 20 21  2  0  0  0
 20  1  1  0  0  0
  1  2  2  0  0  0
  2  3  1  0  0  0
  3  4  1  0  0  0
  4  5  1  0  0  0
  5  6  1  0  0  0
  6  7  2  0  0  0
  6  8  1  0  0  0
  8  9  2  0  0  0
  9 10  1  0  0  0
 10 11  1  0  0  0
 11 12  2  0  0  0
 12 13  1  0  0  0
 13 14  1  0  0  0
 14 15  1  0  0  0
 15 16  1  0  0  0
 16 17  1  0  0  0
 17 18  1  0  0  0
  5  1  1  0  0  0
 18 10  2  0  0  0
  8  4  1  0  0  0
 17 12  1  0  0  0
M  CHG 1  19  -1
M  END
> <minimizedAffinity>
-6.52011

> <CNNscore>
0.2121757418

> <CNNaffinity>
5.5996718407

> <CNN_VS>
1.1881145239

> <CNNaffinity_variance>
0.1434295177

$$$$
[H]C1=C(C(=O)[O-])N2C(=O)/C(=C(\[H])c3nn4c(c3[H])C([H])([H])C([H])([H])C([H])([H])C4([H])[H])[C@@]2([H])S1


 21 24  0  0  0  0  0  0  0  0999 V2000
    1.5140  -52.9768  -25.2159 C   0  0  0  0  0  0  0  0  0  0  0  0
    2.4103  -52.1521  -24.7423 C   0  0  0  0  0  0  0  0  0  0  0  0
    1.9300  -51.8030  -23.0560 S   0  0  0  0  0  0  0  0  0  0  0  0
    0.2004  -52.4019  -23.2832 C   0  0  0  0  0  0  0  0  0  0  0  0
    0.4946  -53.3625  -24.3316 N   0  0  0  0  0  0  0  0  0  0  0  0
   -0.5441  -54.1744  -23.7339 C   0  0  0  0  0  0  0  0  0  0  0  0
   -1.3821  -55.0303  -24.1258 O   0  0  0  0  0  0  0  0  0  0  0  0
   -0.1644  -53.5341  -22.4530 C   0  0  0  0  0  0  0  0  0  0  0  0
   -0.1934  -53.9312  -21.1914 C   0  0  0  0  0  0  0  0  0  0  0  0
    0.2810  -52.9949  -20.1840 C   0  0  0  0  0  0  0  0  0  0  0  0
   -0.5101  -52.4249  -19.2048 C   0  0  0  0  0  0  0  0  0  0  0  0
    0.2881  -51.5950  -18.4450 C   0  0  0  0  0  0  0  0  0  0  0  0
   -0.0936  -50.7669  -17.2838 C   0  0  0  0  0  0  0  0  0  0  0  0
    0.9781  -49.8193  -16.8607 C   0  0  0  0  0  0  0  0  0  0  0  0
    2.0536  -49.6242  -17.8891 C   0  0  0  0  0  0  0  0  0  0  0  0
    2.6073  -50.9270  -18.4070 C   0  0  0  0  0  0  0  0  0  0  0  0
    1.5057  -51.6763  -18.9612 N   0  0  0  0  0  0  0  0  0  0  0  0
    1.5000  -52.5173  -20.0054 N   0  0  0  0  0  0  0  0  0  0  0  0
    2.5749  -53.0670  -27.4224 O   0  0  0  0  0  0  0  0  0  0  0  0
    1.5599  -53.5010  -26.5890 C   0  0  0  0  0  0  0  0  0  0  0  0
    0.7341  -54.3202  -27.0545 O   0  0  0  0  0  0  0  0  0  0  0  0
 19 20  1  0  0  0
 20 21  2  0  0  0
 20  1  1  0  0  0
  1  2  2  0  0  0
  2  3  1  0  0  0
  3  4  1  0  0  0
  4  5  1  0  0  0
  5  6  1  0  0  0
  6  7  2  0  0  0
  6  8  1  0  0  0
  8  9  2  0  0  0
  9 10  1  0  0  0
 10 11  1  0  0  0
 11 12  2  0  0  0
 12 13  1  0  0  0
 13 14  1  0  0  0
 14 15  1  0  0  0
 15 16  1  0  0  0
 16 17  1  0  0  0
 17 18  1  0  0  0
  5  1  1  0  0  0
 18 10  2  0  0  0
  8  4  1  0  0  0
 17 12  1  0  0  0
M  CHG 1  19  -1
M  END
> <minimizedAffinity>
-6.97017

> <CNNscore>
0.1786359847

> <CNNaffinity>
5.5977673531

> <CNN_VS>
0.9999626875

> <CNNaffinity_variance>
0.2025440186

$$$$
[H]C1=C(C(=O)[O-])N2C(=O)/C(=C(\[H])c3nn4c(c3[H])C([H])([H])C([H])([H])C([H])([H])C4([H])[H])[C@@]2([H])S1


 21 24  0  0  0  0  0  0  0  0999 V2000
   -0.4496  -53.1436  -22.0631 C   0  0  0  0  0  0  0  0  0  0  0  0
   -0.0250  -52.8657  -23.2674 C   0  0  0  0  0  0  0  0  0  0  0  0
    0.8764  -51.3271  -23.1394 S   0  0  0  0  0  0  0  0  0  0  0  0
    0.1432  -50.8783  -21.5076 C   0  0  0  0  0  0  0  0  0  0  0  0
   -0.0921  -52.2371  -21.0529 N   0  0  0  0  0  0  0  0  0  0  0  0
    0.2255  -51.7379  -19.7318 C   0  0  0  0  0  0  0  0  0  0  0  0
   -0.0955  -52.0108  -18.5440 O   0  0  0  0  0  0  0  0  0  0  0  0
    1.0997  -50.7620  -20.4232 C   0  0  0  0  0  0  0  0  0  0  0  0
    2.2210  -50.1451  -20.0883 C   0  0  0  0  0  0  0  0  0  0  0  0
    2.8019  -49.2358  -21.0641 C   0  0  0  0  0  0  0  0  0  0  0  0
    2.2660  -48.0114  -21.4154 C   0  0  0  0  0  0  0  0  0  0  0  0
    3.0904  -47.4449  -22.3654 C   0  0  0  0  0  0  0  0  0  0  0  0
    2.9438  -46.1442  -23.0484 C   0  0  0  0  0  0  0  0  0  0  0  0
    3.8944  -45.9669  -24.1843 C   0  0  0  0  0  0  0  0  0  0  0  0
    4.5346  -47.2447  -24.6423 C   0  0  0  0  0  0  0  0  0  0  0  0
    5.1333  -48.0355  -23.5073 C   0  0  0  0  0  0  0  0  0  0  0  0
    4.0761  -48.3078  -22.5638 N   0  0  0  0  0  0  0  0  0  0  0  0
    3.9016  -49.3828  -21.7817 N   0  0  0  0  0  0  0  0  0  0  0  0
   -1.8994  -54.3990  -20.5386 O   0  0  0  0  0  0  0  0  0  0  0  0
   -1.2424  -54.3429  -21.7545 C   0  0  0  0  0  0  0  0  0  0  0  0
   -1.3617  -55.3222  -22.5268 O   0  0  0  0  0  0  0  0  0  0  0  0
 19 20  1  0  0  0
 20 21  2  0  0  0
 20  1  1  0  0  0
  1  2  2  0  0  0
  2  3  1  0  0  0
  3  4  1  0  0  0
  4  5  1  0  0  0
  5  6  1  0  0  0
  6  7  2  0  0  0
  6  8  1  0  0  0
  8  9  2  0  0  0
  9 10  1  0  0  0
 10 11  1  0  0  0
 11 12  2  0  0  0
 12 13  1  0  0  0
 13 14  1  0  0  0
 14 15  1  0  0  0
 15 16  1  0  0  0
 16 17  1  0  0  0
 17 18  1  0  0  0
  5  1  1  0  0  0
 18 10  2  0  0  0
  8  4  1  0  0  0
 17 12  1  0  0  0
M  CHG 1  19  -1
M  END
> <minimizedAffinity>
-5.86725

> <CNNscore>
0.1348152608

> <CNNaffinity>
5.0773954391

> <CNN_VS>
0.6845104098

> <CNNaffinity_variance>
0.1102271229

$$$$
[H]C1=C(C(=O)[O-])N2C(=O)/C(=C(\[H])c3nn4c(c3[H])C([H])([H])C([H])([H])C([H])([H])C4([H])[H])[C@@]2([H])S1


 21 24  0  0  0  0  0  0  0  0999 V2000
    0.7091  -52.7404  -25.5411 C   0  0  0  0  0  0  0  0  0  0  0  0
    1.4728  -51.7507  -25.1600 C   0  0  0  0  0  0  0  0  0  0  0  0
    1.2107  -51.5626  -23.4016 S   0  0  0  0  0  0  0  0  0  0  0  0
   -0.3636  -52.5235  -23.3978 C   0  0  0  0  0  0  0  0  0  0  0  0
   -0.0455  -53.3662  -24.5367 N   0  0  0  0  0  0  0  0  0  0  0  0
   -0.7741  -54.4040  -23.8386 C   0  0  0  0  0  0  0  0  0  0  0  0
   -1.4616  -55.4133  -24.1500 O   0  0  0  0  0  0  0  0  0  0  0  0
   -0.3366  -53.7305  -22.5937 C   0  0  0  0  0  0  0  0  0  0  0  0
   -0.0734  -54.1582  -21.3698 C   0  0  0  0  0  0  0  0  0  0  0  0
    0.3471  -53.1677  -20.3907 C   0  0  0  0  0  0  0  0  0  0  0  0
    1.6525  -52.7580  -20.1965 C   0  0  0  0  0  0  0  0  0  0  0  0
    1.6556  -51.8169  -19.1878 C   0  0  0  0  0  0  0  0  0  0  0  0
    2.8054  -51.0854  -18.6199 C   0  0  0  0  0  0  0  0  0  0  0  0
    2.4639  -50.3223  -17.3844 C   0  0  0  0  0  0  0  0  0  0  0  0
    1.1617  -50.7323  -16.7608 C   0  0  0  0  0  0  0  0  0  0  0  0
    0.0261  -50.7641  -17.7516 C   0  0  0  0  0  0  0  0  0  0  0  0
    0.3948  -51.6795  -18.8043 N   0  0  0  0  0  0  0  0  0  0  0  0
   -0.3899  -52.4912  -19.5274 N   0  0  0  0  0  0  0  0  0  0  0  0
    0.5141  -54.5612  -27.1686 O   0  0  0  0  0  0  0  0  0  0  0  0
    0.6415  -53.2039  -26.9349 C   0  0  0  0  0  0  0  0  0  0  0  0
    0.6920  -52.4437  -27.9297 O   0  0  0  0  0  0  0  0  0  0  0  0
 19 20  1  0  0  0
 20 21  2  0  0  0
 20  1  1  0  0  0
  1  2  2  0  0  0
  2  3  1  0  0  0
  3  4  1  0  0  0
  4  5  1  0  0  0
  5  6  1  0  0  0
  6  7  2  0  0  0
  6  8  1  0  0  0
  8  9  2  0  0  0
  9 10  1  0  0  0
 10 11  1  0  0  0
 11 12  2  0  0  0
 12 13  1  0  0  0
 13 14  1  0  0  0
 14 15  1  0  0  0
 15 16  1  0  0  0
 16 17  1  0  0  0
 17 18  1  0  0  0
  5  1  1  0  0  0
 18 10  2  0  0  0
  8  4  1  0  0  0
 17 12  1  0  0  0
M  CHG 1  19  -1
M  END
> <minimizedAffinity>
-6.93077

> <CNNscore>
0.1270574629

> <CNNaffinity>
5.4910202026

> <CNN_VS>
0.6976751089

> <CNNaffinity_variance>
0.1284755319

$$$$
[H]c1c([H])c([H])c2c(c1[H])N=C(N1C([H])([H])C([H])([H])N(C([H])([H])[H])C([H])([H])C1([H])[H])c1c([H])c(Cl)c([H])c([H])c1S2


 23 26  0  0  0  0  0  0  0  0999 V2000
   -0.5973  -54.3956  -23.9511 C   0  0  0  0  0  0  0  0  0  0  0  0
   -0.7680  -55.6453  -23.7468 N   0  0  0  0  0  0  0  0  0  0  0  0
   -1.0103  -56.7244  -24.6004 C   0  0  0  0  0  0  0  0  0  0  0  0
   -1.7156  -57.7414  -23.9486 C   0  0  0  0  0  0  0  0  0  0  0  0
   -2.0654  -58.9005  -24.5838 C   0  0  0  0  0  0  0  0  0  0  0  0
   -1.7139  -59.0740  -25.9039 C   0  0  0  0  0  0  0  0  0  0  0  0
   -1.0248  -58.0997  -26.5695 C   0  0  0  0  0  0  0  0  0  0  0  0
   -0.6864  -56.9431  -25.9034 C   0  0  0  0  0  0  0  0  0  0  0  0
    0.2103  -55.7936  -26.9570 S   0  0  0  0  0  0  0  0  0  0  0  0
   -0.3154  -54.1407  -26.5219 C   0  0  0  0  0  0  0  0  0  0  0  0
   -0.3860  -53.3479  -27.6454 C   0  0  0  0  0  0  0  0  0  0  0  0
   -0.7843  -52.0371  -27.4960 C   0  0  0  0  0  0  0  0  0  0  0  0
   -1.0926  -51.5758  -26.2446 C   0  0  0  0  0  0  0  0  0  0  0  0
   -1.6102  -49.9147  -25.9644 Cl  0  0  0  0  0  0  0  0  0  0  0  0
   -1.0112  -52.4015  -25.1300 C   0  0  0  0  0  0  0  0  0  0  0  0
   -0.6140  -53.7215  -25.2519 C   0  0  0  0  0  0  0  0  0  0  0  0
   -1.4549  -53.3352  -19.0040 C   0  0  0  0  0  0  0  0  0  0  0  0
   -1.1419  -53.4622  -20.4004 N   0  0  0  0  0  0  0  0  0  0  0  0
    0.1537  -54.0965  -20.5418 C   0  0  0  0  0  0  0  0  0  0  0  0
    0.7104  -53.8543  -21.9311 C   0  0  0  0  0  0  0  0  0  0  0  0
   -0.3657  -53.5468  -22.8386 N   0  0  0  0  0  0  0  0  0  0  0  0
   -1.1811  -52.3917  -22.5784 C   0  0  0  0  0  0  0  0  0  0  0  0
   -1.2380  -52.1900  -21.0742 C   0  0  0  0  0  0  0  0  0  0  0  0
 17 18  1  0  0  0
 18 19  1  0  0  0
 19 20  1  0  0  0
 20 21  1  0  0  0
 21 22  1  0  0  0
 22 23  1  0  0  0
 21  1  1  0  0  0
  1  2  2  0  0  0
  2  3  1  0  0  0
  3  4  2  0  0  0
  4  5  1  0  0  0
  5  6  2  0  0  0
  6  7  1  0  0  0
  7  8  2  0  0  0
  8  9  1  0  0  0
  9 10  1  0  0  0
 10 11  2  0  0  0
 11 12  1  0  0  0
 12 13  2  0  0  0
 13 14  1  0  0  0
 13 15  1  0  0  0
 15 16  2  0  0  0
 23 18  1  0  0  0
 16  1  1  0  0  0
  8  3  1  0  0  0
 16 10  1  0  0  0
M  END
> <minimizedAffinity>
8.71457

> <CNNscore>
0.5890437961

> <CNNaffinity>
6.1913766861

> <CNN_VS>
3.6469919682

> <CNNaffinity_variance>
0.3602742553

$$$$
[H]c1c([H])c([H])c2c(c1[H])N=C(N1C([H])([H])C([H])([H])N(C([H])([H])[H])C([H])([H])C1([H])[H])c1c([H])c(Cl)c([H])c([H])c1S2


 23 26  0  0  0  0  0  0  0  0999 V2000
    1.9659  -51.4099  -21.7900 C   0  0  0  0  0  0  0  0  0  0  0  0
    1.8930  -51.1500  -20.5411 N   0  0  0  0  0  0  0  0  0  0  0  0
    0.9766  -51.5037  -19.5477 C   0  0  0  0  0  0  0  0  0  0  0  0
    0.9348  -50.5463  -18.5287 C   0  0  0  0  0  0  0  0  0  0  0  0
    0.1111  -50.6786  -17.4455 C   0  0  0  0  0  0  0  0  0  0  0  0
   -0.7020  -51.7862  -17.3528 C   0  0  0  0  0  0  0  0  0  0  0  0
   -0.6852  -52.7398  -18.3314 C   0  0  0  0  0  0  0  0  0  0  0  0
    0.1548  -52.5790  -19.4104 C   0  0  0  0  0  0  0  0  0  0  0  0
    0.0205  -53.9386  -20.5805 S   0  0  0  0  0  0  0  0  0  0  0  0
    0.1873  -53.2543  -22.2241 C   0  0  0  0  0  0  0  0  0  0  0  0
   -0.6450  -53.9094  -23.1038 C   0  0  0  0  0  0  0  0  0  0  0  0
   -0.6517  -53.5048  -24.4211 C   0  0  0  0  0  0  0  0  0  0  0  0
    0.1638  -52.4738  -24.8028 C   0  0  0  0  0  0  0  0  0  0  0  0
    0.2172  -51.8937  -26.4661 Cl  0  0  0  0  0  0  0  0  0  0  0  0
    0.9929  -51.8328  -23.8905 C   0  0  0  0  0  0  0  0  0  0  0  0
    1.0193  -52.2191  -22.5618 C   0  0  0  0  0  0  0  0  0  0  0  0
    3.7113  -49.4826  -26.2142 C   0  0  0  0  0  0  0  0  0  0  0  0
    3.4005  -50.0361  -24.9253 N   0  0  0  0  0  0  0  0  0  0  0  0
    3.1551  -48.9561  -23.9903 C   0  0  0  0  0  0  0  0  0  0  0  0
    3.2617  -49.4592  -22.5640 C   0  0  0  0  0  0  0  0  0  0  0  0
    3.0526  -50.8845  -22.5350 N   0  0  0  0  0  0  0  0  0  0  0  0
    3.9484  -51.7302  -23.2759 C   0  0  0  0  0  0  0  0  0  0  0  0
    4.4256  -50.9537  -24.4907 C   0  0  0  0  0  0  0  0  0  0  0  0
 17 18  1  0  0  0
 18 19  1  0  0  0
 19 20  1  0  0  0
 20 21  1  0  0  0
 21 22  1  0  0  0
 22 23  1  0  0  0
 21  1  1  0  0  0
  1  2  2  0  0  0
  2  3  1  0  0  0
  3  4  2  0  0  0
  4  5  1  0  0  0
  5  6  2  0  0  0
  6  7  1  0  0  0
  7  8  2  0  0  0
  8  9  1  0  0  0
  9 10  1  0  0  0
 10 11  2  0  0  0
 11 12  1  0  0  0
 12 13  2  0  0  0
 13 14  1  0  0  0
 13 15  1  0  0  0
 15 16  2  0  0  0
 23 18  1  0  0  0
 16  1  1  0  0  0
  8  3  1  0  0  0
 16 10  1  0  0  0
M  END
> <minimizedAffinity>
-7.51325

> <CNNscore>
0.5117759705

> <CNNaffinity>
6.0908784866

> <CNN_VS>
3.1171653271

> <CNNaffinity_variance>
0.1710410714

$$$$
[H]c1c([H])c([H])c2c(c1[H])N=C(N1C([H])([H])C([H])([H])N(C([H])([H])[H])C([H])([H])C1([H])[H])c1c([H])c(Cl)c([H])c([H])c1S2


 23 26  0  0  0  0  0  0  0  0999 V2000
    1.4308  -51.2441  -21.4174 C   0  0  0  0  0  0  0  0  0  0  0  0
    1.3542  -50.9037  -20.1882 N   0  0  0  0  0  0  0  0  0  0  0  0
    0.5610  -51.3454  -19.1264 C   0  0  0  0  0  0  0  0  0  0  0  0
    0.3707  -50.3353  -18.1778 C   0  0  0  0  0  0  0  0  0  0  0  0
   -0.3714  -50.5355  -17.0471 C   0  0  0  0  0  0  0  0  0  0  0  0
   -0.9494  -51.7671  -16.8338 C   0  0  0  0  0  0  0  0  0  0  0  0
   -0.7828  -52.7751  -17.7412 C   0  0  0  0  0  0  0  0  0  0  0  0
   -0.0301  -52.5437  -18.8706 C   0  0  0  0  0  0  0  0  0  0  0  0
    0.0604  -53.9931  -19.9319 S   0  0  0  0  0  0  0  0  0  0  0  0
    0.0308  -53.4234  -21.6267 C   0  0  0  0  0  0  0  0  0  0  0  0
   -0.6896  -54.2941  -22.4134 C   0  0  0  0  0  0  0  0  0  0  0  0
   -0.8229  -54.0052  -23.7542 C   0  0  0  0  0  0  0  0  0  0  0  0
   -0.2382  -52.8712  -24.2501 C   0  0  0  0  0  0  0  0  0  0  0  0
   -0.3594  -52.4268  -25.9511 Cl  0  0  0  0  0  0  0  0  0  0  0  0
    0.4829  -52.0123  -23.4296 C   0  0  0  0  0  0  0  0  0  0  0  0
    0.6324  -52.2787  -22.0798 C   0  0  0  0  0  0  0  0  0  0  0  0
    6.0895  -49.1672  -21.9811 C   0  0  0  0  0  0  0  0  0  0  0  0
    4.7426  -49.6674  -21.9842 N   0  0  0  0  0  0  0  0  0  0  0  0
    4.7278  -50.9904  -22.5761 C   0  0  0  0  0  0  0  0  0  0  0  0
    3.3202  -51.3632  -22.9984 C   0  0  0  0  0  0  0  0  0  0  0  0
    2.3665  -50.5819  -22.2528 N   0  0  0  0  0  0  0  0  0  0  0  0
    2.4030  -49.1495  -22.3704 C   0  0  0  0  0  0  0  0  0  0  0  0
    3.8429  -48.7388  -22.6246 C   0  0  0  0  0  0  0  0  0  0  0  0
 17 18  1  0  0  0
 18 19  1  0  0  0
 19 20  1  0  0  0
 20 21  1  0  0  0
 21 22  1  0  0  0
 22 23  1  0  0  0
 21  1  1  0  0  0
  1  2  2  0  0  0
  2  3  1  0  0  0
  3  4  2  0  0  0
  4  5  1  0  0  0
  5  6  2  0  0  0
  6  7  1  0  0  0
  7  8  2  0  0  0
  8  9  1  0  0  0
  9 10  1  0  0  0
 10 11  2  0  0  0
 11 12  1  0  0  0
 12 13  2  0  0  0
 13 14  1  0  0  0
 13 15  1  0  0  0
 15 16  2  0  0  0
 23 18  1  0  0  0
 16  1  1  0  0  0
  8  3  1  0  0  0
 16 10  1  0  0  0
M  END
> <minimizedAffinity>
-7.15027

> <CNNscore>
0.5098875761

> <CNNaffinity>
5.9364995956

> <CNN_VS>
3.0269474983

> <CNNaffinity_variance>
0.1437070966

$$$$
[H]c1c([H])c([H])c2c(c1[H])N=C(N1C([H])([H])C([H])([H])N(C([H])([H])[H])C([H])([H])C1([H])[H])c1c([H])c(Cl)c([H])c([H])c1S2


 23 26  0  0  0  0  0  0  0  0999 V2000
    1.9518  -51.3139  -23.0526 C   0  0  0  0  0  0  0  0  0  0  0  0
    2.4539  -50.1842  -22.7296 N   0  0  0  0  0  0  0  0  0  0  0  0
    2.5325  -49.4889  -21.5204 C   0  0  0  0  0  0  0  0  0  0  0  0
    2.5954  -48.1074  -21.7301 C   0  0  0  0  0  0  0  0  0  0  0  0
    2.6799  -47.2214  -20.6922 C   0  0  0  0  0  0  0  0  0  0  0  0
    2.7041  -47.7011  -19.4016 C   0  0  0  0  0  0  0  0  0  0  0  0
    2.6442  -49.0452  -19.1625 C   0  0  0  0  0  0  0  0  0  0  0  0
    2.5594  -49.9130  -20.2281 C   0  0  0  0  0  0  0  0  0  0  0  0
    2.4872  -51.6302  -19.6977 S   0  0  0  0  0  0  0  0  0  0  0  0
    1.3807  -52.4915  -20.8075 C   0  0  0  0  0  0  0  0  0  0  0  0
    0.6462  -53.4312  -20.1195 C   0  0  0  0  0  0  0  0  0  0  0  0
   -0.2679  -54.1872  -20.8209 C   0  0  0  0  0  0  0  0  0  0  0  0
   -0.4104  -53.9767  -22.1660 C   0  0  0  0  0  0  0  0  0  0  0  0
   -1.5554  -54.8986  -23.1380 Cl  0  0  0  0  0  0  0  0  0  0  0  0
    0.3463  -53.0201  -22.8316 C   0  0  0  0  0  0  0  0  0  0  0  0
    1.2713  -52.2475  -22.1515 C   0  0  0  0  0  0  0  0  0  0  0  0
   -0.0807  -53.9656  -26.9476 C   0  0  0  0  0  0  0  0  0  0  0  0
    0.6420  -53.2128  -25.9601 N   0  0  0  0  0  0  0  0  0  0  0  0
    0.3547  -51.8026  -26.1327 C   0  0  0  0  0  0  0  0  0  0  0  0
    1.4030  -50.9614  -25.4313 C   0  0  0  0  0  0  0  0  0  0  0  0
    2.0424  -51.7411  -24.4021 N   0  0  0  0  0  0  0  0  0  0  0  0
    2.7434  -52.9390  -24.7768 C   0  0  0  0  0  0  0  0  0  0  0  0
    2.0506  -53.5231  -25.9956 C   0  0  0  0  0  0  0  0  0  0  0  0
 17 18  1  0  0  0
 18 19  1  0  0  0
 19 20  1  0  0  0
 20 21  1  0  0  0
 21 22  1  0  0  0
 22 23  1  0  0  0
 21  1  1  0  0  0
  1  2  2  0  0  0
  2  3  1  0  0  0
  3  4  2  0  0  0
  4  5  1  0  0  0
  5  6  2  0  0  0
  6  7  1  0  0  0
  7  8  2  0  0  0
  8  9  1  0  0  0
  9 10  1  0  0  0
 10 11  2  0  0  0
 11 12  1  0  0  0
 12 13  2  0  0  0
 13 14  1  0  0  0
 13 15  1  0  0  0
 15 16  2  0  0  0
 23 18  1  0  0  0
 16  1  1  0  0  0
  8  3  1  0  0  0
 16 10  1  0  0  0
M  END
> <minimizedAffinity>
-6.87683

> <CNNscore>
0.3269828856

> <CNNaffinity>
6.0650691986

> <CNN_VS>
1.9831738472

> <CNNaffinity_variance>
0.0932135358

$$$$
[H]c1c([H])c([H])c2c(c1[H])N=C(N1C([H])([H])C([H])([H])N(C([H])([H])[H])C([H])([H])C1([H])[H])c1c([H])c(Cl)c([H])c([H])c1S2


 23 26  0  0  0  0  0  0  0  0999 V2000
   -0.0648  -52.4517  -23.2415 C   0  0  0  0  0  0  0  0  0  0  0  0
   -0.6898  -52.6019  -22.1372 N   0  0  0  0  0  0  0  0  0  0  0  0
   -0.4081  -52.2157  -20.8244 C   0  0  0  0  0  0  0  0  0  0  0  0
   -1.0067  -53.0781  -19.9000 C   0  0  0  0  0  0  0  0  0  0  0  0
   -0.8727  -52.8983  -18.5513 C   0  0  0  0  0  0  0  0  0  0  0  0
   -0.1269  -51.8378  -18.0871 C   0  0  0  0  0  0  0  0  0  0  0  0
    0.4710  -50.9770  -18.9639 C   0  0  0  0  0  0  0  0  0  0  0  0
    0.3181  -51.1836  -20.3166 C   0  0  0  0  0  0  0  0  0  0  0  0
    1.1848  -49.9456  -21.2921 S   0  0  0  0  0  0  0  0  0  0  0  0
    1.8462  -50.7641  -22.7379 C   0  0  0  0  0  0  0  0  0  0  0  0
    3.0779  -50.2421  -23.0638 C   0  0  0  0  0  0  0  0  0  0  0  0
    3.7406  -50.7634  -24.1538 C   0  0  0  0  0  0  0  0  0  0  0  0
    3.1533  -51.7738  -24.8666 C   0  0  0  0  0  0  0  0  0  0  0  0
    3.9311  -52.4972  -26.2728 Cl  0  0  0  0  0  0  0  0  0  0  0  0
    1.9085  -52.2791  -24.5119 C   0  0  0  0  0  0  0  0  0  0  0  0
    1.2215  -51.7737  -23.4221 C   0  0  0  0  0  0  0  0  0  0  0  0
    0.5890  -54.1149  -28.0519 C   0  0  0  0  0  0  0  0  0  0  0  0
    0.2244  -53.6493  -26.7425 N   0  0  0  0  0  0  0  0  0  0  0  0
    0.1055  -54.7850  -25.8498 C   0  0  0  0  0  0  0  0  0  0  0  0
   -0.6869  -54.4039  -24.6146 C   0  0  0  0  0  0  0  0  0  0  0  0
   -0.6383  -52.9760  -24.4281 N   0  0  0  0  0  0  0  0  0  0  0  0
   -1.1634  -52.1252  -25.4611 C   0  0  0  0  0  0  0  0  0  0  0  0
   -0.9607  -52.8280  -26.7922 C   0  0  0  0  0  0  0  0  0  0  0  0
 17 18  1  0  0  0
 18 19  1  0  0  0
 19 20  1  0  0  0
 20 21  1  0  0  0
 21 22  1  0  0  0
 22 23  1  0  0  0
 21  1  1  0  0  0
  1  2  2  0  0  0
  2  3  1  0  0  0
  3  4  2  0  0  0
  4  5  1  0  0  0
  5  6  2  0  0  0
  6  7  1  0  0  0
  7  8  2  0  0  0
  8  9  1  0  0  0
  9 10  1  0  0  0
 10 11  2  0  0  0
 11 12  1  0  0  0
 12 13  2  0  0  0
 13 14  1  0  0  0
 13 15  1  0  0  0
 15 16  2  0  0  0
 23 18  1  0  0  0
 16  1  1  0  0  0
  8  3  1  0  0  0
 16 10  1  0  0  0
M  END
> <minimizedAffinity>
-7.79576

> <CNNscore>
0.2940299213

> <CNNaffinity>
6.2367925644

> <CNN_VS>
1.8338036537

> <CNNaffinity_variance>
0.0888124928

$$$$
[H]c1c([H])c([H])c2c(c1[H])N=C(N1C([H])([H])C([H])([H])N(C([H])([H])[H])C([H])([H])C1([H])[H])c1c([H])c(Cl)c([H])c([H])c1S2


 23 26  0  0  0  0  0  0  0  0999 V2000
    1.9585  -51.5328  -23.7533 C   0  0  0  0  0  0  0  0  0  0  0  0
    2.3252  -51.5591  -24.9770 N   0  0  0  0  0  0  0  0  0  0  0  0
    1.8810  -52.2802  -26.0880 C   0  0  0  0  0  0  0  0  0  0  0  0
    2.9061  -52.4590  -27.0227 C   0  0  0  0  0  0  0  0  0  0  0  0
    2.7066  -53.1345  -28.1945 C   0  0  0  0  0  0  0  0  0  0  0  0
    1.4605  -53.6550  -28.4645 C   0  0  0  0  0  0  0  0  0  0  0  0
    0.4377  -53.4979  -27.5722 C   0  0  0  0  0  0  0  0  0  0  0  0
    0.6688  -52.8129  -26.4004 C   0  0  0  0  0  0  0  0  0  0  0  0
   -0.8014  -52.7232  -25.3681 S   0  0  0  0  0  0  0  0  0  0  0  0
   -0.2738  -52.8603  -23.6649 C   0  0  0  0  0  0  0  0  0  0  0  0
   -1.1882  -53.5872  -22.9360 C   0  0  0  0  0  0  0  0  0  0  0  0
   -0.9364  -53.7993  -21.5979 C   0  0  0  0  0  0  0  0  0  0  0  0
    0.2056  -53.2829  -21.0475 C   0  0  0  0  0  0  0  0  0  0  0  0
    0.6046  -53.5071  -19.3457 Cl  0  0  0  0  0  0  0  0  0  0  0  0
    1.1091  -52.5532  -21.8103 C   0  0  0  0  0  0  0  0  0  0  0  0
    0.8805  -52.3253  -23.1561 C   0  0  0  0  0  0  0  0  0  0  0  0
    5.0726  -47.5127  -23.0638 C   0  0  0  0  0  0  0  0  0  0  0  0
    4.2244  -48.6723  -23.0762 N   0  0  0  0  0  0  0  0  0  0  0  0
    2.8490  -48.2577  -22.8828 C   0  0  0  0  0  0  0  0  0  0  0  0
    1.9985  -49.4370  -22.4533 C   0  0  0  0  0  0  0  0  0  0  0  0
    2.6336  -50.6660  -22.8561 N   0  0  0  0  0  0  0  0  0  0  0  0
    3.9421  -50.9688  -22.3433 C   0  0  0  0  0  0  0  0  0  0  0  0
    4.6707  -49.6552  -22.1191 C   0  0  0  0  0  0  0  0  0  0  0  0
 17 18  1  0  0  0
 18 19  1  0  0  0
 19 20  1  0  0  0
 20 21  1  0  0  0
 21 22  1  0  0  0
 22 23  1  0  0  0
 21  1  1  0  0  0
  1  2  2  0  0  0
  2  3  1  0  0  0
  3  4  2  0  0  0
  4  5  1  0  0  0
  5  6  2  0  0  0
  6  7  1  0  0  0
  7  8  2  0  0  0
  8  9  1  0  0  0
  9 10  1  0  0  0
 10 11  2  0  0  0
 11 12  1  0  0  0
 12 13  2  0  0  0
 13 14  1  0  0  0
 13 15  1  0  0  0
 15 16  2  0  0  0
 23 18  1  0  0  0
 16  1  1  0  0  0
  8  3  1  0  0  0
 16 10  1  0  0  0
M  END
> <minimizedAffinity>
-6.78393

> <CNNscore>
0.2879050672

> <CNNaffinity>
5.9529252052

> <CNN_VS>
1.7138773203

> <CNNaffinity_variance>
0.1946258247

$$$$
[H]c1c([H])c([H])c2c(c1[H])N=C(N1C([H])([H])C([H])([H])N(C([H])([H])[H])C([H])([H])C1([H])[H])c1c([H])c(Cl)c([H])c([H])c1S2


 23 26  0  0  0  0  0  0  0  0999 V2000
    1.3394  -50.8997  -19.5193 C   0  0  0  0  0  0  0  0  0  0  0  0
    1.2181  -50.3149  -18.3898 N   0  0  0  0  0  0  0  0  0  0  0  0
    0.2299  -50.3478  -17.4027 C   0  0  0  0  0  0  0  0  0  0  0  0
    0.1967  -49.1538  -16.6749 C   0  0  0  0  0  0  0  0  0  0  0  0
   -0.6894  -48.9541  -15.6530 C   0  0  0  0  0  0  0  0  0  0  0  0
   -1.5761  -49.9567  -15.3290 C   0  0  0  0  0  0  0  0  0  0  0  0
   -1.5696  -51.1352  -16.0206 C   0  0  0  0  0  0  0  0  0  0  0  0
   -0.6656  -51.3072  -17.0448 C   0  0  0  0  0  0  0  0  0  0  0  0
   -0.8260  -52.9200  -17.8248 S   0  0  0  0  0  0  0  0  0  0  0  0
   -0.5294  -52.7047  -19.5750 C   0  0  0  0  0  0  0  0  0  0  0  0
   -1.3551  -53.5284  -20.3069 C   0  0  0  0  0  0  0  0  0  0  0  0
   -1.2666  -53.4876  -21.6815 C   0  0  0  0  0  0  0  0  0  0  0  0
   -0.3673  -52.6355  -22.2636 C   0  0  0  0  0  0  0  0  0  0  0  0
   -0.1896  -52.5202  -24.0131 Cl  0  0  0  0  0  0  0  0  0  0  0  0
    0.4524  -51.8165  -21.4968 C   0  0  0  0  0  0  0  0  0  0  0  0
    0.3842  -51.8377  -20.1148 C   0  0  0  0  0  0  0  0  0  0  0  0
    3.5895  -50.8957  -24.1314 C   0  0  0  0  0  0  0  0  0  0  0  0
    3.1293  -50.8711  -22.7706 N   0  0  0  0  0  0  0  0  0  0  0  0
    2.7176  -49.5233  -22.4318 C   0  0  0  0  0  0  0  0  0  0  0  0
    2.6502  -49.3553  -20.9265 C   0  0  0  0  0  0  0  0  0  0  0  0
    2.4952  -50.6438  -20.3006 N   0  0  0  0  0  0  0  0  0  0  0  0
    3.5155  -51.6368  -20.5000 C   0  0  0  0  0  0  0  0  0  0  0  0
    4.1216  -51.4136  -21.8746 C   0  0  0  0  0  0  0  0  0  0  0  0
 17 18  1  0  0  0
 18 19  1  0  0  0
 19 20  1  0  0  0
 20 21  1  0  0  0
 21 22  1  0  0  0
 22 23  1  0  0  0
 21  1  1  0  0  0
  1  2  2  0  0  0
  2  3  1  0  0  0
  3  4  2  0  0  0
  4  5  1  0  0  0
  5  6  2  0  0  0
  6  7  1  0  0  0
  7  8  2  0  0  0
  8  9  1  0  0  0
  9 10  1  0  0  0
 10 11  2  0  0  0
 11 12  1  0  0  0
 12 13  2  0  0  0
 13 14  1  0  0  0
 13 15  1  0  0  0
 15 16  2  0  0  0
 23 18  1  0  0  0
 16  1  1  0  0  0
  8  3  1  0  0  0
 16 10  1  0  0  0
M  END
> <minimizedAffinity>
-7.08752

> <CNNscore>
0.2771940827

> <CNNaffinity>
5.4740104675

> <CNN_VS>
1.5173633099

> <CNNaffinity_variance>
0.1528314203

$$$$
[H]c1c([H])c([H])c2c(c1[H])N=C(N1C([H])([H])C([H])([H])N(C([H])([H])[H])C([H])([H])C1([H])[H])c1c([H])c(Cl)c([H])c([H])c1S2


 23 26  0  0  0  0  0  0  0  0999 V2000
    1.6041  -50.7390  -23.1491 C   0  0  0  0  0  0  0  0  0  0  0  0
    2.0686  -50.7319  -24.3394 N   0  0  0  0  0  0  0  0  0  0  0  0
    1.8703  -51.5654  -25.4430 C   0  0  0  0  0  0  0  0  0  0  0  0
    2.9841  -51.5642  -26.2891 C   0  0  0  0  0  0  0  0  0  0  0  0
    3.0207  -52.3055  -27.4374 C   0  0  0  0  0  0  0  0  0  0  0  0
    1.9301  -53.0766  -27.7726 C   0  0  0  0  0  0  0  0  0  0  0  0
    0.8263  -53.0999  -26.9675 C   0  0  0  0  0  0  0  0  0  0  0  0
    0.8187  -52.3429  -25.8174 C   0  0  0  0  0  0  0  0  0  0  0  0
   -0.7201  -52.5181  -24.9026 S   0  0  0  0  0  0  0  0  0  0  0  0
   -0.3183  -52.4876  -23.1603 C   0  0  0  0  0  0  0  0  0  0  0  0
   -1.1264  -53.3596  -22.4659 C   0  0  0  0  0  0  0  0  0  0  0  0
   -0.9488  -53.4708  -21.1038 C   0  0  0  0  0  0  0  0  0  0  0  0
    0.0179  -52.7153  -20.4968 C   0  0  0  0  0  0  0  0  0  0  0  0
    0.3116  -52.7962  -18.7610 Cl  0  0  0  0  0  0  0  0  0  0  0  0
    0.8176  -51.8439  -21.2260 C   0  0  0  0  0  0  0  0  0  0  0  0
    0.6602  -51.7128  -22.5947 C   0  0  0  0  0  0  0  0  0  0  0  0
    2.9695  -49.4068  -18.3852 C   0  0  0  0  0  0  0  0  0  0  0  0
    2.5754  -49.5981  -19.7535 N   0  0  0  0  0  0  0  0  0  0  0  0
    3.7612  -49.7411  -20.5746 C   0  0  0  0  0  0  0  0  0  0  0  0
    3.4240  -49.5032  -22.0335 C   0  0  0  0  0  0  0  0  0  0  0  0
    2.0164  -49.7235  -22.2487 N   0  0  0  0  0  0  0  0  0  0  0  0
    1.0716  -48.9119  -21.5308 C   0  0  0  0  0  0  0  0  0  0  0  0
    1.6922  -48.5457  -20.1939 C   0  0  0  0  0  0  0  0  0  0  0  0
 17 18  1  0  0  0
 18 19  1  0  0  0
 19 20  1  0  0  0
 20 21  1  0  0  0
 21 22  1  0  0  0
 22 23  1  0  0  0
 21  1  1  0  0  0
  1  2  2  0  0  0
  2  3  1  0  0  0
  3  4  2  0  0  0
  4  5  1  0  0  0
  5  6  2  0  0  0
  6  7  1  0  0  0
  7  8  2  0  0  0
  8  9  1  0  0  0
  9 10  1  0  0  0
 10 11  2  0  0  0
 11 12  1  0  0  0
 12 13  2  0  0  0
 13 14  1  0  0  0
 13 15  1  0  0  0
 15 16  2  0  0  0
 23 18  1  0  0  0
 16  1  1  0  0  0
  8  3  1  0  0  0
 16 10  1  0  0  0
M  END
> <minimizedAffinity>
-6.76233

> <CNNscore>
0.2657501400

> <CNNaffinity>
5.9512400627

> <CNN_VS>
1.5815428495

> <CNNaffinity_variance>
0.1955934316

$$$$
[H]c1c([H])c([H])c2c(c1[H])N=C(N1C([H])([H])C([H])([H])N(C([H])([H])[H])C([H])([H])C1([H])[H])c1c([H])c(Cl)c([H])c([H])c1S2


 23 26  0  0  0  0  0  0  0  0999 V2000
    1.7220  -50.7124  -20.2774 C   0  0  0  0  0  0  0  0  0  0  0  0
    0.9655  -51.7244  -20.0872 N   0  0  0  0  0  0  0  0  0  0  0  0
    0.3007  -52.5921  -20.9572 C   0  0  0  0  0  0  0  0  0  0  0  0
   -0.8459  -53.1297  -20.3633 C   0  0  0  0  0  0  0  0  0  0  0  0
   -1.6582  -54.0089  -21.0240 C   0  0  0  0  0  0  0  0  0  0  0  0
   -1.3399  -54.3774  -22.3122 C   0  0  0  0  0  0  0  0  0  0  0  0
   -0.2267  -53.8703  -22.9211 C   0  0  0  0  0  0  0  0  0  0  0  0
    0.5721  -52.9868  -22.2305 C   0  0  0  0  0  0  0  0  0  0  0  0
    1.9776  -52.4381  -23.2097 S   0  0  0  0  0  0  0  0  0  0  0  0
    2.2696  -50.7179  -22.8178 C   0  0  0  0  0  0  0  0  0  0  0  0
    2.6618  -50.0288  -23.9435 C   0  0  0  0  0  0  0  0  0  0  0  0
    2.9233  -48.6809  -23.8261 C   0  0  0  0  0  0  0  0  0  0  0  0
    2.7841  -48.0819  -22.6032 C   0  0  0  0  0  0  0  0  0  0  0  0
    3.0978  -46.3642  -22.3650 Cl  0  0  0  0  0  0  0  0  0  0  0  0
    2.3864  -48.8054  -21.4855 C   0  0  0  0  0  0  0  0  0  0  0  0
    2.1177  -50.1600  -21.5755 C   0  0  0  0  0  0  0  0  0  0  0  0
    2.6066  -50.6535  -15.2229 C   0  0  0  0  0  0  0  0  0  0  0  0
    2.4045  -50.4904  -16.6359 N   0  0  0  0  0  0  0  0  0  0  0  0
    3.6200  -50.8564  -17.3357 C   0  0  0  0  0  0  0  0  0  0  0  0
    3.6076  -50.2937  -18.7435 C   0  0  0  0  0  0  0  0  0  0  0  0
    2.2502  -50.0326  -19.1501 N   0  0  0  0  0  0  0  0  0  0  0  0
    1.4679  -49.0971  -18.3887 C   0  0  0  0  0  0  0  0  0  0  0  0
    1.9384  -49.1607  -16.9461 C   0  0  0  0  0  0  0  0  0  0  0  0
 17 18  1  0  0  0
 18 19  1  0  0  0
 19 20  1  0  0  0
 20 21  1  0  0  0
 21 22  1  0  0  0
 22 23  1  0  0  0
 21  1  1  0  0  0
  1  2  2  0  0  0
  2  3  1  0  0  0
  3  4  2  0  0  0
  4  5  1  0  0  0
  5  6  2  0  0  0
  6  7  1  0  0  0
  7  8  2  0  0  0
  8  9  1  0  0  0
  9 10  1  0  0  0
 10 11  2  0  0  0
 11 12  1  0  0  0
 12 13  2  0  0  0
 13 14  1  0  0  0
 13 15  1  0  0  0
 15 16  2  0  0  0
 23 18  1  0  0  0
 16  1  1  0  0  0
  8  3  1  0  0  0
 16 10  1  0  0  0
M  END
> <minimizedAffinity>
-6.47375

> <CNNscore>
0.2472554147

> <CNNaffinity>
5.5157918930

> <CNN_VS>
1.3638094664

> <CNNaffinity_variance>
0.0664779395

$$$$
[H]OC(=O)c1c([H])nc(-c2c([H])nc(C([H])([H])[H])nc2OC([H])([H])[C@@]2([H])C([H])([H])[C@]2([H])c2nc([H])c(OC([H])([H])[H])c([H])c2[H])c([H])c1[H]


 30 33  0  0  0  0  0  0  0  0999 V2000
    0.3865  -52.6755  -21.0654 C   0  0  0  0  0  0  0  0  0  0  0  0
    0.1605  -53.4229  -22.1891 N   0  0  0  0  0  0  0  0  0  0  0  0
   -0.8439  -54.2924  -22.2744 C   0  0  0  0  0  0  0  0  0  0  0  0
   -1.0661  -55.0993  -23.5223 C   0  0  0  0  0  0  0  0  0  0  0  0
   -1.6557  -54.4323  -21.2162 N   0  0  0  0  0  0  0  0  0  0  0  0
   -1.4700  -53.7243  -20.1042 C   0  0  0  0  0  0  0  0  0  0  0  0
   -0.4176  -52.7949  -19.9773 C   0  0  0  0  0  0  0  0  0  0  0  0
   -0.2995  -52.0475  -18.7246 C   0  0  0  0  0  0  0  0  0  0  0  0
    0.3834  -50.8855  -18.5726 C   0  0  0  0  0  0  0  0  0  0  0  0
    0.4822  -50.2157  -17.3450 C   0  0  0  0  0  0  0  0  0  0  0  0
   -0.1372  -50.7603  -16.2569 C   0  0  0  0  0  0  0  0  0  0  0  0
   -0.8142  -51.9321  -16.4536 C   0  0  0  0  0  0  0  0  0  0  0  0
   -0.9079  -52.5646  -17.6120 N   0  0  0  0  0  0  0  0  0  0  0  0
   -0.0687  -50.1047  -14.9445 C   0  0  0  0  0  0  0  0  0  0  0  0
   -1.1932  -49.8770  -14.1883 O   0  0  0  0  0  0  0  0  0  0  0  0
    1.0534  -49.7448  -14.5075 O   0  0  0  0  0  0  0  0  0  0  0  0
   -1.1563  -49.3387  -13.3574 H   0  0  0  0  0  0  0  0  0  0  0  0
    1.4412  -51.8001  -21.0564 O   0  0  0  0  0  0  0  0  0  0  0  0
    2.6319  -51.8778  -21.7669 C   0  0  0  0  0  0  0  0  0  0  0  0
    2.8311  -52.6878  -24.1676 C   0  0  0  0  0  0  0  0  0  0  0  0
    3.8383  -51.5511  -23.9753 C   0  0  0  0  0  0  0  0  0  0  0  0
    2.5135  -51.5803  -23.2421 C   0  0  0  0  0  0  0  0  0  0  0  0
    1.0430  -52.7658  -28.0253 C   0  0  0  0  0  0  0  0  0  0  0  0
    0.2939  -52.4476  -26.9143 C   0  0  0  0  0  0  0  0  0  0  0  0
    0.9285  -52.4360  -25.6721 C   0  0  0  0  0  0  0  0  0  0  0  0
    2.2656  -52.7312  -25.5331 C   0  0  0  0  0  0  0  0  0  0  0  0
    2.9634  -53.0364  -26.6371 N   0  0  0  0  0  0  0  0  0  0  0  0
    2.3856  -53.0583  -27.8577 C   0  0  0  0  0  0  0  0  0  0  0  0
   -0.9325  -52.7923  -29.4584 C   0  0  0  0  0  0  0  0  0  0  0  0
    0.4700  -52.7944  -29.2858 O   0  0  0  0  0  0  0  0  0  0  0  0
 29 30  1  0  0  0
 30 23  1  0  0  0
 23 24  2  0  0  0
 24 25  1  0  0  0
 25 26  2  0  0  0
 26 27  1  0  0  0
 27 28  2  0  0  0
 26 20  1  0  0  0
 20 21  1  0  0  0
 21 22  1  0  0  0
 22 19  1  0  0  0
 19 18  1  0  0  0
 18  1  1  0  0  0
  1  2  2  0  0  0
  2  3  1  0  0  0
  3  4  1  0  0  0
  3  5  2  0  0  0
  5  6  1  0  0  0
  6  7  2  0  0  0
  7  8  1  0  0  0
  8  9  2  0  0  0
  9 10  1  0  0  0
 10 11  2  0  0  0
 11 12  1  0  0  0
 12 13  2  0  0  0
 11 14  1  0  0  0
 14 15  1  0  0  0
 14 16  2  0  0  0
 28 23  1  0  0  0
 22 20  1  0  0  0
  7  1  1  0  0  0
 13  8  1  0  0  0
 15 17  1  0  0  0
M  END
> <minimizedAffinity>
-8.05511

> <CNNscore>
0.8364980221

> <CNNaffinity>
6.9436426163

> <CNN_VS>
5.8083434105

> <CNNaffinity_variance>
0.1612870693

$$$$
[H]OC(=O)c1c([H])nc(-c2c([H])nc(C([H])([H])[H])nc2OC([H])([H])[C@@]2([H])C([H])([H])[C@]2([H])c2nc([H])c(OC([H])([H])[H])c([H])c2[H])c([H])c1[H]


 30 33  0  0  0  0  0  0  0  0999 V2000
    0.4343  -52.8708  -21.3062 C   0  0  0  0  0  0  0  0  0  0  0  0
    0.1611  -53.6572  -22.3922 N   0  0  0  0  0  0  0  0  0  0  0  0
   -0.9078  -54.4489  -22.4456 C   0  0  0  0  0  0  0  0  0  0  0  0
   -1.1806  -55.3016  -23.6525 C   0  0  0  0  0  0  0  0  0  0  0  0
   -1.7383  -54.4682  -21.3930 N   0  0  0  0  0  0  0  0  0  0  0  0
   -1.5083  -53.7185  -20.3173 C   0  0  0  0  0  0  0  0  0  0  0  0
   -0.3873  -52.8686  -20.2247 C   0  0  0  0  0  0  0  0  0  0  0  0
   -0.2230  -52.0669  -19.0114 C   0  0  0  0  0  0  0  0  0  0  0  0
    0.4338  -50.8821  -18.9442 C   0  0  0  0  0  0  0  0  0  0  0  0
    0.5797  -50.1593  -17.7518 C   0  0  0  0  0  0  0  0  0  0  0  0
    0.0358  -50.6742  -16.6102 C   0  0  0  0  0  0  0  0  0  0  0  0
   -0.6173  -51.8704  -16.7220 C   0  0  0  0  0  0  0  0  0  0  0  0
   -0.7555  -52.5529  -17.8471 N   0  0  0  0  0  0  0  0  0  0  0  0
    0.1564  -49.9629  -15.3310 C   0  0  0  0  0  0  0  0  0  0  0  0
    1.2561  -50.1103  -14.5203 O   0  0  0  0  0  0  0  0  0  0  0  0
   -0.7764  -49.1997  -14.9745 O   0  0  0  0  0  0  0  0  0  0  0  0
    1.2843  -49.7164  -13.6117 H   0  0  0  0  0  0  0  0  0  0  0  0
    1.5545  -52.0811  -21.3286 O   0  0  0  0  0  0  0  0  0  0  0  0
    2.3973  -51.8109  -22.3987 C   0  0  0  0  0  0  0  0  0  0  0  0
    3.1293  -49.4818  -23.1048 C   0  0  0  0  0  0  0  0  0  0  0  0
    1.8706  -49.3333  -22.2460 C   0  0  0  0  0  0  0  0  0  0  0  0
    2.0918  -50.5335  -23.1428 C   0  0  0  0  0  0  0  0  0  0  0  0
    3.3945  -46.6767  -26.2901 C   0  0  0  0  0  0  0  0  0  0  0  0
    3.3064  -48.0258  -26.5528 C   0  0  0  0  0  0  0  0  0  0  0  0
    3.2214  -48.9039  -25.4722 C   0  0  0  0  0  0  0  0  0  0  0  0
    3.2237  -48.4600  -24.1693 C   0  0  0  0  0  0  0  0  0  0  0  0
    3.3108  -47.1394  -23.9519 N   0  0  0  0  0  0  0  0  0  0  0  0
    3.3946  -46.2569  -24.9710 C   0  0  0  0  0  0  0  0  0  0  0  0
    2.5575  -45.7547  -28.3893 C   0  0  0  0  0  0  0  0  0  0  0  0
    3.4818  -45.7553  -27.3204 O   0  0  0  0  0  0  0  0  0  0  0  0
 29 30  1  0  0  0
 30 23  1  0  0  0
 23 24  2  0  0  0
 24 25  1  0  0  0
 25 26  2  0  0  0
 26 27  1  0  0  0
 27 28  2  0  0  0
 26 20  1  0  0  0
 20 21  1  0  0  0
 21 22  1  0  0  0
 22 19  1  0  0  0
 19 18  1  0  0  0
 18  1  1  0  0  0
  1  2  2  0  0  0
  2  3  1  0  0  0
  3  4  1  0  0  0
  3  5  2  0  0  0
  5  6  1  0  0  0
  6  7  2  0  0  0
  7  8  1  0  0  0
  8  9  2  0  0  0
  9 10  1  0  0  0
 10 11  2  0  0  0
 11 12  1  0  0  0
 12 13  2  0  0  0
 11 14  1  0  0  0
 14 15  1  0  0  0
 14 16  2  0  0  0
 28 23  1  0  0  0
 22 20  1  0  0  0
  7  1  1  0  0  0
 13  8  1  0  0  0
 15 17  1  0  0  0
M  END
> <minimizedAffinity>
-6.81487

> <CNNscore>
0.6882512569

> <CNNaffinity>
6.4904222488

> <CNN_VS>
4.4670414925

> <CNNaffinity_variance>
0.2844290137

$$$$
[H]OC(=O)c1c([H])nc(-c2c([H])nc(C([H])([H])[H])nc2OC([H])([H])[C@@]2([H])C([H])([H])[C@]2([H])c2nc([H])c(OC([H])([H])[H])c([H])c2[H])c([H])c1[H]


 30 33  0  0  0  0  0  0  0  0999 V2000
    0.3978  -52.8549  -21.2297 C   0  0  0  0  0  0  0  0  0  0  0  0
    0.1543  -53.6038  -22.3487 N   0  0  0  0  0  0  0  0  0  0  0  0
   -0.8897  -54.4247  -22.4414 C   0  0  0  0  0  0  0  0  0  0  0  0
   -1.1303  -55.2347  -23.6839 C   0  0  0  0  0  0  0  0  0  0  0  0
   -1.7246  -54.5126  -21.3956 N   0  0  0  0  0  0  0  0  0  0  0  0
   -1.5229  -53.8012  -20.2886 C   0  0  0  0  0  0  0  0  0  0  0  0
   -0.4289  -52.9223  -20.1542 C   0  0  0  0  0  0  0  0  0  0  0  0
   -0.2952  -52.1667  -18.9080 C   0  0  0  0  0  0  0  0  0  0  0  0
    0.4117  -51.0178  -18.7661 C   0  0  0  0  0  0  0  0  0  0  0  0
    0.5245  -50.3396  -17.5443 C   0  0  0  0  0  0  0  0  0  0  0  0
   -0.1059  -50.8617  -16.4516 C   0  0  0  0  0  0  0  0  0  0  0  0
   -0.8071  -52.0208  -16.6381 C   0  0  0  0  0  0  0  0  0  0  0  0
   -0.9141  -52.6613  -17.7910 N   0  0  0  0  0  0  0  0  0  0  0  0
   -0.0238  -50.1963  -15.1450 C   0  0  0  0  0  0  0  0  0  0  0  0
    1.0575  -50.3626  -14.3134 O   0  0  0  0  0  0  0  0  0  0  0  0
   -0.9729  -49.4555  -14.7842 O   0  0  0  0  0  0  0  0  0  0  0  0
    1.0596  -50.0016  -13.3908 H   0  0  0  0  0  0  0  0  0  0  0  0
    1.4935  -52.0315  -21.2126 O   0  0  0  0  0  0  0  0  0  0  0  0
    2.2556  -51.5885  -22.2857 C   0  0  0  0  0  0  0  0  0  0  0  0
    2.7754  -49.3829  -21.1349 C   0  0  0  0  0  0  0  0  0  0  0  0
    1.3364  -49.3096  -21.6523 C   0  0  0  0  0  0  0  0  0  0  0  0
    2.4110  -50.0899  -22.3804 C   0  0  0  0  0  0  0  0  0  0  0  0
    4.8434  -45.6758  -21.3919 C   0  0  0  0  0  0  0  0  0  0  0  0
    5.0044  -46.6346  -22.3673 C   0  0  0  0  0  0  0  0  0  0  0  0
    4.3032  -47.8334  -22.2358 C   0  0  0  0  0  0  0  0  0  0  0  0
    3.4670  -48.0764  -21.1699 C   0  0  0  0  0  0  0  0  0  0  0  0
    3.3348  -47.1195  -20.2395 N   0  0  0  0  0  0  0  0  0  0  0  0
    3.9963  -45.9455  -20.3308 C   0  0  0  0  0  0  0  0  0  0  0  0
    6.6575  -44.3048  -22.2788 C   0  0  0  0  0  0  0  0  0  0  0  0
    5.5127  -44.4655  -21.4662 O   0  0  0  0  0  0  0  0  0  0  0  0
 29 30  1  0  0  0
 30 23  1  0  0  0
 23 24  2  0  0  0
 24 25  1  0  0  0
 25 26  2  0  0  0
 26 27  1  0  0  0
 27 28  2  0  0  0
 26 20  1  0  0  0
 20 21  1  0  0  0
 21 22  1  0  0  0
 22 19  1  0  0  0
 19 18  1  0  0  0
 18  1  1  0  0  0
  1  2  2  0  0  0
  2  3  1  0  0  0
  3  4  1  0  0  0
  3  5  2  0  0  0
  5  6  1  0  0  0
  6  7  2  0  0  0
  7  8  1  0  0  0
  8  9  2  0  0  0
  9 10  1  0  0  0
 10 11  2  0  0  0
 11 12  1  0  0  0
 12 13  2  0  0  0
 11 14  1  0  0  0
 14 15  1  0  0  0
 14 16  2  0  0  0
 28 23  1  0  0  0
 22 20  1  0  0  0
  7  1  1  0  0  0
 13  8  1  0  0  0
 15 17  1  0  0  0
M  END
> <minimizedAffinity>
-6.09847

> <CNNscore>
0.6559356451

> <CNNaffinity>
6.3648977280

> <CNN_VS>
4.1749634743

> <CNNaffinity_variance>
0.2340336591

$$$$
[H]OC(=O)c1c([H])nc(-c2c([H])nc(C([H])([H])[H])nc2OC([H])([H])[C@@]2([H])C([H])([H])[C@]2([H])c2nc([H])c(OC([H])([H])[H])c([H])c2[H])c([H])c1[H]


 30 33  0  0  0  0  0  0  0  0999 V2000
    1.2312  -51.9842  -20.7972 C   0  0  0  0  0  0  0  0  0  0  0  0
    0.6243  -52.8186  -21.6960 N   0  0  0  0  0  0  0  0  0  0  0  0
   -0.3942  -53.6068  -21.3588 C   0  0  0  0  0  0  0  0  0  0  0  0
   -1.0398  -54.5129  -22.3687 C   0  0  0  0  0  0  0  0  0  0  0  0
   -0.8319  -53.5735  -20.0916 N   0  0  0  0  0  0  0  0  0  0  0  0
   -0.2687  -52.7760  -19.1866 C   0  0  0  0  0  0  0  0  0  0  0  0
    0.8112  -51.9281  -19.5068 C   0  0  0  0  0  0  0  0  0  0  0  0
    1.3571  -51.0721  -18.4527 C   0  0  0  0  0  0  0  0  0  0  0  0
    0.7250  -49.9985  -17.9163 C   0  0  0  0  0  0  0  0  0  0  0  0
    1.2986  -49.1976  -16.9188 C   0  0  0  0  0  0  0  0  0  0  0  0
    2.5486  -49.5150  -16.4708 C   0  0  0  0  0  0  0  0  0  0  0  0
    3.1503  -50.6041  -17.0382 C   0  0  0  0  0  0  0  0  0  0  0  0
    2.6093  -51.3605  -17.9794 N   0  0  0  0  0  0  0  0  0  0  0  0
    3.2012  -48.7130  -15.4279 C   0  0  0  0  0  0  0  0  0  0  0  0
    4.3916  -49.0953  -14.8577 O   0  0  0  0  0  0  0  0  0  0  0  0
    2.6495  -47.6482  -15.0515 O   0  0  0  0  0  0  0  0  0  0  0  0
    4.7711  -48.6113  -14.0811 H   0  0  0  0  0  0  0  0  0  0  0  0
    2.2731  -51.2018  -21.2228 O   0  0  0  0  0  0  0  0  0  0  0  0
    3.3911  -51.5790  -21.9552 C   0  0  0  0  0  0  0  0  0  0  0  0
    3.2181  -52.7109  -24.2241 C   0  0  0  0  0  0  0  0  0  0  0  0
    4.4815  -51.8462  -24.2308 C   0  0  0  0  0  0  0  0  0  0  0  0
    3.2442  -51.4510  -23.4522 C   0  0  0  0  0  0  0  0  0  0  0  0
    1.1769  -52.8915  -27.9505 C   0  0  0  0  0  0  0  0  0  0  0  0
    0.4833  -52.6530  -26.7849 C   0  0  0  0  0  0  0  0  0  0  0  0
    1.2003  -52.6033  -25.5892 C   0  0  0  0  0  0  0  0  0  0  0  0
    2.5640  -52.7847  -25.5481 C   0  0  0  0  0  0  0  0  0  0  0  0
    3.2059  -53.0147  -26.7030 N   0  0  0  0  0  0  0  0  0  0  0  0
    2.5479  -53.0701  -27.8813 C   0  0  0  0  0  0  0  0  0  0  0  0
   -0.8260  -52.5481  -29.3025 C   0  0  0  0  0  0  0  0  0  0  0  0
    0.5214  -52.9526  -29.1690 O   0  0  0  0  0  0  0  0  0  0  0  0
 29 30  1  0  0  0
 30 23  1  0  0  0
 23 24  2  0  0  0
 24 25  1  0  0  0
 25 26  2  0  0  0
 26 27  1  0  0  0
 27 28  2  0  0  0
 26 20  1  0  0  0
 20 21  1  0  0  0
 21 22  1  0  0  0
 22 19  1  0  0  0
 19 18  1  0  0  0
 18  1  1  0  0  0
  1  2  2  0  0  0
  2  3  1  0  0  0
  3  4  1  0  0  0
  3  5  2  0  0  0
  5  6  1  0  0  0
  6  7  2  0  0  0
  7  8  1  0  0  0
  8  9  2  0  0  0
  9 10  1  0  0  0
 10 11  2  0  0  0
 11 12  1  0  0  0
 12 13  2  0  0  0
 11 14  1  0  0  0
 14 15  1  0  0  0
 14 16  2  0  0  0
 28 23  1  0  0  0
 22 20  1  0  0  0
  7  1  1  0  0  0
 13  8  1  0  0  0
 15 17  1  0  0  0
M  END
> <minimizedAffinity>
-7.49146

> <CNNscore>
0.2570938766

> <CNNaffinity>
6.4055643082

> <CNN_VS>
1.6468313932

> <CNNaffinity_variance>
0.3984107673

$$$$
[H]OC(=O)c1c([H])nc(-c2c([H])nc(C([H])([H])[H])nc2OC([H])([H])[C@@]2([H])C([H])([H])[C@]2([H])c2nc([H])c(OC([H])([H])[H])c([H])c2[H])c([H])c1[H]


 30 33  0  0  0  0  0  0  0  0999 V2000
    0.9960  -52.7014  -21.8082 C   0  0  0  0  0  0  0  0  0  0  0  0
    0.3477  -53.5979  -22.6135 N   0  0  0  0  0  0  0  0  0  0  0  0
   -0.6957  -54.3083  -22.1906 C   0  0  0  0  0  0  0  0  0  0  0  0
   -1.3867  -55.2857  -23.0989 C   0  0  0  0  0  0  0  0  0  0  0  0
   -1.1170  -54.1309  -20.9299 N   0  0  0  0  0  0  0  0  0  0  0  0
   -0.5138  -53.2689  -20.1143 C   0  0  0  0  0  0  0  0  0  0  0  0
    0.5934  -52.4998  -20.5268 C   0  0  0  0  0  0  0  0  0  0  0  0
    1.1833  -51.5638  -19.5688 C   0  0  0  0  0  0  0  0  0  0  0  0
    0.5793  -50.4421  -19.1033 C   0  0  0  0  0  0  0  0  0  0  0  0
    1.1945  -49.5661  -18.1980 C   0  0  0  0  0  0  0  0  0  0  0  0
    2.4572  -49.8581  -17.7687 C   0  0  0  0  0  0  0  0  0  0  0  0
    3.0296  -50.9976  -18.2625 C   0  0  0  0  0  0  0  0  0  0  0  0
    2.4494  -51.8248  -19.1168 N   0  0  0  0  0  0  0  0  0  0  0  0
    3.1530  -48.9780  -16.8209 C   0  0  0  0  0  0  0  0  0  0  0  0
    4.0052  -49.4731  -15.8634 O   0  0  0  0  0  0  0  0  0  0  0  0
    2.9584  -47.7385  -16.8939 O   0  0  0  0  0  0  0  0  0  0  0  0
    4.3855  -48.8893  -15.1590 H   0  0  0  0  0  0  0  0  0  0  0  0
    2.0616  -52.0066  -22.3186 O   0  0  0  0  0  0  0  0  0  0  0  0
    2.3029  -51.6452  -23.6376 C   0  0  0  0  0  0  0  0  0  0  0  0
    3.3729  -49.3667  -23.9880 C   0  0  0  0  0  0  0  0  0  0  0  0
    2.4563  -49.2670  -22.7658 C   0  0  0  0  0  0  0  0  0  0  0  0
    2.1366  -50.1746  -23.9353 C   0  0  0  0  0  0  0  0  0  0  0  0
    3.4971  -45.8467  -26.3712 C   0  0  0  0  0  0  0  0  0  0  0  0
    3.1294  -47.0528  -26.9251 C   0  0  0  0  0  0  0  0  0  0  0  0
    3.1047  -48.1773  -26.1000 C   0  0  0  0  0  0  0  0  0  0  0  0
    3.4345  -48.1104  -24.7654 C   0  0  0  0  0  0  0  0  0  0  0  0
    3.7875  -46.9190  -24.2607 N   0  0  0  0  0  0  0  0  0  0  0  0
    3.8236  -45.8070  -25.0266 C   0  0  0  0  0  0  0  0  0  0  0  0
    4.3236  -44.6209  -28.3133 C   0  0  0  0  0  0  0  0  0  0  0  0
    3.5411  -44.6949  -27.1389 O   0  0  0  0  0  0  0  0  0  0  0  0
 29 30  1  0  0  0
 30 23  1  0  0  0
 23 24  2  0  0  0
 24 25  1  0  0  0
 25 26  2  0  0  0
 26 27  1  0  0  0
 27 28  2  0  0  0
 26 20  1  0  0  0
 20 21  1  0  0  0
 21 22  1  0  0  0
 22 19  1  0  0  0
 19 18  1  0  0  0
 18  1  1  0  0  0
  1  2  2  0  0  0
  2  3  1  0  0  0
  3  4  1  0  0  0
  3  5  2  0  0  0
  5  6  1  0  0  0
  6  7  2  0  0  0
  7  8  1  0  0  0
  8  9  2  0  0  0
  9 10  1  0  0  0
 10 11  2  0  0  0
 11 12  1  0  0  0
 12 13  2  0  0  0
 11 14  1  0  0  0
 14 15  1  0  0  0
 14 16  2  0  0  0
 28 23  1  0  0  0
 22 20  1  0  0  0
  7  1  1  0  0  0
 13  8  1  0  0  0
 15 17  1  0  0  0
M  END
> <minimizedAffinity>
-6.26484

> <CNNscore>
0.2531892657

> <CNNaffinity>
6.1170835495

> <CNN_VS>
1.5487798452

> <CNNaffinity_variance>
0.3724257350

$$$$
[H]OC(=O)c1c([H])nc(-c2c([H])nc(C([H])([H])[H])nc2OC([H])([H])[C@@]2([H])C([H])([H])[C@]2([H])c2nc([H])c(OC([H])([H])[H])c([H])c2[H])c([H])c1[H]


 30 33  0  0  0  0  0  0  0  0999 V2000
    1.9317  -51.5340  -20.1746 C   0  0  0  0  0  0  0  0  0  0  0  0
    2.0743  -51.3121  -18.8319 N   0  0  0  0  0  0  0  0  0  0  0  0
    3.1859  -50.7976  -18.3105 C   0  0  0  0  0  0  0  0  0  0  0  0
    3.3125  -50.5659  -16.8313 C   0  0  0  0  0  0  0  0  0  0  0  0
    4.1942  -50.4902  -19.1395 N   0  0  0  0  0  0  0  0  0  0  0  0
    4.0957  -50.6908  -20.4518 C   0  0  0  0  0  0  0  0  0  0  0  0
    2.9349  -51.2335  -21.0396 C   0  0  0  0  0  0  0  0  0  0  0  0
    2.9077  -51.4032  -22.4930 C   0  0  0  0  0  0  0  0  0  0  0  0
    2.1991  -50.6308  -23.3539 C   0  0  0  0  0  0  0  0  0  0  0  0
    2.1917  -50.8452  -24.7393 C   0  0  0  0  0  0  0  0  0  0  0  0
    2.9310  -51.8780  -25.2401 C   0  0  0  0  0  0  0  0  0  0  0  0
    3.6298  -52.6318  -24.3381 C   0  0  0  0  0  0  0  0  0  0  0  0
    3.6374  -52.4298  -23.0305 N   0  0  0  0  0  0  0  0  0  0  0  0
    2.9623  -52.1521  -26.6825 C   0  0  0  0  0  0  0  0  0  0  0  0
    3.2848  -53.3925  -27.1781 O   0  0  0  0  0  0  0  0  0  0  0  0
    2.6851  -51.2209  -27.4799 O   0  0  0  0  0  0  0  0  0  0  0  0
    3.4114  -53.5437  -28.1489 H   0  0  0  0  0  0  0  0  0  0  0  0
    0.7547  -52.0653  -20.6342 O   0  0  0  0  0  0  0  0  0  0  0  0
    0.3507  -53.3940  -20.6341 C   0  0  0  0  0  0  0  0  0  0  0  0
   -0.6672  -53.2038  -22.9551 C   0  0  0  0  0  0  0  0  0  0  0  0
   -1.2861  -54.4277  -22.2747 C   0  0  0  0  0  0  0  0  0  0  0  0
    0.1395  -53.9951  -22.0027 C   0  0  0  0  0  0  0  0  0  0  0  0
   -0.2963  -53.5274  -27.1792 C   0  0  0  0  0  0  0  0  0  0  0  0
   -0.8349  -52.3949  -26.6099 C   0  0  0  0  0  0  0  0  0  0  0  0
   -0.9341  -52.3390  -25.2196 C   0  0  0  0  0  0  0  0  0  0  0  0
   -0.5128  -53.3738  -24.4158 C   0  0  0  0  0  0  0  0  0  0  0  0
    0.0066  -54.4607  -25.0054 N   0  0  0  0  0  0  0  0  0  0  0  0
    0.1199  -54.5532  -26.3481 C   0  0  0  0  0  0  0  0  0  0  0  0
   -0.7107  -52.6713  -29.4270 C   0  0  0  0  0  0  0  0  0  0  0  0
   -0.1716  -53.6427  -28.5537 O   0  0  0  0  0  0  0  0  0  0  0  0
 29 30  1  0  0  0
 30 23  1  0  0  0
 23 24  2  0  0  0
 24 25  1  0  0  0
 25 26  2  0  0  0
 26 27  1  0  0  0
 27 28  2  0  0  0
 26 20  1  0  0  0
 20 21  1  0  0  0
 21 22  1  0  0  0
 22 19  1  0  0  0
 19 18  1  0  0  0
 18  1  1  0  0  0
  1  2  2  0  0  0
  2  3  1  0  0  0
  3  4  1  0  0  0
  3  5  2  0  0  0
  5  6  1  0  0  0
  6  7  2  0  0  0
  7  8  1  0  0  0
  8  9  2  0  0  0
  9 10  1  0  0  0
 10 11  2  0  0  0
 11 12  1  0  0  0
 12 13  2  0  0  0
 11 14  1  0  0  0
 14 15  1  0  0  0
 14 16  2  0  0  0
 28 23  1  0  0  0
 22 20  1  0  0  0
  7  1  1  0  0  0
 13  8  1  0  0  0
 15 17  1  0  0  0
M  END
> <minimizedAffinity>
-7.94950

> <CNNscore>
0.2368490100

> <CNNaffinity>
6.1791782379

> <CNN_VS>
1.4635322094

> <CNNaffinity_variance>
0.4173227251

$$$$
[H]OC(=O)c1c([H])nc(-c2c([H])nc(C([H])([H])[H])nc2OC([H])([H])[C@@]2([H])C([H])([H])[C@]2([H])c2nc([H])c(OC([H])([H])[H])c([H])c2[H])c([H])c1[H]


 30 33  0  0  0  0  0  0  0  0999 V2000
    0.7118  -52.1869  -24.6402 C   0  0  0  0  0  0  0  0  0  0  0  0
    0.7417  -52.4792  -25.9766 N   0  0  0  0  0  0  0  0  0  0  0  0
    0.0950  -53.5231  -26.4906 C   0  0  0  0  0  0  0  0  0  0  0  0
    0.1473  -53.8185  -27.9630 C   0  0  0  0  0  0  0  0  0  0  0  0
   -0.6067  -54.3084  -25.6603 N   0  0  0  0  0  0  0  0  0  0  0  0
   -0.6611  -54.0587  -24.3538 C   0  0  0  0  0  0  0  0  0  0  0  0
    0.0106  -52.9632  -23.7740 C   0  0  0  0  0  0  0  0  0  0  0  0
   -0.1190  -52.7547  -22.3312 C   0  0  0  0  0  0  0  0  0  0  0  0
    0.1357  -51.5886  -21.6870 C   0  0  0  0  0  0  0  0  0  0  0  0
    0.0136  -51.4440  -20.2979 C   0  0  0  0  0  0  0  0  0  0  0  0
   -0.3787  -52.5269  -19.5648 C   0  0  0  0  0  0  0  0  0  0  0  0
   -0.6248  -53.6826  -20.2530 C   0  0  0  0  0  0  0  0  0  0  0  0
   -0.5100  -53.8196  -21.5640 N   0  0  0  0  0  0  0  0  0  0  0  0
   -0.5239  -52.4365  -18.1061 C   0  0  0  0  0  0  0  0  0  0  0  0
   -1.0926  -53.4480  -17.3701 O   0  0  0  0  0  0  0  0  0  0  0  0
   -0.1140  -51.4020  -17.5217 O   0  0  0  0  0  0  0  0  0  0  0  0
   -1.2878  -53.3375  -16.4051 H   0  0  0  0  0  0  0  0  0  0  0  0
    1.4028  -51.0926  -24.1887 O   0  0  0  0  0  0  0  0  0  0  0  0
    2.7275  -50.7510  -24.4272 C   0  0  0  0  0  0  0  0  0  0  0  0
    3.8670  -49.3457  -26.2122 C   0  0  0  0  0  0  0  0  0  0  0  0
    4.3077  -48.8104  -24.8472 C   0  0  0  0  0  0  0  0  0  0  0  0
    2.9308  -49.4003  -25.0700 C   0  0  0  0  0  0  0  0  0  0  0  0
    3.6897  -46.3894  -29.2640 C   0  0  0  0  0  0  0  0  0  0  0  0
    4.5363  -47.4688  -29.3854 C   0  0  0  0  0  0  0  0  0  0  0  0
    4.5562  -48.4103  -28.3562 C   0  0  0  0  0  0  0  0  0  0  0  0
    3.7617  -48.2871  -27.2391 C   0  0  0  0  0  0  0  0  0  0  0  0
    2.9498  -47.2229  -27.1554 N   0  0  0  0  0  0  0  0  0  0  0  0
    2.9012  -46.2896  -28.1306 C   0  0  0  0  0  0  0  0  0  0  0  0
    3.5607  -45.7671  -31.6206 C   0  0  0  0  0  0  0  0  0  0  0  0
    3.6250  -45.4210  -30.2520 O   0  0  0  0  0  0  0  0  0  0  0  0
 29 30  1  0  0  0
 30 23  1  0  0  0
 23 24  2  0  0  0
 24 25  1  0  0  0
 25 26  2  0  0  0
 26 27  1  0  0  0
 27 28  2  0  0  0
 26 20  1  0  0  0
 20 21  1  0  0  0
 21 22  1  0  0  0
 22 19  1  0  0  0
 19 18  1  0  0  0
 18  1  1  0  0  0
  1  2  2  0  0  0
  2  3  1  0  0  0
  3  4  1  0  0  0
  3  5  2  0  0  0
  5  6  1  0  0  0
  6  7  2  0  0  0
  7  8  1  0  0  0
  8  9  2  0  0  0
  9 10  1  0  0  0
 10 11  2  0  0  0
 11 12  1  0  0  0
 12 13  2  0  0  0
 11 14  1  0  0  0
 14 15  1  0  0  0
 14 16  2  0  0  0
 28 23  1  0  0  0
 22 20  1  0  0  0
  7  1  1  0  0  0
 13  8  1  0  0  0
 15 17  1  0  0  0
M  END
> <minimizedAffinity>
-7.27291

> <CNNscore>
0.2162267715

> <CNNaffinity>
6.1739287376

> <CNN_VS>
1.3349686861

> <CNNaffinity_variance>
0.3115224540

$$$$
[H]OC(=O)c1c([H])nc(-c2c([H])nc(C([H])([H])[H])nc2OC([H])([H])[C@@]2([H])C([H])([H])[C@]2([H])c2nc([H])c(OC([H])([H])[H])c([H])c2[H])c([H])c1[H]


 30 33  0  0  0  0  0  0  0  0999 V2000
    1.1676  -53.0224  -26.1653 C   0  0  0  0  0  0  0  0  0  0  0  0
    0.9821  -53.0615  -27.5205 N   0  0  0  0  0  0  0  0  0  0  0  0
   -0.1865  -52.7682  -28.0868 C   0  0  0  0  0  0  0  0  0  0  0  0
   -0.3592  -52.8206  -29.5785 C   0  0  0  0  0  0  0  0  0  0  0  0
   -1.2101  -52.4240  -27.2917 N   0  0  0  0  0  0  0  0  0  0  0  0
   -1.0711  -52.3742  -25.9687 C   0  0  0  0  0  0  0  0  0  0  0  0
    0.1504  -52.6780  -25.3338 C   0  0  0  0  0  0  0  0  0  0  0  0
    0.2171  -52.5800  -23.8751 C   0  0  0  0  0  0  0  0  0  0  0  0
    0.7789  -51.5539  -23.1886 C   0  0  0  0  0  0  0  0  0  0  0  0
    0.8339  -51.5147  -21.7883 C   0  0  0  0  0  0  0  0  0  0  0  0
    0.2979  -52.5572  -21.0884 C   0  0  0  0  0  0  0  0  0  0  0  0
   -0.2580  -53.5709  -21.8188 C   0  0  0  0  0  0  0  0  0  0  0  0
   -0.3104  -53.6083  -23.1404 N   0  0  0  0  0  0  0  0  0  0  0  0
    0.3260  -52.5726  -19.6201 C   0  0  0  0  0  0  0  0  0  0  0  0
   -0.6375  -53.2181  -18.8832 O   0  0  0  0  0  0  0  0  0  0  0  0
    1.2609  -51.9763  -19.0282 O   0  0  0  0  0  0  0  0  0  0  0  0
   -0.6759  -53.1338  -17.8968 H   0  0  0  0  0  0  0  0  0  0  0  0
    2.4021  -53.3364  -25.6591 O   0  0  0  0  0  0  0  0  0  0  0  0
    3.5587  -52.5679  -25.6693 C   0  0  0  0  0  0  0  0  0  0  0  0
    5.1060  -51.2228  -24.1673 C   0  0  0  0  0  0  0  0  0  0  0  0
    5.7183  -52.6156  -24.3376 C   0  0  0  0  0  0  0  0  0  0  0  0
    4.2200  -52.3953  -24.3232 C   0  0  0  0  0  0  0  0  0  0  0  0
    6.0281  -49.4655  -20.4061 C   0  0  0  0  0  0  0  0  0  0  0  0
    6.8847  -49.3189  -21.4745 C   0  0  0  0  0  0  0  0  0  0  0  0
    6.5355  -49.9150  -22.6864 C   0  0  0  0  0  0  0  0  0  0  0  0
    5.3725  -50.6355  -22.8368 C   0  0  0  0  0  0  0  0  0  0  0  0
    4.5627  -50.7570  -21.7745 N   0  0  0  0  0  0  0  0  0  0  0  0
    4.8651  -50.1948  -20.5843 C   0  0  0  0  0  0  0  0  0  0  0  0
    7.5637  -48.2751  -18.9288 C   0  0  0  0  0  0  0  0  0  0  0  0
    6.3195  -48.8975  -19.1771 O   0  0  0  0  0  0  0  0  0  0  0  0
 29 30  1  0  0  0
 30 23  1  0  0  0
 23 24  2  0  0  0
 24 25  1  0  0  0
 25 26  2  0  0  0
 26 27  1  0  0  0
 27 28  2  0  0  0
 26 20  1  0  0  0
 20 21  1  0  0  0
 21 22  1  0  0  0
 22 19  1  0  0  0
 19 18  1  0  0  0
 18  1  1  0  0  0
  1  2  2  0  0  0
  2  3  1  0  0  0
  3  4  1  0  0  0
  3  5  2  0  0  0
  5  6  1  0  0  0
  6  7  2  0  0  0
  7  8  1  0  0  0
  8  9  2  0  0  0
  9 10  1  0  0  0
 10 11  2  0  0  0
 11 12  1  0  0  0
 12 13  2  0  0  0
 11 14  1  0  0  0
 14 15  1  0  0  0
 14 16  2  0  0  0
 28 23  1  0  0  0
 22 20  1  0  0  0
  7  1  1  0  0  0
 13  8  1  0  0  0
 15 17  1  0  0  0
M  END
> <minimizedAffinity>
-7.52978

> <CNNscore>
0.1999172419

> <CNNaffinity>
6.3519124985

> <CNN_VS>
1.2698568106

> <CNNaffinity_variance>
0.3500604331

$$$$
[H]OC(=O)c1c([H])nc(-c2c([H])nc(C([H])([H])[H])nc2OC([H])([H])[C@@]2([H])C([H])([H])[C@]2([H])c2nc([H])c(OC([H])([H])[H])c([H])c2[H])c([H])c1[H]


 30 33  0  0  0  0  0  0  0  0999 V2000
    0.9058  -53.1485  -26.2122 C   0  0  0  0  0  0  0  0  0  0  0  0
    0.7272  -53.0817  -27.5672 N   0  0  0  0  0  0  0  0  0  0  0  0
   -0.4568  -52.8187  -28.1160 C   0  0  0  0  0  0  0  0  0  0  0  0
   -0.6214  -52.7525  -29.6081 C   0  0  0  0  0  0  0  0  0  0  0  0
   -1.5035  -52.6141  -27.3030 N   0  0  0  0  0  0  0  0  0  0  0  0
   -1.3719  -52.6705  -25.9795 C   0  0  0  0  0  0  0  0  0  0  0  0
   -0.1346  -52.9464  -25.3628 C   0  0  0  0  0  0  0  0  0  0  0  0
   -0.0788  -52.9715  -23.9005 C   0  0  0  0  0  0  0  0  0  0  0  0
   -0.4382  -54.0252  -23.1256 C   0  0  0  0  0  0  0  0  0  0  0  0
   -0.3834  -53.9937  -21.7251 C   0  0  0  0  0  0  0  0  0  0  0  0
    0.0509  -52.8504  -21.1183 C   0  0  0  0  0  0  0  0  0  0  0  0
    0.4030  -51.8123  -21.9359 C   0  0  0  0  0  0  0  0  0  0  0  0
    0.3517  -51.8416  -23.2577 N   0  0  0  0  0  0  0  0  0  0  0  0
    0.1296  -52.7575  -19.6547 C   0  0  0  0  0  0  0  0  0  0  0  0
   -0.7537  -53.4211  -18.8375 O   0  0  0  0  0  0  0  0  0  0  0  0
    1.0329  -52.0493  -19.1425 O   0  0  0  0  0  0  0  0  0  0  0  0
   -0.7656  -53.2691  -17.8586 H   0  0  0  0  0  0  0  0  0  0  0  0
    2.1571  -53.4224  -25.7244 O   0  0  0  0  0  0  0  0  0  0  0  0
    3.3419  -52.7360  -25.9562 C   0  0  0  0  0  0  0  0  0  0  0  0
    5.0890  -51.8138  -24.3574 C   0  0  0  0  0  0  0  0  0  0  0  0
    3.9186  -52.3332  -23.5181 C   0  0  0  0  0  0  0  0  0  0  0  0
    3.7140  -51.7313  -24.8927 C   0  0  0  0  0  0  0  0  0  0  0  0
    7.1365  -48.5253  -22.6029 C   0  0  0  0  0  0  0  0  0  0  0  0
    7.7543  -49.7505  -22.7206 C   0  0  0  0  0  0  0  0  0  0  0  0
    7.0388  -50.7965  -23.3038 C   0  0  0  0  0  0  0  0  0  0  0  0
    5.7493  -50.6349  -23.7571 C   0  0  0  0  0  0  0  0  0  0  0  0
    5.1801  -49.4276  -23.6258 N   0  0  0  0  0  0  0  0  0  0  0  0
    5.8394  -48.3897  -23.0670 C   0  0  0  0  0  0  0  0  0  0  0  0
    7.1060  -46.2651  -21.6819 C   0  0  0  0  0  0  0  0  0  0  0  0
    7.7945  -47.4483  -22.0326 O   0  0  0  0  0  0  0  0  0  0  0  0
 29 30  1  0  0  0
 30 23  1  0  0  0
 23 24  2  0  0  0
 24 25  1  0  0  0
 25 26  2  0  0  0
 26 27  1  0  0  0
 27 28  2  0  0  0
 26 20  1  0  0  0
 20 21  1  0  0  0
 21 22  1  0  0  0
 22 19  1  0  0  0
 19 18  1  0  0  0
 18  1  1  0  0  0
  1  2  2  0  0  0
  2  3  1  0  0  0
  3  4  1  0  0  0
  3  5  2  0  0  0
  5  6  1  0  0  0
  6  7  2  0  0  0
  7  8  1  0  0  0
  8  9  2  0  0  0
  9 10  1  0  0  0
 10 11  2  0  0  0
 11 12  1  0  0  0
 12 13  2  0  0  0
 11 14  1  0  0  0
 14 15  1  0  0  0
 14 16  2  0  0  0
 28 23  1  0  0  0
 22 20  1  0  0  0
  7  1  1  0  0  0
 13  8  1  0  0  0
 15 17  1  0  0  0
M  END
> <minimizedAffinity>
-7.59197

> <CNNscore>
0.1990625113

> <CNNaffinity>
6.2522726059

> <CNN_VS>
1.2445931435

> <CNNaffinity_variance>
0.2577029467

$$$$
[H]c1nc(N([H])c2c([H])c([H])c(C(F)(F)F)c([H])c2OC([H])(C([H])([H])[H])C([H])([H])[H])nc(N([H])c2c([H])c([H])c([H])c([H])c2S(=O)(=O)C([H])(C([H])([H])[H])C([H])([H])[H])c1Cl


 37 39  0  0  0  0  0  0  0  0999 V2000
   -0.6282  -53.4996  -20.0629 C   0  0  0  0  0  0  0  0  0  0  0  0
   -1.3062  -54.3748  -20.7933 N   0  0  0  0  0  0  0  0  0  0  0  0
   -1.2510  -54.4173  -22.1332 C   0  0  0  0  0  0  0  0  0  0  0  0
   -0.4647  -53.5341  -22.8423 C   0  0  0  0  0  0  0  0  0  0  0  0
   -0.3690  -53.5674  -24.5820 Cl  0  0  0  0  0  0  0  0  0  0  0  0
    0.2645  -52.6021  -22.0991 C   0  0  0  0  0  0  0  0  0  0  0  0
    0.1541  -52.6208  -20.7881 N   0  0  0  0  0  0  0  0  0  0  0  0
   -0.5048  -53.4345  -18.6638 N   0  0  0  0  0  0  0  0  0  0  0  0
    0.3223  -53.9691  -18.2175 H   0  0  0  0  0  0  0  0  0  0  0  0
   -0.7691  -51.7097  -16.9745 C   0  0  0  0  0  0  0  0  0  0  0  0
   -1.5435  -51.1679  -15.9891 C   0  0  0  0  0  0  0  0  0  0  0  0
   -2.8409  -51.5296  -15.6930 C   0  0  0  0  0  0  0  0  0  0  0  0
   -3.3725  -52.5278  -16.4806 C   0  0  0  0  0  0  0  0  0  0  0  0
   -2.6244  -53.1124  -17.4921 C   0  0  0  0  0  0  0  0  0  0  0  0
   -1.3424  -52.7503  -17.7747 C   0  0  0  0  0  0  0  0  0  0  0  0
   -3.6249  -50.9034  -14.5783 C   0  0  0  0  0  0  0  0  0  0  0  0
   -4.7444  -50.3271  -15.2030 F   0  0  0  0  0  0  0  0  0  0  0  0
   -3.9772  -51.7901  -13.6005 F   0  0  0  0  0  0  0  0  0  0  0  0
   -2.9127  -49.8267  -14.0751 F   0  0  0  0  0  0  0  0  0  0  0  0
    0.4925  -51.3752  -17.3020 O   0  0  0  0  0  0  0  0  0  0  0  0
    2.5342  -50.8708  -18.5019 C   0  0  0  0  0  0  0  0  0  0  0  0
    1.1151  -50.3917  -18.0134 C   0  0  0  0  0  0  0  0  0  0  0  0
    1.3413  -49.1162  -17.2602 C   0  0  0  0  0  0  0  0  0  0  0  0
    1.1888  -51.7725  -22.7915 N   0  0  0  0  0  0  0  0  0  0  0  0
    1.6438  -52.2011  -23.6317 H   0  0  0  0  0  0  0  0  0  0  0  0
    1.5559  -50.4537  -22.4671 C   0  0  0  0  0  0  0  0  0  0  0  0
    0.9005  -49.6404  -21.5448 C   0  0  0  0  0  0  0  0  0  0  0  0
    1.3000  -48.3532  -21.2472 C   0  0  0  0  0  0  0  0  0  0  0  0
    2.3988  -47.8430  -21.8921 C   0  0  0  0  0  0  0  0  0  0  0  0
    3.0707  -48.6464  -22.8281 C   0  0  0  0  0  0  0  0  0  0  0  0
    2.6671  -49.9149  -23.1119 C   0  0  0  0  0  0  0  0  0  0  0  0
    3.5637  -50.8541  -24.2802 S   0  0  0  0  0  0  0  0  0  0  0  0
    4.3999  -49.9241  -25.1616 O   0  0  0  0  0  0  0  0  0  0  0  0
    2.6792  -51.6506  -25.1632 O   0  0  0  0  0  0  0  0  0  0  0  0
    4.7355  -51.9581  -23.5145 C   0  0  0  0  0  0  0  0  0  0  0  0
    4.7966  -51.7092  -22.0368 C   0  0  0  0  0  0  0  0  0  0  0  0
    6.1321  -51.5319  -24.0437 C   0  0  0  0  0  0  0  0  0  0  0  0
 21 22  1  0  0  0
 22 23  1  0  0  0
 22 20  1  0  0  0
 20 10  1  0  0  0
 10 11  2  0  0  0
 11 12  1  0  0  0
 12 13  2  0  0  0
 13 14  1  0  0  0
 14 15  2  0  0  0
 15  8  1  0  0  0
  8  1  1  0  0  0
  1  2  2  0  0  0
  2  3  1  0  0  0
  3  4  2  0  0  0
  4  5  1  0  0  0
  4  6  1  0  0  0
  6 24  1  0  0  0
 24 26  1  0  0  0
 26 27  2  0  0  0
 27 28  1  0  0  0
 28 29  2  0  0  0
 29 30  1  0  0  0
 30 31  2  0  0  0
 31 32  1  0  0  0
 32 33  2  0  0  0
 32 34  2  0  0  0
 32 35  1  0  0  0
 35 36  1  0  0  0
 35 37  1  0  0  0
  6  7  2  0  0  0
 12 16  1  0  0  0
 16 17  1  0  0  0
 16 18  1  0  0  0
 16 19  1  0  0  0
 15 10  1  0  0  0
  7  1  1  0  0  0
 31 26  1  0  0  0
  8  9  1  0  0  0
 24 25  1  0  0  0
M  END
> <minimizedAffinity>
-7.77915

> <CNNscore>
0.7000861764

> <CNNaffinity>
7.5555839539

> <CNN_VS>
5.2895598412

> <CNNaffinity_variance>
0.0939898938

$$$$
[H]c1nc(N([H])c2c([H])c([H])c(C(F)(F)F)c([H])c2OC([H])(C([H])([H])[H])C([H])([H])[H])nc(N([H])c2c([H])c([H])c([H])c([H])c2S(=O)(=O)C([H])(C([H])([H])[H])C([H])([H])[H])c1Cl


 37 39  0  0  0  0  0  0  0  0999 V2000
   -0.7297  -53.3862  -19.8714 C   0  0  0  0  0  0  0  0  0  0  0  0
   -1.3586  -54.2662  -20.6390 N   0  0  0  0  0  0  0  0  0  0  0  0
   -1.2619  -54.2799  -21.9772 C   0  0  0  0  0  0  0  0  0  0  0  0
   -0.4818  -53.3595  -22.6446 C   0  0  0  0  0  0  0  0  0  0  0  0
   -0.3328  -53.3548  -24.3809 Cl  0  0  0  0  0  0  0  0  0  0  0  0
    0.1962  -52.4215  -21.8616 C   0  0  0  0  0  0  0  0  0  0  0  0
    0.0470  -52.4699  -20.5552 N   0  0  0  0  0  0  0  0  0  0  0  0
   -0.6504  -53.3457  -18.4682 N   0  0  0  0  0  0  0  0  0  0  0  0
    0.1823  -53.8588  -18.0075 H   0  0  0  0  0  0  0  0  0  0  0  0
   -1.0450  -51.6222  -16.8031 C   0  0  0  0  0  0  0  0  0  0  0  0
   -1.8608  -51.1240  -15.8282 C   0  0  0  0  0  0  0  0  0  0  0  0
   -3.1307  -51.5731  -15.5326 C   0  0  0  0  0  0  0  0  0  0  0  0
   -3.5862  -52.6166  -16.3091 C   0  0  0  0  0  0  0  0  0  0  0  0
   -2.7935  -53.1597  -17.3096 C   0  0  0  0  0  0  0  0  0  0  0  0
   -1.5389  -52.7112  -17.5917 C   0  0  0  0  0  0  0  0  0  0  0  0
   -3.9628  -50.9896  -14.4295 C   0  0  0  0  0  0  0  0  0  0  0  0
   -3.0592  -50.2492  -13.6480 F   0  0  0  0  0  0  0  0  0  0  0  0
   -5.0019  -50.2266  -14.8819 F   0  0  0  0  0  0  0  0  0  0  0  0
   -4.3890  -52.0118  -13.5969 F   0  0  0  0  0  0  0  0  0  0  0  0
    0.1914  -51.2033  -17.1298 O   0  0  0  0  0  0  0  0  0  0  0  0
    1.4673  -51.2186  -15.0720 C   0  0  0  0  0  0  0  0  0  0  0  0
    1.2424  -50.5999  -16.5033 C   0  0  0  0  0  0  0  0  0  0  0  0
    1.0916  -49.1229  -16.3010 C   0  0  0  0  0  0  0  0  0  0  0  0
    1.1152  -51.5509  -22.5092 N   0  0  0  0  0  0  0  0  0  0  0  0
    0.7642  -50.5840  -22.7060 H   0  0  0  0  0  0  0  0  0  0  0  0
    2.4291  -51.8501  -22.9135 C   0  0  0  0  0  0  0  0  0  0  0  0
    2.7758  -52.5466  -24.0695 C   0  0  0  0  0  0  0  0  0  0  0  0
    4.0800  -52.8107  -24.4358 C   0  0  0  0  0  0  0  0  0  0  0  0
    5.0915  -52.3673  -23.6210 C   0  0  0  0  0  0  0  0  0  0  0  0
    4.7619  -51.6664  -22.4493 C   0  0  0  0  0  0  0  0  0  0  0  0
    3.4714  -51.4115  -22.0997 C   0  0  0  0  0  0  0  0  0  0  0  0
    3.1447  -50.5229  -20.6319 S   0  0  0  0  0  0  0  0  0  0  0  0
    2.7313  -51.4902  -19.5210 O   0  0  0  0  0  0  0  0  0  0  0  0
    2.0584  -49.5293  -20.8030 O   0  0  0  0  0  0  0  0  0  0  0  0
    4.5862  -49.6783  -20.0097 C   0  0  0  0  0  0  0  0  0  0  0  0
    4.4414  -49.4146  -18.5405 C   0  0  0  0  0  0  0  0  0  0  0  0
    4.5723  -48.2706  -20.6657 C   0  0  0  0  0  0  0  0  0  0  0  0
 21 22  1  0  0  0
 22 23  1  0  0  0
 22 20  1  0  0  0
 20 10  1  0  0  0
 10 11  2  0  0  0
 11 12  1  0  0  0
 12 13  2  0  0  0
 13 14  1  0  0  0
 14 15  2  0  0  0
 15  8  1  0  0  0
  8  1  1  0  0  0
  1  2  2  0  0  0
  2  3  1  0  0  0
  3  4  2  0  0  0
  4  5  1  0  0  0
  4  6  1  0  0  0
  6 24  1  0  0  0
 24 26  1  0  0  0
 26 27  2  0  0  0
 27 28  1  0  0  0
 28 29  2  0  0  0
 29 30  1  0  0  0
 30 31  2  0  0  0
 31 32  1  0  0  0
 32 33  2  0  0  0
 32 34  2  0  0  0
 32 35  1  0  0  0
 35 36  1  0  0  0
 35 37  1  0  0  0
  6  7  2  0  0  0
 12 16  1  0  0  0
 16 17  1  0  0  0
 16 18  1  0  0  0
 16 19  1  0  0  0
 15 10  1  0  0  0
  7  1  1  0  0  0
 31 26  1  0  0  0
  8  9  1  0  0  0
 24 25  1  0  0  0
M  END
> <minimizedAffinity>
-7.46644

> <CNNscore>
0.6769053340

> <CNNaffinity>
7.5135374069

> <CNN_VS>
5.0859537125

> <CNNaffinity_variance>
0.1706534475

$$$$
[H]c1nc(N([H])c2c([H])c([H])c(C(F)(F)F)c([H])c2OC([H])(C([H])([H])[H])C([H])([H])[H])nc(N([H])c2c([H])c([H])c([H])c([H])c2S(=O)(=O)C([H])(C([H])([H])[H])C([H])([H])[H])c1Cl


 37 39  0  0  0  0  0  0  0  0999 V2000
   -0.3563  -53.6293  -20.4188 C   0  0  0  0  0  0  0  0  0  0  0  0
   -1.2495  -54.4287  -20.9867 N   0  0  0  0  0  0  0  0  0  0  0  0
   -1.3549  -54.5919  -22.3143 C   0  0  0  0  0  0  0  0  0  0  0  0
   -0.5179  -53.9240  -23.1829 C   0  0  0  0  0  0  0  0  0  0  0  0
   -0.6274  -54.1189  -24.9111 Cl  0  0  0  0  0  0  0  0  0  0  0  0
    0.4363  -53.0770  -22.6131 C   0  0  0  0  0  0  0  0  0  0  0  0
    0.4741  -52.9663  -21.3026 N   0  0  0  0  0  0  0  0  0  0  0  0
   -0.0656  -53.4706  -19.0524 N   0  0  0  0  0  0  0  0  0  0  0  0
    0.7826  -54.0166  -18.6632 H   0  0  0  0  0  0  0  0  0  0  0  0
   -0.0860  -51.5416  -17.5768 C   0  0  0  0  0  0  0  0  0  0  0  0
   -0.6980  -50.8782  -16.5523 C   0  0  0  0  0  0  0  0  0  0  0  0
   -1.9186  -51.2015  -15.9980 C   0  0  0  0  0  0  0  0  0  0  0  0
   -2.5499  -52.2947  -16.5509 C   0  0  0  0  0  0  0  0  0  0  0  0
   -1.9672  -53.0039  -17.5910 C   0  0  0  0  0  0  0  0  0  0  0  0
   -0.7594  -52.6786  -18.1295 C   0  0  0  0  0  0  0  0  0  0  0  0
   -2.5206  -50.4376  -14.8562 C   0  0  0  0  0  0  0  0  0  0  0  0
   -3.0233  -51.4219  -13.9879 F   0  0  0  0  0  0  0  0  0  0  0  0
   -1.6333  -49.6043  -14.2357 F   0  0  0  0  0  0  0  0  0  0  0  0
   -3.6435  -49.7627  -15.3071 F   0  0  0  0  0  0  0  0  0  0  0  0
    1.0949  -51.2495  -18.1522 O   0  0  0  0  0  0  0  0  0  0  0  0
    2.0091  -49.0098  -18.0504 C   0  0  0  0  0  0  0  0  0  0  0  0
    1.6109  -50.2546  -18.9301 C   0  0  0  0  0  0  0  0  0  0  0  0
    0.6850  -49.7387  -19.9892 C   0  0  0  0  0  0  0  0  0  0  0  0
    1.4013  -52.4846  -23.4733 N   0  0  0  0  0  0  0  0  0  0  0  0
    1.2592  -52.6488  -24.4978 H   0  0  0  0  0  0  0  0  0  0  0  0
    2.5169  -51.7145  -23.0967 C   0  0  0  0  0  0  0  0  0  0  0  0
    3.1584  -51.7789  -21.8615 C   0  0  0  0  0  0  0  0  0  0  0  0
    4.2587  -51.0121  -21.5352 C   0  0  0  0  0  0  0  0  0  0  0  0
    4.7489  -50.1380  -22.4728 C   0  0  0  0  0  0  0  0  0  0  0  0
    4.1134  -50.0561  -23.7227 C   0  0  0  0  0  0  0  0  0  0  0  0
    3.0295  -50.8188  -24.0326 C   0  0  0  0  0  0  0  0  0  0  0  0
    2.3031  -50.6665  -25.6137 S   0  0  0  0  0  0  0  0  0  0  0  0
    2.6465  -49.3013  -26.2130 O   0  0  0  0  0  0  0  0  0  0  0  0
    0.8268  -50.7908  -25.5715 O   0  0  0  0  0  0  0  0  0  0  0  0
    2.9352  -51.8634  -26.7738 C   0  0  0  0  0  0  0  0  0  0  0  0
    1.8155  -52.6935  -27.3276 C   0  0  0  0  0  0  0  0  0  0  0  0
    3.7872  -52.8582  -25.9392 C   0  0  0  0  0  0  0  0  0  0  0  0
 21 22  1  0  0  0
 22 23  1  0  0  0
 22 20  1  0  0  0
 20 10  1  0  0  0
 10 11  2  0  0  0
 11 12  1  0  0  0
 12 13  2  0  0  0
 13 14  1  0  0  0
 14 15  2  0  0  0
 15  8  1  0  0  0
  8  1  1  0  0  0
  1  2  2  0  0  0
  2  3  1  0  0  0
  3  4  2  0  0  0
  4  5  1  0  0  0
  4  6  1  0  0  0
  6 24  1  0  0  0
 24 26  1  0  0  0
 26 27  2  0  0  0
 27 28  1  0  0  0
 28 29  2  0  0  0
 29 30  1  0  0  0
 30 31  2  0  0  0
 31 32  1  0  0  0
 32 33  2  0  0  0
 32 34  2  0  0  0
 32 35  1  0  0  0
 35 36  1  0  0  0
 35 37  1  0  0  0
  6  7  2  0  0  0
 12 16  1  0  0  0
 16 17  1  0  0  0
 16 18  1  0  0  0
 16 19  1  0  0  0
 15 10  1  0  0  0
  7  1  1  0  0  0
 31 26  1  0  0  0
  8  9  1  0  0  0
 24 25  1  0  0  0
M  END
> <minimizedAffinity>
-7.22131

> <CNNscore>
0.5591679811

> <CNNaffinity>
7.4883642197

> <CNN_VS>
4.1872534752

> <CNNaffinity_variance>
0.1818080544

$$$$
[H]c1nc(N([H])c2c([H])c([H])c(C(F)(F)F)c([H])c2OC([H])(C([H])([H])[H])C([H])([H])[H])nc(N([H])c2c([H])c([H])c([H])c([H])c2S(=O)(=O)C([H])(C([H])([H])[H])C([H])([H])[H])c1Cl


 37 39  0  0  0  0  0  0  0  0999 V2000
    0.1387  -53.2914  -22.2576 C   0  0  0  0  0  0  0  0  0  0  0  0
   -0.9703  -53.8724  -21.8196 N   0  0  0  0  0  0  0  0  0  0  0  0
   -1.4093  -53.7662  -20.5562 C   0  0  0  0  0  0  0  0  0  0  0  0
   -0.7168  -53.0265  -19.6211 C   0  0  0  0  0  0  0  0  0  0  0  0
   -1.2640  -52.8663  -17.9744 Cl  0  0  0  0  0  0  0  0  0  0  0  0
    0.4543  -52.3994  -20.0546 C   0  0  0  0  0  0  0  0  0  0  0  0
    0.8218  -52.5548  -21.3083 N   0  0  0  0  0  0  0  0  0  0  0  0
    0.6322  -53.2235  -23.5723 N   0  0  0  0  0  0  0  0  0  0  0  0
    0.5366  -54.1125  -24.1802 H   0  0  0  0  0  0  0  0  0  0  0  0
    1.2155  -52.0523  -25.6186 C   0  0  0  0  0  0  0  0  0  0  0  0
    1.9587  -51.0767  -26.2185 C   0  0  0  0  0  0  0  0  0  0  0  0
    2.7360  -50.1412  -25.5687 C   0  0  0  0  0  0  0  0  0  0  0  0
    2.7397  -50.2260  -24.1931 C   0  0  0  0  0  0  0  0  0  0  0  0
    2.0039  -51.2019  -23.5370 C   0  0  0  0  0  0  0  0  0  0  0  0
    1.2417  -52.1236  -24.1882 C   0  0  0  0  0  0  0  0  0  0  0  0
    3.5450  -49.1094  -26.2970 C   0  0  0  0  0  0  0  0  0  0  0  0
    2.6873  -48.0037  -26.4278 F   0  0  0  0  0  0  0  0  0  0  0  0
    4.7104  -48.7880  -25.6605 F   0  0  0  0  0  0  0  0  0  0  0  0
    3.7609  -49.5399  -27.5962 F   0  0  0  0  0  0  0  0  0  0  0  0
    0.4360  -52.9723  -26.2159 O   0  0  0  0  0  0  0  0  0  0  0  0
   -0.5170  -52.6273  -28.4149 C   0  0  0  0  0  0  0  0  0  0  0  0
   -0.7445  -52.9929  -26.8995 C   0  0  0  0  0  0  0  0  0  0  0  0
   -1.7834  -52.0402  -26.3913 C   0  0  0  0  0  0  0  0  0  0  0  0
    1.1127  -51.5187  -19.1529 N   0  0  0  0  0  0  0  0  0  0  0  0
    1.2573  -51.8857  -18.1828 H   0  0  0  0  0  0  0  0  0  0  0  0
    1.5799  -50.2193  -19.4226 C   0  0  0  0  0  0  0  0  0  0  0  0
    1.3808  -49.5244  -20.6138 C   0  0  0  0  0  0  0  0  0  0  0  0
    1.8477  -48.2444  -20.8345 C   0  0  0  0  0  0  0  0  0  0  0  0
    2.5464  -47.6203  -19.8316 C   0  0  0  0  0  0  0  0  0  0  0  0
    2.7605  -48.3061  -18.6246 C   0  0  0  0  0  0  0  0  0  0  0  0
    2.2938  -49.5680  -18.4191 C   0  0  0  0  0  0  0  0  0  0  0  0
    2.5919  -50.3485  -16.8852 S   0  0  0  0  0  0  0  0  0  0  0  0
    3.6951  -51.3969  -17.0423 O   0  0  0  0  0  0  0  0  0  0  0  0
    1.3865  -51.0270  -16.3530 O   0  0  0  0  0  0  0  0  0  0  0  0
    3.1915  -49.2146  -15.6471 C   0  0  0  0  0  0  0  0  0  0  0  0
    3.7636  -49.9687  -14.4838 C   0  0  0  0  0  0  0  0  0  0  0  0
    1.9348  -48.5032  -15.0754 C   0  0  0  0  0  0  0  0  0  0  0  0
 21 22  1  0  0  0
 22 23  1  0  0  0
 22 20  1  0  0  0
 20 10  1  0  0  0
 10 11  2  0  0  0
 11 12  1  0  0  0
 12 13  2  0  0  0
 13 14  1  0  0  0
 14 15  2  0  0  0
 15  8  1  0  0  0
  8  1  1  0  0  0
  1  2  2  0  0  0
  2  3  1  0  0  0
  3  4  2  0  0  0
  4  5  1  0  0  0
  4  6  1  0  0  0
  6 24  1  0  0  0
 24 26  1  0  0  0
 26 27  2  0  0  0
 27 28  1  0  0  0
 28 29  2  0  0  0
 29 30  1  0  0  0
 30 31  2  0  0  0
 31 32  1  0  0  0
 32 33  2  0  0  0
 32 34  2  0  0  0
 32 35  1  0  0  0
 35 36  1  0  0  0
 35 37  1  0  0  0
  6  7  2  0  0  0
 12 16  1  0  0  0
 16 17  1  0  0  0
 16 18  1  0  0  0
 16 19  1  0  0  0
 15 10  1  0  0  0
  7  1  1  0  0  0
 31 26  1  0  0  0
  8  9  1  0  0  0
 24 25  1  0  0  0
M  END
> <minimizedAffinity>
-7.49975

> <CNNscore>
0.5236054659

> <CNNaffinity>
7.5571084023

> <CNN_VS>
3.9569432735

> <CNNaffinity_variance>
0.2260019034

$$$$
[H]c1nc(N([H])c2c([H])c([H])c(C(F)(F)F)c([H])c2OC([H])(C([H])([H])[H])C([H])([H])[H])nc(N([H])c2c([H])c([H])c([H])c([H])c2S(=O)(=O)C([H])(C([H])([H])[H])C([H])([H])[H])c1Cl


 37 39  0  0  0  0  0  0  0  0999 V2000
    0.6422  -52.8105  -22.2827 C   0  0  0  0  0  0  0  0  0  0  0  0
   -0.0569  -53.8391  -21.8217 N   0  0  0  0  0  0  0  0  0  0  0  0
   -0.5909  -53.8760  -20.5914 C   0  0  0  0  0  0  0  0  0  0  0  0
   -0.4417  -52.8197  -19.7179 C   0  0  0  0  0  0  0  0  0  0  0  0
   -1.1273  -52.8365  -18.1158 Cl  0  0  0  0  0  0  0  0  0  0  0  0
    0.2873  -51.7197  -20.1773 C   0  0  0  0  0  0  0  0  0  0  0  0
    0.7837  -51.7605  -21.3951 N   0  0  0  0  0  0  0  0  0  0  0  0
    1.1400  -52.6003  -23.5807 N   0  0  0  0  0  0  0  0  0  0  0  0
    2.1680  -52.2765  -23.6669 H   0  0  0  0  0  0  0  0  0  0  0  0
    1.2094  -52.9800  -25.9786 C   0  0  0  0  0  0  0  0  0  0  0  0
    0.5430  -52.9616  -27.1701 C   0  0  0  0  0  0  0  0  0  0  0  0
   -0.8108  -52.7563  -27.3333 C   0  0  0  0  0  0  0  0  0  0  0  0
   -1.5244  -52.5563  -26.1713 C   0  0  0  0  0  0  0  0  0  0  0  0
   -0.8922  -52.5621  -24.9365 C   0  0  0  0  0  0  0  0  0  0  0  0
    0.4463  -52.7627  -24.7860 C   0  0  0  0  0  0  0  0  0  0  0  0
   -1.4722  -52.7280  -28.6792 C   0  0  0  0  0  0  0  0  0  0  0  0
   -1.0368  -53.9005  -29.3205 F   0  0  0  0  0  0  0  0  0  0  0  0
   -2.8345  -52.6510  -28.6106 F   0  0  0  0  0  0  0  0  0  0  0  0
   -0.9276  -51.6972  -29.4279 F   0  0  0  0  0  0  0  0  0  0  0  0
    2.5234  -53.1899  -25.7781 O   0  0  0  0  0  0  0  0  0  0  0  0
    4.4439  -52.5913  -24.4305 C   0  0  0  0  0  0  0  0  0  0  0  0
    3.6697  -52.4504  -25.7953 C   0  0  0  0  0  0  0  0  0  0  0  0
    3.4685  -50.9814  -26.0117 C   0  0  0  0  0  0  0  0  0  0  0  0
    0.3391  -50.5620  -19.3531 N   0  0  0  0  0  0  0  0  0  0  0  0
   -0.4419  -49.8764  -19.4823 H   0  0  0  0  0  0  0  0  0  0  0  0
    1.3208  -50.2422  -18.3974 C   0  0  0  0  0  0  0  0  0  0  0  0
    1.4127  -50.7968  -17.1225 C   0  0  0  0  0  0  0  0  0  0  0  0
    2.3995  -50.4626  -16.2172 C   0  0  0  0  0  0  0  0  0  0  0  0
    3.3406  -49.5349  -16.5873 C   0  0  0  0  0  0  0  0  0  0  0  0
    3.2625  -48.9617  -17.8673 C   0  0  0  0  0  0  0  0  0  0  0  0
    2.2847  -49.3007  -18.7513 C   0  0  0  0  0  0  0  0  0  0  0  0
    2.2636  -48.5510  -20.3288 S   0  0  0  0  0  0  0  0  0  0  0  0
    3.0006  -47.2113  -20.2764 O   0  0  0  0  0  0  0  0  0  0  0  0
    0.8868  -48.2986  -20.8158 O   0  0  0  0  0  0  0  0  0  0  0  0
    3.1257  -49.5160  -21.5551 C   0  0  0  0  0  0  0  0  0  0  0  0
    4.6026  -49.2707  -21.4668 C   0  0  0  0  0  0  0  0  0  0  0  0
    2.7104  -48.9270  -22.9309 C   0  0  0  0  0  0  0  0  0  0  0  0
 21 22  1  0  0  0
 22 23  1  0  0  0
 22 20  1  0  0  0
 20 10  1  0  0  0
 10 11  2  0  0  0
 11 12  1  0  0  0
 12 13  2  0  0  0
 13 14  1  0  0  0
 14 15  2  0  0  0
 15  8  1  0  0  0
  8  1  1  0  0  0
  1  2  2  0  0  0
  2  3  1  0  0  0
  3  4  2  0  0  0
  4  5  1  0  0  0
  4  6  1  0  0  0
  6 24  1  0  0  0
 24 26  1  0  0  0
 26 27  2  0  0  0
 27 28  1  0  0  0
 28 29  2  0  0  0
 29 30  1  0  0  0
 30 31  2  0  0  0
 31 32  1  0  0  0
 32 33  2  0  0  0
 32 34  2  0  0  0
 32 35  1  0  0  0
 35 36  1  0  0  0
 35 37  1  0  0  0
  6  7  2  0  0  0
 12 16  1  0  0  0
 16 17  1  0  0  0
 16 18  1  0  0  0
 16 19  1  0  0  0
 15 10  1  0  0  0
  7  1  1  0  0  0
 31 26  1  0  0  0
  8  9  1  0  0  0
 24 25  1  0  0  0
M  END
> <minimizedAffinity>
-7.67914

> <CNNscore>
0.5143842697

> <CNNaffinity>
7.5698366165

> <CNN_VS>
3.8938047886

> <CNNaffinity_variance>
0.1822839677

$$$$
[H]c1nc(N([H])c2c([H])c([H])c(C(F)(F)F)c([H])c2OC([H])(C([H])([H])[H])C([H])([H])[H])nc(N([H])c2c([H])c([H])c([H])c([H])c2S(=O)(=O)C([H])(C([H])([H])[H])C([H])([H])[H])c1Cl


 37 39  0  0  0  0  0  0  0  0999 V2000
    0.3878  -52.4763  -22.3318 C   0  0  0  0  0  0  0  0  0  0  0  0
   -0.5874  -53.3096  -21.9943 N   0  0  0  0  0  0  0  0  0  0  0  0
   -1.0273  -53.4591  -20.7356 C   0  0  0  0  0  0  0  0  0  0  0  0
   -0.4789  -52.7348  -19.6984 C   0  0  0  0  0  0  0  0  0  0  0  0
   -1.0320  -52.9038  -18.0545 Cl  0  0  0  0  0  0  0  0  0  0  0  0
    0.5485  -51.8455  -20.0243 C   0  0  0  0  0  0  0  0  0  0  0  0
    0.9276  -51.7586  -21.2812 N   0  0  0  0  0  0  0  0  0  0  0  0
    0.8479  -52.1402  -23.6172 N   0  0  0  0  0  0  0  0  0  0  0  0
    1.7816  -51.5987  -23.6795 H   0  0  0  0  0  0  0  0  0  0  0  0
    1.0413  -52.9049  -25.9143 C   0  0  0  0  0  0  0  0  0  0  0  0
    0.4636  -53.0165  -27.1464 C   0  0  0  0  0  0  0  0  0  0  0  0
   -0.8469  -52.7153  -27.4524 C   0  0  0  0  0  0  0  0  0  0  0  0
   -1.6135  -52.2660  -26.3989 C   0  0  0  0  0  0  0  0  0  0  0  0
   -1.0715  -52.1320  -25.1290 C   0  0  0  0  0  0  0  0  0  0  0  0
    0.2252  -52.4290  -24.8376 C   0  0  0  0  0  0  0  0  0  0  0  0
   -1.4078  -52.8424  -28.8376 C   0  0  0  0  0  0  0  0  0  0  0  0
   -1.1270  -51.6117  -29.4557 F   0  0  0  0  0  0  0  0  0  0  0  0
   -0.8947  -53.9001  -29.5337 F   0  0  0  0  0  0  0  0  0  0  0  0
   -2.7905  -52.8881  -28.7620 F   0  0  0  0  0  0  0  0  0  0  0  0
    2.3092  -53.2009  -25.5742 O   0  0  0  0  0  0  0  0  0  0  0  0
    4.2145  -52.6786  -24.1743 C   0  0  0  0  0  0  0  0  0  0  0  0
    3.5211  -52.5746  -25.5851 C   0  0  0  0  0  0  0  0  0  0  0  0
    3.4728  -51.1149  -25.9202 C   0  0  0  0  0  0  0  0  0  0  0  0
    1.0364  -50.9859  -19.0019 N   0  0  0  0  0  0  0  0  0  0  0  0
    0.8693  -51.3073  -18.0194 H   0  0  0  0  0  0  0  0  0  0  0  0
    1.7074  -49.7608  -19.1699 C   0  0  0  0  0  0  0  0  0  0  0  0
    1.6360  -48.9537  -20.3035 C   0  0  0  0  0  0  0  0  0  0  0  0
    2.3030  -47.7514  -20.4241 C   0  0  0  0  0  0  0  0  0  0  0  0
    3.0795  -47.3254  -19.3758 C   0  0  0  0  0  0  0  0  0  0  0  0
    3.1670  -48.1271  -18.2257 C   0  0  0  0  0  0  0  0  0  0  0  0
    2.5033  -49.3105  -18.1188 C   0  0  0  0  0  0  0  0  0  0  0  0
    2.6546  -50.2438  -16.6502 S   0  0  0  0  0  0  0  0  0  0  0  0
    3.6450  -51.3902  -16.8638 O   0  0  0  0  0  0  0  0  0  0  0  0
    1.3633  -50.8278  -16.2165 O   0  0  0  0  0  0  0  0  0  0  0  0
    3.3216  -49.2895  -15.3002 C   0  0  0  0  0  0  0  0  0  0  0  0
    3.8796  -50.1984  -14.2458 C   0  0  0  0  0  0  0  0  0  0  0  0
    2.1056  -48.6005  -14.6228 C   0  0  0  0  0  0  0  0  0  0  0  0
 21 22  1  0  0  0
 22 23  1  0  0  0
 22 20  1  0  0  0
 20 10  1  0  0  0
 10 11  2  0  0  0
 11 12  1  0  0  0
 12 13  2  0  0  0
 13 14  1  0  0  0
 14 15  2  0  0  0
 15  8  1  0  0  0
  8  1  1  0  0  0
  1  2  2  0  0  0
  2  3  1  0  0  0
  3  4  2  0  0  0
  4  5  1  0  0  0
  4  6  1  0  0  0
  6 24  1  0  0  0
 24 26  1  0  0  0
 26 27  2  0  0  0
 27 28  1  0  0  0
 28 29  2  0  0  0
 29 30  1  0  0  0
 30 31  2  0  0  0
 31 32  1  0  0  0
 32 33  2  0  0  0
 32 34  2  0  0  0
 32 35  1  0  0  0
 35 36  1  0  0  0
 35 37  1  0  0  0
  6  7  2  0  0  0
 12 16  1  0  0  0
 16 17  1  0  0  0
 16 18  1  0  0  0
 16 19  1  0  0  0
 15 10  1  0  0  0
  7  1  1  0  0  0
 31 26  1  0  0  0
  8  9  1  0  0  0
 24 25  1  0  0  0
M  END
> <minimizedAffinity>
-7.71586

> <CNNscore>
0.4640490711

> <CNNaffinity>
7.4605712891

> <CNN_VS>
3.4620711803

> <CNNaffinity_variance>
0.2368030101

$$$$
[H]c1nc(N([H])c2c([H])c([H])c(C(F)(F)F)c([H])c2OC([H])(C([H])([H])[H])C([H])([H])[H])nc(N([H])c2c([H])c([H])c([H])c([H])c2S(=O)(=O)C([H])(C([H])([H])[H])C([H])([H])[H])c1Cl


 37 39  0  0  0  0  0  0  0  0999 V2000
    0.8375  -52.6644  -21.6619 C   0  0  0  0  0  0  0  0  0  0  0  0
   -0.0133  -53.6391  -21.3699 N   0  0  0  0  0  0  0  0  0  0  0  0
   -0.6911  -53.7050  -20.2138 C   0  0  0  0  0  0  0  0  0  0  0  0
   -0.5394  -52.7378  -19.2429 C   0  0  0  0  0  0  0  0  0  0  0  0
   -1.4090  -52.7937  -17.7337 Cl  0  0  0  0  0  0  0  0  0  0  0  0
    0.3482  -51.6958  -19.5239 C   0  0  0  0  0  0  0  0  0  0  0  0
    0.9793  -51.7037  -20.6784 N   0  0  0  0  0  0  0  0  0  0  0  0
    1.5054  -52.4179  -22.8743 N   0  0  0  0  0  0  0  0  0  0  0  0
    2.4916  -51.9791  -22.8124 H   0  0  0  0  0  0  0  0  0  0  0  0
    1.9915  -52.8494  -25.2145 C   0  0  0  0  0  0  0  0  0  0  0  0
    1.5250  -52.9261  -26.4954 C   0  0  0  0  0  0  0  0  0  0  0  0
    0.2015  -52.8577  -26.8766 C   0  0  0  0  0  0  0  0  0  0  0  0
   -0.7038  -52.6988  -25.8497 C   0  0  0  0  0  0  0  0  0  0  0  0
   -0.2791  -52.6120  -24.5319 C   0  0  0  0  0  0  0  0  0  0  0  0
    1.0310  -52.6774  -24.1658 C   0  0  0  0  0  0  0  0  0  0  0  0
   -0.2363  -52.9279  -28.3095 C   0  0  0  0  0  0  0  0  0  0  0  0
   -0.7293  -54.2339  -28.4732 F   0  0  0  0  0  0  0  0  0  0  0  0
   -1.1631  -51.9797  -28.6387 F   0  0  0  0  0  0  0  0  0  0  0  0
    0.8817  -52.8714  -29.1260 F   0  0  0  0  0  0  0  0  0  0  0  0
    3.2703  -52.9253  -24.8025 O   0  0  0  0  0  0  0  0  0  0  0  0
    5.4691  -52.6074  -23.8399 C   0  0  0  0  0  0  0  0  0  0  0  0
    4.4066  -52.1799  -24.9217 C   0  0  0  0  0  0  0  0  0  0  0  0
    4.2119  -50.7036  -24.7554 C   0  0  0  0  0  0  0  0  0  0  0  0
    0.4200  -50.6139  -18.6040 N   0  0  0  0  0  0  0  0  0  0  0  0
   -0.1944  -49.7933  -18.8181 H   0  0  0  0  0  0  0  0  0  0  0  0
    1.2244  -50.5287  -17.4529 C   0  0  0  0  0  0  0  0  0  0  0  0
    0.9290  -51.1087  -16.2209 C   0  0  0  0  0  0  0  0  0  0  0  0
    1.7519  -51.0100  -15.1172 C   0  0  0  0  0  0  0  0  0  0  0  0
    2.9225  -50.3032  -15.2343 C   0  0  0  0  0  0  0  0  0  0  0  0
    3.2359  -49.7081  -16.4674 C   0  0  0  0  0  0  0  0  0  0  0  0
    2.4162  -49.8138  -17.5488 C   0  0  0  0  0  0  0  0  0  0  0  0
    2.8833  -49.0543  -19.0508 S   0  0  0  0  0  0  0  0  0  0  0  0
    1.6648  -48.3945  -19.6994 O   0  0  0  0  0  0  0  0  0  0  0  0
    3.4517  -50.0212  -20.0197 O   0  0  0  0  0  0  0  0  0  0  0  0
    4.0619  -47.7380  -18.8129 C   0  0  0  0  0  0  0  0  0  0  0  0
    3.8814  -46.6817  -19.8622 C   0  0  0  0  0  0  0  0  0  0  0  0
    5.4560  -48.3544  -19.1105 C   0  0  0  0  0  0  0  0  0  0  0  0
 21 22  1  0  0  0
 22 23  1  0  0  0
 22 20  1  0  0  0
 20 10  1  0  0  0
 10 11  2  0  0  0
 11 12  1  0  0  0
 12 13  2  0  0  0
 13 14  1  0  0  0
 14 15  2  0  0  0
 15  8  1  0  0  0
  8  1  1  0  0  0
  1  2  2  0  0  0
  2  3  1  0  0  0
  3  4  2  0  0  0
  4  5  1  0  0  0
  4  6  1  0  0  0
  6 24  1  0  0  0
 24 26  1  0  0  0
 26 27  2  0  0  0
 27 28  1  0  0  0
 28 29  2  0  0  0
 29 30  1  0  0  0
 30 31  2  0  0  0
 31 32  1  0  0  0
 32 33  2  0  0  0
 32 34  2  0  0  0
 32 35  1  0  0  0
 35 36  1  0  0  0
 35 37  1  0  0  0
  6  7  2  0  0  0
 12 16  1  0  0  0
 16 17  1  0  0  0
 16 18  1  0  0  0
 16 19  1  0  0  0
 15 10  1  0  0  0
  7  1  1  0  0  0
 31 26  1  0  0  0
  8  9  1  0  0  0
 24 25  1  0  0  0
M  END
> <minimizedAffinity>
-7.07677

> <CNNscore>
0.3267470002

> <CNNaffinity>
7.4053611755

> <CNN_VS>
2.4196796417

> <CNNaffinity_variance>
0.2568405271

$$$$
[H]c1nc(N([H])c2c([H])c([H])c(C(F)(F)F)c([H])c2OC([H])(C([H])([H])[H])C([H])([H])[H])nc(N([H])c2c([H])c([H])c([H])c([H])c2S(=O)(=O)C([H])(C([H])([H])[H])C([H])([H])[H])c1Cl


 37 39  0  0  0  0  0  0  0  0999 V2000
   -0.4915  -51.9791  -21.1232 C   0  0  0  0  0  0  0  0  0  0  0  0
   -1.1717  -53.0370  -20.7020 N   0  0  0  0  0  0  0  0  0  0  0  0
   -1.3630  -54.1358  -21.4478 C   0  0  0  0  0  0  0  0  0  0  0  0
   -0.8478  -54.2298  -22.7233 C   0  0  0  0  0  0  0  0  0  0  0  0
   -1.0757  -55.6452  -23.7141 Cl  0  0  0  0  0  0  0  0  0  0  0  0
   -0.1230  -53.1314  -23.1932 C   0  0  0  0  0  0  0  0  0  0  0  0
    0.0173  -52.0883  -22.4036 N   0  0  0  0  0  0  0  0  0  0  0  0
   -0.1182  -50.8324  -20.4003 N   0  0  0  0  0  0  0  0  0  0  0  0
   -0.6769  -50.6144  -19.5007 H   0  0  0  0  0  0  0  0  0  0  0  0
    1.3924  -49.0713  -19.6824 C   0  0  0  0  0  0  0  0  0  0  0  0
    2.2601  -48.0788  -20.0375 C   0  0  0  0  0  0  0  0  0  0  0  0
    2.7188  -47.8275  -21.3135 C   0  0  0  0  0  0  0  0  0  0  0  0
    2.2404  -48.6715  -22.2923 C   0  0  0  0  0  0  0  0  0  0  0  0
    1.3541  -49.6927  -21.9824 C   0  0  0  0  0  0  0  0  0  0  0  0
    0.9044  -49.9307  -20.7192 C   0  0  0  0  0  0  0  0  0  0  0  0
    3.6575  -46.7021  -21.6328 C   0  0  0  0  0  0  0  0  0  0  0  0
    4.7873  -47.3219  -22.1938 F   0  0  0  0  0  0  0  0  0  0  0  0
    3.1143  -45.7648  -22.4653 F   0  0  0  0  0  0  0  0  0  0  0  0
    4.1152  -46.1467  -20.4489 F   0  0  0  0  0  0  0  0  0  0  0  0
    0.9334  -49.3560  -18.4499 O   0  0  0  0  0  0  0  0  0  0  0  0
    0.0818  -50.8733  -16.7661 C   0  0  0  0  0  0  0  0  0  0  0  0
    1.3190  -50.1240  -17.3903 C   0  0  0  0  0  0  0  0  0  0  0  0
    1.9613  -49.3696  -16.2662 C   0  0  0  0  0  0  0  0  0  0  0  0
    0.5367  -53.2541  -24.4469 N   0  0  0  0  0  0  0  0  0  0  0  0
    1.5255  -53.5968  -24.4090 H   0  0  0  0  0  0  0  0  0  0  0  0
    0.0084  -52.9614  -25.7176 C   0  0  0  0  0  0  0  0  0  0  0  0
   -1.3482  -52.8939  -26.0283 C   0  0  0  0  0  0  0  0  0  0  0  0
   -1.8257  -52.5927  -27.2879 C   0  0  0  0  0  0  0  0  0  0  0  0
   -0.9206  -52.3479  -28.2900 C   0  0  0  0  0  0  0  0  0  0  0  0
    0.4515  -52.4149  -27.9971 C   0  0  0  0  0  0  0  0  0  0  0  0
    0.9096  -52.7119  -26.7503 C   0  0  0  0  0  0  0  0  0  0  0  0
    2.6319  -52.7642  -26.4644 S   0  0  0  0  0  0  0  0  0  0  0  0
    3.3514  -53.2605  -27.7201 O   0  0  0  0  0  0  0  0  0  0  0  0
    2.9913  -53.6648  -25.3434 O   0  0  0  0  0  0  0  0  0  0  0  0
    3.3184  -51.1527  -26.1331 C   0  0  0  0  0  0  0  0  0  0  0  0
    4.1744  -51.1943  -24.9024 C   0  0  0  0  0  0  0  0  0  0  0  0
    2.1167  -50.2480  -25.7465 C   0  0  0  0  0  0  0  0  0  0  0  0
 21 22  1  0  0  0
 22 23  1  0  0  0
 22 20  1  0  0  0
 20 10  1  0  0  0
 10 11  2  0  0  0
 11 12  1  0  0  0
 12 13  2  0  0  0
 13 14  1  0  0  0
 14 15  2  0  0  0
 15  8  1  0  0  0
  8  1  1  0  0  0
  1  2  2  0  0  0
  2  3  1  0  0  0
  3  4  2  0  0  0
  4  5  1  0  0  0
  4  6  1  0  0  0
  6 24  1  0  0  0
 24 26  1  0  0  0
 26 27  2  0  0  0
 27 28  1  0  0  0
 28 29  2  0  0  0
 29 30  1  0  0  0
 30 31  2  0  0  0
 31 32  1  0  0  0
 32 33  2  0  0  0
 32 34  2  0  0  0
 32 35  1  0  0  0
 35 36  1  0  0  0
 35 37  1  0  0  0
  6  7  2  0  0  0
 12 16  1  0  0  0
 16 17  1  0  0  0
 16 18  1  0  0  0
 16 19  1  0  0  0
 15 10  1  0  0  0
  7  1  1  0  0  0
 31 26  1  0  0  0
  8  9  1  0  0  0
 24 25  1  0  0  0
M  END
> <minimizedAffinity>
-7.37031

> <CNNscore>
0.3138243258

> <CNNaffinity>
7.3188352585

> <CNN_VS>
2.2968285084

> <CNNaffinity_variance>
0.1466054022

$$$$
[H]c1nc(N([H])c2c([H])c([H])c(C(F)(F)F)c([H])c2OC([H])(C([H])([H])[H])C([H])([H])[H])nc(N([H])c2c([H])c([H])c([H])c([H])c2S(=O)(=O)C([H])(C([H])([H])[H])C([H])([H])[H])c1Cl


 37 39  0  0  0  0  0  0  0  0999 V2000
    0.2547  -52.9111  -20.9711 C   0  0  0  0  0  0  0  0  0  0  0  0
   -0.5329  -53.6100  -21.7776 N   0  0  0  0  0  0  0  0  0  0  0  0
   -0.5604  -53.4430  -23.1086 C   0  0  0  0  0  0  0  0  0  0  0  0
    0.2506  -52.5153  -23.7272 C   0  0  0  0  0  0  0  0  0  0  0  0
    0.2406  -52.2787  -25.4537 Cl  0  0  0  0  0  0  0  0  0  0  0  0
    1.0945  -51.7661  -22.9030 C   0  0  0  0  0  0  0  0  0  0  0  0
    1.0604  -51.9849  -21.6060 N   0  0  0  0  0  0  0  0  0  0  0  0
    0.4652  -53.0777  -19.5910 N   0  0  0  0  0  0  0  0  0  0  0  0
    1.2072  -53.8045  -19.2906 H   0  0  0  0  0  0  0  0  0  0  0  0
    0.4675  -51.2683  -17.9707 C   0  0  0  0  0  0  0  0  0  0  0  0
   -0.0858  -50.7237  -16.8476 C   0  0  0  0  0  0  0  0  0  0  0  0
   -1.2298  -51.1657  -16.2171 C   0  0  0  0  0  0  0  0  0  0  0  0
   -1.8443  -52.2539  -16.7982 C   0  0  0  0  0  0  0  0  0  0  0  0
   -1.3188  -52.8449  -17.9379 C   0  0  0  0  0  0  0  0  0  0  0  0
   -0.1863  -52.4028  -18.5515 C   0  0  0  0  0  0  0  0  0  0  0  0
   -1.7684  -50.5290  -14.9704 C   0  0  0  0  0  0  0  0  0  0  0  0
   -2.3279  -51.5888  -14.2360 F   0  0  0  0  0  0  0  0  0  0  0  0
   -0.8214  -49.8490  -14.2582 F   0  0  0  0  0  0  0  0  0  0  0  0
   -2.8476  -49.7266  -15.3037 F   0  0  0  0  0  0  0  0  0  0  0  0
    1.5718  -50.8584  -18.6213 O   0  0  0  0  0  0  0  0  0  0  0  0
    3.3978  -49.5153  -17.7700 C   0  0  0  0  0  0  0  0  0  0  0  0
    2.9200  -50.8719  -18.4127 C   0  0  0  0  0  0  0  0  0  0  0  0
    3.7466  -51.0631  -19.6477 C   0  0  0  0  0  0  0  0  0  0  0  0
    2.0395  -50.9034  -23.5232 N   0  0  0  0  0  0  0  0  0  0  0  0
    1.6464  -50.0350  -23.9568 H   0  0  0  0  0  0  0  0  0  0  0  0
    3.4300  -51.0944  -23.6192 C   0  0  0  0  0  0  0  0  0  0  0  0
    4.0529  -52.2583  -24.0649 C   0  0  0  0  0  0  0  0  0  0  0  0
    5.4228  -52.4014  -24.1540 C   0  0  0  0  0  0  0  0  0  0  0  0
    6.2169  -51.3451  -23.7837 C   0  0  0  0  0  0  0  0  0  0  0  0
    5.6075  -50.1643  -23.3281 C   0  0  0  0  0  0  0  0  0  0  0  0
    4.2550  -50.0356  -23.2460 C   0  0  0  0  0  0  0  0  0  0  0  0
    3.5743  -48.5298  -22.6803 S   0  0  0  0  0  0  0  0  0  0  0  0
    4.6079  -47.7761  -21.8410 O   0  0  0  0  0  0  0  0  0  0  0  0
    2.3666  -48.7341  -21.8458 O   0  0  0  0  0  0  0  0  0  0  0  0
    3.1548  -47.4256  -24.0155 C   0  0  0  0  0  0  0  0  0  0  0  0
    3.5360  -48.0329  -25.3327 C   0  0  0  0  0  0  0  0  0  0  0  0
    4.0916  -46.1962  -23.8629 C   0  0  0  0  0  0  0  0  0  0  0  0
 21 22  1  0  0  0
 22 23  1  0  0  0
 22 20  1  0  0  0
 20 10  1  0  0  0
 10 11  2  0  0  0
 11 12  1  0  0  0
 12 13  2  0  0  0
 13 14  1  0  0  0
 14 15  2  0  0  0
 15  8  1  0  0  0
  8  1  1  0  0  0
  1  2  2  0  0  0
  2  3  1  0  0  0
  3  4  2  0  0  0
  4  5  1  0  0  0
  4  6  1  0  0  0
  6 24  1  0  0  0
 24 26  1  0  0  0
 26 27  2  0  0  0
 27 28  1  0  0  0
 28 29  2  0  0  0
 29 30  1  0  0  0
 30 31  2  0  0  0
 31 32  1  0  0  0
 32 33  2  0  0  0
 32 34  2  0  0  0
 32 35  1  0  0  0
 35 36  1  0  0  0
 35 37  1  0  0  0
  6  7  2  0  0  0
 12 16  1  0  0  0
 16 17  1  0  0  0
 16 18  1  0  0  0
 16 19  1  0  0  0
 15 10  1  0  0  0
  7  1  1  0  0  0
 31 26  1  0  0  0
  8  9  1  0  0  0
 24 25  1  0  0  0
M  END
> <minimizedAffinity>
-6.68890

> <CNNscore>
0.3047228754

> <CNNaffinity>
7.1130228043

> <CNN_VS>
2.1675007343

> <CNNaffinity_variance>
0.2892059088

$$$$
