[H]/C(C(=O)N([H])c1c(OC([H])([H])C([H])([H])[H])c([H])c2nc([H])c(C#N)c(N([H])c3c([H])c([H])c(OC([H])([H])c4c([H])c([H])c([H])c([H])c4[H])c(Cl)c3[H])c2c1[H])=C(/[H])C([H])([H])N(C([H])([H])[H])C([H])([H])[H]


 42 45  0  0  0  0  0  0  0  0999 V2000
   -0.3859  -52.9124  -19.3298 C   0  0  0  0  0  0  0  0  0  0  0  0
   -0.8227  -53.9589  -20.1202 C   0  0  0  0  0  0  0  0  0  0  0  0
   -0.7437  -53.9228  -21.4958 C   0  0  0  0  0  0  0  0  0  0  0  0
   -1.1730  -54.9518  -22.2645 N   0  0  0  0  0  0  0  0  0  0  0  0
   -1.0876  -54.9023  -23.6188 C   0  0  0  0  0  0  0  0  0  0  0  0
   -0.5576  -53.7962  -24.2678 C   0  0  0  0  0  0  0  0  0  0  0  0
   -0.1285  -52.7629  -23.4597 C   0  0  0  0  0  0  0  0  0  0  0  0
   -0.2124  -52.8071  -22.0849 C   0  0  0  0  0  0  0  0  0  0  0  0
    0.2277  -51.7535  -21.2898 C   0  0  0  0  0  0  0  0  0  0  0  0
    0.1663  -51.7511  -19.9240 C   0  0  0  0  0  0  0  0  0  0  0  0
    0.5914  -50.7136  -19.0619 N   0  0  0  0  0  0  0  0  0  0  0  0
    1.8292  -50.5737  -18.4427 C   0  0  0  0  0  0  0  0  0  0  0  0
    2.7410  -51.4127  -18.6024 O   0  0  0  0  0  0  0  0  0  0  0  0
   -0.1058  -49.9234  -18.8410 H   0  0  0  0  0  0  0  0  0  0  0  0
    2.1521  -49.4489  -17.5702 C   0  0  0  0  0  0  0  0  0  0  0  0
    2.8061  -48.3673  -17.9223 C   0  0  0  0  0  0  0  0  0  0  0  0
    3.1331  -47.2345  -17.0471 C   0  0  0  0  0  0  0  0  0  0  0  0
    2.9481  -47.3804  -15.6651 N   0  0  0  0  0  0  0  0  0  0  0  0
    1.8607  -46.6785  -15.0914 C   0  0  0  0  0  0  0  0  0  0  0  0
    4.0656  -47.6528  -14.8438 C   0  0  0  0  0  0  0  0  0  0  0  0
   -0.4641  -53.7373  -25.7035 C   0  0  0  0  0  0  0  0  0  0  0  0
   -0.3748  -53.7048  -26.8576 N   0  0  0  0  0  0  0  0  0  0  0  0
    0.4279  -51.5929  -24.0319 N   0  0  0  0  0  0  0  0  0  0  0  0
   -0.1653  -51.0034  -24.6252 H   0  0  0  0  0  0  0  0  0  0  0  0
    1.7816  -51.2734  -23.7683 C   0  0  0  0  0  0  0  0  0  0  0  0
    2.1725  -50.0342  -23.3549 C   0  0  0  0  0  0  0  0  0  0  0  0
    3.5100  -49.7289  -23.0936 C   0  0  0  0  0  0  0  0  0  0  0  0
    4.4608  -50.7037  -23.2574 C   0  0  0  0  0  0  0  0  0  0  0  0
    4.0538  -51.9588  -23.6776 C   0  0  0  0  0  0  0  0  0  0  0  0
    5.2476  -53.2335  -23.8988 Cl  0  0  0  0  0  0  0  0  0  0  0  0
    2.7421  -52.2520  -23.9319 C   0  0  0  0  0  0  0  0  0  0  0  0
    5.8021  -50.4688  -23.0157 O   0  0  0  0  0  0  0  0  0  0  0  0
    6.6547  -50.1456  -24.0914 C   0  0  0  0  0  0  0  0  0  0  0  0
    6.4480  -48.7489  -24.5246 C   0  0  0  0  0  0  0  0  0  0  0  0
    6.7609  -47.7249  -23.6892 C   0  0  0  0  0  0  0  0  0  0  0  0
    6.5633  -46.4222  -24.1114 C   0  0  0  0  0  0  0  0  0  0  0  0
    6.0473  -46.1919  -25.3854 C   0  0  0  0  0  0  0  0  0  0  0  0
    5.7259  -47.2080  -26.2419 C   0  0  0  0  0  0  0  0  0  0  0  0
    5.9411  -48.5037  -25.7753 C   0  0  0  0  0  0  0  0  0  0  0  0
   -0.4572  -52.9364  -17.9680 O   0  0  0  0  0  0  0  0  0  0  0  0
   -1.6105  -51.6046  -16.2697 C   0  0  0  0  0  0  0  0  0  0  0  0
   -1.6116  -52.7651  -17.2378 C   0  0  0  0  0  0  0  0  0  0  0  0
 41 42  1  0  0  0
 42 40  1  0  0  0
 40  1  1  0  0  0
  1  2  2  0  0  0
  2  3  1  0  0  0
  3  4  2  0  0  0
  4  5  1  0  0  0
  5  6  2  0  0  0
  6 21  1  0  0  0
 21 22  3  0  0  0
  6  7  1  0  0  0
  7 23  1  0  0  0
 23 25  1  0  0  0
 25 26  2  0  0  0
 26 27  1  0  0  0
 27 28  2  0  0  0
 28 32  1  0  0  0
 32 33  1  0  0  0
 33 34  1  0  0  0
 34 35  2  0  0  0
 35 36  1  0  0  0
 36 37  2  0  0  0
 37 38  1  0  0  0
 38 39  2  0  0  0
 28 29  1  0  0  0
 29 30  1  0  0  0
 29 31  2  0  0  0
  7  8  2  0  0  0
  8  9  1  0  0  0
  9 10  2  0  0  0
 10 11  1  0  0  0
 11 12  1  0  0  0
 12 13  2  0  0  0
 12 15  1  0  0  0
 15 16  2  0  0  0
 16 17  1  0  0  0
 17 18  1  0  0  0
 18 19  1  0  0  0
 18 20  1  0  0  0
 10  1  1  0  0  0
  8  3  1  0  0  0
 31 25  1  0  0  0
 39 34  1  0  0  0
 23 24  1  0  0  0
 11 14  1  0  0  0
M  END
> <minimizedAffinity>
-6.89401

> <CNNscore>
0.6499130726

> <CNNaffinity>
7.6969881058

> <CNN_VS>
5.0023732185

> <CNNaffinity_variance>
0.1138077229

$$$$
[H]/C(C(=O)N([H])c1c(OC([H])([H])C([H])([H])[H])c([H])c2nc([H])c(C#N)c(N([H])c3c([H])c([H])c(OC([H])([H])c4c([H])c([H])c([H])c([H])c4[H])c(Cl)c3[H])c2c1[H])=C(/[H])C([H])([H])N(C([H])([H])[H])C([H])([H])[H]


 42 45  0  0  0  0  0  0  0  0999 V2000
   -0.5649  -52.8677  -19.3457 C   0  0  0  0  0  0  0  0  0  0  0  0
   -0.9369  -53.9469  -20.1251 C   0  0  0  0  0  0  0  0  0  0  0  0
   -0.8036  -53.9425  -21.4970 C   0  0  0  0  0  0  0  0  0  0  0  0
   -1.1695  -55.0034  -22.2550 N   0  0  0  0  0  0  0  0  0  0  0  0
   -1.0311  -54.9849  -23.6056 C   0  0  0  0  0  0  0  0  0  0  0  0
   -0.5097  -53.8790  -24.2618 C   0  0  0  0  0  0  0  0  0  0  0  0
   -0.1457  -52.8127  -23.4646 C   0  0  0  0  0  0  0  0  0  0  0  0
   -0.2836  -52.8254  -22.0935 C   0  0  0  0  0  0  0  0  0  0  0  0
    0.0912  -51.7389  -21.3094 C   0  0  0  0  0  0  0  0  0  0  0  0
   -0.0253  -51.7045  -19.9476 C   0  0  0  0  0  0  0  0  0  0  0  0
    0.3324  -50.6329  -19.0967 N   0  0  0  0  0  0  0  0  0  0  0  0
    1.5451  -50.4295  -18.4463 C   0  0  0  0  0  0  0  0  0  0  0  0
    2.4943  -51.2335  -18.5620 O   0  0  0  0  0  0  0  0  0  0  0  0
   -0.4023  -49.8675  -18.9128 H   0  0  0  0  0  0  0  0  0  0  0  0
    1.7969  -49.2747  -17.5898 C   0  0  0  0  0  0  0  0  0  0  0  0
    1.3328  -49.1046  -16.3744 C   0  0  0  0  0  0  0  0  0  0  0  0
    1.5836  -47.9440  -15.5105 C   0  0  0  0  0  0  0  0  0  0  0  0
    0.4879  -47.2995  -14.9194 N   0  0  0  0  0  0  0  0  0  0  0  0
   -0.7936  -47.8238  -15.2148 C   0  0  0  0  0  0  0  0  0  0  0  0
    0.5828  -45.9250  -14.6045 C   0  0  0  0  0  0  0  0  0  0  0  0
   -0.3602  -53.8527  -25.6938 C   0  0  0  0  0  0  0  0  0  0  0  0
   -0.2525  -53.8479  -26.8467 N   0  0  0  0  0  0  0  0  0  0  0  0
    0.3969  -51.6401  -24.0447 N   0  0  0  0  0  0  0  0  0  0  0  0
   -0.1897  -51.0848  -24.6763 H   0  0  0  0  0  0  0  0  0  0  0  0
    1.7283  -51.2711  -23.7360 C   0  0  0  0  0  0  0  0  0  0  0  0
    2.0549  -50.0274  -23.2821 C   0  0  0  0  0  0  0  0  0  0  0  0
    3.3708  -49.6731  -22.9764 C   0  0  0  0  0  0  0  0  0  0  0  0
    4.3663  -50.6028  -23.1372 C   0  0  0  0  0  0  0  0  0  0  0  0
    4.0243  -51.8628  -23.5989 C   0  0  0  0  0  0  0  0  0  0  0  0
    5.2768  -53.0804  -23.8175 Cl  0  0  0  0  0  0  0  0  0  0  0  0
    2.7336  -52.2041  -23.8965 C   0  0  0  0  0  0  0  0  0  0  0  0
    5.6894  -50.3181  -22.8527 O   0  0  0  0  0  0  0  0  0  0  0  0
    6.1717  -50.5008  -21.5402 C   0  0  0  0  0  0  0  0  0  0  0  0
    5.9783  -49.2785  -20.7344 C   0  0  0  0  0  0  0  0  0  0  0  0
    5.2670  -49.3319  -19.5786 C   0  0  0  0  0  0  0  0  0  0  0  0
    5.0971  -48.1781  -18.8342 C   0  0  0  0  0  0  0  0  0  0  0  0
    5.6607  -46.9873  -19.2889 C   0  0  0  0  0  0  0  0  0  0  0  0
    6.3802  -46.9116  -20.4491 C   0  0  0  0  0  0  0  0  0  0  0  0
    6.5260  -48.0977  -21.1667 C   0  0  0  0  0  0  0  0  0  0  0  0
   -0.6904  -52.8601  -17.9876 O   0  0  0  0  0  0  0  0  0  0  0  0
   -1.9655  -51.7880  -16.1953 C   0  0  0  0  0  0  0  0  0  0  0  0
   -1.8867  -52.8069  -17.3086 C   0  0  0  0  0  0  0  0  0  0  0  0
 41 42  1  0  0  0
 42 40  1  0  0  0
 40  1  1  0  0  0
  1  2  2  0  0  0
  2  3  1  0  0  0
  3  4  2  0  0  0
  4  5  1  0  0  0
  5  6  2  0  0  0
  6 21  1  0  0  0
 21 22  3  0  0  0
  6  7  1  0  0  0
  7 23  1  0  0  0
 23 25  1  0  0  0
 25 26  2  0  0  0
 26 27  1  0  0  0
 27 28  2  0  0  0
 28 32  1  0  0  0
 32 33  1  0  0  0
 33 34  1  0  0  0
 34 35  2  0  0  0
 35 36  1  0  0  0
 36 37  2  0  0  0
 37 38  1  0  0  0
 38 39  2  0  0  0
 28 29  1  0  0  0
 29 30  1  0  0  0
 29 31  2  0  0  0
  7  8  2  0  0  0
  8  9  1  0  0  0
  9 10  2  0  0  0
 10 11  1  0  0  0
 11 12  1  0  0  0
 12 13  2  0  0  0
 12 15  1  0  0  0
 15 16  2  0  0  0
 16 17  1  0  0  0
 17 18  1  0  0  0
 18 19  1  0  0  0
 18 20  1  0  0  0
 10  1  1  0  0  0
  8  3  1  0  0  0
 31 25  1  0  0  0
 39 34  1  0  0  0
 23 24  1  0  0  0
 11 14  1  0  0  0
M  END
> <minimizedAffinity>
-7.18485

> <CNNscore>
0.6482564211

> <CNNaffinity>
7.5589513779

> <CNN_VS>
4.9001388550

> <CNNaffinity_variance>
0.1290211380

$$$$
[H]/C(C(=O)N([H])c1c(OC([H])([H])C([H])([H])[H])c([H])c2nc([H])c(C#N)c(N([H])c3c([H])c([H])c(OC([H])([H])c4c([H])c([H])c([H])c([H])c4[H])c(Cl)c3[H])c2c1[H])=C(/[H])C([H])([H])N(C([H])([H])[H])C([H])([H])[H]


 42 45  0  0  0  0  0  0  0  0999 V2000
   -0.3082  -52.8248  -19.6999 C   0  0  0  0  0  0  0  0  0  0  0  0
   -0.6491  -53.9455  -20.4335 C   0  0  0  0  0  0  0  0  0  0  0  0
   -0.6071  -53.9622  -21.8111 C   0  0  0  0  0  0  0  0  0  0  0  0
   -0.9419  -55.0638  -22.5241 N   0  0  0  0  0  0  0  0  0  0  0  0
   -0.8944  -55.0655  -23.8811 C   0  0  0  0  0  0  0  0  0  0  0  0
   -0.5014  -53.9394  -24.5901 C   0  0  0  0  0  0  0  0  0  0  0  0
   -0.1662  -52.8317  -23.8381 C   0  0  0  0  0  0  0  0  0  0  0  0
   -0.2123  -52.8237  -22.4607 C   0  0  0  0  0  0  0  0  0  0  0  0
    0.1313  -51.6953  -21.7228 C   0  0  0  0  0  0  0  0  0  0  0  0
    0.1024  -51.6390  -20.3571 C   0  0  0  0  0  0  0  0  0  0  0  0
    0.4344  -50.5252  -19.5511 N   0  0  0  0  0  0  0  0  0  0  0  0
    1.6870  -50.1719  -19.0599 C   0  0  0  0  0  0  0  0  0  0  0  0
    2.7035  -50.8566  -19.3024 O   0  0  0  0  0  0  0  0  0  0  0  0
   -0.3575  -49.8525  -19.2688 H   0  0  0  0  0  0  0  0  0  0  0  0
    1.9054  -48.9883  -18.2342 C   0  0  0  0  0  0  0  0  0  0  0  0
    2.3831  -48.9822  -17.0122 C   0  0  0  0  0  0  0  0  0  0  0  0
    2.6034  -47.7935  -16.1787 C   0  0  0  0  0  0  0  0  0  0  0  0
    3.8980  -47.5378  -15.7052 N   0  0  0  0  0  0  0  0  0  0  0  0
    4.2215  -48.0549  -14.4276 C   0  0  0  0  0  0  0  0  0  0  0  0
    4.5742  -46.3746  -16.1377 C   0  0  0  0  0  0  0  0  0  0  0  0
   -0.4488  -53.9344  -26.0291 C   0  0  0  0  0  0  0  0  0  0  0  0
   -0.3996  -53.9110  -27.1858 N   0  0  0  0  0  0  0  0  0  0  0  0
    0.2480  -51.6358  -24.4738 N   0  0  0  0  0  0  0  0  0  0  0  0
   -0.4665  -51.0005  -24.8441 H   0  0  0  0  0  0  0  0  0  0  0  0
    1.6315  -51.3544  -24.5783 C   0  0  0  0  0  0  0  0  0  0  0  0
    2.1084  -50.2827  -25.2736 C   0  0  0  0  0  0  0  0  0  0  0  0
    3.4749  -50.0106  -25.3684 C   0  0  0  0  0  0  0  0  0  0  0  0
    4.3660  -50.8457  -24.7442 C   0  0  0  0  0  0  0  0  0  0  0  0
    3.8718  -51.9315  -24.0409 C   0  0  0  0  0  0  0  0  0  0  0  0
    4.9872  -53.0243  -23.2281 Cl  0  0  0  0  0  0  0  0  0  0  0  0
    2.5321  -52.1928  -23.9514 C   0  0  0  0  0  0  0  0  0  0  0  0
    5.7316  -50.6340  -24.7976 O   0  0  0  0  0  0  0  0  0  0  0  0
    6.2656  -49.4232  -24.3100 C   0  0  0  0  0  0  0  0  0  0  0  0
    6.0704  -49.3129  -22.8503 C   0  0  0  0  0  0  0  0  0  0  0  0
    6.8010  -50.0867  -22.0065 C   0  0  0  0  0  0  0  0  0  0  0  0
    6.6075  -49.9693  -20.6416 C   0  0  0  0  0  0  0  0  0  0  0  0
    5.6665  -49.0585  -20.1648 C   0  0  0  0  0  0  0  0  0  0  0  0
    4.9208  -48.2702  -20.9965 C   0  0  0  0  0  0  0  0  0  0  0  0
    5.1485  -48.4217  -22.3634 C   0  0  0  0  0  0  0  0  0  0  0  0
   -0.3442  -52.7959  -18.3368 O   0  0  0  0  0  0  0  0  0  0  0  0
   -1.5437  -51.8364  -16.4319 C   0  0  0  0  0  0  0  0  0  0  0  0
   -1.4938  -52.8182  -17.5798 C   0  0  0  0  0  0  0  0  0  0  0  0
 41 42  1  0  0  0
 42 40  1  0  0  0
 40  1  1  0  0  0
  1  2  2  0  0  0
  2  3  1  0  0  0
  3  4  2  0  0  0
  4  5  1  0  0  0
  5  6  2  0  0  0
  6 21  1  0  0  0
 21 22  3  0  0  0
  6  7  1  0  0  0
  7 23  1  0  0  0
 23 25  1  0  0  0
 25 26  2  0  0  0
 26 27  1  0  0  0
 27 28  2  0  0  0
 28 32  1  0  0  0
 32 33  1  0  0  0
 33 34  1  0  0  0
 34 35  2  0  0  0
 35 36  1  0  0  0
 36 37  2  0  0  0
 37 38  1  0  0  0
 38 39  2  0  0  0
 28 29  1  0  0  0
 29 30  1  0  0  0
 29 31  2  0  0  0
  7  8  2  0  0  0
  8  9  1  0  0  0
  9 10  2  0  0  0
 10 11  1  0  0  0
 11 12  1  0  0  0
 12 13  2  0  0  0
 12 15  1  0  0  0
 15 16  2  0  0  0
 16 17  1  0  0  0
 17 18  1  0  0  0
 18 19  1  0  0  0
 18 20  1  0  0  0
 10  1  1  0  0  0
  8  3  1  0  0  0
 31 25  1  0  0  0
 39 34  1  0  0  0
 23 24  1  0  0  0
 11 14  1  0  0  0
M  END
> <minimizedAffinity>
-6.81959

> <CNNscore>
0.5844262242

> <CNNaffinity>
7.6459488869

> <CNN_VS>
4.4684929848

> <CNNaffinity_variance>
0.1280722171

$$$$
[H]/C(C(=O)N([H])c1c(OC([H])([H])C([H])([H])[H])c([H])c2nc([H])c(C#N)c(N([H])c3c([H])c([H])c(OC([H])([H])c4c([H])c([H])c([H])c([H])c4[H])c(Cl)c3[H])c2c1[H])=C(/[H])C([H])([H])N(C([H])([H])[H])C([H])([H])[H]


 42 45  0  0  0  0  0  0  0  0999 V2000
   -0.4402  -52.8971  -19.5011 C   0  0  0  0  0  0  0  0  0  0  0  0
   -0.8664  -53.9816  -20.2446 C   0  0  0  0  0  0  0  0  0  0  0  0
   -0.7909  -54.0037  -21.6206 C   0  0  0  0  0  0  0  0  0  0  0  0
   -1.2097  -55.0697  -22.3433 N   0  0  0  0  0  0  0  0  0  0  0  0
   -1.1280  -55.0775  -23.6987 C   0  0  0  0  0  0  0  0  0  0  0  0
   -0.6126  -53.9942  -24.3960 C   0  0  0  0  0  0  0  0  0  0  0  0
   -0.1939  -52.9222  -23.6343 C   0  0  0  0  0  0  0  0  0  0  0  0
   -0.2742  -52.9082  -22.2586 C   0  0  0  0  0  0  0  0  0  0  0  0
    0.1552  -51.8164  -21.5107 C   0  0  0  0  0  0  0  0  0  0  0  0
    0.0969  -51.7560  -20.1461 C   0  0  0  0  0  0  0  0  0  0  0  0
    0.5116  -50.6774  -19.3305 N   0  0  0  0  0  0  0  0  0  0  0  0
    1.7241  -50.5296  -18.6648 C   0  0  0  0  0  0  0  0  0  0  0  0
    2.6187  -51.3992  -18.7308 O   0  0  0  0  0  0  0  0  0  0  0  0
   -0.1728  -49.8580  -19.1908 H   0  0  0  0  0  0  0  0  0  0  0  0
    2.0387  -49.3609  -17.8490 C   0  0  0  0  0  0  0  0  0  0  0  0
    3.1604  -49.1575  -17.1995 C   0  0  0  0  0  0  0  0  0  0  0  0
    3.4798  -47.9834  -16.3775 C   0  0  0  0  0  0  0  0  0  0  0  0
    3.2063  -48.0331  -15.0034 N   0  0  0  0  0  0  0  0  0  0  0  0
    3.8052  -49.0880  -14.2735 C   0  0  0  0  0  0  0  0  0  0  0  0
    1.9858  -47.5069  -14.5227 C   0  0  0  0  0  0  0  0  0  0  0  0
   -0.5231  -53.9959  -25.8332 C   0  0  0  0  0  0  0  0  0  0  0  0
   -0.4338  -53.9861  -26.9877 N   0  0  0  0  0  0  0  0  0  0  0  0
    0.3472  -51.7714  -24.2578 N   0  0  0  0  0  0  0  0  0  0  0  0
   -0.2940  -51.0848  -24.6685 H   0  0  0  0  0  0  0  0  0  0  0  0
    1.7525  -51.6041  -24.2948 C   0  0  0  0  0  0  0  0  0  0  0  0
    2.6143  -52.6607  -24.2843 C   0  0  0  0  0  0  0  0  0  0  0  0
    3.9995  -52.4865  -24.3248 C   0  0  0  0  0  0  0  0  0  0  0  0
    4.5103  -51.2147  -24.3766 C   0  0  0  0  0  0  0  0  0  0  0  0
    3.6268  -50.1484  -24.3866 C   0  0  0  0  0  0  0  0  0  0  0  0
    4.2480  -48.5025  -24.4520 Cl  0  0  0  0  0  0  0  0  0  0  0  0
    2.2711  -50.3253  -24.3469 C   0  0  0  0  0  0  0  0  0  0  0  0
    5.8711  -50.9715  -24.4191 O   0  0  0  0  0  0  0  0  0  0  0  0
    6.6631  -51.2601  -23.2886 C   0  0  0  0  0  0  0  0  0  0  0  0
    6.4048  -50.2910  -22.2046 C   0  0  0  0  0  0  0  0  0  0  0  0
    5.5242  -50.5954  -21.2165 C   0  0  0  0  0  0  0  0  0  0  0  0
    5.2953  -49.6773  -20.2070 C   0  0  0  0  0  0  0  0  0  0  0  0
    5.9749  -48.4607  -20.2285 C   0  0  0  0  0  0  0  0  0  0  0  0
    6.8653  -48.1344  -21.2134 C   0  0  0  0  0  0  0  0  0  0  0  0
    7.0649  -49.0887  -22.2098 C   0  0  0  0  0  0  0  0  0  0  0  0
   -0.5081  -52.8633  -18.1393 O   0  0  0  0  0  0  0  0  0  0  0  0
   -1.7675  -51.8100  -16.3249 C   0  0  0  0  0  0  0  0  0  0  0  0
   -1.6757  -52.8578  -17.4100 C   0  0  0  0  0  0  0  0  0  0  0  0
 41 42  1  0  0  0
 42 40  1  0  0  0
 40  1  1  0  0  0
  1  2  2  0  0  0
  2  3  1  0  0  0
  3  4  2  0  0  0
  4  5  1  0  0  0
  5  6  2  0  0  0
  6 21  1  0  0  0
 21 22  3  0  0  0
  6  7  1  0  0  0
  7 23  1  0  0  0
 23 25  1  0  0  0
 25 26  2  0  0  0
 26 27  1  0  0  0
 27 28  2  0  0  0
 28 32  1  0  0  0
 32 33  1  0  0  0
 33 34  1  0  0  0
 34 35  2  0  0  0
 35 36  1  0  0  0
 36 37  2  0  0  0
 37 38  1  0  0  0
 38 39  2  0  0  0
 28 29  1  0  0  0
 29 30  1  0  0  0
 29 31  2  0  0  0
  7  8  2  0  0  0
  8  9  1  0  0  0
  9 10  2  0  0  0
 10 11  1  0  0  0
 11 12  1  0  0  0
 12 13  2  0  0  0
 12 15  1  0  0  0
 15 16  2  0  0  0
 16 17  1  0  0  0
 17 18  1  0  0  0
 18 19  1  0  0  0
 18 20  1  0  0  0
 10  1  1  0  0  0
  8  3  1  0  0  0
 31 25  1  0  0  0
 39 34  1  0  0  0
 23 24  1  0  0  0
 11 14  1  0  0  0
M  END
> <minimizedAffinity>
-7.36769

> <CNNscore>
0.5675143003

> <CNNaffinity>
7.5910978317

> <CNN_VS>
4.3080563545

> <CNNaffinity_variance>
0.0905839503

$$$$
[H]/C(C(=O)N([H])c1c(OC([H])([H])C([H])([H])[H])c([H])c2nc([H])c(C#N)c(N([H])c3c([H])c([H])c(OC([H])([H])c4c([H])c([H])c([H])c([H])c4[H])c(Cl)c3[H])c2c1[H])=C(/[H])C([H])([H])N(C([H])([H])[H])C([H])([H])[H]


 42 45  0  0  0  0  0  0  0  0999 V2000
    0.7610  -52.4009  -26.9329 C   0  0  0  0  0  0  0  0  0  0  0  0
   -0.2374  -53.0937  -26.2744 C   0  0  0  0  0  0  0  0  0  0  0  0
   -0.1693  -53.3761  -24.9271 C   0  0  0  0  0  0  0  0  0  0  0  0
   -1.1514  -54.0549  -24.2876 N   0  0  0  0  0  0  0  0  0  0  0  0
   -1.0708  -54.3247  -22.9593 C   0  0  0  0  0  0  0  0  0  0  0  0
    0.0201  -53.9161  -22.2054 C   0  0  0  0  0  0  0  0  0  0  0  0
    1.0055  -53.2269  -22.8829 C   0  0  0  0  0  0  0  0  0  0  0  0
    0.9295  -52.9498  -24.2307 C   0  0  0  0  0  0  0  0  0  0  0  0
    1.9349  -52.2523  -24.8930 C   0  0  0  0  0  0  0  0  0  0  0  0
    1.9044  -51.9530  -26.2267 C   0  0  0  0  0  0  0  0  0  0  0  0
    2.8928  -51.2533  -26.9574 N   0  0  0  0  0  0  0  0  0  0  0  0
    3.2838  -49.9268  -26.8076 C   0  0  0  0  0  0  0  0  0  0  0  0
    2.7583  -49.1805  -25.9544 O   0  0  0  0  0  0  0  0  0  0  0  0
    3.4228  -51.7865  -27.7282 H   0  0  0  0  0  0  0  0  0  0  0  0
    4.3256  -49.3142  -27.6261 C   0  0  0  0  0  0  0  0  0  0  0  0
    4.2772  -48.1169  -28.1606 C   0  0  0  0  0  0  0  0  0  0  0  0
    5.3230  -47.4980  -28.9849 C   0  0  0  0  0  0  0  0  0  0  0  0
    5.6572  -48.0998  -30.2062 N   0  0  0  0  0  0  0  0  0  0  0  0
    7.0357  -48.2962  -30.4623 C   0  0  0  0  0  0  0  0  0  0  0  0
    4.7960  -47.9367  -31.3149 C   0  0  0  0  0  0  0  0  0  0  0  0
    0.1118  -54.1989  -20.7965 C   0  0  0  0  0  0  0  0  0  0  0  0
    0.1941  -54.4446  -19.6679 N   0  0  0  0  0  0  0  0  0  0  0  0
    2.1567  -52.7687  -22.1969 N   0  0  0  0  0  0  0  0  0  0  0  0
    3.0699  -53.1617  -22.4477 H   0  0  0  0  0  0  0  0  0  0  0  0
    2.0125  -51.7851  -21.1890 C   0  0  0  0  0  0  0  0  0  0  0  0
    2.3983  -51.9994  -19.8988 C   0  0  0  0  0  0  0  0  0  0  0  0
    2.2557  -51.0219  -18.9116 C   0  0  0  0  0  0  0  0  0  0  0  0
    1.7110  -49.8089  -19.2480 C   0  0  0  0  0  0  0  0  0  0  0  0
    1.3222  -49.6012  -20.5608 C   0  0  0  0  0  0  0  0  0  0  0  0
    0.6189  -48.0564  -21.0274 Cl  0  0  0  0  0  0  0  0  0  0  0  0
    1.4646  -50.5625  -21.5234 C   0  0  0  0  0  0  0  0  0  0  0  0
    1.5420  -48.7975  -18.3201 O   0  0  0  0  0  0  0  0  0  0  0  0
    1.6429  -49.0935  -16.9450 C   0  0  0  0  0  0  0  0  0  0  0  0
    0.3100  -49.3510  -16.3636 C   0  0  0  0  0  0  0  0  0  0  0  0
   -0.2017  -50.6090  -16.3675 C   0  0  0  0  0  0  0  0  0  0  0  0
   -1.4510  -50.8334  -15.8167 C   0  0  0  0  0  0  0  0  0  0  0  0
   -2.1550  -49.7619  -15.2704 C   0  0  0  0  0  0  0  0  0  0  0  0
   -1.6584  -48.4881  -15.2562 C   0  0  0  0  0  0  0  0  0  0  0  0
   -0.3970  -48.3080  -15.8215 C   0  0  0  0  0  0  0  0  0  0  0  0
    0.7050  -52.1139  -28.2651 O   0  0  0  0  0  0  0  0  0  0  0  0
   -1.2026  -52.8881  -29.5878 C   0  0  0  0  0  0  0  0  0  0  0  0
    0.2648  -52.9818  -29.2388 C   0  0  0  0  0  0  0  0  0  0  0  0
 41 42  1  0  0  0
 42 40  1  0  0  0
 40  1  1  0  0  0
  1  2  2  0  0  0
  2  3  1  0  0  0
  3  4  2  0  0  0
  4  5  1  0  0  0
  5  6  2  0  0  0
  6 21  1  0  0  0
 21 22  3  0  0  0
  6  7  1  0  0  0
  7 23  1  0  0  0
 23 25  1  0  0  0
 25 26  2  0  0  0
 26 27  1  0  0  0
 27 28  2  0  0  0
 28 32  1  0  0  0
 32 33  1  0  0  0
 33 34  1  0  0  0
 34 35  2  0  0  0
 35 36  1  0  0  0
 36 37  2  0  0  0
 37 38  1  0  0  0
 38 39  2  0  0  0
 28 29  1  0  0  0
 29 30  1  0  0  0
 29 31  2  0  0  0
  7  8  2  0  0  0
  8  9  1  0  0  0
  9 10  2  0  0  0
 10 11  1  0  0  0
 11 12  1  0  0  0
 12 13  2  0  0  0
 12 15  1  0  0  0
 15 16  2  0  0  0
 16 17  1  0  0  0
 17 18  1  0  0  0
 18 19  1  0  0  0
 18 20  1  0  0  0
 10  1  1  0  0  0
  8  3  1  0  0  0
 31 25  1  0  0  0
 39 34  1  0  0  0
 23 24  1  0  0  0
 11 14  1  0  0  0
M  END
> <minimizedAffinity>
-6.25167

> <CNNscore>
0.5132158995

> <CNNaffinity>
7.4843010902

> <CNN_VS>
3.8410623074

> <CNNaffinity_variance>
0.1519685090

$$$$
[H]/C(C(=O)N([H])c1c(OC([H])([H])C([H])([H])[H])c([H])c2nc([H])c(C#N)c(N([H])c3c([H])c([H])c(OC([H])([H])c4c([H])c([H])c([H])c([H])c4[H])c(Cl)c3[H])c2c1[H])=C(/[H])C([H])([H])N(C([H])([H])[H])C([H])([H])[H]


 42 45  0  0  0  0  0  0  0  0999 V2000
   -0.6683  -52.8881  -19.2610 C   0  0  0  0  0  0  0  0  0  0  0  0
   -1.0781  -53.9626  -20.0277 C   0  0  0  0  0  0  0  0  0  0  0  0
   -0.9322  -53.9850  -21.3981 C   0  0  0  0  0  0  0  0  0  0  0  0
   -1.3353  -55.0413  -22.1436 N   0  0  0  0  0  0  0  0  0  0  0  0
   -1.1839  -55.0494  -23.4930 C   0  0  0  0  0  0  0  0  0  0  0  0
   -0.6106  -53.9765  -24.1606 C   0  0  0  0  0  0  0  0  0  0  0  0
   -0.2095  -52.9142  -23.3760 C   0  0  0  0  0  0  0  0  0  0  0  0
   -0.3603  -52.9000  -22.0063 C   0  0  0  0  0  0  0  0  0  0  0  0
    0.0526  -51.8181  -21.2350 C   0  0  0  0  0  0  0  0  0  0  0  0
   -0.0748  -51.7579  -19.8751 C   0  0  0  0  0  0  0  0  0  0  0  0
    0.3198  -50.6891  -19.0369 N   0  0  0  0  0  0  0  0  0  0  0  0
    1.5417  -50.5159  -18.3952 C   0  0  0  0  0  0  0  0  0  0  0  0
    2.4658  -51.3491  -18.5082 O   0  0  0  0  0  0  0  0  0  0  0  0
   -0.3906  -49.9003  -18.8566 H   0  0  0  0  0  0  0  0  0  0  0  0
    1.8330  -49.3607  -17.5518 C   0  0  0  0  0  0  0  0  0  0  0  0
    1.3206  -49.1268  -16.3667 C   0  0  0  0  0  0  0  0  0  0  0  0
    1.6109  -47.9656  -15.5161 C   0  0  0  0  0  0  0  0  0  0  0  0
    2.9067  -47.4307  -15.5319 N   0  0  0  0  0  0  0  0  0  0  0  0
    3.8504  -48.0240  -14.6591 C   0  0  0  0  0  0  0  0  0  0  0  0
    3.0888  -46.0723  -15.8770 C   0  0  0  0  0  0  0  0  0  0  0  0
   -0.4471  -53.9786  -25.5913 C   0  0  0  0  0  0  0  0  0  0  0  0
   -0.2957  -53.9755  -26.7393 N   0  0  0  0  0  0  0  0  0  0  0  0
    0.3871  -51.7744  -23.9683 N   0  0  0  0  0  0  0  0  0  0  0  0
   -0.2022  -51.1344  -24.5108 H   0  0  0  0  0  0  0  0  0  0  0  0
    1.7746  -51.5537  -23.7940 C   0  0  0  0  0  0  0  0  0  0  0  0
    2.7127  -52.4691  -24.1700 C   0  0  0  0  0  0  0  0  0  0  0  0
    4.0798  -52.2413  -23.9976 C   0  0  0  0  0  0  0  0  0  0  0  0
    4.4933  -51.0619  -23.4328 C   0  0  0  0  0  0  0  0  0  0  0  0
    3.5329  -50.1389  -23.0541 C   0  0  0  0  0  0  0  0  0  0  0  0
    4.0282  -48.6148  -22.3256 Cl  0  0  0  0  0  0  0  0  0  0  0  0
    2.1952  -50.3675  -23.2257 C   0  0  0  0  0  0  0  0  0  0  0  0
    5.8310  -50.7726  -23.2340 O   0  0  0  0  0  0  0  0  0  0  0  0
    6.6460  -50.4627  -24.3423 C   0  0  0  0  0  0  0  0  0  0  0  0
    6.4829  -49.0486  -24.7355 C   0  0  0  0  0  0  0  0  0  0  0  0
    5.7636  -48.7296  -25.8424 C   0  0  0  0  0  0  0  0  0  0  0  0
    5.6185  -47.3997  -26.1956 C   0  0  0  0  0  0  0  0  0  0  0  0
    6.2147  -46.4183  -25.4059 C   0  0  0  0  0  0  0  0  0  0  0  0
    6.9427  -46.7176  -24.2880 C   0  0  0  0  0  0  0  0  0  0  0  0
    7.0629  -48.0694  -23.9699 C   0  0  0  0  0  0  0  0  0  0  0  0
   -0.8057  -52.8543  -17.9045 O   0  0  0  0  0  0  0  0  0  0  0  0
   -2.1194  -51.8181  -16.1189 C   0  0  0  0  0  0  0  0  0  0  0  0
   -2.0090  -52.8296  -17.2362 C   0  0  0  0  0  0  0  0  0  0  0  0
 41 42  1  0  0  0
 42 40  1  0  0  0
 40  1  1  0  0  0
  1  2  2  0  0  0
  2  3  1  0  0  0
  3  4  2  0  0  0
  4  5  1  0  0  0
  5  6  2  0  0  0
  6 21  1  0  0  0
 21 22  3  0  0  0
  6  7  1  0  0  0
  7 23  1  0  0  0
 23 25  1  0  0  0
 25 26  2  0  0  0
 26 27  1  0  0  0
 27 28  2  0  0  0
 28 32  1  0  0  0
 32 33  1  0  0  0
 33 34  1  0  0  0
 34 35  2  0  0  0
 35 36  1  0  0  0
 36 37  2  0  0  0
 37 38  1  0  0  0
 38 39  2  0  0  0
 28 29  1  0  0  0
 29 30  1  0  0  0
 29 31  2  0  0  0
  7  8  2  0  0  0
  8  9  1  0  0  0
  9 10  2  0  0  0
 10 11  1  0  0  0
 11 12  1  0  0  0
 12 13  2  0  0  0
 12 15  1  0  0  0
 15 16  2  0  0  0
 16 17  1  0  0  0
 17 18  1  0  0  0
 18 19  1  0  0  0
 18 20  1  0  0  0
 10  1  1  0  0  0
  8  3  1  0  0  0
 31 25  1  0  0  0
 39 34  1  0  0  0
 23 24  1  0  0  0
 11 14  1  0  0  0
M  END
> <minimizedAffinity>
-7.06578

> <CNNscore>
0.4793581367

> <CNNaffinity>
7.4551138878

> <CNN_VS>
3.5736694336

> <CNNaffinity_variance>
0.0606372431

$$$$
[H]/C(C(=O)N([H])c1c(OC([H])([H])C([H])([H])[H])c([H])c2nc([H])c(C#N)c(N([H])c3c([H])c([H])c(OC([H])([H])c4c([H])c([H])c([H])c([H])c4[H])c(Cl)c3[H])c2c1[H])=C(/[H])C([H])([H])N(C([H])([H])[H])C([H])([H])[H]


 42 45  0  0  0  0  0  0  0  0999 V2000
   -0.2980  -52.3370  -21.1486 C   0  0  0  0  0  0  0  0  0  0  0  0
   -0.7386  -53.0356  -22.2569 C   0  0  0  0  0  0  0  0  0  0  0  0
    0.0000  -53.1121  -23.4181 C   0  0  0  0  0  0  0  0  0  0  0  0
   -0.4372  -53.7988  -24.5004 N   0  0  0  0  0  0  0  0  0  0  0  0
    0.3023  -53.8663  -25.6372 C   0  0  0  0  0  0  0  0  0  0  0  0
    1.5340  -53.2348  -25.7346 C   0  0  0  0  0  0  0  0  0  0  0  0
    1.9542  -52.5426  -24.6170 C   0  0  0  0  0  0  0  0  0  0  0  0
    1.2085  -52.4704  -23.4604 C   0  0  0  0  0  0  0  0  0  0  0  0
    1.6527  -51.7672  -22.3450 C   0  0  0  0  0  0  0  0  0  0  0  0
    0.9501  -51.6676  -21.1764 C   0  0  0  0  0  0  0  0  0  0  0  0
    1.3433  -50.9670  -20.0123 N   0  0  0  0  0  0  0  0  0  0  0  0
    2.4644  -51.1923  -19.2201 C   0  0  0  0  0  0  0  0  0  0  0  0
    3.2820  -52.0995  -19.4835 O   0  0  0  0  0  0  0  0  0  0  0  0
    0.7192  -50.1567  -19.6759 H   0  0  0  0  0  0  0  0  0  0  0  0
    2.7664  -50.3946  -18.0356 C   0  0  0  0  0  0  0  0  0  0  0  0
    3.2884  -50.8451  -16.9194 C   0  0  0  0  0  0  0  0  0  0  0  0
    3.5928  -50.0456  -15.7259 C   0  0  0  0  0  0  0  0  0  0  0  0
    3.8352  -50.7123  -14.5167 N   0  0  0  0  0  0  0  0  0  0  0  0
    3.6911  -52.1206  -14.5270 C   0  0  0  0  0  0  0  0  0  0  0  0
    3.6107  -50.0341  -13.2972 C   0  0  0  0  0  0  0  0  0  0  0  0
    2.3233  -53.3025  -26.9372 C   0  0  0  0  0  0  0  0  0  0  0  0
    2.9409  -53.3613  -27.9149 N   0  0  0  0  0  0  0  0  0  0  0  0
    3.1989  -51.8668  -24.6219 N   0  0  0  0  0  0  0  0  0  0  0  0
    4.0338  -52.3675  -24.3001 H   0  0  0  0  0  0  0  0  0  0  0  0
    3.2528  -50.5249  -25.0697 C   0  0  0  0  0  0  0  0  0  0  0  0
    3.2873  -50.1974  -26.3930 C   0  0  0  0  0  0  0  0  0  0  0  0
    3.3367  -48.8704  -26.8259 C   0  0  0  0  0  0  0  0  0  0  0  0
    3.3513  -47.8648  -25.8933 C   0  0  0  0  0  0  0  0  0  0  0  0
    3.3163  -48.2079  -24.5521 C   0  0  0  0  0  0  0  0  0  0  0  0
    3.3344  -46.9427  -23.3282 Cl  0  0  0  0  0  0  0  0  0  0  0  0
    3.2678  -49.5094  -24.1341 C   0  0  0  0  0  0  0  0  0  0  0  0
    3.3992  -46.5304  -26.2534 O   0  0  0  0  0  0  0  0  0  0  0  0
    4.3011  -46.1138  -27.2542 C   0  0  0  0  0  0  0  0  0  0  0  0
    3.6639  -46.1544  -28.5859 C   0  0  0  0  0  0  0  0  0  0  0  0
    2.3977  -45.6910  -28.7478 C   0  0  0  0  0  0  0  0  0  0  0  0
    1.8162  -45.7341  -30.0025 C   0  0  0  0  0  0  0  0  0  0  0  0
    2.5449  -46.2525  -31.0714 C   0  0  0  0  0  0  0  0  0  0  0  0
    3.8205  -46.7240  -30.9303 C   0  0  0  0  0  0  0  0  0  0  0  0
    4.3665  -46.6613  -29.6493 C   0  0  0  0  0  0  0  0  0  0  0  0
   -1.0185  -52.2548  -19.9935 O   0  0  0  0  0  0  0  0  0  0  0  0
   -0.8089  -52.4841  -17.5663 C   0  0  0  0  0  0  0  0  0  0  0  0
   -0.9046  -53.1240  -18.9320 C   0  0  0  0  0  0  0  0  0  0  0  0
 41 42  1  0  0  0
 42 40  1  0  0  0
 40  1  1  0  0  0
  1  2  2  0  0  0
  2  3  1  0  0  0
  3  4  2  0  0  0
  4  5  1  0  0  0
  5  6  2  0  0  0
  6 21  1  0  0  0
 21 22  3  0  0  0
  6  7  1  0  0  0
  7 23  1  0  0  0
 23 25  1  0  0  0
 25 26  2  0  0  0
 26 27  1  0  0  0
 27 28  2  0  0  0
 28 32  1  0  0  0
 32 33  1  0  0  0
 33 34  1  0  0  0
 34 35  2  0  0  0
 35 36  1  0  0  0
 36 37  2  0  0  0
 37 38  1  0  0  0
 38 39  2  0  0  0
 28 29  1  0  0  0
 29 30  1  0  0  0
 29 31  2  0  0  0
  7  8  2  0  0  0
  8  9  1  0  0  0
  9 10  2  0  0  0
 10 11  1  0  0  0
 11 12  1  0  0  0
 12 13  2  0  0  0
 12 15  1  0  0  0
 15 16  2  0  0  0
 16 17  1  0  0  0
 17 18  1  0  0  0
 18 19  1  0  0  0
 18 20  1  0  0  0
 10  1  1  0  0  0
  8  3  1  0  0  0
 31 25  1  0  0  0
 39 34  1  0  0  0
 23 24  1  0  0  0
 11 14  1  0  0  0
M  END
> <minimizedAffinity>
-7.34073

> <CNNscore>
0.3811573982

> <CNNaffinity>
7.4245996475

> <CNN_VS>
2.8299410343

> <CNNaffinity_variance>
0.0825607479

$$$$
[H]/C(C(=O)N([H])c1c(OC([H])([H])C([H])([H])[H])c([H])c2nc([H])c(C#N)c(N([H])c3c([H])c([H])c(OC([H])([H])c4c([H])c([H])c([H])c([H])c4[H])c(Cl)c3[H])c2c1[H])=C(/[H])C([H])([H])N(C([H])([H])[H])C([H])([H])[H]


 42 45  0  0  0  0  0  0  0  0999 V2000
    0.9003  -53.0161  -26.5665 C   0  0  0  0  0  0  0  0  0  0  0  0
    0.2679  -54.1040  -25.9947 C   0  0  0  0  0  0  0  0  0  0  0  0
   -0.2336  -54.0708  -24.7113 C   0  0  0  0  0  0  0  0  0  0  0  0
   -0.8527  -55.1401  -24.1570 N   0  0  0  0  0  0  0  0  0  0  0  0
   -1.3430  -55.0920  -22.8916 C   0  0  0  0  0  0  0  0  0  0  0  0
   -1.2288  -53.9462  -22.1173 C   0  0  0  0  0  0  0  0  0  0  0  0
   -0.5934  -52.8725  -22.7074 C   0  0  0  0  0  0  0  0  0  0  0  0
   -0.0939  -52.9150  -23.9911 C   0  0  0  0  0  0  0  0  0  0  0  0
    0.5424  -51.8195  -24.5662 C   0  0  0  0  0  0  0  0  0  0  0  0
    1.0529  -51.8130  -25.8346 C   0  0  0  0  0  0  0  0  0  0  0  0
    1.7122  -50.7371  -26.4734 N   0  0  0  0  0  0  0  0  0  0  0  0
    3.0275  -50.3192  -26.2986 C   0  0  0  0  0  0  0  0  0  0  0  0
    3.7990  -50.8967  -25.5036 O   0  0  0  0  0  0  0  0  0  0  0  0
    1.1537  -50.1543  -27.1860 H   0  0  0  0  0  0  0  0  0  0  0  0
    3.5985  -49.1878  -27.0229 C   0  0  0  0  0  0  0  0  0  0  0  0
    3.5288  -47.9292  -26.6588 C   0  0  0  0  0  0  0  0  0  0  0  0
    4.1015  -46.7888  -27.3853 C   0  0  0  0  0  0  0  0  0  0  0  0
    3.3178  -46.1520  -28.3578 N   0  0  0  0  0  0  0  0  0  0  0  0
    1.9922  -45.8192  -27.9884 C   0  0  0  0  0  0  0  0  0  0  0  0
    3.5813  -46.3952  -29.7249 C   0  0  0  0  0  0  0  0  0  0  0  0
   -1.7464  -53.8885  -20.7748 C   0  0  0  0  0  0  0  0  0  0  0  0
   -2.1669  -53.8622  -19.6962 N   0  0  0  0  0  0  0  0  0  0  0  0
   -0.4306  -51.6594  -21.9947 N   0  0  0  0  0  0  0  0  0  0  0  0
   -1.0542  -50.8740  -22.2081 H   0  0  0  0  0  0  0  0  0  0  0  0
    0.5847  -51.5682  -21.0125 C   0  0  0  0  0  0  0  0  0  0  0  0
    0.3062  -51.4248  -19.6853 C   0  0  0  0  0  0  0  0  0  0  0  0
    1.3144  -51.3392  -18.7226 C   0  0  0  0  0  0  0  0  0  0  0  0
    2.6250  -51.4008  -19.1221 C   0  0  0  0  0  0  0  0  0  0  0  0
    2.8973  -51.5463  -20.4721 C   0  0  0  0  0  0  0  0  0  0  0  0
    4.5682  -51.6283  -21.0202 Cl  0  0  0  0  0  0  0  0  0  0  0  0
    1.9056  -51.6297  -21.4105 C   0  0  0  0  0  0  0  0  0  0  0  0
    3.6714  -51.3228  -18.2213 O   0  0  0  0  0  0  0  0  0  0  0  0
    3.7048  -50.2677  -17.2863 C   0  0  0  0  0  0  0  0  0  0  0  0
    3.3354  -50.7473  -15.9393 C   0  0  0  0  0  0  0  0  0  0  0  0
    4.0213  -51.7725  -15.3711 C   0  0  0  0  0  0  0  0  0  0  0  0
    3.6639  -52.2082  -14.1074 C   0  0  0  0  0  0  0  0  0  0  0  0
    2.6073  -51.5837  -13.4472 C   0  0  0  0  0  0  0  0  0  0  0  0
    1.9038  -50.5503  -14.0009 C   0  0  0  0  0  0  0  0  0  0  0  0
    2.2980  -50.1442  -15.2749 C   0  0  0  0  0  0  0  0  0  0  0  0
    1.3995  -53.0357  -27.8356 O   0  0  0  0  0  0  0  0  0  0  0  0
   -0.6251  -52.5989  -29.1387 C   0  0  0  0  0  0  0  0  0  0  0  0
    0.6733  -53.3517  -28.9616 C   0  0  0  0  0  0  0  0  0  0  0  0
 41 42  1  0  0  0
 42 40  1  0  0  0
 40  1  1  0  0  0
  1  2  2  0  0  0
  2  3  1  0  0  0
  3  4  2  0  0  0
  4  5  1  0  0  0
  5  6  2  0  0  0
  6 21  1  0  0  0
 21 22  3  0  0  0
  6  7  1  0  0  0
  7 23  1  0  0  0
 23 25  1  0  0  0
 25 26  2  0  0  0
 26 27  1  0  0  0
 27 28  2  0  0  0
 28 32  1  0  0  0
 32 33  1  0  0  0
 33 34  1  0  0  0
 34 35  2  0  0  0
 35 36  1  0  0  0
 36 37  2  0  0  0
 37 38  1  0  0  0
 38 39  2  0  0  0
 28 29  1  0  0  0
 29 30  1  0  0  0
 29 31  2  0  0  0
  7  8  2  0  0  0
  8  9  1  0  0  0
  9 10  2  0  0  0
 10 11  1  0  0  0
 11 12  1  0  0  0
 12 13  2  0  0  0
 12 15  1  0  0  0
 15 16  2  0  0  0
 16 17  1  0  0  0
 17 18  1  0  0  0
 18 19  1  0  0  0
 18 20  1  0  0  0
 10  1  1  0  0  0
  8  3  1  0  0  0
 31 25  1  0  0  0
 39 34  1  0  0  0
 23 24  1  0  0  0
 11 14  1  0  0  0
M  END
> <minimizedAffinity>
-7.90975

> <CNNscore>
0.3323372304

> <CNNaffinity>
7.4271507263

> <CNN_VS>
2.4683187008

> <CNNaffinity_variance>
0.1228957325

$$$$
[H]/C(C(=O)N([H])c1c(OC([H])([H])C([H])([H])[H])c([H])c2nc([H])c(C#N)c(N([H])c3c([H])c([H])c(OC([H])([H])c4c([H])c([H])c([H])c([H])c4[H])c(Cl)c3[H])c2c1[H])=C(/[H])C([H])([H])N(C([H])([H])[H])C([H])([H])[H]


 42 45  0  0  0  0  0  0  0  0999 V2000
    1.9047  -52.3605  -24.7935 C   0  0  0  0  0  0  0  0  0  0  0  0
    1.0521  -53.4389  -24.9369 C   0  0  0  0  0  0  0  0  0  0  0  0
    0.4191  -54.0226  -23.8606 C   0  0  0  0  0  0  0  0  0  0  0  0
   -0.4157  -55.0788  -24.0080 N   0  0  0  0  0  0  0  0  0  0  0  0
   -1.0333  -55.6427  -22.9382 C   0  0  0  0  0  0  0  0  0  0  0  0
   -0.8334  -55.1594  -21.6530 C   0  0  0  0  0  0  0  0  0  0  0  0
    0.0221  -54.0830  -21.5326 C   0  0  0  0  0  0  0  0  0  0  0  0
    0.6517  -53.5063  -22.6143 C   0  0  0  0  0  0  0  0  0  0  0  0
    1.5097  -52.4206  -22.4694 C   0  0  0  0  0  0  0  0  0  0  0  0
    2.1559  -51.8146  -23.5107 C   0  0  0  0  0  0  0  0  0  0  0  0
    3.0408  -50.7142  -23.4293 N   0  0  0  0  0  0  0  0  0  0  0  0
    4.2339  -50.6310  -22.7190 C   0  0  0  0  0  0  0  0  0  0  0  0
    4.6607  -51.5884  -22.0392 O   0  0  0  0  0  0  0  0  0  0  0  0
    2.7859  -49.8203  -23.9726 H   0  0  0  0  0  0  0  0  0  0  0  0
    5.0676  -49.4328  -22.7148 C   0  0  0  0  0  0  0  0  0  0  0  0
    5.8008  -49.0113  -21.7117 C   0  0  0  0  0  0  0  0  0  0  0  0
    6.6399  -47.8062  -21.7041 C   0  0  0  0  0  0  0  0  0  0  0  0
    6.2934  -46.7540  -20.8448 N   0  0  0  0  0  0  0  0  0  0  0  0
    6.6578  -46.8977  -19.4843 C   0  0  0  0  0  0  0  0  0  0  0  0
    5.1635  -45.9603  -21.1458 C   0  0  0  0  0  0  0  0  0  0  0  0
   -1.4852  -55.7527  -20.5142 C   0  0  0  0  0  0  0  0  0  0  0  0
   -1.9973  -56.2186  -19.5860 N   0  0  0  0  0  0  0  0  0  0  0  0
    0.2870  -53.5204  -20.2602 N   0  0  0  0  0  0  0  0  0  0  0  0
    1.2200  -53.6399  -19.8521 H   0  0  0  0  0  0  0  0  0  0  0  0
   -0.7408  -52.8121  -19.5923 C   0  0  0  0  0  0  0  0  0  0  0  0
   -1.9841  -53.3379  -19.3999 C   0  0  0  0  0  0  0  0  0  0  0  0
   -2.9911  -52.6333  -18.7366 C   0  0  0  0  0  0  0  0  0  0  0  0
   -2.7234  -51.3739  -18.2638 C   0  0  0  0  0  0  0  0  0  0  0  0
   -1.4578  -50.8488  -18.4644 C   0  0  0  0  0  0  0  0  0  0  0  0
   -1.0797  -49.2351  -17.8712 Cl  0  0  0  0  0  0  0  0  0  0  0  0
   -0.4754  -51.5438  -19.1147 C   0  0  0  0  0  0  0  0  0  0  0  0
   -3.6744  -50.6223  -17.5980 O   0  0  0  0  0  0  0  0  0  0  0  0
   -4.6500  -51.2734  -16.8152 C   0  0  0  0  0  0  0  0  0  0  0  0
   -4.3177  -51.1829  -15.3791 C   0  0  0  0  0  0  0  0  0  0  0  0
   -5.2136  -50.6537  -14.5063 C   0  0  0  0  0  0  0  0  0  0  0  0
   -4.8874  -50.5784  -13.1638 C   0  0  0  0  0  0  0  0  0  0  0  0
   -3.6460  -51.0480  -12.7389 C   0  0  0  0  0  0  0  0  0  0  0  0
   -2.7299  -51.5842  -13.6006 C   0  0  0  0  0  0  0  0  0  0  0  0
   -3.1003  -51.6404  -14.9433 C   0  0  0  0  0  0  0  0  0  0  0  0
    2.5359  -51.7731  -25.8502 O   0  0  0  0  0  0  0  0  0  0  0  0
    4.5641  -53.0877  -25.4675 C   0  0  0  0  0  0  0  0  0  0  0  0
    3.8642  -51.9460  -26.1680 C   0  0  0  0  0  0  0  0  0  0  0  0
 41 42  1  0  0  0
 42 40  1  0  0  0
 40  1  1  0  0  0
  1  2  2  0  0  0
  2  3  1  0  0  0
  3  4  2  0  0  0
  4  5  1  0  0  0
  5  6  2  0  0  0
  6 21  1  0  0  0
 21 22  3  0  0  0
  6  7  1  0  0  0
  7 23  1  0  0  0
 23 25  1  0  0  0
 25 26  2  0  0  0
 26 27  1  0  0  0
 27 28  2  0  0  0
 28 32  1  0  0  0
 32 33  1  0  0  0
 33 34  1  0  0  0
 34 35  2  0  0  0
 35 36  1  0  0  0
 36 37  2  0  0  0
 37 38  1  0  0  0
 38 39  2  0  0  0
 28 29  1  0  0  0
 29 30  1  0  0  0
 29 31  2  0  0  0
  7  8  2  0  0  0
  8  9  1  0  0  0
  9 10  2  0  0  0
 10 11  1  0  0  0
 11 12  1  0  0  0
 12 13  2  0  0  0
 12 15  1  0  0  0
 15 16  2  0  0  0
 16 17  1  0  0  0
 17 18  1  0  0  0
 18 19  1  0  0  0
 18 20  1  0  0  0
 10  1  1  0  0  0
  8  3  1  0  0  0
 31 25  1  0  0  0
 39 34  1  0  0  0
 23 24  1  0  0  0
 11 14  1  0  0  0
M  END
> <minimizedAffinity>
25.68349

> <CNNscore>
0.3177747428

> <CNNaffinity>
6.5428705215

> <CNN_VS>
2.0791590214

> <CNNaffinity_variance>
0.5553099513

$$$$
[H]c1nc(N([H])c2c([H])c([H])c(OC([H])([H])c3c([H])c([H])c([H])c(F)c3[H])c(Cl)c2[H])c2c([H])c(-c3oc(C([H])([H])N([H])C([H])([H])C([H])([H])S(=O)(=O)C([H])([H])[H])c([H])c3[H])c([H])c([H])c2n1


 42 46  0  0  0  0  0  0  0  0999 V2000
    0.0357  -51.7163  -21.1800 C   0  0  0  0  0  0  0  0  0  0  0  0
   -0.4069  -52.7216  -20.3143 C   0  0  0  0  0  0  0  0  0  0  0  0
   -0.8611  -53.9274  -20.7760 C   0  0  0  0  0  0  0  0  0  0  0  0
   -0.8946  -54.1838  -22.1210 C   0  0  0  0  0  0  0  0  0  0  0  0
   -1.2883  -55.3705  -22.6187 N   0  0  0  0  0  0  0  0  0  0  0  0
   -1.2705  -55.6246  -23.9327 C   0  0  0  0  0  0  0  0  0  0  0  0
   -0.8508  -54.6747  -24.7774 N   0  0  0  0  0  0  0  0  0  0  0  0
   -0.4355  -53.4472  -24.3659 C   0  0  0  0  0  0  0  0  0  0  0  0
   -0.4595  -53.2002  -23.0328 C   0  0  0  0  0  0  0  0  0  0  0  0
   -0.0041  -51.9825  -22.5188 C   0  0  0  0  0  0  0  0  0  0  0  0
    1.3385  -49.2437  -18.9508 C   0  0  0  0  0  0  0  0  0  0  0  0
    1.5749  -48.5364  -20.0729 C   0  0  0  0  0  0  0  0  0  0  0  0
    1.1151  -49.3665  -21.1180 C   0  0  0  0  0  0  0  0  0  0  0  0
    0.6367  -50.5007  -20.5790 C   0  0  0  0  0  0  0  0  0  0  0  0
    0.7895  -50.3793  -19.2892 O   0  0  0  0  0  0  0  0  0  0  0  0
    1.5896  -48.9714  -17.5242 C   0  0  0  0  0  0  0  0  0  0  0  0
    0.4503  -49.3301  -16.6682 N   0  0  0  0  0  0  0  0  0  0  0  0
    0.1042  -50.2675  -16.8974 H   0  0  0  0  0  0  0  0  0  0  0  0
    0.9052  -49.3012  -15.2982 C   0  0  0  0  0  0  0  0  0  0  0  0
    1.4937  -50.5299  -14.7076 C   0  0  0  0  0  0  0  0  0  0  0  0
   -1.2719  -50.7735  -13.7395 C   0  0  0  0  0  0  0  0  0  0  0  0
    0.0872  -51.6472  -14.4154 S   0  0  0  0  0  0  0  0  0  0  0  0
    0.5667  -52.8054  -13.6393 O   0  0  0  0  0  0  0  0  0  0  0  0
   -0.3193  -52.1019  -15.8127 O   0  0  0  0  0  0  0  0  0  0  0  0
    0.0025  -52.4790  -25.3153 N   0  0  0  0  0  0  0  0  0  0  0  0
   -0.5489  -52.0240  -26.0472 H   0  0  0  0  0  0  0  0  0  0  0  0
    1.3997  -52.1539  -25.1856 C   0  0  0  0  0  0  0  0  0  0  0  0
    2.4234  -53.0622  -25.1316 C   0  0  0  0  0  0  0  0  0  0  0  0
    3.7342  -52.6512  -24.9176 C   0  0  0  0  0  0  0  0  0  0  0  0
    4.0622  -51.3305  -24.7494 C   0  0  0  0  0  0  0  0  0  0  0  0
    2.9798  -50.4210  -24.8175 C   0  0  0  0  0  0  0  0  0  0  0  0
    3.3270  -48.6967  -24.6343 Cl  0  0  0  0  0  0  0  0  0  0  0  0
    1.6937  -50.8200  -25.0290 C   0  0  0  0  0  0  0  0  0  0  0  0
    5.2735  -50.8359  -24.5188 O   0  0  0  0  0  0  0  0  0  0  0  0
    6.1362  -50.4124  -23.6201 C   0  0  0  0  0  0  0  0  0  0  0  0
    5.7844  -50.0703  -22.2380 C   0  0  0  0  0  0  0  0  0  0  0  0
    6.3032  -48.8464  -21.7361 C   0  0  0  0  0  0  0  0  0  0  0  0
    6.0020  -48.4658  -20.4558 C   0  0  0  0  0  0  0  0  0  0  0  0
    5.1942  -49.2394  -19.6087 C   0  0  0  0  0  0  0  0  0  0  0  0
    4.6865  -50.4263  -20.0864 C   0  0  0  0  0  0  0  0  0  0  0  0
    3.8824  -51.2601  -19.3702 F   0  0  0  0  0  0  0  0  0  0  0  0
    5.0043  -50.8066  -21.4017 C   0  0  0  0  0  0  0  0  0  0  0  0
 21 22  1  0  0  0
 22 23  2  0  0  0
 22 24  2  0  0  0
 22 20  1  0  0  0
 20 19  1  0  0  0
 19 17  1  0  0  0
 17 16  1  0  0  0
 16 11  1  0  0  0
 11 12  2  0  0  0
 12 13  1  0  0  0
 13 14  2  0  0  0
 14 15  1  0  0  0
 14  1  1  0  0  0
  1  2  2  0  0  0
  2  3  1  0  0  0
  3  4  2  0  0  0
  4  5  1  0  0  0
  5  6  2  0  0  0
  6  7  1  0  0  0
  7  8  2  0  0  0
  8 25  1  0  0  0
 25 27  1  0  0  0
 27 28  2  0  0  0
 28 29  1  0  0  0
 29 30  2  0  0  0
 30 34  1  0  0  0
 34 35  1  0  0  0
 35 36  1  0  0  0
 36 37  2  0  0  0
 37 38  1  0  0  0
 38 39  2  0  0  0
 39 40  1  0  0  0
 40 41  1  0  0  0
 40 42  2  0  0  0
 30 31  1  0  0  0
 31 32  1  0  0  0
 31 33  2  0  0  0
  8  9  1  0  0  0
  9 10  2  0  0  0
 15 11  1  0  0  0
 10  1  1  0  0  0
  9  4  1  0  0  0
 33 27  1  0  0  0
 42 36  1  0  0  0
 17 18  1  0  0  0
 25 26  1  0  0  0
M  END
> <minimizedAffinity>
-7.88483

> <CNNscore>
0.3251602948

> <CNNaffinity>
7.3374948502

> <CNN_VS>
2.3858618736

> <CNNaffinity_variance>
0.2706222534

$$$$
[H]c1nc(N([H])c2c([H])c([H])c(OC([H])([H])c3c([H])c([H])c([H])c(F)c3[H])c(Cl)c2[H])c2c([H])c(-c3oc(C([H])([H])N([H])C([H])([H])C([H])([H])S(=O)(=O)C([H])([H])[H])c([H])c3[H])c([H])c([H])c2n1


 42 46  0  0  0  0  0  0  0  0999 V2000
    0.9606  -52.9932  -24.3496 C   0  0  0  0  0  0  0  0  0  0  0  0
   -0.2235  -53.6953  -24.5969 C   0  0  0  0  0  0  0  0  0  0  0  0
   -1.0449  -54.1105  -23.5838 C   0  0  0  0  0  0  0  0  0  0  0  0
   -0.7219  -53.8444  -22.2796 C   0  0  0  0  0  0  0  0  0  0  0  0
   -1.5215  -54.1911  -21.2542 N   0  0  0  0  0  0  0  0  0  0  0  0
   -1.2173  -53.8824  -19.9878 C   0  0  0  0  0  0  0  0  0  0  0  0
   -0.0878  -53.2113  -19.7308 N   0  0  0  0  0  0  0  0  0  0  0  0
    0.7799  -52.8206  -20.7019 C   0  0  0  0  0  0  0  0  0  0  0  0
    0.4626  -53.1403  -21.9809 C   0  0  0  0  0  0  0  0  0  0  0  0
    1.2732  -52.7354  -23.0455 C   0  0  0  0  0  0  0  0  0  0  0  0
    2.8643  -50.9940  -26.6209 C   0  0  0  0  0  0  0  0  0  0  0  0
    2.7503  -52.0498  -27.4501 C   0  0  0  0  0  0  0  0  0  0  0  0
    2.0007  -52.9957  -26.7178 C   0  0  0  0  0  0  0  0  0  0  0  0
    1.7102  -52.4678  -25.5167 C   0  0  0  0  0  0  0  0  0  0  0  0
    2.2429  -51.2771  -25.5078 O   0  0  0  0  0  0  0  0  0  0  0  0
    3.5314  -49.6861  -26.7513 C   0  0  0  0  0  0  0  0  0  0  0  0
    3.5710  -48.9400  -25.4859 N   0  0  0  0  0  0  0  0  0  0  0  0
    2.8395  -49.2684  -24.8471 H   0  0  0  0  0  0  0  0  0  0  0  0
    4.8688  -49.1549  -24.8909 C   0  0  0  0  0  0  0  0  0  0  0  0
    5.0194  -49.0178  -23.4200 C   0  0  0  0  0  0  0  0  0  0  0  0
    5.5421  -51.8214  -24.1356 C   0  0  0  0  0  0  0  0  0  0  0  0
    5.3177  -50.7044  -22.8053 S   0  0  0  0  0  0  0  0  0  0  0  0
    4.2531  -51.0441  -21.8436 O   0  0  0  0  0  0  0  0  0  0  0  0
    6.6518  -50.6003  -22.0745 O   0  0  0  0  0  0  0  0  0  0  0  0
    1.9654  -52.1058  -20.3638 N   0  0  0  0  0  0  0  0  0  0  0  0
    2.8935  -52.1956  -20.7846 H   0  0  0  0  0  0  0  0  0  0  0  0
    1.7717  -51.1700  -19.2861 C   0  0  0  0  0  0  0  0  0  0  0  0
    0.9079  -50.1072  -19.3046 C   0  0  0  0  0  0  0  0  0  0  0  0
    0.8566  -49.2083  -18.2452 C   0  0  0  0  0  0  0  0  0  0  0  0
    1.6615  -49.3392  -17.1429 C   0  0  0  0  0  0  0  0  0  0  0  0
    2.5361  -50.4520  -17.1565 C   0  0  0  0  0  0  0  0  0  0  0  0
    3.5890  -50.7021  -15.7578 Cl  0  0  0  0  0  0  0  0  0  0  0  0
    2.5880  -51.3364  -18.1925 C   0  0  0  0  0  0  0  0  0  0  0  0
    1.7069  -48.5283  -16.0915 O   0  0  0  0  0  0  0  0  0  0  0  0
    1.2548  -48.2659  -14.8840 C   0  0  0  0  0  0  0  0  0  0  0  0
   -0.1492  -48.4031  -14.4827 C   0  0  0  0  0  0  0  0  0  0  0  0
   -0.3896  -48.9539  -13.1952 C   0  0  0  0  0  0  0  0  0  0  0  0
   -1.6791  -49.0982  -12.7581 C   0  0  0  0  0  0  0  0  0  0  0  0
   -2.7856  -48.7212  -13.5342 C   0  0  0  0  0  0  0  0  0  0  0  0
   -2.5626  -48.1861  -14.7825 C   0  0  0  0  0  0  0  0  0  0  0  0
   -3.5477  -47.7711  -15.6263 F   0  0  0  0  0  0  0  0  0  0  0  0
   -1.2344  -48.0446  -15.2202 C   0  0  0  0  0  0  0  0  0  0  0  0
 21 22  1  0  0  0
 22 23  2  0  0  0
 22 24  2  0  0  0
 22 20  1  0  0  0
 20 19  1  0  0  0
 19 17  1  0  0  0
 17 16  1  0  0  0
 16 11  1  0  0  0
 11 12  2  0  0  0
 12 13  1  0  0  0
 13 14  2  0  0  0
 14 15  1  0  0  0
 14  1  1  0  0  0
  1  2  2  0  0  0
  2  3  1  0  0  0
  3  4  2  0  0  0
  4  5  1  0  0  0
  5  6  2  0  0  0
  6  7  1  0  0  0
  7  8  2  0  0  0
  8 25  1  0  0  0
 25 27  1  0  0  0
 27 28  2  0  0  0
 28 29  1  0  0  0
 29 30  2  0  0  0
 30 34  1  0  0  0
 34 35  1  0  0  0
 35 36  1  0  0  0
 36 37  2  0  0  0
 37 38  1  0  0  0
 38 39  2  0  0  0
 39 40  1  0  0  0
 40 41  1  0  0  0
 40 42  2  0  0  0
 30 31  1  0  0  0
 31 32  1  0  0  0
 31 33  2  0  0  0
  8  9  1  0  0  0
  9 10  2  0  0  0
 15 11  1  0  0  0
 10  1  1  0  0  0
  9  4  1  0  0  0
 33 27  1  0  0  0
 42 36  1  0  0  0
 17 18  1  0  0  0
 25 26  1  0  0  0
M  END
> <minimizedAffinity>
-6.91807

> <CNNscore>
0.2377753258

> <CNNaffinity>
6.9785270691

> <CNN_VS>
1.6593215466

> <CNNaffinity_variance>
0.1546601802

$$$$
[H]c1nc(N([H])c2c([H])c([H])c(OC([H])([H])c3c([H])c([H])c([H])c(F)c3[H])c(Cl)c2[H])c2c([H])c(-c3oc(C([H])([H])N([H])C([H])([H])C([H])([H])S(=O)(=O)C([H])([H])[H])c([H])c3[H])c([H])c([H])c2n1


 42 46  0  0  0  0  0  0  0  0999 V2000
   -0.3948  -52.9435  -21.7266 C   0  0  0  0  0  0  0  0  0  0  0  0
   -1.0174  -54.1938  -21.7994 C   0  0  0  0  0  0  0  0  0  0  0  0
   -1.0974  -54.8965  -22.9712 C   0  0  0  0  0  0  0  0  0  0  0  0
   -0.5606  -54.3835  -24.1222 C   0  0  0  0  0  0  0  0  0  0  0  0
   -0.5735  -55.0583  -25.2864 N   0  0  0  0  0  0  0  0  0  0  0  0
   -0.0028  -54.5663  -26.3926 C   0  0  0  0  0  0  0  0  0  0  0  0
    0.5975  -53.3708  -26.3431 N   0  0  0  0  0  0  0  0  0  0  0  0
    0.6593  -52.6182  -25.2125 C   0  0  0  0  0  0  0  0  0  0  0  0
    0.0762  -53.1257  -24.0983 C   0  0  0  0  0  0  0  0  0  0  0  0
    0.1350  -52.4413  -22.8807 C   0  0  0  0  0  0  0  0  0  0  0  0
   -0.5229  -52.1721  -18.2383 C   0  0  0  0  0  0  0  0  0  0  0  0
    0.2250  -51.1031  -18.5746 C   0  0  0  0  0  0  0  0  0  0  0  0
    0.4008  -51.2192  -19.9705 C   0  0  0  0  0  0  0  0  0  0  0  0
   -0.2381  -52.3254  -20.3874 C   0  0  0  0  0  0  0  0  0  0  0  0
   -0.7728  -52.8559  -19.3224 O   0  0  0  0  0  0  0  0  0  0  0  0
   -1.0497  -52.6603  -16.9511 C   0  0  0  0  0  0  0  0  0  0  0  0
   -2.3892  -53.2521  -17.0733 N   0  0  0  0  0  0  0  0  0  0  0  0
   -2.3951  -54.2146  -16.7202 H   0  0  0  0  0  0  0  0  0  0  0  0
   -3.2983  -52.4434  -16.2960 C   0  0  0  0  0  0  0  0  0  0  0  0
   -4.5599  -53.0499  -15.8009 C   0  0  0  0  0  0  0  0  0  0  0  0
   -3.4330  -52.3367  -13.1804 C   0  0  0  0  0  0  0  0  0  0  0  0
   -4.8672  -52.2738  -14.1838 S   0  0  0  0  0  0  0  0  0  0  0  0
   -6.0894  -52.8649  -13.6089 O   0  0  0  0  0  0  0  0  0  0  0  0
   -5.1181  -50.8079  -14.5197 O   0  0  0  0  0  0  0  0  0  0  0  0
    1.3158  -51.3535  -25.2237 N   0  0  0  0  0  0  0  0  0  0  0  0
    1.0305  -50.5031  -25.7158 H   0  0  0  0  0  0  0  0  0  0  0  0
    2.5249  -51.3386  -24.4411 C   0  0  0  0  0  0  0  0  0  0  0  0
    3.4695  -52.3303  -24.4224 C   0  0  0  0  0  0  0  0  0  0  0  0
    4.5622  -52.2616  -23.5655 C   0  0  0  0  0  0  0  0  0  0  0  0
    4.7442  -51.2101  -22.7046 C   0  0  0  0  0  0  0  0  0  0  0  0
    3.7518  -50.2022  -22.7563 C   0  0  0  0  0  0  0  0  0  0  0  0
    3.9303  -48.8010  -21.6923 Cl  0  0  0  0  0  0  0  0  0  0  0  0
    2.6801  -50.2651  -23.5963 C   0  0  0  0  0  0  0  0  0  0  0  0
    5.7363  -51.0586  -21.8341 O   0  0  0  0  0  0  0  0  0  0  0  0
    6.9650  -50.6350  -21.6290 C   0  0  0  0  0  0  0  0  0  0  0  0
    7.7258  -49.8219  -22.5836 C   0  0  0  0  0  0  0  0  0  0  0  0
    8.3220  -48.6374  -22.0735 C   0  0  0  0  0  0  0  0  0  0  0  0
    9.0540  -47.8406  -22.9126 C   0  0  0  0  0  0  0  0  0  0  0  0
    9.2438  -48.1464  -24.2688 C   0  0  0  0  0  0  0  0  0  0  0  0
    8.6706  -49.2922  -24.7718 C   0  0  0  0  0  0  0  0  0  0  0  0
    8.7894  -49.7058  -26.0639 F   0  0  0  0  0  0  0  0  0  0  0  0
    7.9203  -50.1007  -23.9006 C   0  0  0  0  0  0  0  0  0  0  0  0
 21 22  1  0  0  0
 22 23  2  0  0  0
 22 24  2  0  0  0
 22 20  1  0  0  0
 20 19  1  0  0  0
 19 17  1  0  0  0
 17 16  1  0  0  0
 16 11  1  0  0  0
 11 12  2  0  0  0
 12 13  1  0  0  0
 13 14  2  0  0  0
 14 15  1  0  0  0
 14  1  1  0  0  0
  1  2  2  0  0  0
  2  3  1  0  0  0
  3  4  2  0  0  0
  4  5  1  0  0  0
  5  6  2  0  0  0
  6  7  1  0  0  0
  7  8  2  0  0  0
  8 25  1  0  0  0
 25 27  1  0  0  0
 27 28  2  0  0  0
 28 29  1  0  0  0
 29 30  2  0  0  0
 30 34  1  0  0  0
 34 35  1  0  0  0
 35 36  1  0  0  0
 36 37  2  0  0  0
 37 38  1  0  0  0
 38 39  2  0  0  0
 39 40  1  0  0  0
 40 41  1  0  0  0
 40 42  2  0  0  0
 30 31  1  0  0  0
 31 32  1  0  0  0
 31 33  2  0  0  0
  8  9  1  0  0  0
  9 10  2  0  0  0
 15 11  1  0  0  0
 10  1  1  0  0  0
  9  4  1  0  0  0
 33 27  1  0  0  0
 42 36  1  0  0  0
 17 18  1  0  0  0
 25 26  1  0  0  0
M  END
> <minimizedAffinity>
-8.81725

> <CNNscore>
0.1813489050

> <CNNaffinity>
6.9796080589

> <CNN_VS>
1.2657443285

> <CNNaffinity_variance>
0.1983645856

$$$$
[H]c1nc(N([H])c2c([H])c([H])c(OC([H])([H])c3c([H])c([H])c([H])c(F)c3[H])c(Cl)c2[H])c2c([H])c(-c3oc(C([H])([H])N([H])C([H])([H])C([H])([H])S(=O)(=O)C([H])([H])[H])c([H])c3[H])c([H])c([H])c2n1


 42 46  0  0  0  0  0  0  0  0999 V2000
    0.1259  -51.6595  -20.6329 C   0  0  0  0  0  0  0  0  0  0  0  0
   -0.3955  -52.7201  -19.8851 C   0  0  0  0  0  0  0  0  0  0  0  0
   -0.8969  -53.8473  -20.4779 C   0  0  0  0  0  0  0  0  0  0  0  0
   -0.9012  -53.9664  -21.8424 C   0  0  0  0  0  0  0  0  0  0  0  0
   -1.3400  -55.0744  -22.4675 N   0  0  0  0  0  0  0  0  0  0  0  0
   -1.2940  -55.1971  -23.7996 C   0  0  0  0  0  0  0  0  0  0  0  0
   -0.7990  -54.1923  -24.5327 N   0  0  0  0  0  0  0  0  0  0  0  0
   -0.3337  -53.0364  -23.9886 C   0  0  0  0  0  0  0  0  0  0  0  0
   -0.3870  -52.9224  -22.6384 C   0  0  0  0  0  0  0  0  0  0  0  0
    0.1146  -51.7886  -21.9923 C   0  0  0  0  0  0  0  0  0  0  0  0
    1.9350  -48.7202  -19.7013 C   0  0  0  0  0  0  0  0  0  0  0  0
    1.5778  -49.0497  -18.4447 C   0  0  0  0  0  0  0  0  0  0  0  0
    0.8225  -50.2335  -18.5904 C   0  0  0  0  0  0  0  0  0  0  0  0
    0.7700  -50.5445  -19.8967 C   0  0  0  0  0  0  0  0  0  0  0  0
    1.4471  -49.6171  -20.5156 O   0  0  0  0  0  0  0  0  0  0  0  0
    2.7114  -47.5987  -20.2599 C   0  0  0  0  0  0  0  0  0  0  0  0
    2.3906  -47.3316  -21.6688 N   0  0  0  0  0  0  0  0  0  0  0  0
    2.1674  -46.3410  -21.8095 H   0  0  0  0  0  0  0  0  0  0  0  0
    3.5475  -47.6861  -22.4565 C   0  0  0  0  0  0  0  0  0  0  0  0
    4.7007  -46.7521  -22.5051 C   0  0  0  0  0  0  0  0  0  0  0  0
    5.1263  -44.3464  -24.1412 C   0  0  0  0  0  0  0  0  0  0  0  0
    4.0124  -45.1629  -23.0641 S   0  0  0  0  0  0  0  0  0  0  0  0
    3.5780  -44.4014  -21.8788 O   0  0  0  0  0  0  0  0  0  0  0  0
    2.7944  -45.5589  -23.8913 O   0  0  0  0  0  0  0  0  0  0  0  0
    0.1838  -52.0042  -24.8236 N   0  0  0  0  0  0  0  0  0  0  0  0
   -0.3405  -51.3480  -25.4077 H   0  0  0  0  0  0  0  0  0  0  0  0
    1.6224  -51.9359  -24.8100 C   0  0  0  0  0  0  0  0  0  0  0  0
    2.4592  -52.9283  -24.3729 C   0  0  0  0  0  0  0  0  0  0  0  0
    3.8346  -52.7323  -24.3186 C   0  0  0  0  0  0  0  0  0  0  0  0
    4.4141  -51.5477  -24.6937 C   0  0  0  0  0  0  0  0  0  0  0  0
    3.5192  -50.5483  -25.1453 C   0  0  0  0  0  0  0  0  0  0  0  0
    4.1940  -49.0001  -25.6698 Cl  0  0  0  0  0  0  0  0  0  0  0  0
    2.1704  -50.7373  -25.2016 C   0  0  0  0  0  0  0  0  0  0  0  0
    5.7086  -51.2507  -24.6601 O   0  0  0  0  0  0  0  0  0  0  0  0
    6.6997  -50.7269  -23.9713 C   0  0  0  0  0  0  0  0  0  0  0  0
    6.5727  -50.2209  -22.6005 C   0  0  0  0  0  0  0  0  0  0  0  0
    7.5273  -49.2511  -22.1917 C   0  0  0  0  0  0  0  0  0  0  0  0
    7.4558  -48.7321  -20.9267 C   0  0  0  0  0  0  0  0  0  0  0  0
    6.4701  -49.1198  -20.0065 C   0  0  0  0  0  0  0  0  0  0  0  0
    5.5407  -50.0582  -20.3937 C   0  0  0  0  0  0  0  0  0  0  0  0
    4.5293  -50.5089  -19.6007 F   0  0  0  0  0  0  0  0  0  0  0  0
    5.6257  -50.5844  -21.6943 C   0  0  0  0  0  0  0  0  0  0  0  0
 21 22  1  0  0  0
 22 23  2  0  0  0
 22 24  2  0  0  0
 22 20  1  0  0  0
 20 19  1  0  0  0
 19 17  1  0  0  0
 17 16  1  0  0  0
 16 11  1  0  0  0
 11 12  2  0  0  0
 12 13  1  0  0  0
 13 14  2  0  0  0
 14 15  1  0  0  0
 14  1  1  0  0  0
  1  2  2  0  0  0
  2  3  1  0  0  0
  3  4  2  0  0  0
  4  5  1  0  0  0
  5  6  2  0  0  0
  6  7  1  0  0  0
  7  8  2  0  0  0
  8 25  1  0  0  0
 25 27  1  0  0  0
 27 28  2  0  0  0
 28 29  1  0  0  0
 29 30  2  0  0  0
 30 34  1  0  0  0
 34 35  1  0  0  0
 35 36  1  0  0  0
 36 37  2  0  0  0
 37 38  1  0  0  0
 38 39  2  0  0  0
 39 40  1  0  0  0
 40 41  1  0  0  0
 40 42  2  0  0  0
 30 31  1  0  0  0
 31 32  1  0  0  0
 31 33  2  0  0  0
  8  9  1  0  0  0
  9 10  2  0  0  0
 15 11  1  0  0  0
 10  1  1  0  0  0
  9  4  1  0  0  0
 33 27  1  0  0  0
 42 36  1  0  0  0
 17 18  1  0  0  0
 25 26  1  0  0  0
M  END
> <minimizedAffinity>
-7.68613

> <CNNscore>
0.1680211872

> <CNNaffinity>
7.1094946861

> <CNN_VS>
1.1945457458

> <CNNaffinity_variance>
0.2310427427

$$$$
[H]c1nc(N([H])c2c([H])c([H])c(OC([H])([H])c3c([H])c([H])c([H])c(F)c3[H])c(Cl)c2[H])c2c([H])c(-c3oc(C([H])([H])N([H])C([H])([H])C([H])([H])S(=O)(=O)C([H])([H])[H])c([H])c3[H])c([H])c([H])c2n1


 42 46  0  0  0  0  0  0  0  0999 V2000
    2.3956  -50.9717  -26.1361 C   0  0  0  0  0  0  0  0  0  0  0  0
    2.8599  -52.0150  -26.9435 C   0  0  0  0  0  0  0  0  0  0  0  0
    2.3055  -53.2657  -26.9017 C   0  0  0  0  0  0  0  0  0  0  0  0
    1.2641  -53.5316  -26.0527 C   0  0  0  0  0  0  0  0  0  0  0  0
    0.6569  -54.7318  -26.0109 N   0  0  0  0  0  0  0  0  0  0  0  0
   -0.3910  -54.9641  -25.2113 C   0  0  0  0  0  0  0  0  0  0  0  0
   -0.8497  -53.9782  -24.4304 N   0  0  0  0  0  0  0  0  0  0  0  0
   -0.2998  -52.7350  -24.4056 C   0  0  0  0  0  0  0  0  0  0  0  0
    0.7624  -52.5115  -25.2184 C   0  0  0  0  0  0  0  0  0  0  0  0
    1.3582  -51.2490  -25.2924 C   0  0  0  0  0  0  0  0  0  0  0  0
    3.9688  -48.0596  -27.4868 C   0  0  0  0  0  0  0  0  0  0  0  0
    3.7039  -47.5116  -26.2848 C   0  0  0  0  0  0  0  0  0  0  0  0
    3.0547  -48.5369  -25.5637 C   0  0  0  0  0  0  0  0  0  0  0  0
    2.9687  -49.6210  -26.3531 C   0  0  0  0  0  0  0  0  0  0  0  0
    3.5273  -49.2886  -27.4841 O   0  0  0  0  0  0  0  0  0  0  0  0
    4.6111  -47.5364  -28.7059 C   0  0  0  0  0  0  0  0  0  0  0  0
    4.3443  -48.3658  -29.8892 N   0  0  0  0  0  0  0  0  0  0  0  0
    3.3459  -48.3571  -30.1218 H   0  0  0  0  0  0  0  0  0  0  0  0
    5.1043  -47.8188  -30.9883 C   0  0  0  0  0  0  0  0  0  0  0  0
    4.4953  -47.7892  -32.3421 C   0  0  0  0  0  0  0  0  0  0  0  0
    2.7895  -46.0408  -33.9788 C   0  0  0  0  0  0  0  0  0  0  0  0
    3.5599  -46.2300  -32.4173 S   0  0  0  0  0  0  0  0  0  0  0  0
    4.4493  -45.1331  -31.9939 O   0  0  0  0  0  0  0  0  0  0  0  0
    2.4511  -46.4149  -31.3873 O   0  0  0  0  0  0  0  0  0  0  0  0
   -0.8361  -51.7267  -23.5534 N   0  0  0  0  0  0  0  0  0  0  0  0
   -1.3389  -50.8781  -23.8251 H   0  0  0  0  0  0  0  0  0  0  0  0
   -0.5987  -51.9840  -22.1563 C   0  0  0  0  0  0  0  0  0  0  0  0
   -1.0651  -53.0668  -21.4591 C   0  0  0  0  0  0  0  0  0  0  0  0
   -0.8542  -53.1810  -20.0897 C   0  0  0  0  0  0  0  0  0  0  0  0
   -0.1781  -52.2242  -19.3773 C   0  0  0  0  0  0  0  0  0  0  0  0
    0.2940  -51.1237  -20.1319 C   0  0  0  0  0  0  0  0  0  0  0  0
    1.1971  -49.8595  -19.2872 Cl  0  0  0  0  0  0  0  0  0  0  0  0
    0.0907  -51.0091  -21.4749 C   0  0  0  0  0  0  0  0  0  0  0  0
    0.0579  -52.2258  -18.0699 O   0  0  0  0  0  0  0  0  0  0  0  0
   -0.4270  -52.4339  -16.8646 C   0  0  0  0  0  0  0  0  0  0  0  0
   -1.7671  -52.0219  -16.4337 C   0  0  0  0  0  0  0  0  0  0  0  0
   -1.8560  -50.7913  -15.7291 C   0  0  0  0  0  0  0  0  0  0  0  0
   -3.0810  -50.3466  -15.3090 C   0  0  0  0  0  0  0  0  0  0  0  0
   -4.2652  -51.0604  -15.5470 C   0  0  0  0  0  0  0  0  0  0  0  0
   -4.1891  -52.2532  -16.2294 C   0  0  0  0  0  0  0  0  0  0  0  0
   -5.2635  -53.0330  -16.5334 F   0  0  0  0  0  0  0  0  0  0  0  0
   -2.9257  -52.6996  -16.6539 C   0  0  0  0  0  0  0  0  0  0  0  0
 21 22  1  0  0  0
 22 23  2  0  0  0
 22 24  2  0  0  0
 22 20  1  0  0  0
 20 19  1  0  0  0
 19 17  1  0  0  0
 17 16  1  0  0  0
 16 11  1  0  0  0
 11 12  2  0  0  0
 12 13  1  0  0  0
 13 14  2  0  0  0
 14 15  1  0  0  0
 14  1  1  0  0  0
  1  2  2  0  0  0
  2  3  1  0  0  0
  3  4  2  0  0  0
  4  5  1  0  0  0
  5  6  2  0  0  0
  6  7  1  0  0  0
  7  8  2  0  0  0
  8 25  1  0  0  0
 25 27  1  0  0  0
 27 28  2  0  0  0
 28 29  1  0  0  0
 29 30  2  0  0  0
 30 34  1  0  0  0
 34 35  1  0  0  0
 35 36  1  0  0  0
 36 37  2  0  0  0
 37 38  1  0  0  0
 38 39  2  0  0  0
 39 40  1  0  0  0
 40 41  1  0  0  0
 40 42  2  0  0  0
 30 31  1  0  0  0
 31 32  1  0  0  0
 31 33  2  0  0  0
  8  9  1  0  0  0
  9 10  2  0  0  0
 15 11  1  0  0  0
 10  1  1  0  0  0
  9  4  1  0  0  0
 33 27  1  0  0  0
 42 36  1  0  0  0
 17 18  1  0  0  0
 25 26  1  0  0  0
M  END
> <minimizedAffinity>
-7.93035

> <CNNscore>
0.1268534511

> <CNNaffinity>
6.7886543274

> <CNN_VS>
0.8611642122

> <CNNaffinity_variance>
0.1584434360

$$$$
[H]c1nc(N([H])c2c([H])c([H])c(OC([H])([H])c3c([H])c([H])c([H])c(F)c3[H])c(Cl)c2[H])c2c([H])c(-c3oc(C([H])([H])N([H])C([H])([H])C([H])([H])S(=O)(=O)C([H])([H])[H])c([H])c3[H])c([H])c([H])c2n1


 42 46  0  0  0  0  0  0  0  0999 V2000
   -0.6377  -53.1711  -21.2108 C   0  0  0  0  0  0  0  0  0  0  0  0
   -1.2417  -54.4012  -21.4902 C   0  0  0  0  0  0  0  0  0  0  0  0
   -1.2442  -54.9379  -22.7493 C   0  0  0  0  0  0  0  0  0  0  0  0
   -0.6451  -54.2718  -23.7853 C   0  0  0  0  0  0  0  0  0  0  0  0
   -0.5815  -54.7819  -25.0290 N   0  0  0  0  0  0  0  0  0  0  0  0
    0.0490  -54.1425  -26.0216 C   0  0  0  0  0  0  0  0  0  0  0  0
    0.6327  -52.9635  -25.7740 N   0  0  0  0  0  0  0  0  0  0  0  0
    0.6191  -52.3718  -24.5499 C   0  0  0  0  0  0  0  0  0  0  0  0
   -0.0241  -53.0276  -23.5524 C   0  0  0  0  0  0  0  0  0  0  0  0
   -0.0452  -52.5152  -22.2518 C   0  0  0  0  0  0  0  0  0  0  0  0
    0.1589  -51.5534  -18.1240 C   0  0  0  0  0  0  0  0  0  0  0  0
   -0.7592  -52.3854  -17.5949 C   0  0  0  0  0  0  0  0  0  0  0  0
   -1.2203  -53.1465  -18.6908 C   0  0  0  0  0  0  0  0  0  0  0  0
   -0.5676  -52.7407  -19.7931 C   0  0  0  0  0  0  0  0  0  0  0  0
    0.2420  -51.7944  -19.4047 O   0  0  0  0  0  0  0  0  0  0  0  0
    1.0044  -50.4954  -17.5422 C   0  0  0  0  0  0  0  0  0  0  0  0
    2.4178  -50.6242  -17.9230 N   0  0  0  0  0  0  0  0  0  0  0  0
    2.5313  -51.3155  -18.6714 H   0  0  0  0  0  0  0  0  0  0  0  0
    2.8673  -49.3315  -18.3829 C   0  0  0  0  0  0  0  0  0  0  0  0
    2.0189  -48.5691  -19.3335 C   0  0  0  0  0  0  0  0  0  0  0  0
    3.6491  -48.0306  -21.7204 C   0  0  0  0  0  0  0  0  0  0  0  0
    2.5116  -49.1432  -20.9886 S   0  0  0  0  0  0  0  0  0  0  0  0
    1.2908  -49.4289  -21.7643 O   0  0  0  0  0  0  0  0  0  0  0  0
    3.2619  -50.4430  -20.7201 O   0  0  0  0  0  0  0  0  0  0  0  0
    1.2617  -51.1158  -24.3496 N   0  0  0  0  0  0  0  0  0  0  0  0
    0.8244  -50.1964  -24.2491 H   0  0  0  0  0  0  0  0  0  0  0  0
    2.6978  -51.2178  -24.3051 C   0  0  0  0  0  0  0  0  0  0  0  0
    3.4023  -52.2533  -23.7506 C   0  0  0  0  0  0  0  0  0  0  0  0
    4.7903  -52.2176  -23.6798 C   0  0  0  0  0  0  0  0  0  0  0  0
    5.5139  -51.1540  -24.1544 C   0  0  0  0  0  0  0  0  0  0  0  0
    4.7527  -50.1062  -24.7255 C   0  0  0  0  0  0  0  0  0  0  0  0
    5.6169  -48.7100  -25.3820 Cl  0  0  0  0  0  0  0  0  0  0  0  0
    3.3919  -50.1385  -24.7983 C   0  0  0  0  0  0  0  0  0  0  0  0
    6.8342  -51.0110  -24.1163 O   0  0  0  0  0  0  0  0  0  0  0  0
    7.8685  -50.5095  -23.4760 C   0  0  0  0  0  0  0  0  0  0  0  0
    7.7677  -49.6823  -22.2690 C   0  0  0  0  0  0  0  0  0  0  0  0
    8.6459  -48.5683  -22.1888 C   0  0  0  0  0  0  0  0  0  0  0  0
    8.5934  -47.7512  -21.0914 C   0  0  0  0  0  0  0  0  0  0  0  0
    7.7002  -47.9679  -20.0312 C   0  0  0  0  0  0  0  0  0  0  0  0
    6.8452  -49.0442  -20.1003 C   0  0  0  0  0  0  0  0  0  0  0  0
    5.9257  -49.3560  -19.1453 F   0  0  0  0  0  0  0  0  0  0  0  0
    6.9100  -49.8762  -21.2313 C   0  0  0  0  0  0  0  0  0  0  0  0
 21 22  1  0  0  0
 22 23  2  0  0  0
 22 24  2  0  0  0
 22 20  1  0  0  0
 20 19  1  0  0  0
 19 17  1  0  0  0
 17 16  1  0  0  0
 16 11  1  0  0  0
 11 12  2  0  0  0
 12 13  1  0  0  0
 13 14  2  0  0  0
 14 15  1  0  0  0
 14  1  1  0  0  0
  1  2  2  0  0  0
  2  3  1  0  0  0
  3  4  2  0  0  0
  4  5  1  0  0  0
  5  6  2  0  0  0
  6  7  1  0  0  0
  7  8  2  0  0  0
  8 25  1  0  0  0
 25 27  1  0  0  0
 27 28  2  0  0  0
 28 29  1  0  0  0
 29 30  2  0  0  0
 30 34  1  0  0  0
 34 35  1  0  0  0
 35 36  1  0  0  0
 36 37  2  0  0  0
 37 38  1  0  0  0
 38 39  2  0  0  0
 39 40  1  0  0  0
 40 41  1  0  0  0
 40 42  2  0  0  0
 30 31  1  0  0  0
 31 32  1  0  0  0
 31 33  2  0  0  0
  8  9  1  0  0  0
  9 10  2  0  0  0
 15 11  1  0  0  0
 10  1  1  0  0  0
  9  4  1  0  0  0
 33 27  1  0  0  0
 42 36  1  0  0  0
 17 18  1  0  0  0
 25 26  1  0  0  0
M  END
> <minimizedAffinity>
-7.71717

> <CNNscore>
0.1183910742

> <CNNaffinity>
6.6553030014

> <CNN_VS>
0.7879284620

> <CNNaffinity_variance>
0.7362674475

$$$$
[H]c1nc(N([H])c2c([H])c([H])c(OC([H])([H])c3c([H])c([H])c([H])c(F)c3[H])c(Cl)c2[H])c2c([H])c(-c3oc(C([H])([H])N([H])C([H])([H])C([H])([H])S(=O)(=O)C([H])([H])[H])c([H])c3[H])c([H])c([H])c2n1


 42 46  0  0  0  0  0  0  0  0999 V2000
    0.0976  -52.2346  -21.2595 C   0  0  0  0  0  0  0  0  0  0  0  0
   -1.0863  -52.9126  -21.5670 C   0  0  0  0  0  0  0  0  0  0  0  0
   -1.2753  -53.5302  -22.7738 C   0  0  0  0  0  0  0  0  0  0  0  0
   -0.2925  -53.4987  -23.7273 C   0  0  0  0  0  0  0  0  0  0  0  0
   -0.4145  -54.1309  -24.9089 N   0  0  0  0  0  0  0  0  0  0  0  0
    0.5728  -54.1325  -25.8127 C   0  0  0  0  0  0  0  0  0  0  0  0
    1.7136  -53.4885  -25.5369 N   0  0  0  0  0  0  0  0  0  0  0  0
    1.9261  -52.8227  -24.3707 C   0  0  0  0  0  0  0  0  0  0  0  0
    0.9183  -52.8262  -23.4633 C   0  0  0  0  0  0  0  0  0  0  0  0
    1.0695  -52.2082  -22.2185 C   0  0  0  0  0  0  0  0  0  0  0  0
   -0.0912  -51.6690  -17.7347 C   0  0  0  0  0  0  0  0  0  0  0  0
    0.7668  -50.6588  -17.9769 C   0  0  0  0  0  0  0  0  0  0  0  0
    0.9844  -50.7058  -19.3709 C   0  0  0  0  0  0  0  0  0  0  0  0
    0.2604  -51.7175  -19.8789 C   0  0  0  0  0  0  0  0  0  0  0  0
   -0.3626  -52.2579  -18.8682 O   0  0  0  0  0  0  0  0  0  0  0  0
   -0.7109  -52.1817  -16.4995 C   0  0  0  0  0  0  0  0  0  0  0  0
   -1.9887  -51.5255  -16.1903 N   0  0  0  0  0  0  0  0  0  0  0  0
   -2.1324  -50.7076  -16.7915 H   0  0  0  0  0  0  0  0  0  0  0  0
   -3.0416  -52.4870  -16.4176 C   0  0  0  0  0  0  0  0  0  0  0  0
   -4.4478  -52.0938  -16.1483 C   0  0  0  0  0  0  0  0  0  0  0  0
   -4.7148  -49.8925  -14.2174 C   0  0  0  0  0  0  0  0  0  0  0  0
   -4.4894  -51.6206  -14.3916 S   0  0  0  0  0  0  0  0  0  0  0  0
   -3.3034  -52.1919  -13.7278 O   0  0  0  0  0  0  0  0  0  0  0  0
   -5.7481  -52.2952  -13.8574 O   0  0  0  0  0  0  0  0  0  0  0  0
    3.1645  -52.1582  -24.1357 N   0  0  0  0  0  0  0  0  0  0  0  0
    3.9935  -52.5257  -23.6620 H   0  0  0  0  0  0  0  0  0  0  0  0
    3.1842  -50.8081  -24.6371 C   0  0  0  0  0  0  0  0  0  0  0  0
    3.1854  -50.4536  -25.9602 C   0  0  0  0  0  0  0  0  0  0  0  0
    3.2934  -49.1218  -26.3441 C   0  0  0  0  0  0  0  0  0  0  0  0
    3.4054  -48.1090  -25.4266 C   0  0  0  0  0  0  0  0  0  0  0  0
    3.3944  -48.5126  -24.0700 C   0  0  0  0  0  0  0  0  0  0  0  0
    3.5103  -47.2604  -22.8266 Cl  0  0  0  0  0  0  0  0  0  0  0  0
    3.2869  -49.8171  -23.6897 C   0  0  0  0  0  0  0  0  0  0  0  0
    3.5352  -46.8126  -25.6862 O   0  0  0  0  0  0  0  0  0  0  0  0
    3.0158  -45.7476  -26.2584 C   0  0  0  0  0  0  0  0  0  0  0  0
    3.0911  -45.4658  -27.6958 C   0  0  0  0  0  0  0  0  0  0  0  0
    4.2167  -44.7195  -28.1373 C   0  0  0  0  0  0  0  0  0  0  0  0
    4.3499  -44.4326  -29.4695 C   0  0  0  0  0  0  0  0  0  0  0  0
    3.4136  -44.8483  -30.4282 C   0  0  0  0  0  0  0  0  0  0  0  0
    2.3202  -45.5723  -30.0100 C   0  0  0  0  0  0  0  0  0  0  0  0
    1.3487  -46.0430  -30.8403 F   0  0  0  0  0  0  0  0  0  0  0  0
    2.1943  -45.8589  -28.6398 C   0  0  0  0  0  0  0  0  0  0  0  0
 21 22  1  0  0  0
 22 23  2  0  0  0
 22 24  2  0  0  0
 22 20  1  0  0  0
 20 19  1  0  0  0
 19 17  1  0  0  0
 17 16  1  0  0  0
 16 11  1  0  0  0
 11 12  2  0  0  0
 12 13  1  0  0  0
 13 14  2  0  0  0
 14 15  1  0  0  0
 14  1  1  0  0  0
  1  2  2  0  0  0
  2  3  1  0  0  0
  3  4  2  0  0  0
  4  5  1  0  0  0
  5  6  2  0  0  0
  6  7  1  0  0  0
  7  8  2  0  0  0
  8 25  1  0  0  0
 25 27  1  0  0  0
 27 28  2  0  0  0
 28 29  1  0  0  0
 29 30  2  0  0  0
 30 34  1  0  0  0
 34 35  1  0  0  0
 35 36  1  0  0  0
 36 37  2  0  0  0
 37 38  1  0  0  0
 38 39  2  0  0  0
 39 40  1  0  0  0
 40 41  1  0  0  0
 40 42  2  0  0  0
 30 31  1  0  0  0
 31 32  1  0  0  0
 31 33  2  0  0  0
  8  9  1  0  0  0
  9 10  2  0  0  0
 15 11  1  0  0  0
 10  1  1  0  0  0
  9  4  1  0  0  0
 33 27  1  0  0  0
 42 36  1  0  0  0
 17 18  1  0  0  0
 25 26  1  0  0  0
M  END
> <minimizedAffinity>
-7.91457

> <CNNscore>
0.1146950945

> <CNNaffinity>
6.8639364243

> <CNN_VS>
0.7872598171

> <CNNaffinity_variance>
0.0813734755

$$$$
[H]c1nc(N([H])c2c([H])c([H])c(OC([H])([H])c3c([H])c([H])c([H])c(F)c3[H])c(Cl)c2[H])c2c([H])c(-c3oc(C([H])([H])N([H])C([H])([H])C([H])([H])S(=O)(=O)C([H])([H])[H])c([H])c3[H])c([H])c([H])c2n1


 42 46  0  0  0  0  0  0  0  0999 V2000
   -0.4053  -52.9949  -21.6074 C   0  0  0  0  0  0  0  0  0  0  0  0
   -0.9456  -54.2775  -21.7449 C   0  0  0  0  0  0  0  0  0  0  0  0
   -1.0052  -54.9129  -22.9557 C   0  0  0  0  0  0  0  0  0  0  0  0
   -0.5292  -54.2974  -24.0829 C   0  0  0  0  0  0  0  0  0  0  0  0
   -0.5236  -54.9009  -25.2856 N   0  0  0  0  0  0  0  0  0  0  0  0
   -0.0114  -54.3066  -26.3701 C   0  0  0  0  0  0  0  0  0  0  0  0
    0.5098  -53.0786  -26.2588 N   0  0  0  0  0  0  0  0  0  0  0  0
    0.5470  -52.3923  -25.0857 C   0  0  0  0  0  0  0  0  0  0  0  0
    0.0237  -53.0033  -23.9941 C   0  0  0  0  0  0  0  0  0  0  0  0
    0.0643  -52.3903  -22.7383 C   0  0  0  0  0  0  0  0  0  0  0  0
    0.3787  -51.0025  -18.7446 C   0  0  0  0  0  0  0  0  0  0  0  0
   -0.2534  -51.9706  -18.0530 C   0  0  0  0  0  0  0  0  0  0  0  0
   -0.6615  -52.8986  -19.0354 C   0  0  0  0  0  0  0  0  0  0  0  0
   -0.2598  -52.4485  -20.2362 C   0  0  0  0  0  0  0  0  0  0  0  0
    0.3551  -51.3203  -20.0110 O   0  0  0  0  0  0  0  0  0  0  0  0
    1.0269  -49.7424  -18.3387 C   0  0  0  0  0  0  0  0  0  0  0  0
    0.8819  -49.4659  -16.9028 N   0  0  0  0  0  0  0  0  0  0  0  0
    0.7297  -50.3338  -16.3788 H   0  0  0  0  0  0  0  0  0  0  0  0
    2.0994  -48.8335  -16.4531 C   0  0  0  0  0  0  0  0  0  0  0  0
    2.6293  -49.1650  -15.1062 C   0  0  0  0  0  0  0  0  0  0  0  0
    3.8552  -51.4598  -13.7363 C   0  0  0  0  0  0  0  0  0  0  0  0
    2.9168  -50.9618  -15.1287 S   0  0  0  0  0  0  0  0  0  0  0  0
    3.4650  -51.3287  -16.4473 O   0  0  0  0  0  0  0  0  0  0  0  0
    1.5235  -51.5604  -14.9705 O   0  0  0  0  0  0  0  0  0  0  0  0
    1.1182  -51.0879  -25.0318 N   0  0  0  0  0  0  0  0  0  0  0  0
    0.7971  -50.2423  -25.5098 H   0  0  0  0  0  0  0  0  0  0  0  0
    2.2917  -51.0200  -24.1993 C   0  0  0  0  0  0  0  0  0  0  0  0
    2.4568  -50.1818  -23.1288 C   0  0  0  0  0  0  0  0  0  0  0  0
    3.6633  -50.1301  -22.4398 C   0  0  0  0  0  0  0  0  0  0  0  0
    4.7362  -50.9059  -22.7963 C   0  0  0  0  0  0  0  0  0  0  0  0
    4.5265  -51.7635  -23.9026 C   0  0  0  0  0  0  0  0  0  0  0  0
    5.8568  -52.8136  -24.4075 Cl  0  0  0  0  0  0  0  0  0  0  0  0
    3.3445  -51.8182  -24.5794 C   0  0  0  0  0  0  0  0  0  0  0  0
    5.9340  -50.9175  -22.2217 O   0  0  0  0  0  0  0  0  0  0  0  0
    6.8171  -50.2555  -21.5054 C   0  0  0  0  0  0  0  0  0  0  0  0
    6.5199  -49.0263  -20.7624 C   0  0  0  0  0  0  0  0  0  0  0  0
    6.9222  -47.8060  -21.3688 C   0  0  0  0  0  0  0  0  0  0  0  0
    6.6638  -46.6230  -20.7297 C   0  0  0  0  0  0  0  0  0  0  0  0
    6.0115  -46.5623  -19.4889 C   0  0  0  0  0  0  0  0  0  0  0  0
    5.6175  -47.7393  -18.8941 C   0  0  0  0  0  0  0  0  0  0  0  0
    4.9673  -47.8151  -17.6998 F   0  0  0  0  0  0  0  0  0  0  0  0
    5.8899  -48.9470  -19.5595 C   0  0  0  0  0  0  0  0  0  0  0  0
 21 22  1  0  0  0
 22 23  2  0  0  0
 22 24  2  0  0  0
 22 20  1  0  0  0
 20 19  1  0  0  0
 19 17  1  0  0  0
 17 16  1  0  0  0
 16 11  1  0  0  0
 11 12  2  0  0  0
 12 13  1  0  0  0
 13 14  2  0  0  0
 14 15  1  0  0  0
 14  1  1  0  0  0
  1  2  2  0  0  0
  2  3  1  0  0  0
  3  4  2  0  0  0
  4  5  1  0  0  0
  5  6  2  0  0  0
  6  7  1  0  0  0
  7  8  2  0  0  0
  8 25  1  0  0  0
 25 27  1  0  0  0
 27 28  2  0  0  0
 28 29  1  0  0  0
 29 30  2  0  0  0
 30 34  1  0  0  0
 34 35  1  0  0  0
 35 36  1  0  0  0
 36 37  2  0  0  0
 37 38  1  0  0  0
 38 39  2  0  0  0
 39 40  1  0  0  0
 40 41  1  0  0  0
 40 42  2  0  0  0
 30 31  1  0  0  0
 31 32  1  0  0  0
 31 33  2  0  0  0
  8  9  1  0  0  0
  9 10  2  0  0  0
 15 11  1  0  0  0
 10  1  1  0  0  0
  9  4  1  0  0  0
 33 27  1  0  0  0
 42 36  1  0  0  0
 17 18  1  0  0  0
 25 26  1  0  0  0
M  END
> <minimizedAffinity>
-7.69193

> <CNNscore>
0.1062459052

> <CNNaffinity>
6.7868027687

> <CNN_VS>
0.7210699916

> <CNNaffinity_variance>
0.5276005268

$$$$
[H]c1nc(N([H])c2c([H])c([H])c(OC([H])([H])c3c([H])c([H])c([H])c(F)c3[H])c(Cl)c2[H])c2c([H])c(-c3oc(C([H])([H])N([H])C([H])([H])C([H])([H])S(=O)(=O)C([H])([H])[H])c([H])c3[H])c([H])c([H])c2n1


 42 46  0  0  0  0  0  0  0  0999 V2000
    2.3620  -48.8167  -21.7857 C   0  0  0  0  0  0  0  0  0  0  0  0
    3.1788  -48.7793  -20.6510 C   0  0  0  0  0  0  0  0  0  0  0  0
    3.9405  -47.6849  -20.3420 C   0  0  0  0  0  0  0  0  0  0  0  0
    3.9217  -46.5796  -21.1508 C   0  0  0  0  0  0  0  0  0  0  0  0
    4.6166  -45.4639  -20.8624 N   0  0  0  0  0  0  0  0  0  0  0  0
    4.5517  -44.3735  -21.6359 C   0  0  0  0  0  0  0  0  0  0  0  0
    3.7759  -44.3901  -22.7268 N   0  0  0  0  0  0  0  0  0  0  0  0
    3.0394  -45.4714  -23.0967 C   0  0  0  0  0  0  0  0  0  0  0  0
    3.1143  -46.5710  -22.3067 C   0  0  0  0  0  0  0  0  0  0  0  0
    2.3529  -47.7099  -22.5855 C   0  0  0  0  0  0  0  0  0  0  0  0
    0.6142  -51.6761  -23.0300 C   0  0  0  0  0  0  0  0  0  0  0  0
    0.0070  -51.6730  -21.8273 C   0  0  0  0  0  0  0  0  0  0  0  0
    0.5760  -50.5750  -21.1464 C   0  0  0  0  0  0  0  0  0  0  0  0
    1.4722  -49.9906  -21.9594 C   0  0  0  0  0  0  0  0  0  0  0  0
    1.4573  -50.6796  -23.0670 O   0  0  0  0  0  0  0  0  0  0  0  0
    0.4995  -52.5559  -24.2070 C   0  0  0  0  0  0  0  0  0  0  0  0
   -0.7577  -52.3603  -24.9422 N   0  0  0  0  0  0  0  0  0  0  0  0
   -0.9597  -51.3619  -25.0580 H   0  0  0  0  0  0  0  0  0  0  0  0
   -0.6088  -52.9798  -26.2378 C   0  0  0  0  0  0  0  0  0  0  0  0
    0.5655  -53.8533  -26.4889 C   0  0  0  0  0  0  0  0  0  0  0  0
   -0.0324  -52.9061  -29.2075 C   0  0  0  0  0  0  0  0  0  0  0  0
    1.2501  -53.2971  -28.0806 S   0  0  0  0  0  0  0  0  0  0  0  0
    2.2352  -54.2944  -28.5372 O   0  0  0  0  0  0  0  0  0  0  0  0
    1.9636  -51.9934  -27.7401 O   0  0  0  0  0  0  0  0  0  0  0  0
    2.2304  -45.4254  -24.2688 N   0  0  0  0  0  0  0  0  0  0  0  0
    1.2129  -45.3355  -24.3255 H   0  0  0  0  0  0  0  0  0  0  0  0
    2.9934  -45.5359  -25.4855 C   0  0  0  0  0  0  0  0  0  0  0  0
    3.4950  -44.4839  -26.2050 C   0  0  0  0  0  0  0  0  0  0  0  0
    4.1456  -44.6909  -27.4161 C   0  0  0  0  0  0  0  0  0  0  0  0
    4.3130  -45.9449  -27.9448 C   0  0  0  0  0  0  0  0  0  0  0  0
    3.7874  -47.0070  -27.1708 C   0  0  0  0  0  0  0  0  0  0  0  0
    3.9860  -48.6570  -27.7755 Cl  0  0  0  0  0  0  0  0  0  0  0  0
    3.1505  -46.8082  -25.9822 C   0  0  0  0  0  0  0  0  0  0  0  0
    4.8972  -46.2491  -29.0986 O   0  0  0  0  0  0  0  0  0  0  0  0
    5.1574  -45.8742  -30.3327 C   0  0  0  0  0  0  0  0  0  0  0  0
    4.2366  -46.0555  -31.4598 C   0  0  0  0  0  0  0  0  0  0  0  0
    4.7898  -45.9088  -32.7603 C   0  0  0  0  0  0  0  0  0  0  0  0
    3.9837  -46.0762  -33.8543 C   0  0  0  0  0  0  0  0  0  0  0  0
    2.6205  -46.3902  -33.7462 C   0  0  0  0  0  0  0  0  0  0  0  0
    2.0758  -46.5349  -32.4905 C   0  0  0  0  0  0  0  0  0  0  0  0
    0.7725  -46.8494  -32.2513 F   0  0  0  0  0  0  0  0  0  0  0  0
    2.9134  -46.3591  -31.3756 C   0  0  0  0  0  0  0  0  0  0  0  0
 21 22  1  0  0  0
 22 23  2  0  0  0
 22 24  2  0  0  0
 22 20  1  0  0  0
 20 19  1  0  0  0
 19 17  1  0  0  0
 17 16  1  0  0  0
 16 11  1  0  0  0
 11 12  2  0  0  0
 12 13  1  0  0  0
 13 14  2  0  0  0
 14 15  1  0  0  0
 14  1  1  0  0  0
  1  2  2  0  0  0
  2  3  1  0  0  0
  3  4  2  0  0  0
  4  5  1  0  0  0
  5  6  2  0  0  0
  6  7  1  0  0  0
  7  8  2  0  0  0
  8 25  1  0  0  0
 25 27  1  0  0  0
 27 28  2  0  0  0
 28 29  1  0  0  0
 29 30  2  0  0  0
 30 34  1  0  0  0
 34 35  1  0  0  0
 35 36  1  0  0  0
 36 37  2  0  0  0
 37 38  1  0  0  0
 38 39  2  0  0  0
 39 40  1  0  0  0
 40 41  1  0  0  0
 40 42  2  0  0  0
 30 31  1  0  0  0
 31 32  1  0  0  0
 31 33  2  0  0  0
  8  9  1  0  0  0
  9 10  2  0  0  0
 15 11  1  0  0  0
 10  1  1  0  0  0
  9  4  1  0  0  0
 33 27  1  0  0  0
 42 36  1  0  0  0
 17 18  1  0  0  0
 25 26  1  0  0  0
M  END
> <minimizedAffinity>
-7.87274

> <CNNscore>
0.1007364020

> <CNNaffinity>
6.4911804199

> <CNN_VS>
0.6538981795

> <CNNaffinity_variance>
0.6417397261

$$$$
[H]/C(C(=O)N([H])c1c(OC([H])([H])[H])c([H])c2nc([H])nc(N([H])c3c([H])c([H])c(F)c(Cl)c3[H])c2c1[H])=C(/[H])C([H])([H])N1C([H])([H])[C@]2([H])OC([H])([H])C([H])([H])O[C@]2([H])C1([H])[H]


 38 42  0  0  0  0  0  0  0  0999 V2000
   -0.2109  -52.5996  -19.4806 C   0  0  0  0  0  0  0  0  0  0  0  0
   -0.9662  -53.5966  -20.0124 C   0  0  0  0  0  0  0  0  0  0  0  0
   -0.9843  -53.9326  -21.3374 C   0  0  0  0  0  0  0  0  0  0  0  0
   -1.7492  -54.9296  -21.8147 N   0  0  0  0  0  0  0  0  0  0  0  0
   -1.7277  -55.2182  -23.1249 C   0  0  0  0  0  0  0  0  0  0  0  0
   -0.9560  -54.5197  -23.9279 N   0  0  0  0  0  0  0  0  0  0  0  0
   -0.1584  -53.5033  -23.5283 C   0  0  0  0  0  0  0  0  0  0  0  0
   -0.1726  -53.1968  -22.1772 C   0  0  0  0  0  0  0  0  0  0  0  0
    0.6224  -52.1640  -21.6863 C   0  0  0  0  0  0  0  0  0  0  0  0
    0.6121  -51.8570  -20.3457 C   0  0  0  0  0  0  0  0  0  0  0  0
    1.3880  -50.8269  -19.7715 N   0  0  0  0  0  0  0  0  0  0  0  0
    2.7336  -50.8793  -19.4316 C   0  0  0  0  0  0  0  0  0  0  0  0
    3.4554  -51.8728  -19.5942 O   0  0  0  0  0  0  0  0  0  0  0  0
    0.8791  -49.8924  -19.5732 H   0  0  0  0  0  0  0  0  0  0  0  0
    3.4128  -49.7079  -18.8322 C   0  0  0  0  0  0  0  0  0  0  0  0
    2.9519  -49.0476  -17.7961 C   0  0  0  0  0  0  0  0  0  0  0  0
    3.7251  -47.8807  -17.2794 C   0  0  0  0  0  0  0  0  0  0  0  0
    3.5241  -47.6340  -15.8865 N   0  0  0  0  0  0  0  0  0  0  0  0
    2.3204  -46.8788  -15.5935 C   0  0  0  0  0  0  0  0  0  0  0  0
    2.2029  -47.0963  -14.0914 C   0  0  0  0  0  0  0  0  0  0  0  0
    0.9384  -46.7545  -13.6244 O   0  0  0  0  0  0  0  0  0  0  0  0
    0.5024  -47.7420  -12.7340 C   0  0  0  0  0  0  0  0  0  0  0  0
    0.2234  -48.9797  -13.5527 C   0  0  0  0  0  0  0  0  0  0  0  0
    1.3139  -49.2860  -14.3630 O   0  0  0  0  0  0  0  0  0  0  0  0
    2.4551  -48.5861  -13.9974 C   0  0  0  0  0  0  0  0  0  0  0  0
    3.4919  -48.8077  -15.0764 C   0  0  0  0  0  0  0  0  0  0  0  0
   -1.3029  -52.5835  -17.2992 C   0  0  0  0  0  0  0  0  0  0  0  0
   -0.2124  -52.2845  -18.1481 O   0  0  0  0  0  0  0  0  0  0  0  0
    0.6114  -52.7846  -24.4667 N   0  0  0  0  0  0  0  0  0  0  0  0
    1.4422  -52.2202  -24.1220 H   0  0  0  0  0  0  0  0  0  0  0  0
    0.3527  -52.7612  -25.8541 C   0  0  0  0  0  0  0  0  0  0  0  0
    1.4679  -52.9140  -26.6884 C   0  0  0  0  0  0  0  0  0  0  0  0
    1.3392  -52.9362  -28.0508 C   0  0  0  0  0  0  0  0  0  0  0  0
    0.0962  -52.8071  -28.6207 C   0  0  0  0  0  0  0  0  0  0  0  0
   -0.0792  -52.8230  -29.9715 F   0  0  0  0  0  0  0  0  0  0  0  0
   -1.0094  -52.6567  -27.8221 C   0  0  0  0  0  0  0  0  0  0  0  0
   -2.6036  -52.4903  -28.5398 Cl  0  0  0  0  0  0  0  0  0  0  0  0
   -0.8795  -52.6342  -26.4249 C   0  0  0  0  0  0  0  0  0  0  0  0
 27 28  1  0  0  0
 28  1  1  0  0  0
  1  2  2  0  0  0
  2  3  1  0  0  0
  3  4  2  0  0  0
  4  5  1  0  0  0
  5  6  2  0  0  0
  6  7  1  0  0  0
  7 29  1  0  0  0
 29 31  1  0  0  0
 31 32  2  0  0  0
 32 33  1  0  0  0
 33 34  2  0  0  0
 34 35  1  0  0  0
 34 36  1  0  0  0
 36 37  1  0  0  0
 36 38  2  0  0  0
  7  8  2  0  0  0
  8  9  1  0  0  0
  9 10  2  0  0  0
 10 11  1  0  0  0
 11 12  1  0  0  0
 12 13  2  0  0  0
 12 15  1  0  0  0
 15 16  2  0  0  0
 16 17  1  0  0  0
 17 18  1  0  0  0
 18 19  1  0  0  0
 19 20  1  0  0  0
 20 21  1  0  0  0
 21 22  1  0  0  0
 22 23  1  0  0  0
 23 24  1  0  0  0
 24 25  1  0  0  0
 25 26  1  0  0  0
 10  1  1  0  0  0
 26 18  1  0  0  0
  8  3  1  0  0  0
 25 20  1  0  0  0
 38 31  1  0  0  0
 29 30  1  0  0  0
 11 14  1  0  0  0
M  END
> <minimizedAffinity>
-8.61440

> <CNNscore>
0.9572706223

> <CNNaffinity>
7.5914545059

> <CNN_VS>
7.2670764923

> <CNNaffinity_variance>
0.0818500593

$$$$
[H]/C(C(=O)N([H])c1c(OC([H])([H])[H])c([H])c2nc([H])nc(N([H])c3c([H])c([H])c(F)c(Cl)c3[H])c2c1[H])=C(/[H])C([H])([H])N1C([H])([H])[C@]2([H])OC([H])([H])C([H])([H])O[C@]2([H])C1([H])[H]


 38 42  0  0  0  0  0  0  0  0999 V2000
    0.1733  -51.9329  -19.5407 C   0  0  0  0  0  0  0  0  0  0  0  0
   -0.6049  -52.9880  -19.8991 C   0  0  0  0  0  0  0  0  0  0  0  0
   -0.6805  -53.5008  -21.1641 C   0  0  0  0  0  0  0  0  0  0  0  0
   -1.4659  -54.5485  -21.4682 N   0  0  0  0  0  0  0  0  0  0  0  0
   -1.5012  -55.0126  -22.7266 C   0  0  0  0  0  0  0  0  0  0  0  0
   -0.7645  -54.4348  -23.6494 N   0  0  0  0  0  0  0  0  0  0  0  0
    0.0502  -53.3787  -23.4263 C   0  0  0  0  0  0  0  0  0  0  0  0
    0.0946  -52.8913  -22.1300 C   0  0  0  0  0  0  0  0  0  0  0  0
    0.9107  -51.8065  -21.8187 C   0  0  0  0  0  0  0  0  0  0  0  0
    0.9586  -51.3201  -20.5332 C   0  0  0  0  0  0  0  0  0  0  0  0
    1.7592  -50.2266  -20.1381 N   0  0  0  0  0  0  0  0  0  0  0  0
    1.5193  -48.8800  -20.3791 C   0  0  0  0  0  0  0  0  0  0  0  0
    0.5355  -48.4466  -20.9945 O   0  0  0  0  0  0  0  0  0  0  0  0
    2.6601  -50.4622  -19.5864 H   0  0  0  0  0  0  0  0  0  0  0  0
    2.4593  -47.8420  -19.8978 C   0  0  0  0  0  0  0  0  0  0  0  0
    3.7436  -47.8383  -20.1669 C   0  0  0  0  0  0  0  0  0  0  0  0
    4.5932  -46.7379  -19.6251 C   0  0  0  0  0  0  0  0  0  0  0  0
    5.0993  -45.8588  -20.6314 N   0  0  0  0  0  0  0  0  0  0  0  0
    5.2772  -46.4908  -21.9253 C   0  0  0  0  0  0  0  0  0  0  0  0
    5.4580  -45.2714  -22.8185 C   0  0  0  0  0  0  0  0  0  0  0  0
    5.3063  -45.5970  -24.1620 O   0  0  0  0  0  0  0  0  0  0  0  0
    4.5202  -44.6177  -24.7793 C   0  0  0  0  0  0  0  0  0  0  0  0
    3.1172  -44.7793  -24.2450 C   0  0  0  0  0  0  0  0  0  0  0  0
    3.1247  -44.8090  -22.8526 O   0  0  0  0  0  0  0  0  0  0  0  0
    4.3352  -44.3848  -22.3230 C   0  0  0  0  0  0  0  0  0  0  0  0
    4.3155  -44.6855  -20.8406 C   0  0  0  0  0  0  0  0  0  0  0  0
   -0.6212  -51.9024  -17.2343 C   0  0  0  0  0  0  0  0  0  0  0  0
    0.2295  -51.4396  -18.2646 O   0  0  0  0  0  0  0  0  0  0  0  0
    0.7792  -52.7992  -24.4858 N   0  0  0  0  0  0  0  0  0  0  0  0
    1.7079  -52.3308  -24.2718 H   0  0  0  0  0  0  0  0  0  0  0  0
    0.3561  -52.7969  -25.8324 C   0  0  0  0  0  0  0  0  0  0  0  0
    1.3455  -53.0690  -26.7864 C   0  0  0  0  0  0  0  0  0  0  0  0
    1.0505  -53.1224  -28.1217 C   0  0  0  0  0  0  0  0  0  0  0  0
   -0.2383  -52.9065  -28.5447 C   0  0  0  0  0  0  0  0  0  0  0  0
   -0.5777  -52.9493  -29.8632 F   0  0  0  0  0  0  0  0  0  0  0  0
   -1.2228  -52.6387  -27.6271 C   0  0  0  0  0  0  0  0  0  0  0  0
   -2.8741  -52.3607  -28.1565 Cl  0  0  0  0  0  0  0  0  0  0  0  0
   -0.9222  -52.5840  -26.2574 C   0  0  0  0  0  0  0  0  0  0  0  0
 27 28  1  0  0  0
 28  1  1  0  0  0
  1  2  2  0  0  0
  2  3  1  0  0  0
  3  4  2  0  0  0
  4  5  1  0  0  0
  5  6  2  0  0  0
  6  7  1  0  0  0
  7 29  1  0  0  0
 29 31  1  0  0  0
 31 32  2  0  0  0
 32 33  1  0  0  0
 33 34  2  0  0  0
 34 35  1  0  0  0
 34 36  1  0  0  0
 36 37  1  0  0  0
 36 38  2  0  0  0
  7  8  2  0  0  0
  8  9  1  0  0  0
  9 10  2  0  0  0
 10 11  1  0  0  0
 11 12  1  0  0  0
 12 13  2  0  0  0
 12 15  1  0  0  0
 15 16  2  0  0  0
 16 17  1  0  0  0
 17 18  1  0  0  0
 18 19  1  0  0  0
 19 20  1  0  0  0
 20 21  1  0  0  0
 21 22  1  0  0  0
 22 23  1  0  0  0
 23 24  1  0  0  0
 24 25  1  0  0  0
 25 26  1  0  0  0
 10  1  1  0  0  0
 26 18  1  0  0  0
  8  3  1  0  0  0
 25 20  1  0  0  0
 38 31  1  0  0  0
 29 30  1  0  0  0
 11 14  1  0  0  0
M  END
> <minimizedAffinity>
-8.95523

> <CNNscore>
0.9554090500

> <CNNaffinity>
7.6626448631

> <CNN_VS>
7.3209600449

> <CNNaffinity_variance>
0.0666110292

$$$$
[H]/C(C(=O)N([H])c1c(OC([H])([H])[H])c([H])c2nc([H])nc(N([H])c3c([H])c([H])c(F)c(Cl)c3[H])c2c1[H])=C(/[H])C([H])([H])N1C([H])([H])[C@]2([H])OC([H])([H])C([H])([H])O[C@]2([H])C1([H])[H]


 38 42  0  0  0  0  0  0  0  0999 V2000
    1.0707  -49.6463  -21.3248 C   0  0  0  0  0  0  0  0  0  0  0  0
    0.2152  -50.6452  -20.9819 C   0  0  0  0  0  0  0  0  0  0  0  0
    0.0072  -51.7756  -21.7221 C   0  0  0  0  0  0  0  0  0  0  0  0
   -0.8505  -52.7369  -21.3386 N   0  0  0  0  0  0  0  0  0  0  0  0
   -1.0156  -53.8273  -22.1030 C   0  0  0  0  0  0  0  0  0  0  0  0
   -0.3338  -53.9418  -23.2212 N   0  0  0  0  0  0  0  0  0  0  0  0
    0.5465  -53.0221  -23.6771 C   0  0  0  0  0  0  0  0  0  0  0  0
    0.7250  -51.8921  -22.8954 C   0  0  0  0  0  0  0  0  0  0  0  0
    1.6156  -50.8989  -23.2955 C   0  0  0  0  0  0  0  0  0  0  0  0
    1.7965  -49.7761  -22.5221 C   0  0  0  0  0  0  0  0  0  0  0  0
    2.6793  -48.7269  -22.8579 N   0  0  0  0  0  0  0  0  0  0  0  0
    4.0641  -48.7285  -22.7520 C   0  0  0  0  0  0  0  0  0  0  0  0
    4.7300  -49.6858  -22.3340 O   0  0  0  0  0  0  0  0  0  0  0  0
    2.2284  -47.8201  -23.2400 H   0  0  0  0  0  0  0  0  0  0  0  0
    4.8584  -47.5426  -23.1464 C   0  0  0  0  0  0  0  0  0  0  0  0
    4.5201  -46.7268  -24.1168 C   0  0  0  0  0  0  0  0  0  0  0  0
    5.4017  -45.5628  -24.4240 C   0  0  0  0  0  0  0  0  0  0  0  0
    4.9637  -44.7952  -25.5466 N   0  0  0  0  0  0  0  0  0  0  0  0
    5.5545  -45.2093  -26.8054 C   0  0  0  0  0  0  0  0  0  0  0  0
    4.6526  -44.4882  -27.7974 C   0  0  0  0  0  0  0  0  0  0  0  0
    4.8013  -44.9959  -29.0835 O   0  0  0  0  0  0  0  0  0  0  0  0
    3.5351  -45.1482  -29.6594 C   0  0  0  0  0  0  0  0  0  0  0  0
    2.8576  -46.2876  -28.9362 C   0  0  0  0  0  0  0  0  0  0  0  0
    2.9140  -46.0943  -27.5581 O   0  0  0  0  0  0  0  0  0  0  0  0
    3.2873  -44.8006  -27.2223 C   0  0  0  0  0  0  0  0  0  0  0  0
    3.5495  -44.7731  -25.7327 C   0  0  0  0  0  0  0  0  0  0  0  0
    2.0984  -48.5117  -19.4254 C   0  0  0  0  0  0  0  0  0  0  0  0
    1.2595  -48.5240  -20.5636 O   0  0  0  0  0  0  0  0  0  0  0  0
    1.2090  -53.2121  -24.9078 N   0  0  0  0  0  0  0  0  0  0  0  0
    2.2422  -53.4571  -24.9003 H   0  0  0  0  0  0  0  0  0  0  0  0
    0.5871  -53.0978  -26.1699 C   0  0  0  0  0  0  0  0  0  0  0  0
    1.4051  -53.3424  -27.2808 C   0  0  0  0  0  0  0  0  0  0  0  0
    0.9085  -53.2897  -28.5550 C   0  0  0  0  0  0  0  0  0  0  0  0
   -0.4168  -52.9922  -28.7588 C   0  0  0  0  0  0  0  0  0  0  0  0
   -0.9541  -52.9283  -30.0090 F   0  0  0  0  0  0  0  0  0  0  0  0
   -1.2357  -52.7496  -27.6848 C   0  0  0  0  0  0  0  0  0  0  0  0
   -2.9318  -52.3679  -27.9335 Cl  0  0  0  0  0  0  0  0  0  0  0  0
   -0.7284  -52.8037  -26.3775 C   0  0  0  0  0  0  0  0  0  0  0  0
 27 28  1  0  0  0
 28  1  1  0  0  0
  1  2  2  0  0  0
  2  3  1  0  0  0
  3  4  2  0  0  0
  4  5  1  0  0  0
  5  6  2  0  0  0
  6  7  1  0  0  0
  7 29  1  0  0  0
 29 31  1  0  0  0
 31 32  2  0  0  0
 32 33  1  0  0  0
 33 34  2  0  0  0
 34 35  1  0  0  0
 34 36  1  0  0  0
 36 37  1  0  0  0
 36 38  2  0  0  0
  7  8  2  0  0  0
  8  9  1  0  0  0
  9 10  2  0  0  0
 10 11  1  0  0  0
 11 12  1  0  0  0
 12 13  2  0  0  0
 12 15  1  0  0  0
 15 16  2  0  0  0
 16 17  1  0  0  0
 17 18  1  0  0  0
 18 19  1  0  0  0
 19 20  1  0  0  0
 20 21  1  0  0  0
 21 22  1  0  0  0
 22 23  1  0  0  0
 23 24  1  0  0  0
 24 25  1  0  0  0
 25 26  1  0  0  0
 10  1  1  0  0  0
 26 18  1  0  0  0
  8  3  1  0  0  0
 25 20  1  0  0  0
 38 31  1  0  0  0
 29 30  1  0  0  0
 11 14  1  0  0  0
M  END
> <minimizedAffinity>
-8.34019

> <CNNscore>
0.4980798662

> <CNNaffinity>
7.2567453384

> <CNN_VS>
3.6144387722

> <CNNaffinity_variance>
0.1731444746

$$$$
[H]/C(C(=O)N([H])c1c(OC([H])([H])[H])c([H])c2nc([H])nc(N([H])c3c([H])c([H])c(F)c(Cl)c3[H])c2c1[H])=C(/[H])C([H])([H])N1C([H])([H])[C@]2([H])OC([H])([H])C([H])([H])O[C@]2([H])C1([H])[H]


 38 42  0  0  0  0  0  0  0  0999 V2000
    0.1463  -52.4320  -26.1832 C   0  0  0  0  0  0  0  0  0  0  0  0
   -0.5668  -53.4801  -25.6932 C   0  0  0  0  0  0  0  0  0  0  0  0
   -0.5983  -53.8483  -24.3770 C   0  0  0  0  0  0  0  0  0  0  0  0
   -1.3216  -54.8942  -23.9413 N   0  0  0  0  0  0  0  0  0  0  0  0
   -1.3176  -55.2112  -22.6376 C   0  0  0  0  0  0  0  0  0  0  0  0
   -0.6038  -54.4922  -21.7999 N   0  0  0  0  0  0  0  0  0  0  0  0
    0.1495  -53.4273  -22.1566 C   0  0  0  0  0  0  0  0  0  0  0  0
    0.1525  -53.0908  -23.5007 C   0  0  0  0  0  0  0  0  0  0  0  0
    0.9022  -52.0056  -23.9479 C   0  0  0  0  0  0  0  0  0  0  0  0
    0.9073  -51.6676  -25.2810 C   0  0  0  0  0  0  0  0  0  0  0  0
    1.6395  -50.5837  -25.8121 N   0  0  0  0  0  0  0  0  0  0  0  0
    3.0057  -50.5329  -26.0568 C   0  0  0  0  0  0  0  0  0  0  0  0
    3.7889  -51.4662  -25.8333 O   0  0  0  0  0  0  0  0  0  0  0  0
    1.0750  -49.6928  -26.0556 H   0  0  0  0  0  0  0  0  0  0  0  0
    3.6326  -49.3155  -26.6205 C   0  0  0  0  0  0  0  0  0  0  0  0
    3.0863  -48.1235  -26.5723 C   0  0  0  0  0  0  0  0  0  0  0  0
    3.8139  -46.9691  -27.1761 C   0  0  0  0  0  0  0  0  0  0  0  0
    4.0371  -45.8937  -26.2622 N   0  0  0  0  0  0  0  0  0  0  0  0
    3.0212  -45.7798  -25.2327 C   0  0  0  0  0  0  0  0  0  0  0  0
    3.7064  -44.8347  -24.2557 C   0  0  0  0  0  0  0  0  0  0  0  0
    3.0747  -44.8366  -23.0168 O   0  0  0  0  0  0  0  0  0  0  0  0
    4.0479  -44.8839  -22.0124 C   0  0  0  0  0  0  0  0  0  0  0  0
    4.6666  -46.2604  -22.0644 C   0  0  0  0  0  0  0  0  0  0  0  0
    5.0713  -46.5658  -23.3616 O   0  0  0  0  0  0  0  0  0  0  0  0
    5.0884  -45.4488  -24.1850 C   0  0  0  0  0  0  0  0  0  0  0  0
    5.3017  -45.9303  -25.6031 C   0  0  0  0  0  0  0  0  0  0  0  0
    0.4888  -53.0060  -28.5293 C   0  0  0  0  0  0  0  0  0  0  0  0
    0.1595  -52.0855  -27.5078 O   0  0  0  0  0  0  0  0  0  0  0  0
    0.9125  -52.7340  -21.1938 N   0  0  0  0  0  0  0  0  0  0  0  0
    1.9104  -52.4603  -21.4321 H   0  0  0  0  0  0  0  0  0  0  0  0
    0.4372  -52.3719  -19.9150 C   0  0  0  0  0  0  0  0  0  0  0  0
    1.1325  -51.3392  -19.2722 C   0  0  0  0  0  0  0  0  0  0  0  0
    0.7480  -50.8817  -18.0411 C   0  0  0  0  0  0  0  0  0  0  0  0
   -0.3400  -51.4395  -17.4153 C   0  0  0  0  0  0  0  0  0  0  0  0
   -0.7583  -51.0164  -16.1899 F   0  0  0  0  0  0  0  0  0  0  0  0
   -1.0355  -52.4519  -18.0272 C   0  0  0  0  0  0  0  0  0  0  0  0
   -2.4279  -53.1729  -17.2363 Cl  0  0  0  0  0  0  0  0  0  0  0  0
   -0.6429  -52.9220  -19.2898 C   0  0  0  0  0  0  0  0  0  0  0  0
 27 28  1  0  0  0
 28  1  1  0  0  0
  1  2  2  0  0  0
  2  3  1  0  0  0
  3  4  2  0  0  0
  4  5  1  0  0  0
  5  6  2  0  0  0
  6  7  1  0  0  0
  7 29  1  0  0  0
 29 31  1  0  0  0
 31 32  2  0  0  0
 32 33  1  0  0  0
 33 34  2  0  0  0
 34 35  1  0  0  0
 34 36  1  0  0  0
 36 37  1  0  0  0
 36 38  2  0  0  0
  7  8  2  0  0  0
  8  9  1  0  0  0
  9 10  2  0  0  0
 10 11  1  0  0  0
 11 12  1  0  0  0
 12 13  2  0  0  0
 12 15  1  0  0  0
 15 16  2  0  0  0
 16 17  1  0  0  0
 17 18  1  0  0  0
 18 19  1  0  0  0
 19 20  1  0  0  0
 20 21  1  0  0  0
 21 22  1  0  0  0
 22 23  1  0  0  0
 23 24  1  0  0  0
 24 25  1  0  0  0
 25 26  1  0  0  0
 10  1  1  0  0  0
 26 18  1  0  0  0
  8  3  1  0  0  0
 25 20  1  0  0  0
 38 31  1  0  0  0
 29 30  1  0  0  0
 11 14  1  0  0  0
M  END
> <minimizedAffinity>
-8.13502

> <CNNscore>
0.4558248520

> <CNNaffinity>
7.1651163101

> <CNN_VS>
3.2660381794

> <CNNaffinity_variance>
0.0663977414

$$$$
[H]/C(C(=O)N([H])c1c(OC([H])([H])[H])c([H])c2nc([H])nc(N([H])c3c([H])c([H])c(F)c(Cl)c3[H])c2c1[H])=C(/[H])C([H])([H])N1C([H])([H])[C@]2([H])OC([H])([H])C([H])([H])O[C@]2([H])C1([H])[H]


 38 42  0  0  0  0  0  0  0  0999 V2000
    0.9232  -52.1718  -25.1932 C   0  0  0  0  0  0  0  0  0  0  0  0
   -0.0922  -53.0585  -25.0207 C   0  0  0  0  0  0  0  0  0  0  0  0
   -0.4127  -53.6477  -23.8295 C   0  0  0  0  0  0  0  0  0  0  0  0
   -1.4292  -54.5192  -23.7102 N   0  0  0  0  0  0  0  0  0  0  0  0
   -1.7012  -55.0674  -22.5162 C   0  0  0  0  0  0  0  0  0  0  0  0
   -0.9674  -54.7440  -21.4744 N   0  0  0  0  0  0  0  0  0  0  0  0
    0.0704  -53.8778  -21.5099 C   0  0  0  0  0  0  0  0  0  0  0  0
    0.3600  -53.3054  -22.7381 C   0  0  0  0  0  0  0  0  0  0  0  0
    1.4132  -52.4019  -22.8573 C   0  0  0  0  0  0  0  0  0  0  0  0
    1.7035  -51.8307  -24.0742 C   0  0  0  0  0  0  0  0  0  0  0  0
    2.7523  -50.9076  -24.2767 N   0  0  0  0  0  0  0  0  0  0  0  0
    4.1032  -51.1919  -24.4292 C   0  0  0  0  0  0  0  0  0  0  0  0
    4.5819  -52.3341  -24.4070 O   0  0  0  0  0  0  0  0  0  0  0  0
    2.4743  -49.8624  -24.3175 H   0  0  0  0  0  0  0  0  0  0  0  0
    5.0900  -50.1072  -24.6351 C   0  0  0  0  0  0  0  0  0  0  0  0
    5.6734  -49.4552  -23.6571 C   0  0  0  0  0  0  0  0  0  0  0  0
    6.6529  -48.3793  -23.9878 C   0  0  0  0  0  0  0  0  0  0  0  0
    6.3595  -47.1282  -23.3634 N   0  0  0  0  0  0  0  0  0  0  0  0
    4.9533  -46.9416  -23.0585 C   0  0  0  0  0  0  0  0  0  0  0  0
    5.0194  -45.7486  -22.1152 C   0  0  0  0  0  0  0  0  0  0  0  0
    3.8296  -45.5874  -21.4135 O   0  0  0  0  0  0  0  0  0  0  0  0
    4.1274  -45.3201  -20.0726 C   0  0  0  0  0  0  0  0  0  0  0  0
    4.6826  -46.5947  -19.4832 C   0  0  0  0  0  0  0  0  0  0  0  0
    5.7107  -47.0941  -20.2792 O   0  0  0  0  0  0  0  0  0  0  0  0
    6.1575  -46.1643  -21.2074 C   0  0  0  0  0  0  0  0  0  0  0  0
    7.0868  -46.8818  -22.1613 C   0  0  0  0  0  0  0  0  0  0  0  0
    1.7613  -52.3339  -27.4785 C   0  0  0  0  0  0  0  0  0  0  0  0
    1.2221  -51.5965  -26.3992 O   0  0  0  0  0  0  0  0  0  0  0  0
    0.8259  -53.6159  -20.3479 N   0  0  0  0  0  0  0  0  0  0  0  0
    1.6831  -54.2106  -20.1500 H   0  0  0  0  0  0  0  0  0  0  0  0
    0.5195  -52.6034  -19.4134 C   0  0  0  0  0  0  0  0  0  0  0  0
   -0.5342  -52.8805  -18.5325 C   0  0  0  0  0  0  0  0  0  0  0  0
   -0.9050  -51.9877  -17.5639 C   0  0  0  0  0  0  0  0  0  0  0  0
   -0.2367  -50.7936  -17.4449 C   0  0  0  0  0  0  0  0  0  0  0  0
   -0.5716  -49.8750  -16.4964 F   0  0  0  0  0  0  0  0  0  0  0  0
    0.7986  -50.5022  -18.2971 C   0  0  0  0  0  0  0  0  0  0  0  0
    1.6599  -48.9784  -18.1545 Cl  0  0  0  0  0  0  0  0  0  0  0  0
    1.1805  -51.4167  -19.2907 C   0  0  0  0  0  0  0  0  0  0  0  0
 27 28  1  0  0  0
 28  1  1  0  0  0
  1  2  2  0  0  0
  2  3  1  0  0  0
  3  4  2  0  0  0
  4  5  1  0  0  0
  5  6  2  0  0  0
  6  7  1  0  0  0
  7 29  1  0  0  0
 29 31  1  0  0  0
 31 32  2  0  0  0
 32 33  1  0  0  0
 33 34  2  0  0  0
 34 35  1  0  0  0
 34 36  1  0  0  0
 36 37  1  0  0  0
 36 38  2  0  0  0
  7  8  2  0  0  0
  8  9  1  0  0  0
  9 10  2  0  0  0
 10 11  1  0  0  0
 11 12  1  0  0  0
 12 13  2  0  0  0
 12 15  1  0  0  0
 15 16  2  0  0  0
 16 17  1  0  0  0
 17 18  1  0  0  0
 18 19  1  0  0  0
 19 20  1  0  0  0
 20 21  1  0  0  0
 21 22  1  0  0  0
 22 23  1  0  0  0
 23 24  1  0  0  0
 24 25  1  0  0  0
 25 26  1  0  0  0
 10  1  1  0  0  0
 26 18  1  0  0  0
  8  3  1  0  0  0
 25 20  1  0  0  0
 38 31  1  0  0  0
 29 30  1  0  0  0
 11 14  1  0  0  0
M  END
> <minimizedAffinity>
-6.85504

> <CNNscore>
0.4167477190

> <CNNaffinity>
7.0473279953

> <CNN_VS>
2.9369578362

> <CNNaffinity_variance>
0.1456584036

$$$$
[H]/C(C(=O)N([H])c1c(OC([H])([H])[H])c([H])c2nc([H])nc(N([H])c3c([H])c([H])c(F)c(Cl)c3[H])c2c1[H])=C(/[H])C([H])([H])N1C([H])([H])[C@]2([H])OC([H])([H])C([H])([H])O[C@]2([H])C1([H])[H]


 38 42  0  0  0  0  0  0  0  0999 V2000
    1.1914  -51.1181  -23.0675 C   0  0  0  0  0  0  0  0  0  0  0  0
    0.2758  -52.0881  -23.3281 C   0  0  0  0  0  0  0  0  0  0  0  0
   -0.3077  -52.8786  -22.3776 C   0  0  0  0  0  0  0  0  0  0  0  0
   -1.2105  -53.8254  -22.6867 N   0  0  0  0  0  0  0  0  0  0  0  0
   -1.7533  -54.5727  -21.7135 C   0  0  0  0  0  0  0  0  0  0  0  0
   -1.3939  -54.3687  -20.4655 N   0  0  0  0  0  0  0  0  0  0  0  0
   -0.4943  -53.4390  -20.0716 C   0  0  0  0  0  0  0  0  0  0  0  0
    0.0724  -52.6613  -21.0685 C   0  0  0  0  0  0  0  0  0  0  0  0
    1.0064  -51.6805  -20.7440 C   0  0  0  0  0  0  0  0  0  0  0  0
    1.5707  -50.9057  -21.7302 C   0  0  0  0  0  0  0  0  0  0  0  0
    2.5226  -49.8929  -21.4831 N   0  0  0  0  0  0  0  0  0  0  0  0
    2.2858  -48.6270  -20.9632 C   0  0  0  0  0  0  0  0  0  0  0  0
    1.1677  -48.2058  -20.6361 O   0  0  0  0  0  0  0  0  0  0  0  0
    3.5511  -50.1273  -21.7255 H   0  0  0  0  0  0  0  0  0  0  0  0
    3.3958  -47.6681  -20.7607 C   0  0  0  0  0  0  0  0  0  0  0  0
    4.4130  -47.5447  -21.5804 C   0  0  0  0  0  0  0  0  0  0  0  0
    5.4739  -46.5420  -21.2712 C   0  0  0  0  0  0  0  0  0  0  0  0
    6.2462  -46.1581  -22.4103 N   0  0  0  0  0  0  0  0  0  0  0  0
    7.0879  -47.2188  -22.9314 C   0  0  0  0  0  0  0  0  0  0  0  0
    7.4726  -46.6413  -24.2864 C   0  0  0  0  0  0  0  0  0  0  0  0
    8.0022  -47.6167  -25.1242 O   0  0  0  0  0  0  0  0  0  0  0  0
    7.4488  -47.4664  -26.4006 C   0  0  0  0  0  0  0  0  0  0  0  0
    5.9986  -47.8751  -26.3017 C   0  0  0  0  0  0  0  0  0  0  0  0
    5.3732  -47.2079  -25.2512 O   0  0  0  0  0  0  0  0  0  0  0  0
    6.1293  -46.1449  -24.7777 C   0  0  0  0  0  0  0  0  0  0  0  0
    5.4793  -45.6546  -23.5027 C   0  0  0  0  0  0  0  0  0  0  0  0
    2.6040  -50.8743  -25.0414 C   0  0  0  0  0  0  0  0  0  0  0  0
    1.7601  -50.3404  -24.0404 O   0  0  0  0  0  0  0  0  0  0  0  0
   -0.1421  -53.3132  -18.7115 N   0  0  0  0  0  0  0  0  0  0  0  0
    0.7064  -53.8406  -18.3517 H   0  0  0  0  0  0  0  0  0  0  0  0
   -0.8482  -52.5235  -17.7785 C   0  0  0  0  0  0  0  0  0  0  0  0
   -2.0521  -53.0624  -17.3059 C   0  0  0  0  0  0  0  0  0  0  0  0
   -2.8106  -52.4025  -16.3773 C   0  0  0  0  0  0  0  0  0  0  0  0
   -2.3914  -51.1876  -15.8929 C   0  0  0  0  0  0  0  0  0  0  0  0
   -3.1141  -50.4952  -14.9688 F   0  0  0  0  0  0  0  0  0  0  0  0
   -1.2152  -50.6418  -16.3420 C   0  0  0  0  0  0  0  0  0  0  0  0
   -0.6697  -49.0887  -15.7300 Cl  0  0  0  0  0  0  0  0  0  0  0  0
   -0.4359  -51.3172  -17.2938 C   0  0  0  0  0  0  0  0  0  0  0  0
 27 28  1  0  0  0
 28  1  1  0  0  0
  1  2  2  0  0  0
  2  3  1  0  0  0
  3  4  2  0  0  0
  4  5  1  0  0  0
  5  6  2  0  0  0
  6  7  1  0  0  0
  7 29  1  0  0  0
 29 31  1  0  0  0
 31 32  2  0  0  0
 32 33  1  0  0  0
 33 34  2  0  0  0
 34 35  1  0  0  0
 34 36  1  0  0  0
 36 37  1  0  0  0
 36 38  2  0  0  0
  7  8  2  0  0  0
  8  9  1  0  0  0
  9 10  2  0  0  0
 10 11  1  0  0  0
 11 12  1  0  0  0
 12 13  2  0  0  0
 12 15  1  0  0  0
 15 16  2  0  0  0
 16 17  1  0  0  0
 17 18  1  0  0  0
 18 19  1  0  0  0
 19 20  1  0  0  0
 20 21  1  0  0  0
 21 22  1  0  0  0
 22 23  1  0  0  0
 23 24  1  0  0  0
 24 25  1  0  0  0
 25 26  1  0  0  0
 10  1  1  0  0  0
 26 18  1  0  0  0
  8  3  1  0  0  0
 25 20  1  0  0  0
 38 31  1  0  0  0
 29 30  1  0  0  0
 11 14  1  0  0  0
M  END
> <minimizedAffinity>
-6.42512

> <CNNscore>
0.3303326964

> <CNNaffinity>
6.5795493126

> <CNN_VS>
2.1734402180

> <CNNaffinity_variance>
0.0419414341

$$$$
[H]/C(C(=O)N([H])c1c(OC([H])([H])[H])c([H])c2nc([H])nc(N([H])c3c([H])c([H])c(F)c(Cl)c3[H])c2c1[H])=C(/[H])C([H])([H])N1C([H])([H])[C@]2([H])OC([H])([H])C([H])([H])O[C@]2([H])C1([H])[H]


 38 42  0  0  0  0  0  0  0  0999 V2000
    1.1936  -51.4831  -24.5611 C   0  0  0  0  0  0  0  0  0  0  0  0
    0.2768  -52.4865  -24.5531 C   0  0  0  0  0  0  0  0  0  0  0  0
   -0.0963  -53.1864  -23.4396 C   0  0  0  0  0  0  0  0  0  0  0  0
   -1.0102  -54.1712  -23.4836 N   0  0  0  0  0  0  0  0  0  0  0  0
   -1.3405  -54.8254  -22.3597 C   0  0  0  0  0  0  0  0  0  0  0  0
   -0.7641  -54.4937  -21.2257 N   0  0  0  0  0  0  0  0  0  0  0  0
    0.1628  -53.5174  -21.0966 C   0  0  0  0  0  0  0  0  0  0  0  0
    0.5113  -52.8350  -22.2510 C   0  0  0  0  0  0  0  0  0  0  0  0
    1.4576  -51.8144  -22.2010 C   0  0  0  0  0  0  0  0  0  0  0  0
    1.8058  -51.1339  -23.3443 C   0  0  0  0  0  0  0  0  0  0  0  0
    2.7544  -50.0889  -23.3764 N   0  0  0  0  0  0  0  0  0  0  0  0
    3.9341  -50.0031  -22.6484 C   0  0  0  0  0  0  0  0  0  0  0  0
    4.3225  -50.8639  -21.8468 O   0  0  0  0  0  0  0  0  0  0  0  0
    2.5396  -49.2621  -24.0412 H   0  0  0  0  0  0  0  0  0  0  0  0
    4.8325  -48.8347  -22.7910 C   0  0  0  0  0  0  0  0  0  0  0  0
    4.4343  -47.6526  -23.1983 C   0  0  0  0  0  0  0  0  0  0  0  0
    5.4331  -46.5491  -23.3031 C   0  0  0  0  0  0  0  0  0  0  0  0
    5.1608  -45.6312  -24.3637 N   0  0  0  0  0  0  0  0  0  0  0  0
    5.2920  -46.2104  -25.6874 C   0  0  0  0  0  0  0  0  0  0  0  0
    4.6098  -45.1464  -26.5359 C   0  0  0  0  0  0  0  0  0  0  0  0
    4.3029  -45.6260  -27.8046 O   0  0  0  0  0  0  0  0  0  0  0  0
    3.0073  -45.2183  -28.1416 C   0  0  0  0  0  0  0  0  0  0  0  0
    2.0588  -45.9966  -27.2613 C   0  0  0  0  0  0  0  0  0  0  0  0
    2.4348  -45.8912  -25.9244 O   0  0  0  0  0  0  0  0  0  0  0  0
    3.3645  -44.8821  -25.7165 C   0  0  0  0  0  0  0  0  0  0  0  0
    3.8751  -45.0168  -24.2989 C   0  0  0  0  0  0  0  0  0  0  0  0
    2.3825  -51.3581  -26.6876 C   0  0  0  0  0  0  0  0  0  0  0  0
    1.5485  -50.7983  -25.6924 O   0  0  0  0  0  0  0  0  0  0  0  0
    0.7553  -53.2524  -19.8442 N   0  0  0  0  0  0  0  0  0  0  0  0
    1.7358  -53.6137  -19.6553 H   0  0  0  0  0  0  0  0  0  0  0  0
    0.1282  -52.5297  -18.8065 C   0  0  0  0  0  0  0  0  0  0  0  0
   -0.9788  -53.1482  -18.2106 C   0  0  0  0  0  0  0  0  0  0  0  0
   -1.6516  -52.5578  -17.1753 C   0  0  0  0  0  0  0  0  0  0  0  0
   -1.2407  -51.3349  -16.7040 C   0  0  0  0  0  0  0  0  0  0  0  0
   -1.8802  -50.7099  -15.6764 F   0  0  0  0  0  0  0  0  0  0  0  0
   -0.1586  -50.7117  -17.2729 C   0  0  0  0  0  0  0  0  0  0  0  0
    0.3753  -49.1477  -16.6788 Cl  0  0  0  0  0  0  0  0  0  0  0  0
    0.5328  -51.3157  -18.3343 C   0  0  0  0  0  0  0  0  0  0  0  0
 27 28  1  0  0  0
 28  1  1  0  0  0
  1  2  2  0  0  0
  2  3  1  0  0  0
  3  4  2  0  0  0
  4  5  1  0  0  0
  5  6  2  0  0  0
  6  7  1  0  0  0
  7 29  1  0  0  0
 29 31  1  0  0  0
 31 32  2  0  0  0
 32 33  1  0  0  0
 33 34  2  0  0  0
 34 35  1  0  0  0
 34 36  1  0  0  0
 36 37  1  0  0  0
 36 38  2  0  0  0
  7  8  2  0  0  0
  8  9  1  0  0  0
  9 10  2  0  0  0
 10 11  1  0  0  0
 11 12  1  0  0  0
 12 13  2  0  0  0
 12 15  1  0  0  0
 15 16  2  0  0  0
 16 17  1  0  0  0
 17 18  1  0  0  0
 18 19  1  0  0  0
 19 20  1  0  0  0
 20 21  1  0  0  0
 21 22  1  0  0  0
 22 23  1  0  0  0
 23 24  1  0  0  0
 24 25  1  0  0  0
 25 26  1  0  0  0
 10  1  1  0  0  0
 26 18  1  0  0  0
  8  3  1  0  0  0
 25 20  1  0  0  0
 38 31  1  0  0  0
 29 30  1  0  0  0
 11 14  1  0  0  0
M  END
> <minimizedAffinity>
-7.44191

> <CNNscore>
0.3237990737

> <CNNaffinity>
6.8864164352

> <CNN_VS>
2.2298152447

> <CNNaffinity_variance>
0.0862002969

$$$$
[H]/C(C(=O)N([H])c1c(OC([H])([H])[H])c([H])c2nc([H])nc(N([H])c3c([H])c([H])c(F)c(Cl)c3[H])c2c1[H])=C(/[H])C([H])([H])N1C([H])([H])[C@]2([H])OC([H])([H])C([H])([H])O[C@]2([H])C1([H])[H]


 38 42  0  0  0  0  0  0  0  0999 V2000
    0.3134  -52.3646  -24.2577 C   0  0  0  0  0  0  0  0  0  0  0  0
   -0.4615  -53.1433  -23.4575 C   0  0  0  0  0  0  0  0  0  0  0  0
   -0.5169  -53.0411  -22.0954 C   0  0  0  0  0  0  0  0  0  0  0  0
   -1.3018  -53.8357  -21.3473 N   0  0  0  0  0  0  0  0  0  0  0  0
   -1.3188  -53.6916  -20.0134 C   0  0  0  0  0  0  0  0  0  0  0  0
   -0.5648  -52.7719  -19.4531 N   0  0  0  0  0  0  0  0  0  0  0  0
    0.2510  -51.9344  -20.1327 C   0  0  0  0  0  0  0  0  0  0  0  0
    0.2762  -52.0742  -21.5110 C   0  0  0  0  0  0  0  0  0  0  0  0
    1.0897  -51.2482  -22.2827 C   0  0  0  0  0  0  0  0  0  0  0  0
    1.1171  -51.3830  -23.6511 C   0  0  0  0  0  0  0  0  0  0  0  0
    1.9132  -50.5856  -24.5016 N   0  0  0  0  0  0  0  0  0  0  0  0
    3.2239  -50.8256  -24.8933 C   0  0  0  0  0  0  0  0  0  0  0  0
    3.8899  -51.8066  -24.5348 O   0  0  0  0  0  0  0  0  0  0  0  0
    1.4526  -49.6873  -24.8921 H   0  0  0  0  0  0  0  0  0  0  0  0
    3.9313  -49.8893  -25.7963 C   0  0  0  0  0  0  0  0  0  0  0  0
    3.4784  -49.5272  -26.9734 C   0  0  0  0  0  0  0  0  0  0  0  0
    4.2810  -48.5758  -27.7963 C   0  0  0  0  0  0  0  0  0  0  0  0
    4.0973  -47.2074  -27.4289 N   0  0  0  0  0  0  0  0  0  0  0  0
    2.7454  -46.8907  -27.0077 C   0  0  0  0  0  0  0  0  0  0  0  0
    2.9572  -45.5289  -26.3612 C   0  0  0  0  0  0  0  0  0  0  0  0
    1.8695  -45.1631  -25.5757 O   0  0  0  0  0  0  0  0  0  0  0  0
    2.3401  -44.6313  -24.3699 C   0  0  0  0  0  0  0  0  0  0  0  0
    2.9360  -45.7770  -23.5873 C   0  0  0  0  0  0  0  0  0  0  0  0
    3.8438  -46.4848  -24.3713 O   0  0  0  0  0  0  0  0  0  0  0  0
    4.1910  -45.7975  -25.5258 C   0  0  0  0  0  0  0  0  0  0  0  0
    4.9760  -46.7469  -26.4038 C   0  0  0  0  0  0  0  0  0  0  0  0
    0.9277  -53.6066  -26.2654 C   0  0  0  0  0  0  0  0  0  0  0  0
    0.3493  -52.4890  -25.6207 O   0  0  0  0  0  0  0  0  0  0  0  0
    1.0524  -50.9992  -19.4450 N   0  0  0  0  0  0  0  0  0  0  0  0
    1.6605  -50.3349  -20.0075 H   0  0  0  0  0  0  0  0  0  0  0  0
    1.1052  -50.8809  -18.0394 C   0  0  0  0  0  0  0  0  0  0  0  0
   -0.1307  -50.8107  -17.3832 C   0  0  0  0  0  0  0  0  0  0  0  0
   -0.2080  -50.7230  -16.0196 C   0  0  0  0  0  0  0  0  0  0  0  0
    0.9434  -50.7031  -15.2711 C   0  0  0  0  0  0  0  0  0  0  0  0
    0.9144  -50.6162  -13.9119 F   0  0  0  0  0  0  0  0  0  0  0  0
    2.1644  -50.7711  -15.8935 C   0  0  0  0  0  0  0  0  0  0  0  0
    3.6431  -50.7459  -14.9465 Cl  0  0  0  0  0  0  0  0  0  0  0  0
    2.2456  -50.8615  -17.2916 C   0  0  0  0  0  0  0  0  0  0  0  0
 27 28  1  0  0  0
 28  1  1  0  0  0
  1  2  2  0  0  0
  2  3  1  0  0  0
  3  4  2  0  0  0
  4  5  1  0  0  0
  5  6  2  0  0  0
  6  7  1  0  0  0
  7 29  1  0  0  0
 29 31  1  0  0  0
 31 32  2  0  0  0
 32 33  1  0  0  0
 33 34  2  0  0  0
 34 35  1  0  0  0
 34 36  1  0  0  0
 36 37  1  0  0  0
 36 38  2  0  0  0
  7  8  2  0  0  0
  8  9  1  0  0  0
  9 10  2  0  0  0
 10 11  1  0  0  0
 11 12  1  0  0  0
 12 13  2  0  0  0
 12 15  1  0  0  0
 15 16  2  0  0  0
 16 17  1  0  0  0
 17 18  1  0  0  0
 18 19  1  0  0  0
 19 20  1  0  0  0
 20 21  1  0  0  0
 21 22  1  0  0  0
 22 23  1  0  0  0
 23 24  1  0  0  0
 24 25  1  0  0  0
 25 26  1  0  0  0
 10  1  1  0  0  0
 26 18  1  0  0  0
  8  3  1  0  0  0
 25 20  1  0  0  0
 38 31  1  0  0  0
 29 30  1  0  0  0
 11 14  1  0  0  0
M  END
> <minimizedAffinity>
-7.28499

> <CNNscore>
0.2923543155

> <CNNaffinity>
6.8637938499

> <CNN_VS>
2.0066597462

> <CNNaffinity_variance>
0.2990096211

$$$$
[H]/C(C(=O)N([H])c1c(OC([H])([H])[H])c([H])c2nc([H])nc(N([H])c3c([H])c([H])c(F)c(Cl)c3[H])c2c1[H])=C(/[H])C([H])([H])N1C([H])([H])[C@]2([H])OC([H])([H])C([H])([H])O[C@]2([H])C1([H])[H]


 38 42  0  0  0  0  0  0  0  0999 V2000
    0.7098  -52.0709  -25.2232 C   0  0  0  0  0  0  0  0  0  0  0  0
   -0.1678  -53.0652  -24.9260 C   0  0  0  0  0  0  0  0  0  0  0  0
   -0.3963  -53.5466  -23.6670 C   0  0  0  0  0  0  0  0  0  0  0  0
   -1.2773  -54.5324  -23.4244 N   0  0  0  0  0  0  0  0  0  0  0  0
   -1.4637  -54.9664  -22.1685 C   0  0  0  0  0  0  0  0  0  0  0  0
   -0.7797  -54.4199  -21.1878 N   0  0  0  0  0  0  0  0  0  0  0  0
    0.1236  -53.4262  -21.3472 C   0  0  0  0  0  0  0  0  0  0  0  0
    0.3238  -52.9700  -22.6401 C   0  0  0  0  0  0  0  0  0  0  0  0
    1.2365  -51.9475  -22.8872 C   0  0  0  0  0  0  0  0  0  0  0  0
    1.4376  -51.4912  -24.1689 C   0  0  0  0  0  0  0  0  0  0  0  0
    2.3429  -50.4601  -24.5009 N   0  0  0  0  0  0  0  0  0  0  0  0
    3.7030  -50.5858  -24.7528 C   0  0  0  0  0  0  0  0  0  0  0  0
    4.3220  -51.6582  -24.7182 O   0  0  0  0  0  0  0  0  0  0  0  0
    1.9332  -49.4604  -24.5663 H   0  0  0  0  0  0  0  0  0  0  0  0
    4.5264  -49.4023  -25.0904 C   0  0  0  0  0  0  0  0  0  0  0  0
    4.0293  -48.2602  -25.5031 C   0  0  0  0  0  0  0  0  0  0  0  0
    4.9599  -47.1361  -25.8141 C   0  0  0  0  0  0  0  0  0  0  0  0
    4.9311  -46.7335  -27.1847 N   0  0  0  0  0  0  0  0  0  0  0  0
    6.1719  -46.9824  -27.8942 C   0  0  0  0  0  0  0  0  0  0  0  0
    5.7195  -46.8028  -29.3366 C   0  0  0  0  0  0  0  0  0  0  0  0
    6.6487  -47.3234  -30.2306 O   0  0  0  0  0  0  0  0  0  0  0  0
    5.9708  -48.0450  -31.2195 C   0  0  0  0  0  0  0  0  0  0  0  0
    5.4231  -49.2876  -30.5591 C   0  0  0  0  0  0  0  0  0  0  0  0
    4.7119  -48.9566  -29.4083 O   0  0  0  0  0  0  0  0  0  0  0  0
    4.4320  -47.5994  -29.3339 C   0  0  0  0  0  0  0  0  0  0  0  0
    3.8823  -47.3217  -27.9522 C   0  0  0  0  0  0  0  0  0  0  0  0
    1.5092  -52.4031  -27.5039 C   0  0  0  0  0  0  0  0  0  0  0  0
    0.9188  -51.6080  -26.4947 O   0  0  0  0  0  0  0  0  0  0  0  0
    0.8383  -52.9226  -20.2402 N   0  0  0  0  0  0  0  0  0  0  0  0
    1.8989  -52.9741  -20.2496 H   0  0  0  0  0  0  0  0  0  0  0  0
    0.2353  -52.3456  -19.1018 C   0  0  0  0  0  0  0  0  0  0  0  0
   -0.7709  -53.1047  -18.4899 C   0  0  0  0  0  0  0  0  0  0  0  0
   -1.4089  -52.6629  -17.3626 C   0  0  0  0  0  0  0  0  0  0  0  0
   -1.0628  -51.4527  -16.8129 C   0  0  0  0  0  0  0  0  0  0  0  0
   -1.6712  -50.9731  -15.6924 F   0  0  0  0  0  0  0  0  0  0  0  0
   -0.0798  -50.6934  -17.3960 C   0  0  0  0  0  0  0  0  0  0  0  0
    0.3706  -49.1443  -16.7020 Cl  0  0  0  0  0  0  0  0  0  0  0  0
    0.5759  -51.1450  -18.5516 C   0  0  0  0  0  0  0  0  0  0  0  0
 27 28  1  0  0  0
 28  1  1  0  0  0
  1  2  2  0  0  0
  2  3  1  0  0  0
  3  4  2  0  0  0
  4  5  1  0  0  0
  5  6  2  0  0  0
  6  7  1  0  0  0
  7 29  1  0  0  0
 29 31  1  0  0  0
 31 32  2  0  0  0
 32 33  1  0  0  0
 33 34  2  0  0  0
 34 35  1  0  0  0
 34 36  1  0  0  0
 36 37  1  0  0  0
 36 38  2  0  0  0
  7  8  2  0  0  0
  8  9  1  0  0  0
  9 10  2  0  0  0
 10 11  1  0  0  0
 11 12  1  0  0  0
 12 13  2  0  0  0
 12 15  1  0  0  0
 15 16  2  0  0  0
 16 17  1  0  0  0
 17 18  1  0  0  0
 18 19  1  0  0  0
 19 20  1  0  0  0
 20 21  1  0  0  0
 21 22  1  0  0  0
 22 23  1  0  0  0
 23 24  1  0  0  0
 24 25  1  0  0  0
 25 26  1  0  0  0
 10  1  1  0  0  0
 26 18  1  0  0  0
  8  3  1  0  0  0
 25 20  1  0  0  0
 38 31  1  0  0  0
 29 30  1  0  0  0
 11 14  1  0  0  0
M  END
> <minimizedAffinity>
-7.69741

> <CNNscore>
0.2866602540

> <CNNaffinity>
6.7092566490

> <CNN_VS>
1.9232772589

> <CNNaffinity_variance>
0.2183855474

$$$$
[H]/C(C(=O)N([H])c1c(OC([H])([H])C([H])([H])[H])c([H])c2nc([H])c(C#N)c(N([H])c3c([H])c([H])c(OC([H])([H])c4c([H])c([H])c([H])c(F)c4[H])c(Cl)c3[H])c2c1[H])=C(/[H])C([H])([H])N(C([H])([H])[H])C([H])([H])[H]


 43 46  0  0  0  0  0  0  0  0999 V2000
   -0.6322  -52.7952  -19.1569 C   0  0  0  0  0  0  0  0  0  0  0  0
   -1.1382  -53.8246  -19.8962 C   0  0  0  0  0  0  0  0  0  0  0  0
   -0.9221  -53.8730  -21.2638 C   0  0  0  0  0  0  0  0  0  0  0  0
   -1.4197  -54.8874  -21.9996 N   0  0  0  0  0  0  0  0  0  0  0  0
   -1.2197  -54.9488  -23.3289 C   0  0  0  0  0  0  0  0  0  0  0  0
   -0.4999  -53.9906  -24.0261 C   0  0  0  0  0  0  0  0  0  0  0  0
    0.0146  -52.9480  -23.2852 C   0  0  0  0  0  0  0  0  0  0  0  0
   -0.2044  -52.9055  -21.9160 C   0  0  0  0  0  0  0  0  0  0  0  0
    0.3064  -51.8551  -21.1319 C   0  0  0  0  0  0  0  0  0  0  0  0
    0.1179  -51.7657  -19.7755 C   0  0  0  0  0  0  0  0  0  0  0  0
    0.6194  -50.7263  -18.9631 N   0  0  0  0  0  0  0  0  0  0  0  0
    1.9274  -50.6494  -18.4715 C   0  0  0  0  0  0  0  0  0  0  0  0
    2.8293  -51.5142  -18.7006 O   0  0  0  0  0  0  0  0  0  0  0  0
   -0.0826  -49.9527  -18.7232 H   0  0  0  0  0  0  0  0  0  0  0  0
    2.3215  -49.5197  -17.6387 C   0  0  0  0  0  0  0  0  0  0  0  0
    1.6694  -49.1945  -16.5626 C   0  0  0  0  0  0  0  0  0  0  0  0
    2.1172  -48.0156  -15.7334 C   0  0  0  0  0  0  0  0  0  0  0  0
    1.7938  -48.3413  -14.3672 N   0  0  0  0  0  0  0  0  0  0  0  0
    1.0927  -47.2502  -13.7191 C   0  0  0  0  0  0  0  0  0  0  0  0
    2.9904  -48.7193  -13.6614 C   0  0  0  0  0  0  0  0  0  0  0  0
   -0.3114  -54.0974  -25.4541 C   0  0  0  0  0  0  0  0  0  0  0  0
   -0.1659  -54.1980  -26.6095 N   0  0  0  0  0  0  0  0  0  0  0  0
    0.7594  -51.9259  -23.9229 N   0  0  0  0  0  0  0  0  0  0  0  0
    0.2291  -51.1880  -24.4322 H   0  0  0  0  0  0  0  0  0  0  0  0
    2.1817  -51.8756  -23.8918 C   0  0  0  0  0  0  0  0  0  0  0  0
    2.9000  -52.2920  -24.9864 C   0  0  0  0  0  0  0  0  0  0  0  0
    4.2821  -52.2374  -24.9380 C   0  0  0  0  0  0  0  0  0  0  0  0
    4.9690  -51.7817  -23.8353 C   0  0  0  0  0  0  0  0  0  0  0  0
    4.2499  -51.3583  -22.7222 C   0  0  0  0  0  0  0  0  0  0  0  0
    5.0684  -50.7622  -21.2730 Cl  0  0  0  0  0  0  0  0  0  0  0  0
    2.8768  -51.4221  -22.7943 C   0  0  0  0  0  0  0  0  0  0  0  0
    6.3375  -51.7361  -23.8065 O   0  0  0  0  0  0  0  0  0  0  0  0
    7.1677  -50.6482  -23.5960 C   0  0  0  0  0  0  0  0  0  0  0  0
    7.0213  -49.5376  -24.5583 C   0  0  0  0  0  0  0  0  0  0  0  0
    7.8444  -49.4713  -25.6623 C   0  0  0  0  0  0  0  0  0  0  0  0
    7.7210  -48.4270  -26.5862 C   0  0  0  0  0  0  0  0  0  0  0  0
    6.7736  -47.4499  -26.4041 C   0  0  0  0  0  0  0  0  0  0  0  0
    5.9503  -47.5238  -25.2922 C   0  0  0  0  0  0  0  0  0  0  0  0
    5.0051  -46.5560  -25.1023 F   0  0  0  0  0  0  0  0  0  0  0  0
    6.0781  -48.5507  -24.3918 C   0  0  0  0  0  0  0  0  0  0  0  0
   -0.8277  -52.7170  -17.8055 O   0  0  0  0  0  0  0  0  0  0  0  0
   -2.0956  -51.6026  -16.0602 C   0  0  0  0  0  0  0  0  0  0  0  0
   -2.0043  -52.7131  -17.0819 C   0  0  0  0  0  0  0  0  0  0  0  0
 42 43  1  0  0  0
 43 41  1  0  0  0
 41  1  1  0  0  0
  1  2  2  0  0  0
  2  3  1  0  0  0
  3  4  2  0  0  0
  4  5  1  0  0  0
  5  6  2  0  0  0
  6 21  1  0  0  0
 21 22  3  0  0  0
  6  7  1  0  0  0
  7 23  1  0  0  0
 23 25  1  0  0  0
 25 26  2  0  0  0
 26 27  1  0  0  0
 27 28  2  0  0  0
 28 32  1  0  0  0
 32 33  1  0  0  0
 33 34  1  0  0  0
 34 35  2  0  0  0
 35 36  1  0  0  0
 36 37  2  0  0  0
 37 38  1  0  0  0
 38 39  1  0  0  0
 38 40  2  0  0  0
 28 29  1  0  0  0
 29 30  1  0  0  0
 29 31  2  0  0  0
  7  8  2  0  0  0
  8  9  1  0  0  0
  9 10  2  0  0  0
 10 11  1  0  0  0
 11 12  1  0  0  0
 12 13  2  0  0  0
 12 15  1  0  0  0
 15 16  2  0  0  0
 16 17  1  0  0  0
 17 18  1  0  0  0
 18 19  1  0  0  0
 18 20  1  0  0  0
 10  1  1  0  0  0
  8  3  1  0  0  0
 31 25  1  0  0  0
 40 34  1  0  0  0
 23 24  1  0  0  0
 11 14  1  0  0  0
M  END
> <minimizedAffinity>
-7.49992

> <CNNscore>
0.5441034436

> <CNNaffinity>
7.7609887123

> <CNN_VS>
4.2227807045

> <CNNaffinity_variance>
0.0609209016

$$$$
[H]/C(C(=O)N([H])c1c(OC([H])([H])C([H])([H])[H])c([H])c2nc([H])c(C#N)c(N([H])c3c([H])c([H])c(OC([H])([H])c4c([H])c([H])c([H])c(F)c4[H])c(Cl)c3[H])c2c1[H])=C(/[H])C([H])([H])N(C([H])([H])[H])C([H])([H])[H]


 43 46  0  0  0  0  0  0  0  0999 V2000
   -0.4590  -52.8171  -19.3996 C   0  0  0  0  0  0  0  0  0  0  0  0
   -0.9120  -53.8751  -20.1329 C   0  0  0  0  0  0  0  0  0  0  0  0
   -0.7878  -53.8714  -21.5127 C   0  0  0  0  0  0  0  0  0  0  0  0
   -1.2338  -54.9136  -22.2426 N   0  0  0  0  0  0  0  0  0  0  0  0
   -1.1216  -54.9253  -23.5835 C   0  0  0  0  0  0  0  0  0  0  0  0
   -0.5490  -53.8850  -24.2993 C   0  0  0  0  0  0  0  0  0  0  0  0
   -0.0885  -52.8131  -23.5645 C   0  0  0  0  0  0  0  0  0  0  0  0
   -0.2150  -52.8230  -22.1832 C   0  0  0  0  0  0  0  0  0  0  0  0
    0.2439  -51.7447  -21.4049 C   0  0  0  0  0  0  0  0  0  0  0  0
    0.1422  -51.7046  -20.0369 C   0  0  0  0  0  0  0  0  0  0  0  0
    0.5950  -50.6388  -19.2301 N   0  0  0  0  0  0  0  0  0  0  0  0
    1.8451  -50.5786  -18.6041 C   0  0  0  0  0  0  0  0  0  0  0  0
    2.7315  -51.4847  -18.6886 O   0  0  0  0  0  0  0  0  0  0  0  0
   -0.0975  -49.8298  -19.1085 H   0  0  0  0  0  0  0  0  0  0  0  0
    2.1926  -49.4179  -17.7934 C   0  0  0  0  0  0  0  0  0  0  0  0
    2.8339  -49.5284  -16.6685 C   0  0  0  0  0  0  0  0  0  0  0  0
    3.1706  -48.2959  -15.8651 C   0  0  0  0  0  0  0  0  0  0  0  0
    3.1135  -48.6926  -14.4806 N   0  0  0  0  0  0  0  0  0  0  0  0
    3.8168  -49.9416  -14.2629 C   0  0  0  0  0  0  0  0  0  0  0  0
    1.7414  -48.7543  -14.0491 C   0  0  0  0  0  0  0  0  0  0  0  0
   -0.4505  -53.9408  -25.7391 C   0  0  0  0  0  0  0  0  0  0  0  0
   -0.3554  -53.9824  -26.9034 N   0  0  0  0  0  0  0  0  0  0  0  0
    0.5067  -51.7082  -24.2208 N   0  0  0  0  0  0  0  0  0  0  0  0
   -0.1256  -51.0318  -24.6980 H   0  0  0  0  0  0  0  0  0  0  0  0
    1.9141  -51.4962  -24.2496 C   0  0  0  0  0  0  0  0  0  0  0  0
    2.7607  -52.5722  -24.3644 C   0  0  0  0  0  0  0  0  0  0  0  0
    4.1261  -52.3475  -24.3895 C   0  0  0  0  0  0  0  0  0  0  0  0
    4.6729  -51.0869  -24.3040 C   0  0  0  0  0  0  0  0  0  0  0  0
    3.8233  -49.9914  -24.1872 C   0  0  0  0  0  0  0  0  0  0  0  0
    4.4582  -48.3455  -24.0724 Cl  0  0  0  0  0  0  0  0  0  0  0  0
    2.4697  -50.2402  -24.1645 C   0  0  0  0  0  0  0  0  0  0  0  0
    6.0273  -50.8851  -24.3297 O   0  0  0  0  0  0  0  0  0  0  0  0
    6.9641  -51.1412  -23.3429 C   0  0  0  0  0  0  0  0  0  0  0  0
    6.9904  -50.1795  -22.2224 C   0  0  0  0  0  0  0  0  0  0  0  0
    7.9613  -49.2018  -22.1781 C   0  0  0  0  0  0  0  0  0  0  0  0
    8.0029  -48.2807  -21.1249 C   0  0  0  0  0  0  0  0  0  0  0  0
    7.0722  -48.3392  -20.1169 C   0  0  0  0  0  0  0  0  0  0  0  0
    6.0997  -49.3247  -20.1689 C   0  0  0  0  0  0  0  0  0  0  0  0
    5.1699  -49.3911  -19.1704 F   0  0  0  0  0  0  0  0  0  0  0  0
    6.0664  -50.2233  -21.2047 C   0  0  0  0  0  0  0  0  0  0  0  0
   -0.5668  -52.7888  -18.0364 O   0  0  0  0  0  0  0  0  0  0  0  0
   -1.5761  -51.6386  -16.1512 C   0  0  0  0  0  0  0  0  0  0  0  0
   -1.6911  -52.6797  -17.2413 C   0  0  0  0  0  0  0  0  0  0  0  0
 42 43  1  0  0  0
 43 41  1  0  0  0
 41  1  1  0  0  0
  1  2  2  0  0  0
  2  3  1  0  0  0
  3  4  2  0  0  0
  4  5  1  0  0  0
  5  6  2  0  0  0
  6 21  1  0  0  0
 21 22  3  0  0  0
  6  7  1  0  0  0
  7 23  1  0  0  0
 23 25  1  0  0  0
 25 26  2  0  0  0
 26 27  1  0  0  0
 27 28  2  0  0  0
 28 32  1  0  0  0
 32 33  1  0  0  0
 33 34  1  0  0  0
 34 35  2  0  0  0
 35 36  1  0  0  0
 36 37  2  0  0  0
 37 38  1  0  0  0
 38 39  1  0  0  0
 38 40  2  0  0  0
 28 29  1  0  0  0
 29 30  1  0  0  0
 29 31  2  0  0  0
  7  8  2  0  0  0
  8  9  1  0  0  0
  9 10  2  0  0  0
 10 11  1  0  0  0
 11 12  1  0  0  0
 12 13  2  0  0  0
 12 15  1  0  0  0
 15 16  2  0  0  0
 16 17  1  0  0  0
 17 18  1  0  0  0
 18 19  1  0  0  0
 18 20  1  0  0  0
 10  1  1  0  0  0
  8  3  1  0  0  0
 31 25  1  0  0  0
 40 34  1  0  0  0
 23 24  1  0  0  0
 11 14  1  0  0  0
M  END
> <minimizedAffinity>
-7.65584

> <CNNscore>
0.4877952337

> <CNNaffinity>
7.6488280296

> <CNN_VS>
3.7310619354

> <CNNaffinity_variance>
0.1077460274

$$$$
[H]/C(C(=O)N([H])c1c(OC([H])([H])C([H])([H])[H])c([H])c2nc([H])c(C#N)c(N([H])c3c([H])c([H])c(OC([H])([H])c4c([H])c([H])c([H])c(F)c4[H])c(Cl)c3[H])c2c1[H])=C(/[H])C([H])([H])N(C([H])([H])[H])C([H])([H])[H]


 43 46  0  0  0  0  0  0  0  0999 V2000
   -0.5925  -52.2437  -18.2026 C   0  0  0  0  0  0  0  0  0  0  0  0
   -1.0150  -53.3007  -18.9553 C   0  0  0  0  0  0  0  0  0  0  0  0
   -0.7415  -53.3437  -20.3127 C   0  0  0  0  0  0  0  0  0  0  0  0
   -1.1566  -54.3851  -21.0616 N   0  0  0  0  0  0  0  0  0  0  0  0
   -0.9000  -54.4418  -22.3814 C   0  0  0  0  0  0  0  0  0  0  0  0
   -0.2022  -53.4511  -23.0550 C   0  0  0  0  0  0  0  0  0  0  0  0
    0.2283  -52.3805  -22.3004 C   0  0  0  0  0  0  0  0  0  0  0  0
   -0.0480  -52.3436  -20.9415 C   0  0  0  0  0  0  0  0  0  0  0  0
    0.3765  -51.2652  -20.1440 C   0  0  0  0  0  0  0  0  0  0  0  0
    0.1289  -51.1799  -18.7968 C   0  0  0  0  0  0  0  0  0  0  0  0
    0.5436  -50.1129  -17.9714 N   0  0  0  0  0  0  0  0  0  0  0  0
    1.8080  -49.9953  -17.3833 C   0  0  0  0  0  0  0  0  0  0  0  0
    2.7437  -50.8429  -17.5241 O   0  0  0  0  0  0  0  0  0  0  0  0
   -0.1917  -49.3515  -17.8026 H   0  0  0  0  0  0  0  0  0  0  0  0
    2.1120  -48.8401  -16.5476 C   0  0  0  0  0  0  0  0  0  0  0  0
    1.4421  -48.5749  -15.4661 C   0  0  0  0  0  0  0  0  0  0  0  0
    1.7955  -47.3662  -14.6341 C   0  0  0  0  0  0  0  0  0  0  0  0
    1.0809  -47.5130  -13.3911 N   0  0  0  0  0  0  0  0  0  0  0  0
    1.1532  -48.8758  -12.9016 C   0  0  0  0  0  0  0  0  0  0  0  0
   -0.2763  -47.0612  -13.5546 C   0  0  0  0  0  0  0  0  0  0  0  0
    0.0493  -53.5541  -24.4735 C   0  0  0  0  0  0  0  0  0  0  0  0
    0.2674  -53.6315  -25.6192 N   0  0  0  0  0  0  0  0  0  0  0  0
    0.9454  -51.3244  -22.9139 N   0  0  0  0  0  0  0  0  0  0  0  0
    0.4045  -50.6403  -23.4835 H   0  0  0  0  0  0  0  0  0  0  0  0
    2.3544  -51.1709  -22.7807 C   0  0  0  0  0  0  0  0  0  0  0  0
    2.8561  -50.2331  -21.9111 C   0  0  0  0  0  0  0  0  0  0  0  0
    4.2285  -50.0966  -21.7955 C   0  0  0  0  0  0  0  0  0  0  0  0
    5.1144  -50.8640  -22.5178 C   0  0  0  0  0  0  0  0  0  0  0  0
    4.6154  -51.8161  -23.4010 C   0  0  0  0  0  0  0  0  0  0  0  0
    5.6964  -52.8346  -24.3598 Cl  0  0  0  0  0  0  0  0  0  0  0  0
    3.2474  -51.9330  -23.4985 C   0  0  0  0  0  0  0  0  0  0  0  0
    6.4697  -50.7134  -22.3899 O   0  0  0  0  0  0  0  0  0  0  0  0
    7.1920  -50.2051  -21.3236 C   0  0  0  0  0  0  0  0  0  0  0  0
    7.3335  -48.7355  -21.2908 C   0  0  0  0  0  0  0  0  0  0  0  0
    7.8613  -48.0712  -22.3774 C   0  0  0  0  0  0  0  0  0  0  0  0
    8.0031  -46.6786  -22.3661 C   0  0  0  0  0  0  0  0  0  0  0  0
    7.6162  -45.9523  -21.2667 C   0  0  0  0  0  0  0  0  0  0  0  0
    7.0867  -46.6275  -20.1790 C   0  0  0  0  0  0  0  0  0  0  0  0
    6.6994  -45.9135  -19.0807 F   0  0  0  0  0  0  0  0  0  0  0  0
    6.9513  -47.9923  -20.1985 C   0  0  0  0  0  0  0  0  0  0  0  0
   -0.8463  -52.1700  -16.8607 O   0  0  0  0  0  0  0  0  0  0  0  0
   -1.9128  -50.5325  -15.4196 C   0  0  0  0  0  0  0  0  0  0  0  0
   -2.0086  -51.8242  -16.1992 C   0  0  0  0  0  0  0  0  0  0  0  0
 42 43  1  0  0  0
 43 41  1  0  0  0
 41  1  1  0  0  0
  1  2  2  0  0  0
  2  3  1  0  0  0
  3  4  2  0  0  0
  4  5  1  0  0  0
  5  6  2  0  0  0
  6 21  1  0  0  0
 21 22  3  0  0  0
  6  7  1  0  0  0
  7 23  1  0  0  0
 23 25  1  0  0  0
 25 26  2  0  0  0
 26 27  1  0  0  0
 27 28  2  0  0  0
 28 32  1  0  0  0
 32 33  1  0  0  0
 33 34  1  0  0  0
 34 35  2  0  0  0
 35 36  1  0  0  0
 36 37  2  0  0  0
 37 38  1  0  0  0
 38 39  1  0  0  0
 38 40  2  0  0  0
 28 29  1  0  0  0
 29 30  1  0  0  0
 29 31  2  0  0  0
  7  8  2  0  0  0
  8  9  1  0  0  0
  9 10  2  0  0  0
 10 11  1  0  0  0
 11 12  1  0  0  0
 12 13  2  0  0  0
 12 15  1  0  0  0
 15 16  2  0  0  0
 16 17  1  0  0  0
 17 18  1  0  0  0
 18 19  1  0  0  0
 18 20  1  0  0  0
 10  1  1  0  0  0
  8  3  1  0  0  0
 31 25  1  0  0  0
 40 34  1  0  0  0
 23 24  1  0  0  0
 11 14  1  0  0  0
M  END
> <minimizedAffinity>
-6.49552

> <CNNscore>
0.4855470657

> <CNNaffinity>
7.4830207825

> <CNN_VS>
3.6333587170

> <CNNaffinity_variance>
0.1623221040

$$$$
[H]/C(C(=O)N([H])c1c(OC([H])([H])C([H])([H])[H])c([H])c2nc([H])c(C#N)c(N([H])c3c([H])c([H])c(OC([H])([H])c4c([H])c([H])c([H])c(F)c4[H])c(Cl)c3[H])c2c1[H])=C(/[H])C([H])([H])N(C([H])([H])[H])C([H])([H])[H]


 43 46  0  0  0  0  0  0  0  0999 V2000
    3.0350  -50.0396  -25.2209 C   0  0  0  0  0  0  0  0  0  0  0  0
    1.8945  -50.5644  -25.7559 C   0  0  0  0  0  0  0  0  0  0  0  0
    1.1574  -51.4987  -25.0467 C   0  0  0  0  0  0  0  0  0  0  0  0
    0.0299  -52.0209  -25.5701 N   0  0  0  0  0  0  0  0  0  0  0  0
   -0.6970  -52.9300  -24.8949 C   0  0  0  0  0  0  0  0  0  0  0  0
   -0.3459  -53.3873  -23.6340 C   0  0  0  0  0  0  0  0  0  0  0  0
    0.8051  -52.8607  -23.0872 C   0  0  0  0  0  0  0  0  0  0  0  0
    1.5384  -51.9249  -23.8018 C   0  0  0  0  0  0  0  0  0  0  0  0
    2.7174  -51.3693  -23.2725 C   0  0  0  0  0  0  0  0  0  0  0  0
    3.4792  -50.4417  -23.9379 C   0  0  0  0  0  0  0  0  0  0  0  0
    4.6640  -49.8655  -23.4319 N   0  0  0  0  0  0  0  0  0  0  0  0
    4.7314  -48.9919  -22.3408 C   0  0  0  0  0  0  0  0  0  0  0  0
    3.7241  -48.6096  -21.6676 O   0  0  0  0  0  0  0  0  0  0  0  0
    5.5632  -50.1394  -23.9470 H   0  0  0  0  0  0  0  0  0  0  0  0
    6.0220  -48.4634  -21.9163 C   0  0  0  0  0  0  0  0  0  0  0  0
    6.1420  -47.2897  -21.3714 C   0  0  0  0  0  0  0  0  0  0  0  0
    7.5009  -46.7869  -20.9486 C   0  0  0  0  0  0  0  0  0  0  0  0
    7.2952  -46.0630  -19.7194 N   0  0  0  0  0  0  0  0  0  0  0  0
    7.2346  -46.9626  -18.5840 C   0  0  0  0  0  0  0  0  0  0  0  0
    6.1180  -45.2414  -19.8305 C   0  0  0  0  0  0  0  0  0  0  0  0
   -1.1568  -54.3651  -22.9467 C   0  0  0  0  0  0  0  0  0  0  0  0
   -1.8136  -55.1469  -22.3779 N   0  0  0  0  0  0  0  0  0  0  0  0
    1.2347  -53.2783  -21.8039 N   0  0  0  0  0  0  0  0  0  0  0  0
    1.9054  -54.0738  -21.7542 H   0  0  0  0  0  0  0  0  0  0  0  0
    0.7878  -52.6588  -20.6026 C   0  0  0  0  0  0  0  0  0  0  0  0
   -0.1228  -53.3058  -19.8029 C   0  0  0  0  0  0  0  0  0  0  0  0
   -0.5472  -52.6880  -18.6395 C   0  0  0  0  0  0  0  0  0  0  0  0
   -0.0933  -51.4482  -18.2490 C   0  0  0  0  0  0  0  0  0  0  0  0
    0.8288  -50.7854  -19.0527 C   0  0  0  0  0  0  0  0  0  0  0  0
    1.4525  -49.1912  -18.6115 Cl  0  0  0  0  0  0  0  0  0  0  0  0
    1.2356  -51.4200  -20.2045 C   0  0  0  0  0  0  0  0  0  0  0  0
   -0.5260  -50.8528  -17.0941 O   0  0  0  0  0  0  0  0  0  0  0  0
   -0.7082  -51.4136  -15.8413 C   0  0  0  0  0  0  0  0  0  0  0  0
    0.5143  -51.5695  -15.0276 C   0  0  0  0  0  0  0  0  0  0  0  0
    0.4912  -52.3565  -13.8959 C   0  0  0  0  0  0  0  0  0  0  0  0
    1.6395  -52.5174  -13.1117 C   0  0  0  0  0  0  0  0  0  0  0  0
    2.8100  -51.8902  -13.4612 C   0  0  0  0  0  0  0  0  0  0  0  0
    2.8249  -51.1011  -14.6000 C   0  0  0  0  0  0  0  0  0  0  0  0
    3.9845  -50.4728  -14.9554 F   0  0  0  0  0  0  0  0  0  0  0  0
    1.6950  -50.9489  -15.3628 C   0  0  0  0  0  0  0  0  0  0  0  0
    3.7860  -49.1162  -25.8946 O   0  0  0  0  0  0  0  0  0  0  0  0
    3.5414  -46.8284  -25.1188 C   0  0  0  0  0  0  0  0  0  0  0  0
    3.4753  -47.8201  -26.2578 C   0  0  0  0  0  0  0  0  0  0  0  0
 42 43  1  0  0  0
 43 41  1  0  0  0
 41  1  1  0  0  0
  1  2  2  0  0  0
  2  3  1  0  0  0
  3  4  2  0  0  0
  4  5  1  0  0  0
  5  6  2  0  0  0
  6 21  1  0  0  0
 21 22  3  0  0  0
  6  7  1  0  0  0
  7 23  1  0  0  0
 23 25  1  0  0  0
 25 26  2  0  0  0
 26 27  1  0  0  0
 27 28  2  0  0  0
 28 32  1  0  0  0
 32 33  1  0  0  0
 33 34  1  0  0  0
 34 35  2  0  0  0
 35 36  1  0  0  0
 36 37  2  0  0  0
 37 38  1  0  0  0
 38 39  1  0  0  0
 38 40  2  0  0  0
 28 29  1  0  0  0
 29 30  1  0  0  0
 29 31  2  0  0  0
  7  8  2  0  0  0
  8  9  1  0  0  0
  9 10  2  0  0  0
 10 11  1  0  0  0
 11 12  1  0  0  0
 12 13  2  0  0  0
 12 15  1  0  0  0
 15 16  2  0  0  0
 16 17  1  0  0  0
 17 18  1  0  0  0
 18 19  1  0  0  0
 18 20  1  0  0  0
 10  1  1  0  0  0
  8  3  1  0  0  0
 31 25  1  0  0  0
 40 34  1  0  0  0
 23 24  1  0  0  0
 11 14  1  0  0  0
M  END
> <minimizedAffinity>
-6.48716

> <CNNscore>
0.4500775933

> <CNNaffinity>
7.6412572861

> <CNN_VS>
3.4391586781

> <CNNaffinity_variance>
0.1743099242

$$$$
[H]/C(C(=O)N([H])c1c(OC([H])([H])C([H])([H])[H])c([H])c2nc([H])c(C#N)c(N([H])c3c([H])c([H])c(OC([H])([H])c4c([H])c([H])c([H])c(F)c4[H])c(Cl)c3[H])c2c1[H])=C(/[H])C([H])([H])N(C([H])([H])[H])C([H])([H])[H]


 43 46  0  0  0  0  0  0  0  0999 V2000
   -0.7153  -52.8941  -19.2257 C   0  0  0  0  0  0  0  0  0  0  0  0
   -1.2078  -53.9123  -19.9893 C   0  0  0  0  0  0  0  0  0  0  0  0
   -0.9733  -53.9366  -21.3545 C   0  0  0  0  0  0  0  0  0  0  0  0
   -1.4575  -54.9397  -22.1141 N   0  0  0  0  0  0  0  0  0  0  0  0
   -1.2395  -54.9777  -23.4415 C   0  0  0  0  0  0  0  0  0  0  0  0
   -0.5138  -54.0054  -24.1125 C   0  0  0  0  0  0  0  0  0  0  0  0
   -0.0127  -52.9740  -23.3469 C   0  0  0  0  0  0  0  0  0  0  0  0
   -0.2502  -52.9557  -21.9803 C   0  0  0  0  0  0  0  0  0  0  0  0
    0.2464  -51.9173  -21.1716 C   0  0  0  0  0  0  0  0  0  0  0  0
    0.0395  -51.8518  -19.8165 C   0  0  0  0  0  0  0  0  0  0  0  0
    0.5265  -50.8249  -18.9797 N   0  0  0  0  0  0  0  0  0  0  0  0
    1.8364  -50.7354  -18.4952 C   0  0  0  0  0  0  0  0  0  0  0  0
    2.7534  -51.5757  -18.7538 O   0  0  0  0  0  0  0  0  0  0  0  0
   -0.1887  -50.0721  -18.7142 H   0  0  0  0  0  0  0  0  0  0  0  0
    2.2144  -49.6208  -17.6349 C   0  0  0  0  0  0  0  0  0  0  0  0
    3.0450  -48.6998  -18.0232 C   0  0  0  0  0  0  0  0  0  0  0  0
    3.4050  -47.5654  -17.0951 C   0  0  0  0  0  0  0  0  0  0  0  0
    4.0942  -46.5907  -17.9028 N   0  0  0  0  0  0  0  0  0  0  0  0
    3.5112  -46.4995  -19.2271 C   0  0  0  0  0  0  0  0  0  0  0  0
    5.4998  -46.8998  -17.9434 C   0  0  0  0  0  0  0  0  0  0  0  0
   -0.3058  -54.0871  -25.5393 C   0  0  0  0  0  0  0  0  0  0  0  0
   -0.1263  -54.1643  -26.6918 N   0  0  0  0  0  0  0  0  0  0  0  0
    0.7370  -51.9388  -23.9570 N   0  0  0  0  0  0  0  0  0  0  0  0
    0.2107  -51.1893  -24.4533 H   0  0  0  0  0  0  0  0  0  0  0  0
    2.1591  -51.8906  -23.9156 C   0  0  0  0  0  0  0  0  0  0  0  0
    2.8840  -52.2726  -25.0184 C   0  0  0  0  0  0  0  0  0  0  0  0
    4.2657  -52.2205  -24.9598 C   0  0  0  0  0  0  0  0  0  0  0  0
    4.9461  -51.8005  -23.8390 C   0  0  0  0  0  0  0  0  0  0  0  0
    4.2204  -51.4120  -22.7175 C   0  0  0  0  0  0  0  0  0  0  0  0
    5.0302  -50.8628  -21.2450 Cl  0  0  0  0  0  0  0  0  0  0  0  0
    2.8477  -51.4725  -22.7999 C   0  0  0  0  0  0  0  0  0  0  0  0
    6.3144  -51.7569  -23.8003 O   0  0  0  0  0  0  0  0  0  0  0  0
    7.1440  -50.6759  -23.5547 C   0  0  0  0  0  0  0  0  0  0  0  0
    6.9990  -49.5360  -24.4823 C   0  0  0  0  0  0  0  0  0  0  0  0
    7.7880  -49.4629  -25.6105 C   0  0  0  0  0  0  0  0  0  0  0  0
    7.6654  -48.3909  -26.5023 C   0  0  0  0  0  0  0  0  0  0  0  0
    6.7528  -47.3930  -26.2638 C   0  0  0  0  0  0  0  0  0  0  0  0
    5.9636  -47.4739  -25.1280 C   0  0  0  0  0  0  0  0  0  0  0  0
    5.0532  -46.4857  -24.8821 F   0  0  0  0  0  0  0  0  0  0  0  0
    6.0904  -48.5280  -24.2593 C   0  0  0  0  0  0  0  0  0  0  0  0
   -0.9291  -52.8398  -17.8759 O   0  0  0  0  0  0  0  0  0  0  0  0
   -2.1988  -51.7660  -16.1066 C   0  0  0  0  0  0  0  0  0  0  0  0
   -2.1158  -52.8385  -17.1688 C   0  0  0  0  0  0  0  0  0  0  0  0
 42 43  1  0  0  0
 43 41  1  0  0  0
 41  1  1  0  0  0
  1  2  2  0  0  0
  2  3  1  0  0  0
  3  4  2  0  0  0
  4  5  1  0  0  0
  5  6  2  0  0  0
  6 21  1  0  0  0
 21 22  3  0  0  0
  6  7  1  0  0  0
  7 23  1  0  0  0
 23 25  1  0  0  0
 25 26  2  0  0  0
 26 27  1  0  0  0
 27 28  2  0  0  0
 28 32  1  0  0  0
 32 33  1  0  0  0
 33 34  1  0  0  0
 34 35  2  0  0  0
 35 36  1  0  0  0
 36 37  2  0  0  0
 37 38  1  0  0  0
 38 39  1  0  0  0
 38 40  2  0  0  0
 28 29  1  0  0  0
 29 30  1  0  0  0
 29 31  2  0  0  0
  7  8  2  0  0  0
  8  9  1  0  0  0
  9 10  2  0  0  0
 10 11  1  0  0  0
 11 12  1  0  0  0
 12 13  2  0  0  0
 12 15  1  0  0  0
 15 16  2  0  0  0
 16 17  1  0  0  0
 17 18  1  0  0  0
 18 19  1  0  0  0
 18 20  1  0  0  0
 10  1  1  0  0  0
  8  3  1  0  0  0
 31 25  1  0  0  0
 40 34  1  0  0  0
 23 24  1  0  0  0
 11 14  1  0  0  0
M  END
> <minimizedAffinity>
-7.50416

> <CNNscore>
0.4463987052

> <CNNaffinity>
7.7282562256

> <CNN_VS>
3.4498834610

> <CNNaffinity_variance>
0.0604617111

$$$$
[H]/C(C(=O)N([H])c1c(OC([H])([H])C([H])([H])[H])c([H])c2nc([H])c(C#N)c(N([H])c3c([H])c([H])c(OC([H])([H])c4c([H])c([H])c([H])c(F)c4[H])c(Cl)c3[H])c2c1[H])=C(/[H])C([H])([H])N(C([H])([H])[H])C([H])([H])[H]


 43 46  0  0  0  0  0  0  0  0999 V2000
   -0.3746  -52.9002  -19.7232 C   0  0  0  0  0  0  0  0  0  0  0  0
   -0.7808  -53.9281  -20.5238 C   0  0  0  0  0  0  0  0  0  0  0  0
   -0.6278  -53.8440  -21.8981 C   0  0  0  0  0  0  0  0  0  0  0  0
   -1.0274  -54.8561  -22.6942 N   0  0  0  0  0  0  0  0  0  0  0  0
   -0.8868  -54.7899  -24.0308 C   0  0  0  0  0  0  0  0  0  0  0  0
   -0.3303  -53.6956  -24.6751 C   0  0  0  0  0  0  0  0  0  0  0  0
    0.0829  -52.6537  -23.8722 C   0  0  0  0  0  0  0  0  0  0  0  0
   -0.0722  -52.7441  -22.4967 C   0  0  0  0  0  0  0  0  0  0  0  0
    0.3382  -51.6983  -21.6501 C   0  0  0  0  0  0  0  0  0  0  0  0
    0.2067  -51.7374  -20.2846 C   0  0  0  0  0  0  0  0  0  0  0  0
    0.6108  -50.7057  -19.4103 N   0  0  0  0  0  0  0  0  0  0  0  0
    1.8479  -50.6417  -18.7592 C   0  0  0  0  0  0  0  0  0  0  0  0
    2.7649  -51.5126  -18.8790 O   0  0  0  0  0  0  0  0  0  0  0  0
   -0.1099  -49.9277  -19.2554 H   0  0  0  0  0  0  0  0  0  0  0  0
    2.1435  -49.5189  -17.8776 C   0  0  0  0  0  0  0  0  0  0  0  0
    1.4285  -49.2622  -16.8232 C   0  0  0  0  0  0  0  0  0  0  0  0
    1.7752  -48.0875  -15.9413 C   0  0  0  0  0  0  0  0  0  0  0  0
    0.6763  -47.9402  -15.0204 N   0  0  0  0  0  0  0  0  0  0  0  0
   -0.5687  -48.3887  -15.6126 C   0  0  0  0  0  0  0  0  0  0  0  0
    0.6052  -46.5769  -14.5628 C   0  0  0  0  0  0  0  0  0  0  0  0
   -0.2000  -53.6683  -26.1133 C   0  0  0  0  0  0  0  0  0  0  0  0
   -0.0968  -53.6305  -27.2770 N   0  0  0  0  0  0  0  0  0  0  0  0
    0.6589  -51.4975  -24.4530 N   0  0  0  0  0  0  0  0  0  0  0  0
    0.0233  -50.8394  -24.9511 H   0  0  0  0  0  0  0  0  0  0  0  0
    2.0515  -51.2113  -24.3804 C   0  0  0  0  0  0  0  0  0  0  0  0
    2.4880  -49.9179  -24.5356 C   0  0  0  0  0  0  0  0  0  0  0  0
    3.8454  -49.6583  -24.4633 C   0  0  0  0  0  0  0  0  0  0  0  0
    4.7794  -50.6452  -24.2415 C   0  0  0  0  0  0  0  0  0  0  0  0
    4.3466  -51.9579  -24.0833 C   0  0  0  0  0  0  0  0  0  0  0  0
    5.4918  -53.2738  -23.7964 Cl  0  0  0  0  0  0  0  0  0  0  0  0
    2.9921  -52.1910  -24.1593 C   0  0  0  0  0  0  0  0  0  0  0  0
    6.1189  -50.3682  -24.1741 O   0  0  0  0  0  0  0  0  0  0  0  0
    6.9303  -50.2611  -23.0573 C   0  0  0  0  0  0  0  0  0  0  0  0
    6.3994  -49.4275  -21.9599 C   0  0  0  0  0  0  0  0  0  0  0  0
    5.9158  -50.0244  -20.8151 C   0  0  0  0  0  0  0  0  0  0  0  0
    5.4090  -49.2518  -19.7636 C   0  0  0  0  0  0  0  0  0  0  0  0
    5.3868  -47.8822  -19.8591 C   0  0  0  0  0  0  0  0  0  0  0  0
    5.8747  -47.2901  -21.0128 C   0  0  0  0  0  0  0  0  0  0  0  0
    5.8563  -45.9282  -21.1171 F   0  0  0  0  0  0  0  0  0  0  0  0
    6.3695  -48.0548  -22.0384 C   0  0  0  0  0  0  0  0  0  0  0  0
   -0.5118  -52.9509  -18.3634 O   0  0  0  0  0  0  0  0  0  0  0  0
   -1.5359  -51.8587  -16.4518 C   0  0  0  0  0  0  0  0  0  0  0  0
   -1.6494  -52.8518  -17.5860 C   0  0  0  0  0  0  0  0  0  0  0  0
 42 43  1  0  0  0
 43 41  1  0  0  0
 41  1  1  0  0  0
  1  2  2  0  0  0
  2  3  1  0  0  0
  3  4  2  0  0  0
  4  5  1  0  0  0
  5  6  2  0  0  0
  6 21  1  0  0  0
 21 22  3  0  0  0
  6  7  1  0  0  0
  7 23  1  0  0  0
 23 25  1  0  0  0
 25 26  2  0  0  0
 26 27  1  0  0  0
 27 28  2  0  0  0
 28 32  1  0  0  0
 32 33  1  0  0  0
 33 34  1  0  0  0
 34 35  2  0  0  0
 35 36  1  0  0  0
 36 37  2  0  0  0
 37 38  1  0  0  0
 38 39  1  0  0  0
 38 40  2  0  0  0
 28 29  1  0  0  0
 29 30  1  0  0  0
 29 31  2  0  0  0
  7  8  2  0  0  0
  8  9  1  0  0  0
  9 10  2  0  0  0
 10 11  1  0  0  0
 11 12  1  0  0  0
 12 13  2  0  0  0
 12 15  1  0  0  0
 15 16  2  0  0  0
 16 17  1  0  0  0
 17 18  1  0  0  0
 18 19  1  0  0  0
 18 20  1  0  0  0
 10  1  1  0  0  0
  8  3  1  0  0  0
 31 25  1  0  0  0
 40 34  1  0  0  0
 23 24  1  0  0  0
 11 14  1  0  0  0
M  END
> <minimizedAffinity>
-7.06033

> <CNNscore>
0.4156320095

> <CNNaffinity>
7.6184082031

> <CNN_VS>
3.1664543152

> <CNNaffinity_variance>
0.1755655110

$$$$
[H]/C(C(=O)N([H])c1c(OC([H])([H])C([H])([H])[H])c([H])c2nc([H])c(C#N)c(N([H])c3c([H])c([H])c(OC([H])([H])c4c([H])c([H])c([H])c(F)c4[H])c(Cl)c3[H])c2c1[H])=C(/[H])C([H])([H])N(C([H])([H])[H])C([H])([H])[H]


 43 46  0  0  0  0  0  0  0  0999 V2000
    2.9497  -49.9536  -25.4587 C   0  0  0  0  0  0  0  0  0  0  0  0
    1.7908  -50.5297  -25.8916 C   0  0  0  0  0  0  0  0  0  0  0  0
    1.1140  -51.4280  -25.0827 C   0  0  0  0  0  0  0  0  0  0  0  0
   -0.0312  -52.0006  -25.5051 N   0  0  0  0  0  0  0  0  0  0  0  0
   -0.7003  -52.8757  -24.7321 C   0  0  0  0  0  0  0  0  0  0  0  0
   -0.2685  -53.2451  -23.4675 C   0  0  0  0  0  0  0  0  0  0  0  0
    0.9014  -52.6662  -23.0235 C   0  0  0  0  0  0  0  0  0  0  0  0
    1.5741  -51.7670  -23.8377 C   0  0  0  0  0  0  0  0  0  0  0  0
    2.7704  -51.1598  -23.4146 C   0  0  0  0  0  0  0  0  0  0  0  0
    3.4745  -50.2651  -24.1809 C   0  0  0  0  0  0  0  0  0  0  0  0
    4.6750  -49.6388  -23.7827 N   0  0  0  0  0  0  0  0  0  0  0  0
    4.7729  -48.6219  -22.8262 C   0  0  0  0  0  0  0  0  0  0  0  0
    3.7832  -48.1365  -22.1948 O   0  0  0  0  0  0  0  0  0  0  0  0
    5.5608  -49.9935  -24.2708 H   0  0  0  0  0  0  0  0  0  0  0  0
    6.0770  -48.0556  -22.5040 C   0  0  0  0  0  0  0  0  0  0  0  0
    6.2322  -47.1695  -21.5662 C   0  0  0  0  0  0  0  0  0  0  0  0
    7.6036  -46.6130  -21.2703 C   0  0  0  0  0  0  0  0  0  0  0  0
    7.5945  -46.2463  -19.8764 N   0  0  0  0  0  0  0  0  0  0  0  0
    7.8189  -47.4005  -19.0283 C   0  0  0  0  0  0  0  0  0  0  0  0
    6.3656  -45.5656  -19.5611 C   0  0  0  0  0  0  0  0  0  0  0  0
   -1.0194  -54.1892  -22.6733 C   0  0  0  0  0  0  0  0  0  0  0  0
   -1.6249  -54.9443  -22.0178 N   0  0  0  0  0  0  0  0  0  0  0  0
    1.4120  -52.9934  -21.7436 N   0  0  0  0  0  0  0  0  0  0  0  0
    2.0893  -53.7823  -21.6810 H   0  0  0  0  0  0  0  0  0  0  0  0
    1.0364  -52.2931  -20.5624 C   0  0  0  0  0  0  0  0  0  0  0  0
    0.1604  -52.8743  -19.6780 C   0  0  0  0  0  0  0  0  0  0  0  0
   -0.1947  -52.1784  -18.5356 C   0  0  0  0  0  0  0  0  0  0  0  0
    0.2950  -50.9243  -18.2477 C   0  0  0  0  0  0  0  0  0  0  0  0
    1.1824  -50.3279  -19.1377 C   0  0  0  0  0  0  0  0  0  0  0  0
    1.8489  -48.7196  -18.8302 Cl  0  0  0  0  0  0  0  0  0  0  0  0
    1.5204  -51.0394  -20.2665 C   0  0  0  0  0  0  0  0  0  0  0  0
   -0.0692  -50.2513  -17.1119 O   0  0  0  0  0  0  0  0  0  0  0  0
   -0.5162  -50.7602  -15.9044 C   0  0  0  0  0  0  0  0  0  0  0  0
   -1.9773  -50.7159  -15.6943 C   0  0  0  0  0  0  0  0  0  0  0  0
   -2.5590  -49.5941  -15.1432 C   0  0  0  0  0  0  0  0  0  0  0  0
   -3.9421  -49.5323  -14.9366 C   0  0  0  0  0  0  0  0  0  0  0  0
   -4.7417  -50.5938  -15.2822 C   0  0  0  0  0  0  0  0  0  0  0  0
   -4.1494  -51.7174  -15.8356 C   0  0  0  0  0  0  0  0  0  0  0  0
   -4.9367  -52.7785  -16.1822 F   0  0  0  0  0  0  0  0  0  0  0  0
   -2.7932  -51.7695  -16.0346 C   0  0  0  0  0  0  0  0  0  0  0  0
    3.6426  -49.0637  -26.2323 O   0  0  0  0  0  0  0  0  0  0  0  0
    4.8207  -46.9467  -26.3924 C   0  0  0  0  0  0  0  0  0  0  0  0
    3.5072  -47.6931  -26.3388 C   0  0  0  0  0  0  0  0  0  0  0  0
 42 43  1  0  0  0
 43 41  1  0  0  0
 41  1  1  0  0  0
  1  2  2  0  0  0
  2  3  1  0  0  0
  3  4  2  0  0  0
  4  5  1  0  0  0
  5  6  2  0  0  0
  6 21  1  0  0  0
 21 22  3  0  0  0
  6  7  1  0  0  0
  7 23  1  0  0  0
 23 25  1  0  0  0
 25 26  2  0  0  0
 26 27  1  0  0  0
 27 28  2  0  0  0
 28 32  1  0  0  0
 32 33  1  0  0  0
 33 34  1  0  0  0
 34 35  2  0  0  0
 35 36  1  0  0  0
 36 37  2  0  0  0
 37 38  1  0  0  0
 38 39  1  0  0  0
 38 40  2  0  0  0
 28 29  1  0  0  0
 29 30  1  0  0  0
 29 31  2  0  0  0
  7  8  2  0  0  0
  8  9  1  0  0  0
  9 10  2  0  0  0
 10 11  1  0  0  0
 11 12  1  0  0  0
 12 13  2  0  0  0
 12 15  1  0  0  0
 15 16  2  0  0  0
 16 17  1  0  0  0
 17 18  1  0  0  0
 18 19  1  0  0  0
 18 20  1  0  0  0
 10  1  1  0  0  0
  8  3  1  0  0  0
 31 25  1  0  0  0
 40 34  1  0  0  0
 23 24  1  0  0  0
 11 14  1  0  0  0
M  END
> <minimizedAffinity>
-6.97461

> <CNNscore>
0.4065251350

> <CNNaffinity>
7.4889283180

> <CNN_VS>
3.0444376469

> <CNNaffinity_variance>
0.1659328640

$$$$
[H]/C(C(=O)N([H])c1c(OC([H])([H])C([H])([H])[H])c([H])c2nc([H])c(C#N)c(N([H])c3c([H])c([H])c(OC([H])([H])c4c([H])c([H])c([H])c(F)c4[H])c(Cl)c3[H])c2c1[H])=C(/[H])C([H])([H])N(C([H])([H])[H])C([H])([H])[H]


 43 46  0  0  0  0  0  0  0  0999 V2000
    3.1080  -49.8645  -24.9775 C   0  0  0  0  0  0  0  0  0  0  0  0
    1.9829  -50.3971  -25.5369 C   0  0  0  0  0  0  0  0  0  0  0  0
    1.2510  -51.3549  -24.8541 C   0  0  0  0  0  0  0  0  0  0  0  0
    0.1389  -51.8850  -25.4017 N   0  0  0  0  0  0  0  0  0  0  0  0
   -0.5828  -52.8168  -24.7522 C   0  0  0  0  0  0  0  0  0  0  0  0
   -0.2413  -53.2908  -23.4948 C   0  0  0  0  0  0  0  0  0  0  0  0
    0.8940  -52.7564  -22.9234 C   0  0  0  0  0  0  0  0  0  0  0  0
    1.6221  -51.7971  -23.6117 C   0  0  0  0  0  0  0  0  0  0  0  0
    2.7853  -51.2329  -23.0569 C   0  0  0  0  0  0  0  0  0  0  0  0
    3.5413  -50.2822  -23.6957 C   0  0  0  0  0  0  0  0  0  0  0  0
    4.7103  -49.6970  -23.1639 N   0  0  0  0  0  0  0  0  0  0  0  0
    5.5927  -50.3251  -22.2777 C   0  0  0  0  0  0  0  0  0  0  0  0
    5.4463  -51.5094  -21.8422 O   0  0  0  0  0  0  0  0  0  0  0  0
    4.9068  -48.6933  -23.4842 H   0  0  0  0  0  0  0  0  0  0  0  0
    6.7687  -49.6087  -21.7993 C   0  0  0  0  0  0  0  0  0  0  0  0
    6.7583  -48.3260  -21.5909 C   0  0  0  0  0  0  0  0  0  0  0  0
    8.0022  -47.6297  -21.0950 C   0  0  0  0  0  0  0  0  0  0  0  0
    7.7406  -47.2713  -19.7237 N   0  0  0  0  0  0  0  0  0  0  0  0
    7.9748  -48.3920  -18.8342 C   0  0  0  0  0  0  0  0  0  0  0  0
    6.4047  -46.7476  -19.6047 C   0  0  0  0  0  0  0  0  0  0  0  0
   -1.0460  -54.2927  -22.8357 C   0  0  0  0  0  0  0  0  0  0  0  0
   -1.6945  -55.0966  -22.2883 N   0  0  0  0  0  0  0  0  0  0  0  0
    1.3130  -53.1899  -21.6419 N   0  0  0  0  0  0  0  0  0  0  0  0
    1.8954  -54.0519  -21.5901 H   0  0  0  0  0  0  0  0  0  0  0  0
    0.9700  -52.4995  -20.4451 C   0  0  0  0  0  0  0  0  0  0  0  0
    1.6552  -51.3604  -20.0980 C   0  0  0  0  0  0  0  0  0  0  0  0
    1.3092  -50.7030  -18.9303 C   0  0  0  0  0  0  0  0  0  0  0  0
    0.3039  -51.1443  -18.0996 C   0  0  0  0  0  0  0  0  0  0  0  0
   -0.3952  -52.2971  -18.4430 C   0  0  0  0  0  0  0  0  0  0  0  0
   -1.6971  -52.9196  -17.4217 Cl  0  0  0  0  0  0  0  0  0  0  0  0
   -0.0329  -52.9332  -19.6087 C   0  0  0  0  0  0  0  0  0  0  0  0
   -0.0232  -50.4800  -16.9475 O   0  0  0  0  0  0  0  0  0  0  0  0
    0.3832  -49.2275  -16.5199 C   0  0  0  0  0  0  0  0  0  0  0  0
   -0.5643  -48.5148  -15.6394 C   0  0  0  0  0  0  0  0  0  0  0  0
   -0.1731  -47.3560  -15.0032 C   0  0  0  0  0  0  0  0  0  0  0  0
   -1.0564  -46.6656  -14.1651 C   0  0  0  0  0  0  0  0  0  0  0  0
   -2.3309  -47.1360  -13.9647 C   0  0  0  0  0  0  0  0  0  0  0  0
   -2.7163  -48.3011  -14.6078 C   0  0  0  0  0  0  0  0  0  0  0  0
   -3.9820  -48.7770  -14.4142 F   0  0  0  0  0  0  0  0  0  0  0  0
   -1.8441  -48.9713  -15.4274 C   0  0  0  0  0  0  0  0  0  0  0  0
    3.8535  -48.9180  -25.6248 O   0  0  0  0  0  0  0  0  0  0  0  0
    3.3874  -46.9471  -26.9641 C   0  0  0  0  0  0  0  0  0  0  0  0
    3.7275  -48.4190  -26.9067 C   0  0  0  0  0  0  0  0  0  0  0  0
 42 43  1  0  0  0
 43 41  1  0  0  0
 41  1  1  0  0  0
  1  2  2  0  0  0
  2  3  1  0  0  0
  3  4  2  0  0  0
  4  5  1  0  0  0
  5  6  2  0  0  0
  6 21  1  0  0  0
 21 22  3  0  0  0
  6  7  1  0  0  0
  7 23  1  0  0  0
 23 25  1  0  0  0
 25 26  2  0  0  0
 26 27  1  0  0  0
 27 28  2  0  0  0
 28 32  1  0  0  0
 32 33  1  0  0  0
 33 34  1  0  0  0
 34 35  2  0  0  0
 35 36  1  0  0  0
 36 37  2  0  0  0
 37 38  1  0  0  0
 38 39  1  0  0  0
 38 40  2  0  0  0
 28 29  1  0  0  0
 29 30  1  0  0  0
 29 31  2  0  0  0
  7  8  2  0  0  0
  8  9  1  0  0  0
  9 10  2  0  0  0
 10 11  1  0  0  0
 11 12  1  0  0  0
 12 13  2  0  0  0
 12 15  1  0  0  0
 15 16  2  0  0  0
 16 17  1  0  0  0
 17 18  1  0  0  0
 18 19  1  0  0  0
 18 20  1  0  0  0
 10  1  1  0  0  0
  8  3  1  0  0  0
 31 25  1  0  0  0
 40 34  1  0  0  0
 23 24  1  0  0  0
 11 14  1  0  0  0
M  END
> <minimizedAffinity>
-6.67336

> <CNNscore>
0.3829805255

> <CNNaffinity>
7.4123053551

> <CNN_VS>
2.8387684822

> <CNNaffinity_variance>
0.1543551087

$$$$
[H]/C(C(=O)N([H])c1c(OC([H])([H])C([H])([H])[H])c([H])c2nc([H])c(C#N)c(N([H])c3c([H])c([H])c(OC([H])([H])c4c([H])c([H])c([H])c(F)c4[H])c(Cl)c3[H])c2c1[H])=C(/[H])C([H])([H])N(C([H])([H])[H])C([H])([H])[H]


 43 46  0  0  0  0  0  0  0  0999 V2000
   -0.3683  -52.9580  -19.4161 C   0  0  0  0  0  0  0  0  0  0  0  0
   -0.6922  -54.0248  -20.2032 C   0  0  0  0  0  0  0  0  0  0  0  0
   -0.6530  -53.9105  -21.5833 C   0  0  0  0  0  0  0  0  0  0  0  0
   -0.9722  -54.9608  -22.3661 N   0  0  0  0  0  0  0  0  0  0  0  0
   -0.9401  -54.8662  -23.7081 C   0  0  0  0  0  0  0  0  0  0  0  0
   -0.5824  -53.7026  -24.3715 C   0  0  0  0  0  0  0  0  0  0  0  0
   -0.2533  -52.6209  -23.5824 C   0  0  0  0  0  0  0  0  0  0  0  0
   -0.2936  -52.7418  -22.2011 C   0  0  0  0  0  0  0  0  0  0  0  0
    0.0355  -51.6570  -21.3680 C   0  0  0  0  0  0  0  0  0  0  0  0
    0.0109  -51.7237  -19.9975 C   0  0  0  0  0  0  0  0  0  0  0  0
    0.3377  -50.6541  -19.1367 N   0  0  0  0  0  0  0  0  0  0  0  0
    1.6316  -50.3263  -18.7164 C   0  0  0  0  0  0  0  0  0  0  0  0
    2.6777  -50.9581  -19.0634 O   0  0  0  0  0  0  0  0  0  0  0  0
   -0.4934  -50.0684  -18.7975 H   0  0  0  0  0  0  0  0  0  0  0  0
    1.8360  -49.1933  -17.8220 C   0  0  0  0  0  0  0  0  0  0  0  0
    1.5229  -49.2433  -16.5618 C   0  0  0  0  0  0  0  0  0  0  0  0
    1.7539  -48.0431  -15.6763 C   0  0  0  0  0  0  0  0  0  0  0  0
    2.0214  -48.5630  -14.3590 N   0  0  0  0  0  0  0  0  0  0  0  0
    3.4311  -48.8536  -14.1853 C   0  0  0  0  0  0  0  0  0  0  0  0
    1.1908  -49.7130  -14.1126 C   0  0  0  0  0  0  0  0  0  0  0  0
   -0.5627  -53.6471  -25.8146 C   0  0  0  0  0  0  0  0  0  0  0  0
   -0.5440  -53.6179  -26.9830 N   0  0  0  0  0  0  0  0  0  0  0  0
    0.1202  -51.3938  -24.1828 N   0  0  0  0  0  0  0  0  0  0  0  0
   -0.6428  -50.7592  -24.4996 H   0  0  0  0  0  0  0  0  0  0  0  0
    1.4781  -51.0071  -24.3648 C   0  0  0  0  0  0  0  0  0  0  0  0
    2.1036  -51.2663  -25.5602 C   0  0  0  0  0  0  0  0  0  0  0  0
    3.4244  -50.8846  -25.7191 C   0  0  0  0  0  0  0  0  0  0  0  0
    4.1396  -50.2540  -24.7259 C   0  0  0  0  0  0  0  0  0  0  0  0
    3.5144  -49.9877  -23.5120 C   0  0  0  0  0  0  0  0  0  0  0  0
    4.3740  -49.1816  -22.1941 Cl  0  0  0  0  0  0  0  0  0  0  0  0
    2.2008  -50.3768  -23.3781 C   0  0  0  0  0  0  0  0  0  0  0  0
    5.4465  -49.8846  -24.9021 O   0  0  0  0  0  0  0  0  0  0  0  0
    5.9588  -48.8012  -25.5955 C   0  0  0  0  0  0  0  0  0  0  0  0
    5.0538  -47.6417  -25.7274 C   0  0  0  0  0  0  0  0  0  0  0  0
    4.9635  -46.7202  -24.7060 C   0  0  0  0  0  0  0  0  0  0  0  0
    4.1121  -45.6142  -24.8120 C   0  0  0  0  0  0  0  0  0  0  0  0
    3.3517  -45.4317  -25.9408 C   0  0  0  0  0  0  0  0  0  0  0  0
    3.4483  -46.3621  -26.9628 C   0  0  0  0  0  0  0  0  0  0  0  0
    2.6954  -46.1892  -28.0894 F   0  0  0  0  0  0  0  0  0  0  0  0
    4.2852  -47.4431  -26.8505 C   0  0  0  0  0  0  0  0  0  0  0  0
   -0.3974  -53.0369  -18.0511 O   0  0  0  0  0  0  0  0  0  0  0  0
   -2.5578  -52.9029  -16.9509 C   0  0  0  0  0  0  0  0  0  0  0  0
   -1.1684  -52.3387  -17.1420 C   0  0  0  0  0  0  0  0  0  0  0  0
 42 43  1  0  0  0
 43 41  1  0  0  0
 41  1  1  0  0  0
  1  2  2  0  0  0
  2  3  1  0  0  0
  3  4  2  0  0  0
  4  5  1  0  0  0
  5  6  2  0  0  0
  6 21  1  0  0  0
 21 22  3  0  0  0
  6  7  1  0  0  0
  7 23  1  0  0  0
 23 25  1  0  0  0
 25 26  2  0  0  0
 26 27  1  0  0  0
 27 28  2  0  0  0
 28 32  1  0  0  0
 32 33  1  0  0  0
 33 34  1  0  0  0
 34 35  2  0  0  0
 35 36  1  0  0  0
 36 37  2  0  0  0
 37 38  1  0  0  0
 38 39  1  0  0  0
 38 40  2  0  0  0
 28 29  1  0  0  0
 29 30  1  0  0  0
 29 31  2  0  0  0
  7  8  2  0  0  0
  8  9  1  0  0  0
  9 10  2  0  0  0
 10 11  1  0  0  0
 11 12  1  0  0  0
 12 13  2  0  0  0
 12 15  1  0  0  0
 15 16  2  0  0  0
 16 17  1  0  0  0
 17 18  1  0  0  0
 18 19  1  0  0  0
 18 20  1  0  0  0
 10  1  1  0  0  0
  8  3  1  0  0  0
 31 25  1  0  0  0
 40 34  1  0  0  0
 23 24  1  0  0  0
 11 14  1  0  0  0
M  END
> <minimizedAffinity>
-6.83433

> <CNNscore>
0.3683082461

> <CNNaffinity>
7.5851669312

> <CNN_VS>
2.7936794758

> <CNNaffinity_variance>
0.0582624972

$$$$
[H]/C(C(=O)N([H])c1c(OC([H])([H])C([H])([H])[H])c([H])c2nc([H])c(C#N)c(N([H])c3c([H])c([H])c(OC([H])([H])c4nc([H])c([H])c([H])c4[H])c(Cl)c3[H])c2c1[H])=C(/[H])C([H])([H])N(C([H])([H])[H])C([H])([H])[H]


 42 45  0  0  0  0  0  0  0  0999 V2000
   -0.5238  -52.7826  -19.4470 C   0  0  0  0  0  0  0  0  0  0  0  0
   -1.0093  -53.8798  -20.1008 C   0  0  0  0  0  0  0  0  0  0  0  0
   -0.8445  -53.9502  -21.4790 C   0  0  0  0  0  0  0  0  0  0  0  0
   -1.3112  -55.0170  -22.1486 N   0  0  0  0  0  0  0  0  0  0  0  0
   -1.1527  -55.0871  -23.4827 C   0  0  0  0  0  0  0  0  0  0  0  0
   -0.5263  -54.1101  -24.2270 C   0  0  0  0  0  0  0  0  0  0  0  0
   -0.0389  -53.0028  -23.5523 C   0  0  0  0  0  0  0  0  0  0  0  0
   -0.2159  -52.9596  -22.1888 C   0  0  0  0  0  0  0  0  0  0  0  0
    0.2578  -51.8684  -21.4787 C   0  0  0  0  0  0  0  0  0  0  0  0
    0.1384  -51.7167  -20.1156 C   0  0  0  0  0  0  0  0  0  0  0  0
    0.6031  -50.6304  -19.3615 N   0  0  0  0  0  0  0  0  0  0  0  0
    1.9014  -50.3527  -18.9643 C   0  0  0  0  0  0  0  0  0  0  0  0
    2.8799  -51.0656  -19.2369 O   0  0  0  0  0  0  0  0  0  0  0  0
   -0.1413  -49.9238  -19.0524 H   0  0  0  0  0  0  0  0  0  0  0  0
    2.2027  -49.1365  -18.1582 C   0  0  0  0  0  0  0  0  0  0  0  0
    2.9880  -49.1700  -17.0983 C   0  0  0  0  0  0  0  0  0  0  0  0
    3.2870  -47.9621  -16.2980 C   0  0  0  0  0  0  0  0  0  0  0  0
    3.8571  -48.2959  -15.0049 N   0  0  0  0  0  0  0  0  0  0  0  0
    2.7933  -48.6565  -14.1054 C   0  0  0  0  0  0  0  0  0  0  0  0
    4.5722  -47.1648  -14.4460 C   0  0  0  0  0  0  0  0  0  0  0  0
   -0.3809  -54.2337  -25.6649 C   0  0  0  0  0  0  0  0  0  0  0  0
   -0.2808  -54.3440  -26.8148 N   0  0  0  0  0  0  0  0  0  0  0  0
    0.6021  -51.9991  -24.2994 N   0  0  0  0  0  0  0  0  0  0  0  0
    0.1665  -51.5412  -25.1219 H   0  0  0  0  0  0  0  0  0  0  0  0
    1.9083  -51.5913  -23.9112 C   0  0  0  0  0  0  0  0  0  0  0  0
    3.0183  -52.3873  -24.1432 C   0  0  0  0  0  0  0  0  0  0  0  0
    4.2916  -51.9879  -23.7638 C   0  0  0  0  0  0  0  0  0  0  0  0
    4.4781  -50.7842  -23.1449 C   0  0  0  0  0  0  0  0  0  0  0  0
    3.3940  -49.9746  -22.9024 C   0  0  0  0  0  0  0  0  0  0  0  0
    3.6621  -48.4395  -22.1086 Cl  0  0  0  0  0  0  0  0  0  0  0  0
    2.1461  -50.3722  -23.2773 C   0  0  0  0  0  0  0  0  0  0  0  0
    5.7331  -50.3531  -22.7524 O   0  0  0  0  0  0  0  0  0  0  0  0
    6.5713  -49.7289  -23.7170 C   0  0  0  0  0  0  0  0  0  0  0  0
    6.8524  -48.3291  -23.3497 C   0  0  0  0  0  0  0  0  0  0  0  0
    7.3689  -47.9673  -22.1119 C   0  0  0  0  0  0  0  0  0  0  0  0
    7.6264  -46.6546  -21.7835 C   0  0  0  0  0  0  0  0  0  0  0  0
    7.3515  -45.6929  -22.7361 C   0  0  0  0  0  0  0  0  0  0  0  0
    6.8403  -46.0477  -23.9619 C   0  0  0  0  0  0  0  0  0  0  0  0
    6.6099  -47.3474  -24.2244 N   0  0  0  0  0  0  0  0  0  0  0  0
   -0.6765  -52.6915  -18.0827 O   0  0  0  0  0  0  0  0  0  0  0  0
   -2.0156  -51.9216  -16.1878 C   0  0  0  0  0  0  0  0  0  0  0  0
   -1.8211  -52.8906  -17.3172 C   0  0  0  0  0  0  0  0  0  0  0  0
 41 42  1  0  0  0
 42 40  1  0  0  0
 40  1  1  0  0  0
  1  2  2  0  0  0
  2  3  1  0  0  0
  3  4  2  0  0  0
  4  5  1  0  0  0
  5  6  2  0  0  0
  6 21  1  0  0  0
 21 22  3  0  0  0
  6  7  1  0  0  0
  7 23  1  0  0  0
 23 25  1  0  0  0
 25 26  2  0  0  0
 26 27  1  0  0  0
 27 28  2  0  0  0
 28 32  1  0  0  0
 32 33  1  0  0  0
 33 34  1  0  0  0
 34 35  2  0  0  0
 35 36  1  0  0  0
 36 37  2  0  0  0
 37 38  1  0  0  0
 38 39  2  0  0  0
 28 29  1  0  0  0
 29 30  1  0  0  0
 29 31  2  0  0  0
  7  8  2  0  0  0
  8  9  1  0  0  0
  9 10  2  0  0  0
 10 11  1  0  0  0
 11 12  1  0  0  0
 12 13  2  0  0  0
 12 15  1  0  0  0
 15 16  2  0  0  0
 16 17  1  0  0  0
 17 18  1  0  0  0
 18 19  1  0  0  0
 18 20  1  0  0  0
 10  1  1  0  0  0
  8  3  1  0  0  0
 31 25  1  0  0  0
 39 34  1  0  0  0
 23 24  1  0  0  0
 11 14  1  0  0  0
M  END
> <minimizedAffinity>
-6.89226

> <CNNscore>
0.6116222739

> <CNNaffinity>
7.7288346291

> <CNN_VS>
4.7271275520

> <CNNaffinity_variance>
0.0365970209

$$$$
[H]/C(C(=O)N([H])c1c(OC([H])([H])C([H])([H])[H])c([H])c2nc([H])c(C#N)c(N([H])c3c([H])c([H])c(OC([H])([H])c4nc([H])c([H])c([H])c4[H])c(Cl)c3[H])c2c1[H])=C(/[H])C([H])([H])N(C([H])([H])[H])C([H])([H])[H]


 42 45  0  0  0  0  0  0  0  0999 V2000
   -0.5656  -52.8556  -19.3314 C   0  0  0  0  0  0  0  0  0  0  0  0
   -1.0653  -53.9114  -20.0402 C   0  0  0  0  0  0  0  0  0  0  0  0
   -0.8900  -53.9195  -21.4189 C   0  0  0  0  0  0  0  0  0  0  0  0
   -1.3703  -54.9445  -22.1421 N   0  0  0  0  0  0  0  0  0  0  0  0
   -1.2016  -54.9542  -23.4767 C   0  0  0  0  0  0  0  0  0  0  0  0
   -0.5511  -53.9549  -24.1689 C   0  0  0  0  0  0  0  0  0  0  0  0
   -0.0493  -52.8901  -23.4386 C   0  0  0  0  0  0  0  0  0  0  0  0
   -0.2373  -52.9082  -22.0760 C   0  0  0  0  0  0  0  0  0  0  0  0
    0.2501  -51.8610  -21.3112 C   0  0  0  0  0  0  0  0  0  0  0  0
    0.1217  -51.7718  -19.9434 C   0  0  0  0  0  0  0  0  0  0  0  0
    0.5997  -50.7312  -19.1349 N   0  0  0  0  0  0  0  0  0  0  0  0
    1.8432  -50.6107  -18.5353 C   0  0  0  0  0  0  0  0  0  0  0  0
    2.7498  -51.4518  -18.6383 O   0  0  0  0  0  0  0  0  0  0  0  0
   -0.0845  -49.9254  -18.9578 H   0  0  0  0  0  0  0  0  0  0  0  0
    2.1701  -49.4187  -17.7033 C   0  0  0  0  0  0  0  0  0  0  0  0
    3.0360  -48.5027  -18.0935 C   0  0  0  0  0  0  0  0  0  0  0  0
    3.3604  -47.3192  -17.2672 C   0  0  0  0  0  0  0  0  0  0  0  0
    4.2789  -46.4208  -17.9436 N   0  0  0  0  0  0  0  0  0  0  0  0
    3.6942  -46.0099  -19.1927 C   0  0  0  0  0  0  0  0  0  0  0  0
    5.5411  -47.0801  -18.2183 C   0  0  0  0  0  0  0  0  0  0  0  0
   -0.3955  -54.0129  -25.6099 C   0  0  0  0  0  0  0  0  0  0  0  0
   -0.2655  -54.0782  -26.7602 N   0  0  0  0  0  0  0  0  0  0  0  0
    0.6163  -51.8643  -24.1322 N   0  0  0  0  0  0  0  0  0  0  0  0
    0.1575  -51.2828  -24.8583 H   0  0  0  0  0  0  0  0  0  0  0  0
    1.9818  -51.6105  -23.8255 C   0  0  0  0  0  0  0  0  0  0  0  0
    2.9764  -52.5299  -24.1176 C   0  0  0  0  0  0  0  0  0  0  0  0
    4.3077  -52.2807  -23.8177 C   0  0  0  0  0  0  0  0  0  0  0  0
    4.6691  -51.1065  -23.2196 C   0  0  0  0  0  0  0  0  0  0  0  0
    3.7025  -50.1767  -22.9187 C   0  0  0  0  0  0  0  0  0  0  0  0
    4.1935  -48.6828  -22.1535 Cl  0  0  0  0  0  0  0  0  0  0  0  0
    2.3967  -50.4271  -23.2157 C   0  0  0  0  0  0  0  0  0  0  0  0
    5.9868  -50.8237  -22.9059 O   0  0  0  0  0  0  0  0  0  0  0  0
    6.9118  -50.6229  -23.9674 C   0  0  0  0  0  0  0  0  0  0  0  0
    6.9272  -49.2132  -24.3986 C   0  0  0  0  0  0  0  0  0  0  0  0
    7.5362  -48.2084  -23.6576 C   0  0  0  0  0  0  0  0  0  0  0  0
    7.5423  -46.8955  -24.0739 C   0  0  0  0  0  0  0  0  0  0  0  0
    6.9148  -46.6022  -25.2689 C   0  0  0  0  0  0  0  0  0  0  0  0
    6.3112  -47.5943  -26.0047 C   0  0  0  0  0  0  0  0  0  0  0  0
    6.3385  -48.8591  -25.5458 N   0  0  0  0  0  0  0  0  0  0  0  0
   -0.7283  -52.8264  -17.9655 O   0  0  0  0  0  0  0  0  0  0  0  0
   -1.9237  -51.6947  -16.1581 C   0  0  0  0  0  0  0  0  0  0  0  0
   -1.9055  -52.7468  -17.2281 C   0  0  0  0  0  0  0  0  0  0  0  0
 41 42  1  0  0  0
 42 40  1  0  0  0
 40  1  1  0  0  0
  1  2  2  0  0  0
  2  3  1  0  0  0
  3  4  2  0  0  0
  4  5  1  0  0  0
  5  6  2  0  0  0
  6 21  1  0  0  0
 21 22  3  0  0  0
  6  7  1  0  0  0
  7 23  1  0  0  0
 23 25  1  0  0  0
 25 26  2  0  0  0
 26 27  1  0  0  0
 27 28  2  0  0  0
 28 32  1  0  0  0
 32 33  1  0  0  0
 33 34  1  0  0  0
 34 35  2  0  0  0
 35 36  1  0  0  0
 36 37  2  0  0  0
 37 38  1  0  0  0
 38 39  2  0  0  0
 28 29  1  0  0  0
 29 30  1  0  0  0
 29 31  2  0  0  0
  7  8  2  0  0  0
  8  9  1  0  0  0
  9 10  2  0  0  0
 10 11  1  0  0  0
 11 12  1  0  0  0
 12 13  2  0  0  0
 12 15  1  0  0  0
 15 16  2  0  0  0
 16 17  1  0  0  0
 17 18  1  0  0  0
 18 19  1  0  0  0
 18 20  1  0  0  0
 10  1  1  0  0  0
  8  3  1  0  0  0
 31 25  1  0  0  0
 39 34  1  0  0  0
 23 24  1  0  0  0
 11 14  1  0  0  0
M  END
> <minimizedAffinity>
-7.20223

> <CNNscore>
0.5369805694

> <CNNaffinity>
7.6827516556

> <CNN_VS>
4.1254882812

> <CNNaffinity_variance>
0.0543615036

$$$$
[H]/C(C(=O)N([H])c1c(OC([H])([H])C([H])([H])[H])c([H])c2nc([H])c(C#N)c(N([H])c3c([H])c([H])c(OC([H])([H])c4nc([H])c([H])c([H])c4[H])c(Cl)c3[H])c2c1[H])=C(/[H])C([H])([H])N(C([H])([H])[H])C([H])([H])[H]


 42 45  0  0  0  0  0  0  0  0999 V2000
   -0.2947  -52.8985  -19.6150 C   0  0  0  0  0  0  0  0  0  0  0  0
   -0.7587  -53.9773  -20.3134 C   0  0  0  0  0  0  0  0  0  0  0  0
   -0.6848  -53.9435  -21.7008 C   0  0  0  0  0  0  0  0  0  0  0  0
   -1.1328  -54.9898  -22.4141 N   0  0  0  0  0  0  0  0  0  0  0  0
   -1.0622  -54.9590  -23.7572 C   0  0  0  0  0  0  0  0  0  0  0  0
   -0.5464  -53.8961  -24.4680 C   0  0  0  0  0  0  0  0  0  0  0  0
   -0.0797  -52.8086  -23.7481 C   0  0  0  0  0  0  0  0  0  0  0  0
   -0.1653  -52.8692  -22.3765 C   0  0  0  0  0  0  0  0  0  0  0  0
    0.2912  -51.8010  -21.6216 C   0  0  0  0  0  0  0  0  0  0  0  0
    0.2567  -51.7500  -20.2463 C   0  0  0  0  0  0  0  0  0  0  0  0
    0.7074  -50.6901  -19.4474 N   0  0  0  0  0  0  0  0  0  0  0  0
    1.9071  -50.5801  -18.7626 C   0  0  0  0  0  0  0  0  0  0  0  0
    2.7914  -51.4508  -18.7639 O   0  0  0  0  0  0  0  0  0  0  0  0
    0.0383  -49.8579  -19.3544 H   0  0  0  0  0  0  0  0  0  0  0  0
    2.2105  -49.3636  -17.9575 C   0  0  0  0  0  0  0  0  0  0  0  0
    3.1293  -49.3561  -17.0105 C   0  0  0  0  0  0  0  0  0  0  0  0
    3.4303  -48.1481  -16.2112 C   0  0  0  0  0  0  0  0  0  0  0  0
    3.3010  -48.3946  -14.7861 N   0  0  0  0  0  0  0  0  0  0  0  0
    3.6733  -49.7576  -14.5130 C   0  0  0  0  0  0  0  0  0  0  0  0
    1.9339  -48.1915  -14.3468 C   0  0  0  0  0  0  0  0  0  0  0  0
   -0.4927  -53.9124  -25.9174 C   0  0  0  0  0  0  0  0  0  0  0  0
   -0.4662  -53.9144  -27.0767 N   0  0  0  0  0  0  0  0  0  0  0  0
    0.4488  -51.7180  -24.4607 N   0  0  0  0  0  0  0  0  0  0  0  0
   -0.1386  -51.0651  -25.0126 H   0  0  0  0  0  0  0  0  0  0  0  0
    1.8536  -51.4981  -24.4246 C   0  0  0  0  0  0  0  0  0  0  0  0
    2.7546  -52.5502  -24.3985 C   0  0  0  0  0  0  0  0  0  0  0  0
    4.1245  -52.3338  -24.3632 C   0  0  0  0  0  0  0  0  0  0  0  0
    4.6187  -51.0600  -24.3532 C   0  0  0  0  0  0  0  0  0  0  0  0
    3.7470  -49.9974  -24.3785 C   0  0  0  0  0  0  0  0  0  0  0  0
    4.4073  -48.3781  -24.3649 Cl  0  0  0  0  0  0  0  0  0  0  0  0
    2.4028  -50.2163  -24.4131 C   0  0  0  0  0  0  0  0  0  0  0  0
    5.9785  -50.8060  -24.3182 O   0  0  0  0  0  0  0  0  0  0  0  0
    6.7000  -51.1209  -23.1337 C   0  0  0  0  0  0  0  0  0  0  0  0
    6.4582  -50.1166  -22.0819 C   0  0  0  0  0  0  0  0  0  0  0  0
    5.5922  -50.3373  -21.0184 C   0  0  0  0  0  0  0  0  0  0  0  0
    5.3768  -49.3889  -20.0431 C   0  0  0  0  0  0  0  0  0  0  0  0
    6.0579  -48.1924  -20.1552 C   0  0  0  0  0  0  0  0  0  0  0  0
    6.9156  -47.9709  -21.2065 C   0  0  0  0  0  0  0  0  0  0  0  0
    7.0849  -48.9364  -22.1286 N   0  0  0  0  0  0  0  0  0  0  0  0
   -0.3588  -52.9100  -18.2407 O   0  0  0  0  0  0  0  0  0  0  0  0
   -1.3529  -51.6386  -16.4045 C   0  0  0  0  0  0  0  0  0  0  0  0
   -1.4672  -52.7404  -17.4170 C   0  0  0  0  0  0  0  0  0  0  0  0
 41 42  1  0  0  0
 42 40  1  0  0  0
 40  1  1  0  0  0
  1  2  2  0  0  0
  2  3  1  0  0  0
  3  4  2  0  0  0
  4  5  1  0  0  0
  5  6  2  0  0  0
  6 21  1  0  0  0
 21 22  3  0  0  0
  6  7  1  0  0  0
  7 23  1  0  0  0
 23 25  1  0  0  0
 25 26  2  0  0  0
 26 27  1  0  0  0
 27 28  2  0  0  0
 28 32  1  0  0  0
 32 33  1  0  0  0
 33 34  1  0  0  0
 34 35  2  0  0  0
 35 36  1  0  0  0
 36 37  2  0  0  0
 37 38  1  0  0  0
 38 39  2  0  0  0
 28 29  1  0  0  0
 29 30  1  0  0  0
 29 31  2  0  0  0
  7  8  2  0  0  0
  8  9  1  0  0  0
  9 10  2  0  0  0
 10 11  1  0  0  0
 11 12  1  0  0  0
 12 13  2  0  0  0
 12 15  1  0  0  0
 15 16  2  0  0  0
 16 17  1  0  0  0
 17 18  1  0  0  0
 18 19  1  0  0  0
 18 20  1  0  0  0
 10  1  1  0  0  0
  8  3  1  0  0  0
 31 25  1  0  0  0
 39 34  1  0  0  0
 23 24  1  0  0  0
 11 14  1  0  0  0
M  END
> <minimizedAffinity>
-7.25940

> <CNNscore>
0.4718272090

> <CNNaffinity>
7.5912637711

> <CNN_VS>
3.5817646980

> <CNNaffinity_variance>
0.1011352092

$$$$
[H]/C(C(=O)N([H])c1c(OC([H])([H])C([H])([H])[H])c([H])c2nc([H])c(C#N)c(N([H])c3c([H])c([H])c(OC([H])([H])c4nc([H])c([H])c([H])c4[H])c(Cl)c3[H])c2c1[H])=C(/[H])C([H])([H])N(C([H])([H])[H])C([H])([H])[H]


 42 45  0  0  0  0  0  0  0  0999 V2000
    0.1156  -52.8700  -19.9117 C   0  0  0  0  0  0  0  0  0  0  0  0
   -0.4329  -53.9120  -20.6048 C   0  0  0  0  0  0  0  0  0  0  0  0
   -0.4350  -53.8494  -21.9932 C   0  0  0  0  0  0  0  0  0  0  0  0
   -0.9671  -54.8592  -22.7014 N   0  0  0  0  0  0  0  0  0  0  0  0
   -0.9702  -54.8005  -24.0453 C   0  0  0  0  0  0  0  0  0  0  0  0
   -0.4493  -53.7441  -24.7622 C   0  0  0  0  0  0  0  0  0  0  0  0
    0.1035  -52.6941  -24.0476 C   0  0  0  0  0  0  0  0  0  0  0  0
    0.0920  -52.7826  -22.6749 C   0  0  0  0  0  0  0  0  0  0  0  0
    0.6357  -51.7523  -21.9253 C   0  0  0  0  0  0  0  0  0  0  0  0
    0.6802  -51.7315  -20.5494 C   0  0  0  0  0  0  0  0  0  0  0  0
    1.2202  -50.7102  -19.7557 N   0  0  0  0  0  0  0  0  0  0  0  0
    1.2384  -49.3470  -20.0046 C   0  0  0  0  0  0  0  0  0  0  0  0
    0.7535  -48.8181  -21.0170 O   0  0  0  0  0  0  0  0  0  0  0  0
    1.6779  -51.0239  -18.8386 H   0  0  0  0  0  0  0  0  0  0  0  0
    1.8652  -48.4083  -19.0321 C   0  0  0  0  0  0  0  0  0  0  0  0
    2.8983  -47.6511  -19.3489 C   0  0  0  0  0  0  0  0  0  0  0  0
    3.5206  -46.7190  -18.3831 C   0  0  0  0  0  0  0  0  0  0  0  0
    4.5251  -45.8788  -19.0104 N   0  0  0  0  0  0  0  0  0  0  0  0
    4.7170  -44.7014  -18.2055 C   0  0  0  0  0  0  0  0  0  0  0  0
    4.1039  -45.4693  -20.3363 C   0  0  0  0  0  0  0  0  0  0  0  0
   -0.4773  -53.7293  -26.2123 C   0  0  0  0  0  0  0  0  0  0  0  0
   -0.5071  -53.6991  -27.3711 N   0  0  0  0  0  0  0  0  0  0  0  0
    0.6381  -51.6106  -24.7664 N   0  0  0  0  0  0  0  0  0  0  0  0
    0.0562  -50.9668  -25.3346 H   0  0  0  0  0  0  0  0  0  0  0  0
    2.0415  -51.3851  -24.7134 C   0  0  0  0  0  0  0  0  0  0  0  0
    2.9495  -52.4295  -24.7792 C   0  0  0  0  0  0  0  0  0  0  0  0
    4.3179  -52.2077  -24.7273 C   0  0  0  0  0  0  0  0  0  0  0  0
    4.8038  -50.9362  -24.6085 C   0  0  0  0  0  0  0  0  0  0  0  0
    3.9251  -49.8813  -24.5410 C   0  0  0  0  0  0  0  0  0  0  0  0
    4.5747  -48.2647  -24.3891 Cl  0  0  0  0  0  0  0  0  0  0  0  0
    2.5823  -50.1054  -24.5925 C   0  0  0  0  0  0  0  0  0  0  0  0
    6.1619  -50.6770  -24.5536 O   0  0  0  0  0  0  0  0  0  0  0  0
    6.9072  -51.1788  -23.4511 C   0  0  0  0  0  0  0  0  0  0  0  0
    6.7463  -50.3175  -22.2655 C   0  0  0  0  0  0  0  0  0  0  0  0
    5.7233  -50.4945  -21.3426 C   0  0  0  0  0  0  0  0  0  0  0  0
    5.5861  -49.6814  -20.2394 C   0  0  0  0  0  0  0  0  0  0  0  0
    6.5105  -48.6682  -20.0748 C   0  0  0  0  0  0  0  0  0  0  0  0
    7.5241  -48.4904  -20.9863 C   0  0  0  0  0  0  0  0  0  0  0  0
    7.6060  -49.3175  -22.0447 N   0  0  0  0  0  0  0  0  0  0  0  0
    0.1279  -52.9105  -18.5365 O   0  0  0  0  0  0  0  0  0  0  0  0
   -2.0773  -53.0119  -17.4860 C   0  0  0  0  0  0  0  0  0  0  0  0
   -0.7546  -52.3193  -17.6378 C   0  0  0  0  0  0  0  0  0  0  0  0
 41 42  1  0  0  0
 42 40  1  0  0  0
 40  1  1  0  0  0
  1  2  2  0  0  0
  2  3  1  0  0  0
  3  4  2  0  0  0
  4  5  1  0  0  0
  5  6  2  0  0  0
  6 21  1  0  0  0
 21 22  3  0  0  0
  6  7  1  0  0  0
  7 23  1  0  0  0
 23 25  1  0  0  0
 25 26  2  0  0  0
 26 27  1  0  0  0
 27 28  2  0  0  0
 28 32  1  0  0  0
 32 33  1  0  0  0
 33 34  1  0  0  0
 34 35  2  0  0  0
 35 36  1  0  0  0
 36 37  2  0  0  0
 37 38  1  0  0  0
 38 39  2  0  0  0
 28 29  1  0  0  0
 29 30  1  0  0  0
 29 31  2  0  0  0
  7  8  2  0  0  0
  8  9  1  0  0  0
  9 10  2  0  0  0
 10 11  1  0  0  0
 11 12  1  0  0  0
 12 13  2  0  0  0
 12 15  1  0  0  0
 15 16  2  0  0  0
 16 17  1  0  0  0
 17 18  1  0  0  0
 18 19  1  0  0  0
 18 20  1  0  0  0
 10  1  1  0  0  0
  8  3  1  0  0  0
 31 25  1  0  0  0
 39 34  1  0  0  0
 23 24  1  0  0  0
 11 14  1  0  0  0
M  END
> <minimizedAffinity>
-6.75712

> <CNNscore>
0.4255866408

> <CNNaffinity>
7.4878683090

> <CNN_VS>
3.1867368221

> <CNNaffinity_variance>
0.0582078584

$$$$
[H]/C(C(=O)N([H])c1c(OC([H])([H])C([H])([H])[H])c([H])c2nc([H])c(C#N)c(N([H])c3c([H])c([H])c(OC([H])([H])c4nc([H])c([H])c([H])c4[H])c(Cl)c3[H])c2c1[H])=C(/[H])C([H])([H])N(C([H])([H])[H])C([H])([H])[H]


 42 45  0  0  0  0  0  0  0  0999 V2000
    0.8700  -53.0738  -26.4218 C   0  0  0  0  0  0  0  0  0  0  0  0
    0.2586  -54.1727  -25.8874 C   0  0  0  0  0  0  0  0  0  0  0  0
   -0.2445  -54.0816  -24.5950 C   0  0  0  0  0  0  0  0  0  0  0  0
   -0.8510  -55.1456  -24.0434 N   0  0  0  0  0  0  0  0  0  0  0  0
   -1.3387  -55.0595  -22.7926 C   0  0  0  0  0  0  0  0  0  0  0  0
   -1.2546  -53.9208  -22.0197 C   0  0  0  0  0  0  0  0  0  0  0  0
   -0.6322  -52.8140  -22.5731 C   0  0  0  0  0  0  0  0  0  0  0  0
   -0.1436  -52.9325  -23.8536 C   0  0  0  0  0  0  0  0  0  0  0  0
    0.4854  -51.8472  -24.4415 C   0  0  0  0  0  0  0  0  0  0  0  0
    1.0117  -51.8491  -25.7136 C   0  0  0  0  0  0  0  0  0  0  0  0
    1.6543  -50.7743  -26.3433 N   0  0  0  0  0  0  0  0  0  0  0  0
    2.9520  -50.3230  -26.1616 C   0  0  0  0  0  0  0  0  0  0  0  0
    3.7634  -50.8363  -25.3755 O   0  0  0  0  0  0  0  0  0  0  0  0
    1.0667  -50.2319  -27.0570 H   0  0  0  0  0  0  0  0  0  0  0  0
    3.4610  -49.1526  -26.9302 C   0  0  0  0  0  0  0  0  0  0  0  0
    3.3022  -47.9113  -26.5117 C   0  0  0  0  0  0  0  0  0  0  0  0
    3.8078  -46.7492  -27.2751 C   0  0  0  0  0  0  0  0  0  0  0  0
    3.1871  -46.6486  -28.5839 N   0  0  0  0  0  0  0  0  0  0  0  0
    4.1332  -46.0784  -29.5062 C   0  0  0  0  0  0  0  0  0  0  0  0
    2.0148  -45.7961  -28.5375 C   0  0  0  0  0  0  0  0  0  0  0  0
   -1.7971  -53.8796  -20.6751 C   0  0  0  0  0  0  0  0  0  0  0  0
   -2.2490  -53.8439  -19.6078 N   0  0  0  0  0  0  0  0  0  0  0  0
   -0.5397  -51.6464  -21.7955 N   0  0  0  0  0  0  0  0  0  0  0  0
   -1.2169  -50.8640  -21.8676 H   0  0  0  0  0  0  0  0  0  0  0  0
    0.5313  -51.5306  -20.8667 C   0  0  0  0  0  0  0  0  0  0  0  0
    0.3036  -51.3576  -19.5111 C   0  0  0  0  0  0  0  0  0  0  0  0
    1.3494  -51.2447  -18.6067 C   0  0  0  0  0  0  0  0  0  0  0  0
    2.6433  -51.3028  -19.0419 C   0  0  0  0  0  0  0  0  0  0  0  0
    2.8979  -51.4738  -20.3818 C   0  0  0  0  0  0  0  0  0  0  0  0
    4.5633  -51.5445  -20.9107 Cl  0  0  0  0  0  0  0  0  0  0  0  0
    1.8666  -51.5840  -21.2652 C   0  0  0  0  0  0  0  0  0  0  0  0
    3.7115  -51.1939  -18.1690 O   0  0  0  0  0  0  0  0  0  0  0  0
    3.6903  -50.1606  -17.1920 C   0  0  0  0  0  0  0  0  0  0  0  0
    3.7050  -50.7192  -15.8279 C   0  0  0  0  0  0  0  0  0  0  0  0
    3.3132  -49.9884  -14.7134 C   0  0  0  0  0  0  0  0  0  0  0  0
    3.3324  -50.5245  -13.4447 C   0  0  0  0  0  0  0  0  0  0  0  0
    3.7596  -51.8311  -13.3108 C   0  0  0  0  0  0  0  0  0  0  0  0
    4.1480  -52.5571  -14.4117 C   0  0  0  0  0  0  0  0  0  0  0  0
    4.1072  -51.9783  -15.6259 N   0  0  0  0  0  0  0  0  0  0  0  0
    1.3762  -53.1417  -27.6994 O   0  0  0  0  0  0  0  0  0  0  0  0
   -0.6879  -52.6181  -28.9001 C   0  0  0  0  0  0  0  0  0  0  0  0
    0.6899  -53.2127  -28.9077 C   0  0  0  0  0  0  0  0  0  0  0  0
 41 42  1  0  0  0
 42 40  1  0  0  0
 40  1  1  0  0  0
  1  2  2  0  0  0
  2  3  1  0  0  0
  3  4  2  0  0  0
  4  5  1  0  0  0
  5  6  2  0  0  0
  6 21  1  0  0  0
 21 22  3  0  0  0
  6  7  1  0  0  0
  7 23  1  0  0  0
 23 25  1  0  0  0
 25 26  2  0  0  0
 26 27  1  0  0  0
 27 28  2  0  0  0
 28 32  1  0  0  0
 32 33  1  0  0  0
 33 34  1  0  0  0
 34 35  2  0  0  0
 35 36  1  0  0  0
 36 37  2  0  0  0
 37 38  1  0  0  0
 38 39  2  0  0  0
 28 29  1  0  0  0
 29 30  1  0  0  0
 29 31  2  0  0  0
  7  8  2  0  0  0
  8  9  1  0  0  0
  9 10  2  0  0  0
 10 11  1  0  0  0
 11 12  1  0  0  0
 12 13  2  0  0  0
 12 15  1  0  0  0
 15 16  2  0  0  0
 16 17  1  0  0  0
 17 18  1  0  0  0
 18 19  1  0  0  0
 18 20  1  0  0  0
 10  1  1  0  0  0
  8  3  1  0  0  0
 31 25  1  0  0  0
 39 34  1  0  0  0
 23 24  1  0  0  0
 11 14  1  0  0  0
M  END
> <minimizedAffinity>
-7.93852

> <CNNscore>
0.3421504796

> <CNNaffinity>
7.4864106178

> <CNN_VS>
2.5614790916

> <CNNaffinity_variance>
0.0997672528

$$$$
[H]/C(C(=O)N([H])c1c(OC([H])([H])C([H])([H])[H])c([H])c2nc([H])c(C#N)c(N([H])c3c([H])c([H])c(OC([H])([H])c4nc([H])c([H])c([H])c4[H])c(Cl)c3[H])c2c1[H])=C(/[H])C([H])([H])N(C([H])([H])[H])C([H])([H])[H]


 42 45  0  0  0  0  0  0  0  0999 V2000
    0.3652  -51.1751  -18.9762 C   0  0  0  0  0  0  0  0  0  0  0  0
   -0.1375  -52.4245  -19.2070 C   0  0  0  0  0  0  0  0  0  0  0  0
   -0.2137  -52.8700  -20.5213 C   0  0  0  0  0  0  0  0  0  0  0  0
   -0.7032  -54.0940  -20.7789 N   0  0  0  0  0  0  0  0  0  0  0  0
   -0.7777  -54.5271  -22.0503 C   0  0  0  0  0  0  0  0  0  0  0  0
   -0.3740  -53.7772  -23.1347 C   0  0  0  0  0  0  0  0  0  0  0  0
    0.1336  -52.5124  -22.8871 C   0  0  0  0  0  0  0  0  0  0  0  0
    0.1972  -52.0974  -21.5771 C   0  0  0  0  0  0  0  0  0  0  0  0
    0.6988  -50.8385  -21.2892 C   0  0  0  0  0  0  0  0  0  0  0  0
    0.8103  -50.3178  -20.0196 C   0  0  0  0  0  0  0  0  0  0  0  0
    1.3112  -49.0516  -19.6871 N   0  0  0  0  0  0  0  0  0  0  0  0
    2.5855  -48.5493  -19.8974 C   0  0  0  0  0  0  0  0  0  0  0  0
    3.5040  -49.1858  -20.4369 O   0  0  0  0  0  0  0  0  0  0  0  0
    0.6199  -48.3866  -19.2089 H   0  0  0  0  0  0  0  0  0  0  0  0
    2.9335  -47.1649  -19.4705 C   0  0  0  0  0  0  0  0  0  0  0  0
    4.1617  -46.8184  -19.1351 C   0  0  0  0  0  0  0  0  0  0  0  0
    4.5070  -45.4436  -18.7112 C   0  0  0  0  0  0  0  0  0  0  0  0
    5.2951  -45.4341  -17.4917 N   0  0  0  0  0  0  0  0  0  0  0  0
    6.3906  -44.5147  -17.6516 C   0  0  0  0  0  0  0  0  0  0  0  0
    5.8335  -46.7513  -17.2120 C   0  0  0  0  0  0  0  0  0  0  0  0
   -0.4753  -54.2910  -24.4873 C   0  0  0  0  0  0  0  0  0  0  0  0
   -0.5741  -54.6929  -25.5705 N   0  0  0  0  0  0  0  0  0  0  0  0
    0.5489  -51.7372  -23.9840 N   0  0  0  0  0  0  0  0  0  0  0  0
   -0.0934  -51.4414  -24.7428 H   0  0  0  0  0  0  0  0  0  0  0  0
    1.9125  -51.3394  -24.0585 C   0  0  0  0  0  0  0  0  0  0  0  0
    2.2760  -50.0104  -24.2044 C   0  0  0  0  0  0  0  0  0  0  0  0
    3.6064  -49.6243  -24.2771 C   0  0  0  0  0  0  0  0  0  0  0  0
    4.5986  -50.5610  -24.2051 C   0  0  0  0  0  0  0  0  0  0  0  0
    4.2661  -51.8869  -24.0604 C   0  0  0  0  0  0  0  0  0  0  0  0
    5.5562  -53.0641  -23.9710 Cl  0  0  0  0  0  0  0  0  0  0  0  0
    2.9577  -52.2600  -23.9896 C   0  0  0  0  0  0  0  0  0  0  0  0
    5.9361  -50.2129  -24.2741 O   0  0  0  0  0  0  0  0  0  0  0  0
    6.2996  -48.8569  -24.0466 C   0  0  0  0  0  0  0  0  0  0  0  0
    6.7579  -48.6555  -22.6599 C   0  0  0  0  0  0  0  0  0  0  0  0
    6.7968  -47.4048  -22.0566 C   0  0  0  0  0  0  0  0  0  0  0  0
    7.2277  -47.2327  -20.7597 C   0  0  0  0  0  0  0  0  0  0  0  0
    7.6266  -48.3582  -20.0654 C   0  0  0  0  0  0  0  0  0  0  0  0
    7.5893  -49.5973  -20.6596 C   0  0  0  0  0  0  0  0  0  0  0  0
    7.1582  -49.7019  -21.9301 N   0  0  0  0  0  0  0  0  0  0  0  0
    0.4491  -50.7132  -17.6829 O   0  0  0  0  0  0  0  0  0  0  0  0
   -0.8748  -49.8210  -15.8315 C   0  0  0  0  0  0  0  0  0  0  0  0
   -0.3675  -51.0087  -16.5958 C   0  0  0  0  0  0  0  0  0  0  0  0
 41 42  1  0  0  0
 42 40  1  0  0  0
 40  1  1  0  0  0
  1  2  2  0  0  0
  2  3  1  0  0  0
  3  4  2  0  0  0
  4  5  1  0  0  0
  5  6  2  0  0  0
  6 21  1  0  0  0
 21 22  3  0  0  0
  6  7  1  0  0  0
  7 23  1  0  0  0
 23 25  1  0  0  0
 25 26  2  0  0  0
 26 27  1  0  0  0
 27 28  2  0  0  0
 28 32  1  0  0  0
 32 33  1  0  0  0
 33 34  1  0  0  0
 34 35  2  0  0  0
 35 36  1  0  0  0
 36 37  2  0  0  0
 37 38  1  0  0  0
 38 39  2  0  0  0
 28 29  1  0  0  0
 29 30  1  0  0  0
 29 31  2  0  0  0
  7  8  2  0  0  0
  8  9  1  0  0  0
  9 10  2  0  0  0
 10 11  1  0  0  0
 11 12  1  0  0  0
 12 13  2  0  0  0
 12 15  1  0  0  0
 15 16  2  0  0  0
 16 17  1  0  0  0
 17 18  1  0  0  0
 18 19  1  0  0  0
 18 20  1  0  0  0
 10  1  1  0  0  0
  8  3  1  0  0  0
 31 25  1  0  0  0
 39 34  1  0  0  0
 23 24  1  0  0  0
 11 14  1  0  0  0
M  END
> <minimizedAffinity>
-6.42254

> <CNNscore>
0.3277261257

> <CNNaffinity>
7.2081284523

> <CNN_VS>
2.3622920513

> <CNNaffinity_variance>
0.3032479584

$$$$
[H]/C(C(=O)N([H])c1c(OC([H])([H])C([H])([H])[H])c([H])c2nc([H])c(C#N)c(N([H])c3c([H])c([H])c(OC([H])([H])c4nc([H])c([H])c([H])c4[H])c(Cl)c3[H])c2c1[H])=C(/[H])C([H])([H])N(C([H])([H])[H])C([H])([H])[H]


 42 45  0  0  0  0  0  0  0  0999 V2000
   -0.3329  -52.5193  -21.2966 C   0  0  0  0  0  0  0  0  0  0  0  0
   -0.8148  -53.1605  -22.4028 C   0  0  0  0  0  0  0  0  0  0  0  0
   -0.0250  -53.1824  -23.5462 C   0  0  0  0  0  0  0  0  0  0  0  0
   -0.4722  -53.8055  -24.6488 N   0  0  0  0  0  0  0  0  0  0  0  0
    0.2908  -53.8278  -25.7566 C   0  0  0  0  0  0  0  0  0  0  0  0
    1.5343  -53.2375  -25.8362 C   0  0  0  0  0  0  0  0  0  0  0  0
    2.0111  -52.5906  -24.7080 C   0  0  0  0  0  0  0  0  0  0  0  0
    1.2084  -52.5846  -23.5908 C   0  0  0  0  0  0  0  0  0  0  0  0
    1.6504  -51.9476  -22.4428 C   0  0  0  0  0  0  0  0  0  0  0  0
    0.9354  -51.8774  -21.2684 C   0  0  0  0  0  0  0  0  0  0  0  0
    1.3466  -51.2439  -20.0876 N   0  0  0  0  0  0  0  0  0  0  0  0
    2.5419  -51.3950  -19.4027 C   0  0  0  0  0  0  0  0  0  0  0  0
    3.4582  -52.1512  -19.7609 O   0  0  0  0  0  0  0  0  0  0  0  0
    0.6468  -50.5541  -19.6594 H   0  0  0  0  0  0  0  0  0  0  0  0
    2.7998  -50.6276  -18.1519 C   0  0  0  0  0  0  0  0  0  0  0  0
    1.8717  -49.8888  -17.5741 C   0  0  0  0  0  0  0  0  0  0  0  0
    2.1281  -49.1269  -16.3320 C   0  0  0  0  0  0  0  0  0  0  0  0
    0.9331  -49.0006  -15.5169 N   0  0  0  0  0  0  0  0  0  0  0  0
   -0.2198  -49.2712  -16.3346 C   0  0  0  0  0  0  0  0  0  0  0  0
    0.8131  -47.6599  -14.9770 C   0  0  0  0  0  0  0  0  0  0  0  0
    2.3180  -53.2902  -27.0556 C   0  0  0  0  0  0  0  0  0  0  0  0
    2.9383  -53.3140  -28.0350 N   0  0  0  0  0  0  0  0  0  0  0  0
    3.2778  -51.9845  -24.7757 N   0  0  0  0  0  0  0  0  0  0  0  0
    4.1642  -52.5154  -24.6846 H   0  0  0  0  0  0  0  0  0  0  0  0
    3.3493  -50.5784  -24.9783 C   0  0  0  0  0  0  0  0  0  0  0  0
    3.1644  -50.0131  -26.2296 C   0  0  0  0  0  0  0  0  0  0  0  0
    3.2346  -48.6415  -26.4254 C   0  0  0  0  0  0  0  0  0  0  0  0
    3.4913  -47.8095  -25.3724 C   0  0  0  0  0  0  0  0  0  0  0  0
    3.6789  -48.3438  -24.1199 C   0  0  0  0  0  0  0  0  0  0  0  0
    4.0059  -47.2555  -22.7906 Cl  0  0  0  0  0  0  0  0  0  0  0  0
    3.6087  -49.6916  -23.9339 C   0  0  0  0  0  0  0  0  0  0  0  0
    3.5686  -46.4369  -25.5300 O   0  0  0  0  0  0  0  0  0  0  0  0
    2.4980  -45.7647  -26.1817 C   0  0  0  0  0  0  0  0  0  0  0  0
    2.8388  -45.4567  -27.5825 C   0  0  0  0  0  0  0  0  0  0  0  0
    2.0342  -45.8327  -28.6507 C   0  0  0  0  0  0  0  0  0  0  0  0
    2.3661  -45.5375  -29.9544 C   0  0  0  0  0  0  0  0  0  0  0  0
    3.5416  -44.8456  -30.1724 C   0  0  0  0  0  0  0  0  0  0  0  0
    4.3401  -44.4721  -29.1176 C   0  0  0  0  0  0  0  0  0  0  0  0
    3.9623  -44.7893  -27.8655 N   0  0  0  0  0  0  0  0  0  0  0  0
   -1.0983  -52.4845  -20.1538 O   0  0  0  0  0  0  0  0  0  0  0  0
   -1.0720  -52.6868  -17.7177 C   0  0  0  0  0  0  0  0  0  0  0  0
   -1.0799  -53.3494  -19.0641 C   0  0  0  0  0  0  0  0  0  0  0  0
 41 42  1  0  0  0
 42 40  1  0  0  0
 40  1  1  0  0  0
  1  2  2  0  0  0
  2  3  1  0  0  0
  3  4  2  0  0  0
  4  5  1  0  0  0
  5  6  2  0  0  0
  6 21  1  0  0  0
 21 22  3  0  0  0
  6  7  1  0  0  0
  7 23  1  0  0  0
 23 25  1  0  0  0
 25 26  2  0  0  0
 26 27  1  0  0  0
 27 28  2  0  0  0
 28 32  1  0  0  0
 32 33  1  0  0  0
 33 34  1  0  0  0
 34 35  2  0  0  0
 35 36  1  0  0  0
 36 37  2  0  0  0
 37 38  1  0  0  0
 38 39  2  0  0  0
 28 29  1  0  0  0
 29 30  1  0  0  0
 29 31  2  0  0  0
  7  8  2  0  0  0
  8  9  1  0  0  0
  9 10  2  0  0  0
 10 11  1  0  0  0
 11 12  1  0  0  0
 12 13  2  0  0  0
 12 15  1  0  0  0
 15 16  2  0  0  0
 16 17  1  0  0  0
 17 18  1  0  0  0
 18 19  1  0  0  0
 18 20  1  0  0  0
 10  1  1  0  0  0
  8  3  1  0  0  0
 31 25  1  0  0  0
 39 34  1  0  0  0
 23 24  1  0  0  0
 11 14  1  0  0  0
M  END
> <minimizedAffinity>
-7.08512

> <CNNscore>
0.2077915668

> <CNNaffinity>
7.3114457130

> <CNN_VS>
1.5192567110

> <CNNaffinity_variance>
0.0670454651

$$$$
[H]/C(C(=O)N([H])c1c(OC([H])([H])C([H])([H])[H])c([H])c2nc([H])c(C#N)c(N([H])c3c([H])c([H])c(OC([H])([H])c4nc([H])c([H])c([H])c4[H])c(Cl)c3[H])c2c1[H])=C(/[H])C([H])([H])N(C([H])([H])[H])C([H])([H])[H]


 42 45  0  0  0  0  0  0  0  0999 V2000
   -1.3655  -46.9924  -15.0710 C   0  0  0  0  0  0  0  0  0  0  0  0
   -2.6913  -47.3094  -14.9774 C   0  0  0  0  0  0  0  0  0  0  0  0
   -3.0612  -48.6405  -15.1288 C   0  0  0  0  0  0  0  0  0  0  0  0
   -4.3572  -48.9823  -15.0415 N   0  0  0  0  0  0  0  0  0  0  0  0
   -4.7173  -50.2702  -15.1878 C   0  0  0  0  0  0  0  0  0  0  0  0
   -3.8197  -51.2889  -15.4278 C   0  0  0  0  0  0  0  0  0  0  0  0
   -2.4788  -50.9541  -15.5207 C   0  0  0  0  0  0  0  0  0  0  0  0
   -2.1414  -49.6294  -15.3668 C   0  0  0  0  0  0  0  0  0  0  0  0
   -0.8104  -49.2551  -15.4532 C   0  0  0  0  0  0  0  0  0  0  0  0
   -0.3557  -47.9629  -15.3160 C   0  0  0  0  0  0  0  0  0  0  0  0
    0.9795  -47.5441  -15.3964 N   0  0  0  0  0  0  0  0  0  0  0  0
    2.1289  -48.3049  -15.2532 C   0  0  0  0  0  0  0  0  0  0  0  0
    2.1319  -49.5242  -15.0223 O   0  0  0  0  0  0  0  0  0  0  0  0
    1.1310  -46.5015  -15.5940 H   0  0  0  0  0  0  0  0  0  0  0  0
    3.4737  -47.6749  -15.3737 C   0  0  0  0  0  0  0  0  0  0  0  0
    4.0067  -47.3692  -16.5414 C   0  0  0  0  0  0  0  0  0  0  0  0
    5.3422  -46.7436  -16.6608 C   0  0  0  0  0  0  0  0  0  0  0  0
    5.3234  -45.5893  -17.5416 N   0  0  0  0  0  0  0  0  0  0  0  0
    4.8512  -45.9994  -18.8376 C   0  0  0  0  0  0  0  0  0  0  0  0
    6.6526  -45.0285  -17.6896 C   0  0  0  0  0  0  0  0  0  0  0  0
   -4.2598  -52.6628  -15.5779 C   0  0  0  0  0  0  0  0  0  0  0  0
   -4.5933  -53.7662  -15.7038 N   0  0  0  0  0  0  0  0  0  0  0  0
   -1.5529  -51.9834  -15.7652 N   0  0  0  0  0  0  0  0  0  0  0  0
   -1.2804  -52.6810  -15.0475 H   0  0  0  0  0  0  0  0  0  0  0  0
   -0.9613  -52.0740  -17.0555 C   0  0  0  0  0  0  0  0  0  0  0  0
    0.1807  -51.3618  -17.3843 C   0  0  0  0  0  0  0  0  0  0  0  0
    0.7563  -51.4514  -18.6433 C   0  0  0  0  0  0  0  0  0  0  0  0
    0.1997  -52.2556  -19.5975 C   0  0  0  0  0  0  0  0  0  0  0  0
   -0.9337  -52.9734  -19.2982 C   0  0  0  0  0  0  0  0  0  0  0  0
   -1.6245  -53.9945  -20.5385 Cl  0  0  0  0  0  0  0  0  0  0  0  0
   -1.4943  -52.8813  -18.0600 C   0  0  0  0  0  0  0  0  0  0  0  0
    0.7461  -52.3697  -20.8637 O   0  0  0  0  0  0  0  0  0  0  0  0
    0.4564  -51.3615  -21.8240 C   0  0  0  0  0  0  0  0  0  0  0  0
    1.4380  -50.2638  -21.7539 C   0  0  0  0  0  0  0  0  0  0  0  0
    1.1018  -48.9819  -21.3375 C   0  0  0  0  0  0  0  0  0  0  0  0
    2.0306  -47.9665  -21.2773 C   0  0  0  0  0  0  0  0  0  0  0  0
    3.3270  -48.2648  -21.6492 C   0  0  0  0  0  0  0  0  0  0  0  0
    3.6629  -49.5324  -22.0617 C   0  0  0  0  0  0  0  0  0  0  0  0
    2.7110  -50.4830  -22.0994 N   0  0  0  0  0  0  0  0  0  0  0  0
   -0.9767  -45.6807  -14.9251 O   0  0  0  0  0  0  0  0  0  0  0  0
    0.2158  -44.9492  -12.9202 C   0  0  0  0  0  0  0  0  0  0  0  0
   -1.0082  -44.8823  -13.7860 C   0  0  0  0  0  0  0  0  0  0  0  0
 41 42  1  0  0  0
 42 40  1  0  0  0
 40  1  1  0  0  0
  1  2  2  0  0  0
  2  3  1  0  0  0
  3  4  2  0  0  0
  4  5  1  0  0  0
  5  6  2  0  0  0
  6 21  1  0  0  0
 21 22  3  0  0  0
  6  7  1  0  0  0
  7 23  1  0  0  0
 23 25  1  0  0  0
 25 26  2  0  0  0
 26 27  1  0  0  0
 27 28  2  0  0  0
 28 32  1  0  0  0
 32 33  1  0  0  0
 33 34  1  0  0  0
 34 35  2  0  0  0
 35 36  1  0  0  0
 36 37  2  0  0  0
 37 38  1  0  0  0
 38 39  2  0  0  0
 28 29  1  0  0  0
 29 30  1  0  0  0
 29 31  2  0  0  0
  7  8  2  0  0  0
  8  9  1  0  0  0
  9 10  2  0  0  0
 10 11  1  0  0  0
 11 12  1  0  0  0
 12 13  2  0  0  0
 12 15  1  0  0  0
 15 16  2  0  0  0
 16 17  1  0  0  0
 17 18  1  0  0  0
 18 19  1  0  0  0
 18 20  1  0  0  0
 10  1  1  0  0  0
  8  3  1  0  0  0
 31 25  1  0  0  0
 39 34  1  0  0  0
 23 24  1  0  0  0
 11 14  1  0  0  0
M  END
> <minimizedAffinity>
-6.09440

> <CNNscore>
0.1960421503

> <CNNaffinity>
6.6302156448

> <CNN_VS>
1.2998017073

> <CNNaffinity_variance>
0.2255783975

$$$$
[H]/C(C(=O)N([H])c1c(OC([H])([H])C([H])([H])[H])c([H])c2nc([H])c(C#N)c(N([H])c3c([H])c([H])c(OC([H])([H])c4nc([H])c([H])c([H])c4[H])c(Cl)c3[H])c2c1[H])=C(/[H])C([H])([H])N(C([H])([H])[H])C([H])([H])[H]


 42 45  0  0  0  0  0  0  0  0999 V2000
   -0.0427  -52.2001  -21.0724 C   0  0  0  0  0  0  0  0  0  0  0  0
   -0.5186  -52.9065  -22.1408 C   0  0  0  0  0  0  0  0  0  0  0  0
    0.2496  -52.9448  -23.2984 C   0  0  0  0  0  0  0  0  0  0  0  0
   -0.1925  -53.6316  -24.3647 N   0  0  0  0  0  0  0  0  0  0  0  0
    0.5495  -53.6699  -25.4862 C   0  0  0  0  0  0  0  0  0  0  0  0
    1.7659  -53.0336  -25.6161 C   0  0  0  0  0  0  0  0  0  0  0  0
    2.2369  -52.3207  -24.5258 C   0  0  0  0  0  0  0  0  0  0  0  0
    1.4560  -52.3000  -23.3934 C   0  0  0  0  0  0  0  0  0  0  0  0
    1.8932  -51.5976  -22.2822 C   0  0  0  0  0  0  0  0  0  0  0  0
    1.1984  -51.5067  -21.0972 C   0  0  0  0  0  0  0  0  0  0  0  0
    1.6055  -50.8078  -19.9525 N   0  0  0  0  0  0  0  0  0  0  0  0
    1.4928  -49.4521  -19.6880 C   0  0  0  0  0  0  0  0  0  0  0  0
    0.9898  -48.6301  -20.4699 O   0  0  0  0  0  0  0  0  0  0  0  0
    2.0624  -51.3975  -19.1829 H   0  0  0  0  0  0  0  0  0  0  0  0
    1.9886  -48.8881  -18.4012 C   0  0  0  0  0  0  0  0  0  0  0  0
    3.0734  -48.1402  -18.3308 C   0  0  0  0  0  0  0  0  0  0  0  0
    3.5656  -47.5802  -17.0529 C   0  0  0  0  0  0  0  0  0  0  0  0
    3.3675  -46.1437  -16.9782 N   0  0  0  0  0  0  0  0  0  0  0  0
    3.7992  -45.5485  -18.2153 C   0  0  0  0  0  0  0  0  0  0  0  0
    4.1405  -45.5694  -15.8939 C   0  0  0  0  0  0  0  0  0  0  0  0
    2.5277  -53.1060  -26.8482 C   0  0  0  0  0  0  0  0  0  0  0  0
    3.1338  -53.1445  -27.8360 N   0  0  0  0  0  0  0  0  0  0  0  0
    3.4759  -51.6673  -24.6449 N   0  0  0  0  0  0  0  0  0  0  0  0
    4.3851  -52.1566  -24.5456 H   0  0  0  0  0  0  0  0  0  0  0  0
    3.4854  -50.2706  -24.9139 C   0  0  0  0  0  0  0  0  0  0  0  0
    3.6558  -49.7777  -26.1975 C   0  0  0  0  0  0  0  0  0  0  0  0
    3.6649  -48.4151  -26.4579 C   0  0  0  0  0  0  0  0  0  0  0  0
    3.5037  -47.5197  -25.4384 C   0  0  0  0  0  0  0  0  0  0  0  0
    3.3327  -47.9815  -24.1551 C   0  0  0  0  0  0  0  0  0  0  0  0
    3.1288  -46.8131  -22.8699 Cl  0  0  0  0  0  0  0  0  0  0  0  0
    3.3247  -49.3208  -23.9056 C   0  0  0  0  0  0  0  0  0  0  0  0
    3.5073  -46.1539  -25.6606 O   0  0  0  0  0  0  0  0  0  0  0  0
    2.4226  -45.5775  -26.3773 C   0  0  0  0  0  0  0  0  0  0  0  0
    2.7696  -45.3790  -27.7963 C   0  0  0  0  0  0  0  0  0  0  0  0
    2.0261  -45.9264  -28.8343 C   0  0  0  0  0  0  0  0  0  0  0  0
    2.3631  -45.7319  -30.1556 C   0  0  0  0  0  0  0  0  0  0  0  0
    3.4800  -44.9645  -30.4228 C   0  0  0  0  0  0  0  0  0  0  0  0
    4.2179  -44.4215  -29.3979 C   0  0  0  0  0  0  0  0  0  0  0  0
    3.8385  -44.6468  -28.1266 N   0  0  0  0  0  0  0  0  0  0  0  0
   -0.7869  -52.1480  -19.9164 O   0  0  0  0  0  0  0  0  0  0  0  0
   -0.6866  -52.3166  -17.4796 C   0  0  0  0  0  0  0  0  0  0  0  0
   -0.7499  -52.9978  -18.8153 C   0  0  0  0  0  0  0  0  0  0  0  0
 41 42  1  0  0  0
 42 40  1  0  0  0
 40  1  1  0  0  0
  1  2  2  0  0  0
  2  3  1  0  0  0
  3  4  2  0  0  0
  4  5  1  0  0  0
  5  6  2  0  0  0
  6 21  1  0  0  0
 21 22  3  0  0  0
  6  7  1  0  0  0
  7 23  1  0  0  0
 23 25  1  0  0  0
 25 26  2  0  0  0
 26 27  1  0  0  0
 27 28  2  0  0  0
 28 32  1  0  0  0
 32 33  1  0  0  0
 33 34  1  0  0  0
 34 35  2  0  0  0
 35 36  1  0  0  0
 36 37  2  0  0  0
 37 38  1  0  0  0
 38 39  2  0  0  0
 28 29  1  0  0  0
 29 30  1  0  0  0
 29 31  2  0  0  0
  7  8  2  0  0  0
  8  9  1  0  0  0
  9 10  2  0  0  0
 10 11  1  0  0  0
 11 12  1  0  0  0
 12 13  2  0  0  0
 12 15  1  0  0  0
 15 16  2  0  0  0
 16 17  1  0  0  0
 17 18  1  0  0  0
 18 19  1  0  0  0
 18 20  1  0  0  0
 10  1  1  0  0  0
  8  3  1  0  0  0
 31 25  1  0  0  0
 39 34  1  0  0  0
 23 24  1  0  0  0
 11 14  1  0  0  0
M  END
> <minimizedAffinity>
-6.77996

> <CNNscore>
0.1943701357

> <CNNaffinity>
7.2470917702

> <CNN_VS>
1.4086182117

> <CNNaffinity_variance>
0.0784588084

$$$$
[H]/C(C(=O)N([H])c1c(OC([H])([H])C([H])([H])[H])c([H])c2nc([H])nc(N([H])c3c([H])c([H])c(F)c(Cl)c3[H])c2c1[H])=C(/[H])C([H])([H])N1C([H])([H])[C@]2([H])OC([H])([H])C([H])([H])O[C@]2([H])C1([H])[H]


 39 43  0  0  0  0  0  0  0  0999 V2000
   -0.2513  -52.5339  -19.6204 C   0  0  0  0  0  0  0  0  0  0  0  0
   -1.0028  -53.5703  -20.0784 C   0  0  0  0  0  0  0  0  0  0  0  0
   -0.9714  -53.8941  -21.4316 C   0  0  0  0  0  0  0  0  0  0  0  0
   -1.7161  -54.9084  -21.8471 N   0  0  0  0  0  0  0  0  0  0  0  0
   -1.7162  -55.2506  -23.1394 C   0  0  0  0  0  0  0  0  0  0  0  0
   -0.9617  -54.5538  -23.9669 N   0  0  0  0  0  0  0  0  0  0  0  0
   -0.1790  -53.5211  -23.6549 C   0  0  0  0  0  0  0  0  0  0  0  0
   -0.1729  -53.1567  -22.3033 C   0  0  0  0  0  0  0  0  0  0  0  0
    0.5723  -52.1194  -21.8108 C   0  0  0  0  0  0  0  0  0  0  0  0
    0.5686  -51.7702  -20.4868 C   0  0  0  0  0  0  0  0  0  0  0  0
    1.3061  -50.7048  -19.9371 N   0  0  0  0  0  0  0  0  0  0  0  0
    2.5708  -50.7777  -19.3803 C   0  0  0  0  0  0  0  0  0  0  0  0
    3.2473  -51.7954  -19.2717 O   0  0  0  0  0  0  0  0  0  0  0  0
    0.8449  -49.7281  -19.9458 H   0  0  0  0  0  0  0  0  0  0  0  0
    3.1981  -49.5258  -18.8577 C   0  0  0  0  0  0  0  0  0  0  0  0
    2.6320  -48.7811  -17.9499 C   0  0  0  0  0  0  0  0  0  0  0  0
    3.1600  -47.5343  -17.3688 C   0  0  0  0  0  0  0  0  0  0  0  0
    2.7413  -47.3381  -16.0353 N   0  0  0  0  0  0  0  0  0  0  0  0
    1.5877  -48.0713  -15.6404 C   0  0  0  0  0  0  0  0  0  0  0  0
    2.0736  -49.1590  -14.6893 C   0  0  0  0  0  0  0  0  0  0  0  0
    2.1803  -50.3839  -15.2588 O   0  0  0  0  0  0  0  0  0  0  0  0
    3.3205  -51.0983  -15.0827 C   0  0  0  0  0  0  0  0  0  0  0  0
    3.8910  -50.7724  -13.7019 C   0  0  0  0  0  0  0  0  0  0  0  0
    4.3223  -49.4343  -13.8176 O   0  0  0  0  0  0  0  0  0  0  0  0
    3.2996  -48.5722  -14.0653 C   0  0  0  0  0  0  0  0  0  0  0  0
    3.7723  -47.5225  -15.0411 C   0  0  0  0  0  0  0  0  0  0  0  0
    0.6067  -52.8336  -24.5807 N   0  0  0  0  0  0  0  0  0  0  0  0
    1.3860  -52.2068  -24.2131 H   0  0  0  0  0  0  0  0  0  0  0  0
    0.4870  -52.8651  -25.9973 C   0  0  0  0  0  0  0  0  0  0  0  0
    1.5115  -53.0035  -26.8794 C   0  0  0  0  0  0  0  0  0  0  0  0
    1.2455  -52.9931  -28.2482 C   0  0  0  0  0  0  0  0  0  0  0  0
   -0.0154  -52.8496  -28.7613 C   0  0  0  0  0  0  0  0  0  0  0  0
   -0.2410  -52.8449  -30.1095 F   0  0  0  0  0  0  0  0  0  0  0  0
   -1.0551  -52.7102  -27.8731 C   0  0  0  0  0  0  0  0  0  0  0  0
   -2.6748  -52.5291  -28.5209 Cl  0  0  0  0  0  0  0  0  0  0  0  0
   -0.7878  -52.7206  -26.5321 C   0  0  0  0  0  0  0  0  0  0  0  0
   -0.2500  -52.1751  -18.2835 O   0  0  0  0  0  0  0  0  0  0  0  0
   -1.5456  -51.5551  -16.3063 C   0  0  0  0  0  0  0  0  0  0  0  0
   -1.1609  -52.6007  -17.3168 C   0  0  0  0  0  0  0  0  0  0  0  0
 38 39  1  0  0  0
 39 37  1  0  0  0
 37  1  1  0  0  0
  1  2  2  0  0  0
  2  3  1  0  0  0
  3  4  2  0  0  0
  4  5  1  0  0  0
  5  6  2  0  0  0
  6  7  1  0  0  0
  7 27  1  0  0  0
 27 29  1  0  0  0
 29 30  2  0  0  0
 30 31  1  0  0  0
 31 32  2  0  0  0
 32 33  1  0  0  0
 32 34  1  0  0  0
 34 35  1  0  0  0
 34 36  2  0  0  0
  7  8  2  0  0  0
  8  9  1  0  0  0
  9 10  2  0  0  0
 10 11  1  0  0  0
 11 12  1  0  0  0
 12 13  2  0  0  0
 12 15  1  0  0  0
 15 16  2  0  0  0
 16 17  1  0  0  0
 17 18  1  0  0  0
 18 19  1  0  0  0
 19 20  1  0  0  0
 20 21  1  0  0  0
 21 22  1  0  0  0
 22 23  1  0  0  0
 23 24  1  0  0  0
 24 25  1  0  0  0
 25 26  1  0  0  0
 10  1  1  0  0  0
 26 18  1  0  0  0
  8  3  1  0  0  0
 25 20  1  0  0  0
 36 29  1  0  0  0
 27 28  1  0  0  0
 11 14  1  0  0  0
M  END
> <minimizedAffinity>
-9.07300

> <CNNscore>
0.9598830938

> <CNNaffinity>
7.6463761330

> <CNN_VS>
7.3396272659

> <CNNaffinity_variance>
0.0124004241

$$$$
[H]/C(C(=O)N([H])c1c(OC([H])([H])C([H])([H])[H])c([H])c2nc([H])nc(N([H])c3c([H])c([H])c(F)c(Cl)c3[H])c2c1[H])=C(/[H])C([H])([H])N1C([H])([H])[C@]2([H])OC([H])([H])C([H])([H])O[C@]2([H])C1([H])[H]


 39 43  0  0  0  0  0  0  0  0999 V2000
    0.5728  -51.9911  -19.5653 C   0  0  0  0  0  0  0  0  0  0  0  0
   -0.2095  -53.0651  -19.8538 C   0  0  0  0  0  0  0  0  0  0  0  0
   -0.3658  -53.4631  -21.1783 C   0  0  0  0  0  0  0  0  0  0  0  0
   -1.1358  -54.5125  -21.4269 N   0  0  0  0  0  0  0  0  0  0  0  0
   -1.3140  -54.9260  -22.6855 C   0  0  0  0  0  0  0  0  0  0  0  0
   -0.7061  -54.2626  -23.6497 N   0  0  0  0  0  0  0  0  0  0  0  0
    0.0861  -53.1997  -23.5099 C   0  0  0  0  0  0  0  0  0  0  0  0
    0.2782  -52.7606  -22.1946 C   0  0  0  0  0  0  0  0  0  0  0  0
    1.0592  -51.6840  -21.8712 C   0  0  0  0  0  0  0  0  0  0  0  0
    1.2381  -51.2618  -20.5810 C   0  0  0  0  0  0  0  0  0  0  0  0
    2.0190  -50.1539  -20.2015 N   0  0  0  0  0  0  0  0  0  0  0  0
    1.7096  -48.8198  -20.4001 C   0  0  0  0  0  0  0  0  0  0  0  0
    0.6997  -48.3938  -20.9511 O   0  0  0  0  0  0  0  0  0  0  0  0
    2.9568  -50.3568  -19.7055 H   0  0  0  0  0  0  0  0  0  0  0  0
    2.6663  -47.7808  -19.9112 C   0  0  0  0  0  0  0  0  0  0  0  0
    3.3625  -47.0301  -20.7181 C   0  0  0  0  0  0  0  0  0  0  0  0
    4.3286  -45.9824  -20.3438 C   0  0  0  0  0  0  0  0  0  0  0  0
    5.5513  -46.0995  -21.0389 N   0  0  0  0  0  0  0  0  0  0  0  0
    6.6298  -46.6529  -20.2940 C   0  0  0  0  0  0  0  0  0  0  0  0
    6.8717  -48.0481  -20.8583 C   0  0  0  0  0  0  0  0  0  0  0  0
    6.3497  -49.0468  -20.1060 O   0  0  0  0  0  0  0  0  0  0  0  0
    5.6029  -50.0071  -20.7073 C   0  0  0  0  0  0  0  0  0  0  0  0
    6.1405  -50.2276  -22.1217 C   0  0  0  0  0  0  0  0  0  0  0  0
    5.8080  -49.0380  -22.8029 O   0  0  0  0  0  0  0  0  0  0  0  0
    6.4270  -47.9440  -22.2826 C   0  0  0  0  0  0  0  0  0  0  0  0
    5.4655  -46.7811  -22.3092 C   0  0  0  0  0  0  0  0  0  0  0  0
    0.7109  -52.5504  -24.5752 N   0  0  0  0  0  0  0  0  0  0  0  0
    1.4885  -51.8559  -24.3555 H   0  0  0  0  0  0  0  0  0  0  0  0
    0.4241  -52.7039  -25.9595 C   0  0  0  0  0  0  0  0  0  0  0  0
    1.3308  -52.9761  -26.9345 C   0  0  0  0  0  0  0  0  0  0  0  0
    0.9062  -53.0758  -28.2590 C   0  0  0  0  0  0  0  0  0  0  0  0
   -0.3991  -52.9126  -28.6374 C   0  0  0  0  0  0  0  0  0  0  0  0
   -0.7814  -53.0182  -29.9456 F   0  0  0  0  0  0  0  0  0  0  0  0
   -1.3202  -52.6380  -27.6548 C   0  0  0  0  0  0  0  0  0  0  0  0
   -2.9958  -52.4306  -28.1294 Cl  0  0  0  0  0  0  0  0  0  0  0  0
   -0.8976  -52.5409  -26.3579 C   0  0  0  0  0  0  0  0  0  0  0  0
    0.7582  -51.5585  -18.2636 O   0  0  0  0  0  0  0  0  0  0  0  0
    0.0558  -49.7398  -16.7900 C   0  0  0  0  0  0  0  0  0  0  0  0
   -0.2331  -51.0811  -17.4065 C   0  0  0  0  0  0  0  0  0  0  0  0
 38 39  1  0  0  0
 39 37  1  0  0  0
 37  1  1  0  0  0
  1  2  2  0  0  0
  2  3  1  0  0  0
  3  4  2  0  0  0
  4  5  1  0  0  0
  5  6  2  0  0  0
  6  7  1  0  0  0
  7 27  1  0  0  0
 27 29  1  0  0  0
 29 30  2  0  0  0
 30 31  1  0  0  0
 31 32  2  0  0  0
 32 33  1  0  0  0
 32 34  1  0  0  0
 34 35  1  0  0  0
 34 36  2  0  0  0
  7  8  2  0  0  0
  8  9  1  0  0  0
  9 10  2  0  0  0
 10 11  1  0  0  0
 11 12  1  0  0  0
 12 13  2  0  0  0
 12 15  1  0  0  0
 15 16  2  0  0  0
 16 17  1  0  0  0
 17 18  1  0  0  0
 18 19  1  0  0  0
 19 20  1  0  0  0
 20 21  1  0  0  0
 21 22  1  0  0  0
 22 23  1  0  0  0
 23 24  1  0  0  0
 24 25  1  0  0  0
 25 26  1  0  0  0
 10  1  1  0  0  0
 26 18  1  0  0  0
  8  3  1  0  0  0
 25 20  1  0  0  0
 36 29  1  0  0  0
 27 28  1  0  0  0
 11 14  1  0  0  0
M  END
> <minimizedAffinity>
-8.57903

> <CNNscore>
0.8865795135

> <CNNaffinity>
7.7464761734

> <CNN_VS>
6.8678669930

> <CNNaffinity_variance>
0.0633320063

$$$$
[H]/C(C(=O)N([H])c1c(OC([H])([H])C([H])([H])[H])c([H])c2nc([H])nc(N([H])c3c([H])c([H])c(F)c(Cl)c3[H])c2c1[H])=C(/[H])C([H])([H])N1C([H])([H])[C@]2([H])OC([H])([H])C([H])([H])O[C@]2([H])C1([H])[H]


 39 43  0  0  0  0  0  0  0  0999 V2000
   -0.0201  -51.9364  -19.0565 C   0  0  0  0  0  0  0  0  0  0  0  0
   -0.5500  -53.1227  -19.4571 C   0  0  0  0  0  0  0  0  0  0  0  0
   -0.6120  -53.4220  -20.8149 C   0  0  0  0  0  0  0  0  0  0  0  0
   -1.1354  -54.5854  -21.1733 N   0  0  0  0  0  0  0  0  0  0  0  0
   -1.2156  -54.9104  -22.4675 C   0  0  0  0  0  0  0  0  0  0  0  0
   -0.7627  -54.0461  -23.3547 N   0  0  0  0  0  0  0  0  0  0  0  0
   -0.2203  -52.8548  -23.1029 C   0  0  0  0  0  0  0  0  0  0  0  0
   -0.1322  -52.5071  -21.7497 C   0  0  0  0  0  0  0  0  0  0  0  0
    0.3958  -51.3217  -21.3142 C   0  0  0  0  0  0  0  0  0  0  0  0
    0.4747  -50.9908  -19.9878 C   0  0  0  0  0  0  0  0  0  0  0  0
    0.9956  -49.7802  -19.4935 N   0  0  0  0  0  0  0  0  0  0  0  0
    2.3259  -49.4983  -19.2371 C   0  0  0  0  0  0  0  0  0  0  0  0
    3.2648  -50.2721  -19.3953 O   0  0  0  0  0  0  0  0  0  0  0  0
    0.2925  -48.9861  -19.2900 H   0  0  0  0  0  0  0  0  0  0  0  0
    2.6860  -48.1415  -18.7239 C   0  0  0  0  0  0  0  0  0  0  0  0
    3.4850  -47.9622  -17.7097 C   0  0  0  0  0  0  0  0  0  0  0  0
    3.9029  -46.6757  -17.1255 C   0  0  0  0  0  0  0  0  0  0  0  0
    3.8191  -46.6675  -15.7167 N   0  0  0  0  0  0  0  0  0  0  0  0
    2.6884  -45.9963  -15.1733 C   0  0  0  0  0  0  0  0  0  0  0  0
    1.7709  -47.0793  -14.6173 C   0  0  0  0  0  0  0  0  0  0  0  0
    0.7209  -47.3794  -15.4193 O   0  0  0  0  0  0  0  0  0  0  0  0
    0.4528  -48.6799  -15.6994 C   0  0  0  0  0  0  0  0  0  0  0  0
    0.8417  -49.5289  -14.4885 C   0  0  0  0  0  0  0  0  0  0  0  0
    2.2499  -49.4536  -14.4565 O   0  0  0  0  0  0  0  0  0  0  0  0
    2.7038  -48.1883  -14.2474 C   0  0  0  0  0  0  0  0  0  0  0  0
    3.9333  -47.9652  -15.0935 C   0  0  0  0  0  0  0  0  0  0  0  0
    0.2525  -51.9913  -24.0917 N   0  0  0  0  0  0  0  0  0  0  0  0
    0.6595  -51.0542  -23.7894 H   0  0  0  0  0  0  0  0  0  0  0  0
    0.2527  -52.2147  -25.4961 C   0  0  0  0  0  0  0  0  0  0  0  0
    1.3540  -52.3745  -26.2761 C   0  0  0  0  0  0  0  0  0  0  0  0
    1.2015  -52.5631  -27.6493 C   0  0  0  0  0  0  0  0  0  0  0  0
   -0.0202  -52.5982  -28.2656 C   0  0  0  0  0  0  0  0  0  0  0  0
   -0.1338  -52.7863  -29.6149 F   0  0  0  0  0  0  0  0  0  0  0  0
   -1.1373  -52.4380  -27.4808 C   0  0  0  0  0  0  0  0  0  0  0  0
   -2.7073  -52.4848  -28.2609 Cl  0  0  0  0  0  0  0  0  0  0  0  0
   -0.9812  -52.2527  -26.1350 C   0  0  0  0  0  0  0  0  0  0  0  0
    0.0629  -51.5951  -17.7176 O   0  0  0  0  0  0  0  0  0  0  0  0
   -1.8757  -51.5924  -16.2295 C   0  0  0  0  0  0  0  0  0  0  0  0
   -0.5875  -52.2364  -16.6635 C   0  0  0  0  0  0  0  0  0  0  0  0
 38 39  1  0  0  0
 39 37  1  0  0  0
 37  1  1  0  0  0
  1  2  2  0  0  0
  2  3  1  0  0  0
  3  4  2  0  0  0
  4  5  1  0  0  0
  5  6  2  0  0  0
  6  7  1  0  0  0
  7 27  1  0  0  0
 27 29  1  0  0  0
 29 30  2  0  0  0
 30 31  1  0  0  0
 31 32  2  0  0  0
 32 33  1  0  0  0
 32 34  1  0  0  0
 34 35  1  0  0  0
 34 36  2  0  0  0
  7  8  2  0  0  0
  8  9  1  0  0  0
  9 10  2  0  0  0
 10 11  1  0  0  0
 11 12  1  0  0  0
 12 13  2  0  0  0
 12 15  1  0  0  0
 15 16  2  0  0  0
 16 17  1  0  0  0
 17 18  1  0  0  0
 18 19  1  0  0  0
 19 20  1  0  0  0
 20 21  1  0  0  0
 21 22  1  0  0  0
 22 23  1  0  0  0
 23 24  1  0  0  0
 24 25  1  0  0  0
 25 26  1  0  0  0
 10  1  1  0  0  0
 26 18  1  0  0  0
  8  3  1  0  0  0
 25 20  1  0  0  0
 36 29  1  0  0  0
 27 28  1  0  0  0
 11 14  1  0  0  0
M  END
> <minimizedAffinity>
-8.17234

> <CNNscore>
0.8494730592

> <CNNaffinity>
7.4524626732

> <CNN_VS>
6.3306660652

> <CNNaffinity_variance>
0.1133012921

$$$$
[H]/C(C(=O)N([H])c1c(OC([H])([H])C([H])([H])[H])c([H])c2nc([H])nc(N([H])c3c([H])c([H])c(F)c(Cl)c3[H])c2c1[H])=C(/[H])C([H])([H])N1C([H])([H])[C@]2([H])OC([H])([H])C([H])([H])O[C@]2([H])C1([H])[H]


 39 43  0  0  0  0  0  0  0  0999 V2000
    0.1071  -51.7242  -19.6763 C   0  0  0  0  0  0  0  0  0  0  0  0
   -0.6616  -52.8140  -19.9411 C   0  0  0  0  0  0  0  0  0  0  0  0
   -0.6603  -53.3588  -21.2219 C   0  0  0  0  0  0  0  0  0  0  0  0
   -1.4211  -54.4198  -21.4485 N   0  0  0  0  0  0  0  0  0  0  0  0
   -1.4502  -54.9721  -22.6655 C   0  0  0  0  0  0  0  0  0  0  0  0
   -0.7074  -54.4311  -23.6116 N   0  0  0  0  0  0  0  0  0  0  0  0
    0.0894  -53.3695  -23.4908 C   0  0  0  0  0  0  0  0  0  0  0  0
    0.1259  -52.7854  -22.2190 C   0  0  0  0  0  0  0  0  0  0  0  0
    0.8889  -51.6889  -21.9203 C   0  0  0  0  0  0  0  0  0  0  0  0
    0.9150  -51.1243  -20.6731 C   0  0  0  0  0  0  0  0  0  0  0  0
    1.6717  -49.9904  -20.3226 N   0  0  0  0  0  0  0  0  0  0  0  0
    3.0206  -49.9617  -20.0153 C   0  0  0  0  0  0  0  0  0  0  0  0
    3.7703  -50.9326  -19.9930 O   0  0  0  0  0  0  0  0  0  0  0  0
    1.1545  -49.0430  -20.2862 H   0  0  0  0  0  0  0  0  0  0  0  0
    3.6521  -48.6496  -19.6785 C   0  0  0  0  0  0  0  0  0  0  0  0
    2.9834  -47.6607  -19.1550 C   0  0  0  0  0  0  0  0  0  0  0  0
    3.5049  -46.3326  -18.7871 C   0  0  0  0  0  0  0  0  0  0  0  0
    3.4692  -46.1031  -17.3950 N   0  0  0  0  0  0  0  0  0  0  0  0
    4.3050  -46.9477  -16.6124 C   0  0  0  0  0  0  0  0  0  0  0  0
    5.4527  -46.0762  -16.1150 C   0  0  0  0  0  0  0  0  0  0  0  0
    6.6054  -46.2307  -16.8101 O   0  0  0  0  0  0  0  0  0  0  0  0
    7.2657  -45.1297  -17.2496 C   0  0  0  0  0  0  0  0  0  0  0  0
    7.0477  -43.9978  -16.2448 C   0  0  0  0  0  0  0  0  0  0  0  0
    5.6818  -43.6747  -16.3851 O   0  0  0  0  0  0  0  0  0  0  0  0
    4.8607  -44.7045  -16.0446 C   0  0  0  0  0  0  0  0  0  0  0  0
    3.6920  -44.7323  -16.9990 C   0  0  0  0  0  0  0  0  0  0  0  0
    0.8613  -52.8543  -24.5328 N   0  0  0  0  0  0  0  0  0  0  0  0
    1.7850  -52.3821  -24.2896 H   0  0  0  0  0  0  0  0  0  0  0  0
    0.5533  -52.8792  -25.9208 C   0  0  0  0  0  0  0  0  0  0  0  0
    1.4448  -53.0608  -26.9304 C   0  0  0  0  0  0  0  0  0  0  0  0
    1.0001  -53.0375  -28.2518 C   0  0  0  0  0  0  0  0  0  0  0  0
   -0.3104  -52.8393  -28.5937 C   0  0  0  0  0  0  0  0  0  0  0  0
   -0.7126  -52.8235  -29.9001 F   0  0  0  0  0  0  0  0  0  0  0  0
   -1.2161  -52.6561  -27.5761 C   0  0  0  0  0  0  0  0  0  0  0  0
   -2.8982  -52.4048  -28.0041 Cl  0  0  0  0  0  0  0  0  0  0  0  0
   -0.7738  -52.6793  -26.2824 C   0  0  0  0  0  0  0  0  0  0  0  0
    0.1384  -51.1480  -18.4181 O   0  0  0  0  0  0  0  0  0  0  0  0
    1.5398  -50.4414  -16.5448 C   0  0  0  0  0  0  0  0  0  0  0  0
    0.9284  -51.5590  -17.3448 C   0  0  0  0  0  0  0  0  0  0  0  0
 38 39  1  0  0  0
 39 37  1  0  0  0
 37  1  1  0  0  0
  1  2  2  0  0  0
  2  3  1  0  0  0
  3  4  2  0  0  0
  4  5  1  0  0  0
  5  6  2  0  0  0
  6  7  1  0  0  0
  7 27  1  0  0  0
 27 29  1  0  0  0
 29 30  2  0  0  0
 30 31  1  0  0  0
 31 32  2  0  0  0
 32 33  1  0  0  0
 32 34  1  0  0  0
 34 35  1  0  0  0
 34 36  2  0  0  0
  7  8  2  0  0  0
  8  9  1  0  0  0
  9 10  2  0  0  0
 10 11  1  0  0  0
 11 12  1  0  0  0
 12 13  2  0  0  0
 12 15  1  0  0  0
 15 16  2  0  0  0
 16 17  1  0  0  0
 17 18  1  0  0  0
 18 19  1  0  0  0
 19 20  1  0  0  0
 20 21  1  0  0  0
 21 22  1  0  0  0
 22 23  1  0  0  0
 23 24  1  0  0  0
 24 25  1  0  0  0
 25 26  1  0  0  0
 10  1  1  0  0  0
 26 18  1  0  0  0
  8  3  1  0  0  0
 25 20  1  0  0  0
 36 29  1  0  0  0
 27 28  1  0  0  0
 11 14  1  0  0  0
M  END
> <minimizedAffinity>
-7.50306

> <CNNscore>
0.7698003650

> <CNNaffinity>
7.2896299362

> <CNN_VS>
5.6115598679

> <CNNaffinity_variance>
0.2618068159

$$$$
[H]/C(C(=O)N([H])c1c(OC([H])([H])C([H])([H])[H])c([H])c2nc([H])nc(N([H])c3c([H])c([H])c(F)c(Cl)c3[H])c2c1[H])=C(/[H])C([H])([H])N1C([H])([H])[C@]2([H])OC([H])([H])C([H])([H])O[C@]2([H])C1([H])[H]


 39 43  0  0  0  0  0  0  0  0999 V2000
   -0.2205  -51.6721  -19.6194 C   0  0  0  0  0  0  0  0  0  0  0  0
   -0.7702  -52.8870  -19.8849 C   0  0  0  0  0  0  0  0  0  0  0  0
   -0.7881  -53.3598  -21.1938 C   0  0  0  0  0  0  0  0  0  0  0  0
   -1.3323  -54.5466  -21.4203 N   0  0  0  0  0  0  0  0  0  0  0  0
   -1.3716  -55.0362  -22.6636 C   0  0  0  0  0  0  0  0  0  0  0  0
   -0.8582  -54.3070  -23.6353 N   0  0  0  0  0  0  0  0  0  0  0  0
   -0.2900  -53.1071  -23.5172 C   0  0  0  0  0  0  0  0  0  0  0  0
   -0.2444  -52.5875  -22.2181 C   0  0  0  0  0  0  0  0  0  0  0  0
    0.3020  -51.3689  -21.9178 C   0  0  0  0  0  0  0  0  0  0  0  0
    0.3390  -50.8694  -20.6434 C   0  0  0  0  0  0  0  0  0  0  0  0
    0.8768  -49.6179  -20.2886 N   0  0  0  0  0  0  0  0  0  0  0  0
    2.2166  -49.3116  -20.1279 C   0  0  0  0  0  0  0  0  0  0  0  0
    3.1511  -50.0949  -20.2635 O   0  0  0  0  0  0  0  0  0  0  0  0
    0.1800  -48.8098  -20.1219 H   0  0  0  0  0  0  0  0  0  0  0  0
    2.5938  -47.9131  -19.7591 C   0  0  0  0  0  0  0  0  0  0  0  0
    3.6423  -47.6346  -19.0365 C   0  0  0  0  0  0  0  0  0  0  0  0
    4.1021  -46.2989  -18.6172 C   0  0  0  0  0  0  0  0  0  0  0  0
    5.5021  -46.2353  -18.4506 N   0  0  0  0  0  0  0  0  0  0  0  0
    6.2116  -47.4289  -18.7610 C   0  0  0  0  0  0  0  0  0  0  0  0
    6.9620  -47.1581  -20.0600 C   0  0  0  0  0  0  0  0  0  0  0  0
    6.3709  -47.6843  -21.1598 O   0  0  0  0  0  0  0  0  0  0  0  0
    6.1921  -46.9012  -22.2535 C   0  0  0  0  0  0  0  0  0  0  0  0
    7.3460  -45.9007  -22.3298 C   0  0  0  0  0  0  0  0  0  0  0  0
    7.1249  -45.0399  -21.2344 O   0  0  0  0  0  0  0  0  0  0  0  0
    7.2023  -45.6820  -20.0376 C   0  0  0  0  0  0  0  0  0  0  0  0
    6.1437  -45.1263  -19.1167 C   0  0  0  0  0  0  0  0  0  0  0  0
    0.2473  -52.3925  -24.5886 N   0  0  0  0  0  0  0  0  0  0  0  0
    0.9598  -51.6288  -24.3779 H   0  0  0  0  0  0  0  0  0  0  0  0
   -0.0533  -52.5615  -25.9681 C   0  0  0  0  0  0  0  0  0  0  0  0
   -1.2139  -52.2055  -26.5790 C   0  0  0  0  0  0  0  0  0  0  0  0
   -1.3779  -52.4551  -27.9410 C   0  0  0  0  0  0  0  0  0  0  0  0
   -0.4146  -53.0491  -28.7111 C   0  0  0  0  0  0  0  0  0  0  0  0
   -0.6079  -53.2782  -30.0448 F   0  0  0  0  0  0  0  0  0  0  0  0
    0.7615  -53.4103  -28.0981 C   0  0  0  0  0  0  0  0  0  0  0  0
    2.0030  -54.1690  -29.0771 Cl  0  0  0  0  0  0  0  0  0  0  0  0
    0.9160  -53.1635  -26.7620 C   0  0  0  0  0  0  0  0  0  0  0  0
   -0.1797  -51.1607  -18.3337 O   0  0  0  0  0  0  0  0  0  0  0  0
    1.3006  -50.2311  -16.6258 C   0  0  0  0  0  0  0  0  0  0  0  0
    0.7906  -51.4347  -17.3700 C   0  0  0  0  0  0  0  0  0  0  0  0
 38 39  1  0  0  0
 39 37  1  0  0  0
 37  1  1  0  0  0
  1  2  2  0  0  0
  2  3  1  0  0  0
  3  4  2  0  0  0
  4  5  1  0  0  0
  5  6  2  0  0  0
  6  7  1  0  0  0
  7 27  1  0  0  0
 27 29  1  0  0  0
 29 30  2  0  0  0
 30 31  1  0  0  0
 31 32  2  0  0  0
 32 33  1  0  0  0
 32 34  1  0  0  0
 34 35  1  0  0  0
 34 36  2  0  0  0
  7  8  2  0  0  0
  8  9  1  0  0  0
  9 10  2  0  0  0
 10 11  1  0  0  0
 11 12  1  0  0  0
 12 13  2  0  0  0
 12 15  1  0  0  0
 15 16  2  0  0  0
 16 17  1  0  0  0
 17 18  1  0  0  0
 18 19  1  0  0  0
 19 20  1  0  0  0
 20 21  1  0  0  0
 21 22  1  0  0  0
 22 23  1  0  0  0
 23 24  1  0  0  0
 24 25  1  0  0  0
 25 26  1  0  0  0
 10  1  1  0  0  0
 26 18  1  0  0  0
  8  3  1  0  0  0
 25 20  1  0  0  0
 36 29  1  0  0  0
 27 28  1  0  0  0
 11 14  1  0  0  0
M  END
> <minimizedAffinity>
-7.34096

> <CNNscore>
0.7185103893

> <CNNaffinity>
7.3610672951

> <CNN_VS>
5.2890033722

> <CNNaffinity_variance>
0.2196340114

$$$$
[H]/C(C(=O)N([H])c1c(OC([H])([H])C([H])([H])[H])c([H])c2nc([H])nc(N([H])c3c([H])c([H])c(F)c(Cl)c3[H])c2c1[H])=C(/[H])C([H])([H])N1C([H])([H])[C@]2([H])OC([H])([H])C([H])([H])O[C@]2([H])C1([H])[H]


 39 43  0  0  0  0  0  0  0  0999 V2000
    1.3681  -51.3317  -23.4903 C   0  0  0  0  0  0  0  0  0  0  0  0
    0.4257  -52.2869  -23.7091 C   0  0  0  0  0  0  0  0  0  0  0  0
   -0.1040  -52.9871  -22.6292 C   0  0  0  0  0  0  0  0  0  0  0  0
   -1.0197  -53.9128  -22.8754 N   0  0  0  0  0  0  0  0  0  0  0  0
   -1.5520  -54.6095  -21.8663 C   0  0  0  0  0  0  0  0  0  0  0  0
   -1.1389  -54.3449  -20.6421 N   0  0  0  0  0  0  0  0  0  0  0  0
   -0.2280  -53.4392  -20.2860 C   0  0  0  0  0  0  0  0  0  0  0  0
    0.3340  -52.7048  -21.3370 C   0  0  0  0  0  0  0  0  0  0  0  0
    1.2838  -51.7370  -21.1501 C   0  0  0  0  0  0  0  0  0  0  0  0
    1.8286  -51.0264  -22.1861 C   0  0  0  0  0  0  0  0  0  0  0  0
    2.8161  -50.0334  -22.0447 N   0  0  0  0  0  0  0  0  0  0  0  0
    2.6031  -48.6808  -21.8453 C   0  0  0  0  0  0  0  0  0  0  0  0
    1.5083  -48.1324  -21.7685 O   0  0  0  0  0  0  0  0  0  0  0  0
    3.8472  -50.3507  -22.0973 H   0  0  0  0  0  0  0  0  0  0  0  0
    3.7880  -47.7807  -21.7047 C   0  0  0  0  0  0  0  0  0  0  0  0
    4.5940  -47.8333  -20.6816 C   0  0  0  0  0  0  0  0  0  0  0  0
    5.7838  -46.9970  -20.4450 C   0  0  0  0  0  0  0  0  0  0  0  0
    6.9271  -47.7597  -20.1241 N   0  0  0  0  0  0  0  0  0  0  0  0
    6.6788  -49.1102  -19.7515 C   0  0  0  0  0  0  0  0  0  0  0  0
    7.1721  -49.9733  -20.9071 C   0  0  0  0  0  0  0  0  0  0  0  0
    6.1865  -50.4238  -21.7205 O   0  0  0  0  0  0  0  0  0  0  0  0
    6.3216  -50.2846  -23.0635 C   0  0  0  0  0  0  0  0  0  0  0  0
    7.8051  -50.3946  -23.4176 C   0  0  0  0  0  0  0  0  0  0  0  0
    8.3730  -49.2214  -22.8782 O   0  0  0  0  0  0  0  0  0  0  0  0
    8.2665  -49.1611  -21.5234 C   0  0  0  0  0  0  0  0  0  0  0  0
    7.9724  -47.7368  -21.1203 C   0  0  0  0  0  0  0  0  0  0  0  0
    0.1553  -53.1997  -18.9659 N   0  0  0  0  0  0  0  0  0  0  0  0
    1.0930  -53.5834  -18.6362 H   0  0  0  0  0  0  0  0  0  0  0  0
   -0.5776  -52.4886  -17.9763 C   0  0  0  0  0  0  0  0  0  0  0  0
   -0.1741  -51.3513  -17.3514 C   0  0  0  0  0  0  0  0  0  0  0  0
   -0.9909  -50.7747  -16.3795 C   0  0  0  0  0  0  0  0  0  0  0  0
   -2.2006  -51.3013  -16.0146 C   0  0  0  0  0  0  0  0  0  0  0  0
   -2.9773  -50.7094  -15.0581 F   0  0  0  0  0  0  0  0  0  0  0  0
   -2.6137  -52.4511  -16.6444 C   0  0  0  0  0  0  0  0  0  0  0  0
   -4.1638  -53.1315  -16.1862 Cl  0  0  0  0  0  0  0  0  0  0  0  0
   -1.8079  -53.0121  -17.5962 C   0  0  0  0  0  0  0  0  0  0  0  0
    1.9234  -50.6094  -24.5325 O   0  0  0  0  0  0  0  0  0  0  0  0
    3.7713  -52.0655  -25.1939 C   0  0  0  0  0  0  0  0  0  0  0  0
    2.6614  -51.1324  -25.5941 C   0  0  0  0  0  0  0  0  0  0  0  0
 38 39  1  0  0  0
 39 37  1  0  0  0
 37  1  1  0  0  0
  1  2  2  0  0  0
  2  3  1  0  0  0
  3  4  2  0  0  0
  4  5  1  0  0  0
  5  6  2  0  0  0
  6  7  1  0  0  0
  7 27  1  0  0  0
 27 29  1  0  0  0
 29 30  2  0  0  0
 30 31  1  0  0  0
 31 32  2  0  0  0
 32 33  1  0  0  0
 32 34  1  0  0  0
 34 35  1  0  0  0
 34 36  2  0  0  0
  7  8  2  0  0  0
  8  9  1  0  0  0
  9 10  2  0  0  0
 10 11  1  0  0  0
 11 12  1  0  0  0
 12 13  2  0  0  0
 12 15  1  0  0  0
 15 16  2  0  0  0
 16 17  1  0  0  0
 17 18  1  0  0  0
 18 19  1  0  0  0
 19 20  1  0  0  0
 20 21  1  0  0  0
 21 22  1  0  0  0
 22 23  1  0  0  0
 23 24  1  0  0  0
 24 25  1  0  0  0
 25 26  1  0  0  0
 10  1  1  0  0  0
 26 18  1  0  0  0
  8  3  1  0  0  0
 25 20  1  0  0  0
 36 29  1  0  0  0
 27 28  1  0  0  0
 11 14  1  0  0  0
M  END
> <minimizedAffinity>
-7.41650

> <CNNscore>
0.5946183801

> <CNNaffinity>
7.1985640526

> <CNN_VS>
4.2803983688

> <CNNaffinity_variance>
0.0989403054

$$$$
[H]/C(C(=O)N([H])c1c(OC([H])([H])C([H])([H])[H])c([H])c2nc([H])nc(N([H])c3c([H])c([H])c(F)c(Cl)c3[H])c2c1[H])=C(/[H])C([H])([H])N1C([H])([H])[C@]2([H])OC([H])([H])C([H])([H])O[C@]2([H])C1([H])[H]


 39 43  0  0  0  0  0  0  0  0999 V2000
    1.5301  -51.2189  -23.2587 C   0  0  0  0  0  0  0  0  0  0  0  0
    0.5897  -52.1273  -23.6316 C   0  0  0  0  0  0  0  0  0  0  0  0
   -0.0172  -52.9221  -22.6636 C   0  0  0  0  0  0  0  0  0  0  0  0
   -0.9287  -53.7989  -23.0590 N   0  0  0  0  0  0  0  0  0  0  0  0
   -1.5337  -54.5830  -22.1612 C   0  0  0  0  0  0  0  0  0  0  0  0
   -1.1951  -54.4523  -20.8933 N   0  0  0  0  0  0  0  0  0  0  0  0
   -0.2957  -53.6064  -20.3911 C   0  0  0  0  0  0  0  0  0  0  0  0
    0.3422  -52.7812  -21.3249 C   0  0  0  0  0  0  0  0  0  0  0  0
    1.2922  -51.8573  -20.9819 C   0  0  0  0  0  0  0  0  0  0  0  0
    1.9115  -51.0569  -21.9043 C   0  0  0  0  0  0  0  0  0  0  0  0
    2.9023  -50.1040  -21.6016 N   0  0  0  0  0  0  0  0  0  0  0  0
    4.2576  -50.3415  -21.4547 C   0  0  0  0  0  0  0  0  0  0  0  0
    4.8083  -51.4329  -21.5587 O   0  0  0  0  0  0  0  0  0  0  0  0
    2.5805  -49.0818  -21.4677 H   0  0  0  0  0  0  0  0  0  0  0  0
    5.1584  -49.1900  -21.1439 C   0  0  0  0  0  0  0  0  0  0  0  0
    5.1637  -48.0916  -21.8458 C   0  0  0  0  0  0  0  0  0  0  0  0
    6.0067  -46.9029  -21.6277 C   0  0  0  0  0  0  0  0  0  0  0  0
    5.2631  -45.7033  -21.6310 N   0  0  0  0  0  0  0  0  0  0  0  0
    5.7266  -44.6968  -22.5235 C   0  0  0  0  0  0  0  0  0  0  0  0
    4.7074  -44.6219  -23.6546 C   0  0  0  0  0  0  0  0  0  0  0  0
    5.0917  -45.2572  -24.7879 O   0  0  0  0  0  0  0  0  0  0  0  0
    4.2289  -46.1128  -25.3919 C   0  0  0  0  0  0  0  0  0  0  0  0
    2.8037  -45.6065  -25.1669 C   0  0  0  0  0  0  0  0  0  0  0  0
    2.5874  -45.7971  -23.7860 O   0  0  0  0  0  0  0  0  0  0  0  0
    3.4257  -45.0528  -23.0153 C   0  0  0  0  0  0  0  0  0  0  0  0
    3.8407  -45.8703  -21.8166 C   0  0  0  0  0  0  0  0  0  0  0  0
    0.0068  -53.5098  -19.0324 N   0  0  0  0  0  0  0  0  0  0  0  0
    0.8122  -54.0950  -18.6528 H   0  0  0  0  0  0  0  0  0  0  0  0
   -0.6521  -52.7048  -18.0629 C   0  0  0  0  0  0  0  0  0  0  0  0
   -0.1661  -51.5592  -17.5167 C   0  0  0  0  0  0  0  0  0  0  0  0
   -0.9167  -50.8846  -16.5546 C   0  0  0  0  0  0  0  0  0  0  0  0
   -2.1403  -51.3210  -16.1231 C   0  0  0  0  0  0  0  0  0  0  0  0
   -2.8506  -50.6342  -15.1784 F   0  0  0  0  0  0  0  0  0  0  0  0
   -2.6367  -52.4788  -16.6732 C   0  0  0  0  0  0  0  0  0  0  0  0
   -4.2052  -53.0442  -16.1292 Cl  0  0  0  0  0  0  0  0  0  0  0  0
   -1.8956  -53.1361  -17.6157 C   0  0  0  0  0  0  0  0  0  0  0  0
    2.1605  -50.4066  -24.1854 O   0  0  0  0  0  0  0  0  0  0  0  0
    4.3735  -49.9289  -25.1057 C   0  0  0  0  0  0  0  0  0  0  0  0
    3.1480  -50.8010  -25.0879 C   0  0  0  0  0  0  0  0  0  0  0  0
 38 39  1  0  0  0
 39 37  1  0  0  0
 37  1  1  0  0  0
  1  2  2  0  0  0
  2  3  1  0  0  0
  3  4  2  0  0  0
  4  5  1  0  0  0
  5  6  2  0  0  0
  6  7  1  0  0  0
  7 27  1  0  0  0
 27 29  1  0  0  0
 29 30  2  0  0  0
 30 31  1  0  0  0
 31 32  2  0  0  0
 32 33  1  0  0  0
 32 34  1  0  0  0
 34 35  1  0  0  0
 34 36  2  0  0  0
  7  8  2  0  0  0
  8  9  1  0  0  0
  9 10  2  0  0  0
 10 11  1  0  0  0
 11 12  1  0  0  0
 12 13  2  0  0  0
 12 15  1  0  0  0
 15 16  2  0  0  0
 16 17  1  0  0  0
 17 18  1  0  0  0
 18 19  1  0  0  0
 19 20  1  0  0  0
 20 21  1  0  0  0
 21 22  1  0  0  0
 22 23  1  0  0  0
 23 24  1  0  0  0
 24 25  1  0  0  0
 25 26  1  0  0  0
 10  1  1  0  0  0
 26 18  1  0  0  0
  8  3  1  0  0  0
 25 20  1  0  0  0
 36 29  1  0  0  0
 27 28  1  0  0  0
 11 14  1  0  0  0
M  END
> <minimizedAffinity>
-7.11439

> <CNNscore>
0.5706245303

> <CNNaffinity>
7.1488289833

> <CNN_VS>
4.0792970657

> <CNNaffinity_variance>
0.1797657013

$$$$
[H]/C(C(=O)N([H])c1c(OC([H])([H])C([H])([H])[H])c([H])c2nc([H])nc(N([H])c3c([H])c([H])c(F)c(Cl)c3[H])c2c1[H])=C(/[H])C([H])([H])N1C([H])([H])[C@]2([H])OC([H])([H])C([H])([H])O[C@]2([H])C1([H])[H]


 39 43  0  0  0  0  0  0  0  0999 V2000
    1.7472  -52.0101  -19.9065 C   0  0  0  0  0  0  0  0  0  0  0  0
    0.8321  -53.0016  -20.0743 C   0  0  0  0  0  0  0  0  0  0  0  0
    0.3876  -53.3143  -21.3556 C   0  0  0  0  0  0  0  0  0  0  0  0
   -0.5055  -54.2845  -21.4859 N   0  0  0  0  0  0  0  0  0  0  0  0
   -0.9600  -54.6143  -22.6990 C   0  0  0  0  0  0  0  0  0  0  0  0
   -0.4943  -53.9503  -23.7390 N   0  0  0  0  0  0  0  0  0  0  0  0
    0.4006  -52.9627  -23.7192 C   0  0  0  0  0  0  0  0  0  0  0  0
    0.8820  -52.6115  -22.4524 C   0  0  0  0  0  0  0  0  0  0  0  0
    1.8028  -51.6191  -22.2500 C   0  0  0  0  0  0  0  0  0  0  0  0
    2.2649  -51.2823  -21.0058 C   0  0  0  0  0  0  0  0  0  0  0  0
    3.1992  -50.2618  -20.7472 N   0  0  0  0  0  0  0  0  0  0  0  0
    4.5634  -50.3160  -20.9727 C   0  0  0  0  0  0  0  0  0  0  0  0
    5.1755  -51.2758  -21.4300 O   0  0  0  0  0  0  0  0  0  0  0  0
    2.8216  -49.3402  -20.3293 H   0  0  0  0  0  0  0  0  0  0  0  0
    5.3933  -49.1173  -20.6436 C   0  0  0  0  0  0  0  0  0  0  0  0
    5.4517  -48.0686  -21.4156 C   0  0  0  0  0  0  0  0  0  0  0  0
    6.2339  -46.8409  -21.1875 C   0  0  0  0  0  0  0  0  0  0  0  0
    5.4344  -45.6780  -21.2040 N   0  0  0  0  0  0  0  0  0  0  0  0
    5.8522  -44.6591  -22.1049 C   0  0  0  0  0  0  0  0  0  0  0  0
    4.8338  -44.6432  -23.2392 C   0  0  0  0  0  0  0  0  0  0  0  0
    5.2511  -45.2702  -24.3654 O   0  0  0  0  0  0  0  0  0  0  0  0
    4.4316  -46.1715  -24.9634 C   0  0  0  0  0  0  0  0  0  0  0  0
    2.9833  -45.7312  -24.7466 C   0  0  0  0  0  0  0  0  0  0  0  0
    2.7723  -45.9188  -23.3645 O   0  0  0  0  0  0  0  0  0  0  0  0
    3.5722  -45.1284  -22.5989 C   0  0  0  0  0  0  0  0  0  0  0  0
    4.0220  -45.9141  -21.3915 C   0  0  0  0  0  0  0  0  0  0  0  0
    0.8620  -52.3087  -24.8621 N   0  0  0  0  0  0  0  0  0  0  0  0
    1.5679  -51.5198  -24.7406 H   0  0  0  0  0  0  0  0  0  0  0  0
    0.4899  -52.5717  -26.2091 C   0  0  0  0  0  0  0  0  0  0  0  0
    1.3341  -52.9283  -27.2126 C   0  0  0  0  0  0  0  0  0  0  0  0
    0.8282  -53.1319  -28.4960 C   0  0  0  0  0  0  0  0  0  0  0  0
   -0.4977  -52.9907  -28.8055 C   0  0  0  0  0  0  0  0  0  0  0  0
   -0.9604  -53.1992  -30.0748 F   0  0  0  0  0  0  0  0  0  0  0  0
   -1.3558  -52.6311  -27.7937 C   0  0  0  0  0  0  0  0  0  0  0  0
   -3.0570  -52.4511  -28.1797 Cl  0  0  0  0  0  0  0  0  0  0  0  0
   -0.8536  -52.4323  -26.5375 C   0  0  0  0  0  0  0  0  0  0  0  0
    2.2188  -51.6641  -18.6519 O   0  0  0  0  0  0  0  0  0  0  0  0
    0.5345  -51.0819  -16.9795 C   0  0  0  0  0  0  0  0  0  0  0  0
    1.7047  -50.6637  -17.8272 C   0  0  0  0  0  0  0  0  0  0  0  0
 38 39  1  0  0  0
 39 37  1  0  0  0
 37  1  1  0  0  0
  1  2  2  0  0  0
  2  3  1  0  0  0
  3  4  2  0  0  0
  4  5  1  0  0  0
  5  6  2  0  0  0
  6  7  1  0  0  0
  7 27  1  0  0  0
 27 29  1  0  0  0
 29 30  2  0  0  0
 30 31  1  0  0  0
 31 32  2  0  0  0
 32 33  1  0  0  0
 32 34  1  0  0  0
 34 35  1  0  0  0
 34 36  2  0  0  0
  7  8  2  0  0  0
  8  9  1  0  0  0
  9 10  2  0  0  0
 10 11  1  0  0  0
 11 12  1  0  0  0
 12 13  2  0  0  0
 12 15  1  0  0  0
 15 16  2  0  0  0
 16 17  1  0  0  0
 17 18  1  0  0  0
 18 19  1  0  0  0
 19 20  1  0  0  0
 20 21  1  0  0  0
 21 22  1  0  0  0
 22 23  1  0  0  0
 23 24  1  0  0  0
 24 25  1  0  0  0
 25 26  1  0  0  0
 10  1  1  0  0  0
 26 18  1  0  0  0
  8  3  1  0  0  0
 25 20  1  0  0  0
 36 29  1  0  0  0
 27 28  1  0  0  0
 11 14  1  0  0  0
M  END
> <minimizedAffinity>
-8.03924

> <CNNscore>
0.5617818236

> <CNNaffinity>
7.5560712814

> <CNN_VS>
4.2448635101

> <CNNaffinity_variance>
0.3998078406

$$$$
[H]/C(C(=O)N([H])c1c(OC([H])([H])C([H])([H])[H])c([H])c2nc([H])nc(N([H])c3c([H])c([H])c(F)c(Cl)c3[H])c2c1[H])=C(/[H])C([H])([H])N1C([H])([H])[C@]2([H])OC([H])([H])C([H])([H])O[C@]2([H])C1([H])[H]


 39 43  0  0  0  0  0  0  0  0999 V2000
    0.5450  -52.4137  -26.0787 C   0  0  0  0  0  0  0  0  0  0  0  0
   -0.2406  -53.4606  -25.7104 C   0  0  0  0  0  0  0  0  0  0  0  0
   -0.3732  -53.7767  -24.3615 C   0  0  0  0  0  0  0  0  0  0  0  0
   -1.1447  -54.8034  -24.0350 N   0  0  0  0  0  0  0  0  0  0  0  0
   -1.2969  -55.1416  -22.7507 C   0  0  0  0  0  0  0  0  0  0  0  0
   -0.6627  -54.4281  -21.8406 N   0  0  0  0  0  0  0  0  0  0  0  0
    0.1332  -53.3816  -22.0598 C   0  0  0  0  0  0  0  0  0  0  0  0
    0.2975  -53.0207  -23.4024 C   0  0  0  0  0  0  0  0  0  0  0  0
    1.0805  -51.9728  -23.8056 C   0  0  0  0  0  0  0  0  0  0  0  0
    1.2359  -51.6302  -25.1222 C   0  0  0  0  0  0  0  0  0  0  0  0
    2.0399  -50.5717  -25.5851 N   0  0  0  0  0  0  0  0  0  0  0  0
    3.4194  -50.4904  -25.5115 C   0  0  0  0  0  0  0  0  0  0  0  0
    4.1606  -51.3344  -25.0183 O   0  0  0  0  0  0  0  0  0  0  0  0
    1.5371  -49.7335  -26.0446 H   0  0  0  0  0  0  0  0  0  0  0  0
    4.0982  -49.2835  -26.0742 C   0  0  0  0  0  0  0  0  0  0  0  0
    3.7621  -48.7565  -27.2181 C   0  0  0  0  0  0  0  0  0  0  0  0
    4.3625  -47.5748  -27.8616 C   0  0  0  0  0  0  0  0  0  0  0  0
    5.4390  -47.9087  -28.7110 N   0  0  0  0  0  0  0  0  0  0  0  0
    5.1766  -48.9373  -29.6584 C   0  0  0  0  0  0  0  0  0  0  0  0
    5.1026  -48.2586  -31.0214 C   0  0  0  0  0  0  0  0  0  0  0  0
    3.8403  -48.0574  -31.4708 O   0  0  0  0  0  0  0  0  0  0  0  0
    3.4928  -46.8331  -31.9418 C   0  0  0  0  0  0  0  0  0  0  0  0
    4.7190  -46.1985  -32.5992 C   0  0  0  0  0  0  0  0  0  0  0  0
    5.5865  -45.9325  -31.5191 O   0  0  0  0  0  0  0  0  0  0  0  0
    5.9895  -47.0628  -30.8783 C   0  0  0  0  0  0  0  0  0  0  0  0
    6.0433  -46.7896  -29.3951 C   0  0  0  0  0  0  0  0  0  0  0  0
    0.7656  -52.6603  -21.0466 N   0  0  0  0  0  0  0  0  0  0  0  0
    1.7429  -52.2795  -21.2341 H   0  0  0  0  0  0  0  0  0  0  0  0
    0.2508  -52.3671  -19.7539 C   0  0  0  0  0  0  0  0  0  0  0  0
   -0.6197  -53.1380  -19.0506 C   0  0  0  0  0  0  0  0  0  0  0  0
   -1.0591  -52.7102  -17.7982 C   0  0  0  0  0  0  0  0  0  0  0  0
   -0.6524  -51.5344  -17.2275 C   0  0  0  0  0  0  0  0  0  0  0  0
   -1.1022  -51.1454  -15.9966 F   0  0  0  0  0  0  0  0  0  0  0  0
    0.2289  -50.7515  -17.9345 C   0  0  0  0  0  0  0  0  0  0  0  0
    0.7584  -49.2447  -17.2100 Cl  0  0  0  0  0  0  0  0  0  0  0  0
    0.6555  -51.1761  -19.1623 C   0  0  0  0  0  0  0  0  0  0  0  0
    0.7069  -52.0616  -27.4075 O   0  0  0  0  0  0  0  0  0  0  0  0
   -0.7520  -52.6596  -29.2747 C   0  0  0  0  0  0  0  0  0  0  0  0
    0.5204  -52.8974  -28.5084 C   0  0  0  0  0  0  0  0  0  0  0  0
 38 39  1  0  0  0
 39 37  1  0  0  0
 37  1  1  0  0  0
  1  2  2  0  0  0
  2  3  1  0  0  0
  3  4  2  0  0  0
  4  5  1  0  0  0
  5  6  2  0  0  0
  6  7  1  0  0  0
  7 27  1  0  0  0
 27 29  1  0  0  0
 29 30  2  0  0  0
 30 31  1  0  0  0
 31 32  2  0  0  0
 32 33  1  0  0  0
 32 34  1  0  0  0
 34 35  1  0  0  0
 34 36  2  0  0  0
  7  8  2  0  0  0
  8  9  1  0  0  0
  9 10  2  0  0  0
 10 11  1  0  0  0
 11 12  1  0  0  0
 12 13  2  0  0  0
 12 15  1  0  0  0
 15 16  2  0  0  0
 16 17  1  0  0  0
 17 18  1  0  0  0
 18 19  1  0  0  0
 19 20  1  0  0  0
 20 21  1  0  0  0
 21 22  1  0  0  0
 22 23  1  0  0  0
 23 24  1  0  0  0
 24 25  1  0  0  0
 25 26  1  0  0  0
 10  1  1  0  0  0
 26 18  1  0  0  0
  8  3  1  0  0  0
 25 20  1  0  0  0
 36 29  1  0  0  0
 27 28  1  0  0  0
 11 14  1  0  0  0
M  END
> <minimizedAffinity>
-8.81117

> <CNNscore>
0.5114720464

> <CNNaffinity>
7.2151985168

> <CNN_VS>
3.6903724670

> <CNNaffinity_variance>
0.1027545780

$$$$
[H]/C(C(=O)N([H])c1c(OC([H])([H])C([H])([H])OC([H])([H])[H])c([H])c2nc([H])nc(N([H])c3c([H])c([H])c(F)c(Cl)c3[H])c2c1[H])=C(/[H])C([H])([H])N1C([H])([H])[C@]2([H])OC([H])([H])C([H])([H])O[C@]2([H])C1([H])[H]


 41 45  0  0  0  0  0  0  0  0999 V2000
   -0.2513  -52.8533  -19.5174 C   0  0  0  0  0  0  0  0  0  0  0  0
   -0.9648  -53.8576  -20.1029 C   0  0  0  0  0  0  0  0  0  0  0  0
   -0.9962  -54.0840  -21.4616 C   0  0  0  0  0  0  0  0  0  0  0  0
   -1.7341  -55.1088  -21.9603 N   0  0  0  0  0  0  0  0  0  0  0  0
   -1.7474  -55.3077  -23.2871 C   0  0  0  0  0  0  0  0  0  0  0  0
   -1.0355  -54.4899  -24.0490 N   0  0  0  0  0  0  0  0  0  0  0  0
   -0.2838  -53.4605  -23.6437 C   0  0  0  0  0  0  0  0  0  0  0  0
   -0.2615  -53.2440  -22.2745 C   0  0  0  0  0  0  0  0  0  0  0  0
    0.4790  -52.2087  -21.7188 C   0  0  0  0  0  0  0  0  0  0  0  0
    0.4962  -51.9992  -20.3507 C   0  0  0  0  0  0  0  0  0  0  0  0
    1.2087  -50.9844  -19.6780 N   0  0  0  0  0  0  0  0  0  0  0  0
    2.5596  -51.0513  -19.2808 C   0  0  0  0  0  0  0  0  0  0  0  0
    3.3212  -52.0622  -19.4862 O   0  0  0  0  0  0  0  0  0  0  0  0
    0.7058  -50.0770  -19.4364 H   0  0  0  0  0  0  0  0  0  0  0  0
    3.2126  -49.9259  -18.5780 C   0  0  0  0  0  0  0  0  0  0  0  0
    3.6641  -48.8681  -19.1963 C   0  0  0  0  0  0  0  0  0  0  0  0
    4.3262  -47.7402  -18.4377 C   0  0  0  0  0  0  0  0  0  0  0  0
    5.1999  -46.9943  -19.2833 N   0  0  0  0  0  0  0  0  0  0  0  0
    6.5799  -46.9650  -18.8702 C   0  0  0  0  0  0  0  0  0  0  0  0
    7.2832  -47.7379  -19.9642 C   0  0  0  0  0  0  0  0  0  0  0  0
    6.9697  -49.1090  -19.8443 O   0  0  0  0  0  0  0  0  0  0  0  0
    7.4203  -49.7704  -20.9855 C   0  0  0  0  0  0  0  0  0  0  0  0
    6.6753  -49.2452  -22.1685 C   0  0  0  0  0  0  0  0  0  0  0  0
    6.7971  -47.8911  -22.3359 O   0  0  0  0  0  0  0  0  0  0  0  0
    6.5541  -47.1778  -21.1985 C   0  0  0  0  0  0  0  0  0  0  0  0
    5.1279  -47.2878  -20.6785 C   0  0  0  0  0  0  0  0  0  0  0  0
    0.4145  -52.6387  -24.5510 N   0  0  0  0  0  0  0  0  0  0  0  0
    1.0355  -51.8969  -24.1048 H   0  0  0  0  0  0  0  0  0  0  0  0
    0.3796  -52.6969  -25.9658 C   0  0  0  0  0  0  0  0  0  0  0  0
    1.4533  -52.8751  -26.7576 C   0  0  0  0  0  0  0  0  0  0  0  0
    1.2957  -52.9414  -28.1490 C   0  0  0  0  0  0  0  0  0  0  0  0
    0.0414  -52.8237  -28.7079 C   0  0  0  0  0  0  0  0  0  0  0  0
   -0.1133  -52.8872  -30.0503 F   0  0  0  0  0  0  0  0  0  0  0  0
   -1.0598  -52.6408  -27.9023 C   0  0  0  0  0  0  0  0  0  0  0  0
   -2.6816  -52.4839  -28.5795 Cl  0  0  0  0  0  0  0  0  0  0  0  0
   -0.8853  -52.5792  -26.5473 C   0  0  0  0  0  0  0  0  0  0  0  0
   -0.2357  -52.6448  -18.1469 O   0  0  0  0  0  0  0  0  0  0  0  0
   -1.3435  -52.4834  -17.3224 C   0  0  0  0  0  0  0  0  0  0  0  0
   -1.0460  -51.2913  -16.4204 C   0  0  0  0  0  0  0  0  0  0  0  0
    0.0305  -49.2339  -16.4835 C   0  0  0  0  0  0  0  0  0  0  0  0
    0.0523  -50.5675  -16.8046 O   0  0  0  0  0  0  0  0  0  0  0  0
 40 41  1  0  0  0
 41 39  1  0  0  0
 39 38  1  0  0  0
 38 37  1  0  0  0
 37  1  1  0  0  0
  1  2  2  0  0  0
  2  3  1  0  0  0
  3  4  2  0  0  0
  4  5  1  0  0  0
  5  6  2  0  0  0
  6  7  1  0  0  0
  7 27  1  0  0  0
 27 29  1  0  0  0
 29 30  2  0  0  0
 30 31  1  0  0  0
 31 32  2  0  0  0
 32 33  1  0  0  0
 32 34  1  0  0  0
 34 35  1  0  0  0
 34 36  2  0  0  0
  7  8  2  0  0  0
  8  9  1  0  0  0
  9 10  2  0  0  0
 10 11  1  0  0  0
 11 12  1  0  0  0
 12 13  2  0  0  0
 12 15  1  0  0  0
 15 16  2  0  0  0
 16 17  1  0  0  0
 17 18  1  0  0  0
 18 19  1  0  0  0
 19 20  1  0  0  0
 20 21  1  0  0  0
 21 22  1  0  0  0
 22 23  1  0  0  0
 23 24  1  0  0  0
 24 25  1  0  0  0
 25 26  1  0  0  0
 10  1  1  0  0  0
 26 18  1  0  0  0
  8  3  1  0  0  0
 25 20  1  0  0  0
 36 29  1  0  0  0
 27 28  1  0  0  0
 11 14  1  0  0  0
M  END
> <minimizedAffinity>
-8.17777

> <CNNscore>
0.9568072557

> <CNNaffinity>
7.8556799889

> <CNN_VS>
7.5163717270

> <CNNaffinity_variance>
0.0275179800

$$$$
[H]/C(C(=O)N([H])c1c(OC([H])([H])C([H])([H])OC([H])([H])[H])c([H])c2nc([H])nc(N([H])c3c([H])c([H])c(F)c(Cl)c3[H])c2c1[H])=C(/[H])C([H])([H])N1C([H])([H])[C@]2([H])OC([H])([H])C([H])([H])O[C@]2([H])C1([H])[H]


 41 45  0  0  0  0  0  0  0  0999 V2000
    0.0580  -52.2606  -19.5713 C   0  0  0  0  0  0  0  0  0  0  0  0
   -0.7329  -53.2785  -20.0173 C   0  0  0  0  0  0  0  0  0  0  0  0
   -0.7724  -53.7003  -21.3283 C   0  0  0  0  0  0  0  0  0  0  0  0
   -1.5900  -54.7235  -21.6861 N   0  0  0  0  0  0  0  0  0  0  0  0
   -1.6094  -55.1149  -22.9692 C   0  0  0  0  0  0  0  0  0  0  0  0
   -0.8249  -54.4803  -23.8282 N   0  0  0  0  0  0  0  0  0  0  0  0
    0.0076  -53.4676  -23.5634 C   0  0  0  0  0  0  0  0  0  0  0  0
    0.0370  -53.0531  -22.2407 C   0  0  0  0  0  0  0  0  0  0  0  0
    0.8577  -52.0114  -21.8281 C   0  0  0  0  0  0  0  0  0  0  0  0
    0.8815  -51.6037  -20.5056 C   0  0  0  0  0  0  0  0  0  0  0  0
    1.6716  -50.5624  -19.9749 N   0  0  0  0  0  0  0  0  0  0  0  0
    1.5207  -49.1892  -20.2554 C   0  0  0  0  0  0  0  0  0  0  0  0
    0.6295  -48.7088  -21.0422 O   0  0  0  0  0  0  0  0  0  0  0  0
    2.4589  -50.8073  -19.3004 H   0  0  0  0  0  0  0  0  0  0  0  0
    2.4067  -48.1759  -19.6428 C   0  0  0  0  0  0  0  0  0  0  0  0
    2.8049  -48.2380  -18.4008 C   0  0  0  0  0  0  0  0  0  0  0  0
    3.7109  -47.1789  -17.8148 C   0  0  0  0  0  0  0  0  0  0  0  0
    3.9979  -47.4482  -16.4437 N   0  0  0  0  0  0  0  0  0  0  0  0
    4.1910  -46.2854  -15.6151 C   0  0  0  0  0  0  0  0  0  0  0  0
    3.0073  -46.3328  -14.6742 C   0  0  0  0  0  0  0  0  0  0  0  0
    1.8329  -45.9974  -15.3821 O   0  0  0  0  0  0  0  0  0  0  0  0
    0.7312  -46.2768  -14.5752 C   0  0  0  0  0  0  0  0  0  0  0  0
    0.6895  -47.7468  -14.3146 C   0  0  0  0  0  0  0  0  0  0  0  0
    1.8297  -48.2326  -13.7312 O   0  0  0  0  0  0  0  0  0  0  0  0
    2.9740  -47.8395  -14.3619 C   0  0  0  0  0  0  0  0  0  0  0  0
    3.1204  -48.3609  -15.7843 C   0  0  0  0  0  0  0  0  0  0  0  0
    0.7799  -52.8494  -24.5671 N   0  0  0  0  0  0  0  0  0  0  0  0
    1.6364  -52.3203  -24.2184 H   0  0  0  0  0  0  0  0  0  0  0  0
    0.5425  -52.8604  -25.9635 C   0  0  0  0  0  0  0  0  0  0  0  0
    1.4827  -53.0648  -26.9046 C   0  0  0  0  0  0  0  0  0  0  0  0
    1.1268  -53.0787  -28.2605 C   0  0  0  0  0  0  0  0  0  0  0  0
   -0.1859  -52.8824  -28.6316 C   0  0  0  0  0  0  0  0  0  0  0  0
   -0.5319  -52.8952  -29.9393 F   0  0  0  0  0  0  0  0  0  0  0  0
   -1.1511  -52.6724  -27.6727 C   0  0  0  0  0  0  0  0  0  0  0  0
   -2.8418  -52.4154  -28.1074 Cl  0  0  0  0  0  0  0  0  0  0  0  0
   -0.7840  -52.6628  -26.3554 C   0  0  0  0  0  0  0  0  0  0  0  0
    0.0802  -51.8534  -18.2463 O   0  0  0  0  0  0  0  0  0  0  0  0
   -0.8229  -52.2183  -17.2540 C   0  0  0  0  0  0  0  0  0  0  0  0
   -0.7119  -51.1676  -16.1553 C   0  0  0  0  0  0  0  0  0  0  0  0
    1.0207  -51.6012  -14.6700 C   0  0  0  0  0  0  0  0  0  0  0  0
    0.5762  -50.9074  -15.7670 O   0  0  0  0  0  0  0  0  0  0  0  0
 40 41  1  0  0  0
 41 39  1  0  0  0
 39 38  1  0  0  0
 38 37  1  0  0  0
 37  1  1  0  0  0
  1  2  2  0  0  0
  2  3  1  0  0  0
  3  4  2  0  0  0
  4  5  1  0  0  0
  5  6  2  0  0  0
  6  7  1  0  0  0
  7 27  1  0  0  0
 27 29  1  0  0  0
 29 30  2  0  0  0
 30 31  1  0  0  0
 31 32  2  0  0  0
 32 33  1  0  0  0
 32 34  1  0  0  0
 34 35  1  0  0  0
 34 36  2  0  0  0
  7  8  2  0  0  0
  8  9  1  0  0  0
  9 10  2  0  0  0
 10 11  1  0  0  0
 11 12  1  0  0  0
 12 13  2  0  0  0
 12 15  1  0  0  0
 15 16  2  0  0  0
 16 17  1  0  0  0
 17 18  1  0  0  0
 18 19  1  0  0  0
 19 20  1  0  0  0
 20 21  1  0  0  0
 21 22  1  0  0  0
 22 23  1  0  0  0
 23 24  1  0  0  0
 24 25  1  0  0  0
 25 26  1  0  0  0
 10  1  1  0  0  0
 26 18  1  0  0  0
  8  3  1  0  0  0
 25 20  1  0  0  0
 36 29  1  0  0  0
 27 28  1  0  0  0
 11 14  1  0  0  0
M  END
> <minimizedAffinity>
-8.04817

> <CNNscore>
0.9461603761

> <CNNaffinity>
7.6370582581

> <CNN_VS>
7.2258820534

> <CNNaffinity_variance>
0.0325527713

$$$$
[H]/C(C(=O)N([H])c1c(OC([H])([H])C([H])([H])OC([H])([H])[H])c([H])c2nc([H])nc(N([H])c3c([H])c([H])c(F)c(Cl)c3[H])c2c1[H])=C(/[H])C([H])([H])N1C([H])([H])[C@]2([H])OC([H])([H])C([H])([H])O[C@]2([H])C1([H])[H]


 41 45  0  0  0  0  0  0  0  0999 V2000
   -0.2827  -52.3777  -19.4707 C   0  0  0  0  0  0  0  0  0  0  0  0
   -0.9661  -53.4389  -19.9879 C   0  0  0  0  0  0  0  0  0  0  0  0
   -0.9254  -53.8027  -21.3161 C   0  0  0  0  0  0  0  0  0  0  0  0
   -1.6379  -54.8755  -21.7464 N   0  0  0  0  0  0  0  0  0  0  0  0
   -1.5808  -55.2086  -23.0447 C   0  0  0  0  0  0  0  0  0  0  0  0
   -0.8275  -54.4704  -23.8470 N   0  0  0  0  0  0  0  0  0  0  0  0
   -0.0964  -53.4026  -23.5094 C   0  0  0  0  0  0  0  0  0  0  0  0
   -0.1467  -53.0475  -22.1702 C   0  0  0  0  0  0  0  0  0  0  0  0
    0.5654  -51.9585  -21.6843 C   0  0  0  0  0  0  0  0  0  0  0  0
    0.5100  -51.6105  -20.3457 C   0  0  0  0  0  0  0  0  0  0  0  0
    1.1878  -50.5300  -19.7430 N   0  0  0  0  0  0  0  0  0  0  0  0
    2.4666  -50.5863  -19.1527 C   0  0  0  0  0  0  0  0  0  0  0  0
    3.1846  -51.6467  -19.0899 O   0  0  0  0  0  0  0  0  0  0  0  0
    0.7143  -49.5762  -19.7178 H   0  0  0  0  0  0  0  0  0  0  0  0
    3.0883  -49.3895  -18.5460 C   0  0  0  0  0  0  0  0  0  0  0  0
    3.1726  -49.2095  -17.2554 C   0  0  0  0  0  0  0  0  0  0  0  0
    3.8164  -47.9693  -16.6778 C   0  0  0  0  0  0  0  0  0  0  0  0
    3.9200  -48.0569  -15.2578 N   0  0  0  0  0  0  0  0  0  0  0  0
    3.3441  -46.9552  -14.5294 C   0  0  0  0  0  0  0  0  0  0  0  0
    2.1787  -47.5930  -13.8055 C   0  0  0  0  0  0  0  0  0  0  0  0
    1.1598  -47.8957  -14.7343 O   0  0  0  0  0  0  0  0  0  0  0  0
    0.2051  -48.6924  -14.1044 C   0  0  0  0  0  0  0  0  0  0  0  0
    0.8445  -49.9827  -13.7086 C   0  0  0  0  0  0  0  0  0  0  0  0
    1.9337  -49.8271  -12.8926 O   0  0  0  0  0  0  0  0  0  0  0  0
    2.8331  -48.9108  -13.3539 C   0  0  0  0  0  0  0  0  0  0  0  0
    3.4973  -49.2875  -14.6705 C   0  0  0  0  0  0  0  0  0  0  0  0
    0.6510  -52.6752  -24.4572 N   0  0  0  0  0  0  0  0  0  0  0  0
    1.4050  -52.0418  -24.0504 H   0  0  0  0  0  0  0  0  0  0  0  0
    0.5092  -52.7001  -25.8663 C   0  0  0  0  0  0  0  0  0  0  0  0
    1.5212  -52.8466  -26.7414 C   0  0  0  0  0  0  0  0  0  0  0  0
    1.2588  -52.8817  -28.1181 C   0  0  0  0  0  0  0  0  0  0  0  0
   -0.0355  -52.7656  -28.5772 C   0  0  0  0  0  0  0  0  0  0  0  0
   -0.2914  -52.7990  -29.9052 F   0  0  0  0  0  0  0  0  0  0  0  0
   -1.0740  -52.6150  -27.6861 C   0  0  0  0  0  0  0  0  0  0  0  0
   -2.7441  -52.4612  -28.2342 Cl  0  0  0  0  0  0  0  0  0  0  0  0
   -0.7975  -52.5835  -26.3472 C   0  0  0  0  0  0  0  0  0  0  0  0
   -0.3397  -52.0306  -18.1297 O   0  0  0  0  0  0  0  0  0  0  0  0
   -1.0761  -52.6722  -17.1401 C   0  0  0  0  0  0  0  0  0  0  0  0
   -1.5302  -51.5923  -16.1650 C   0  0  0  0  0  0  0  0  0  0  0  0
   -3.6134  -52.5940  -16.3947 C   0  0  0  0  0  0  0  0  0  0  0  0
   -2.8917  -51.4749  -16.0645 O   0  0  0  0  0  0  0  0  0  0  0  0
 40 41  1  0  0  0
 41 39  1  0  0  0
 39 38  1  0  0  0
 38 37  1  0  0  0
 37  1  1  0  0  0
  1  2  2  0  0  0
  2  3  1  0  0  0
  3  4  2  0  0  0
  4  5  1  0  0  0
  5  6  2  0  0  0
  6  7  1  0  0  0
  7 27  1  0  0  0
 27 29  1  0  0  0
 29 30  2  0  0  0
 30 31  1  0  0  0
 31 32  2  0  0  0
 32 33  1  0  0  0
 32 34  1  0  0  0
 34 35  1  0  0  0
 34 36  2  0  0  0
  7  8  2  0  0  0
  8  9  1  0  0  0
  9 10  2  0  0  0
 10 11  1  0  0  0
 11 12  1  0  0  0
 12 13  2  0  0  0
 12 15  1  0  0  0
 15 16  2  0  0  0
 16 17  1  0  0  0
 17 18  1  0  0  0
 18 19  1  0  0  0
 19 20  1  0  0  0
 20 21  1  0  0  0
 21 22  1  0  0  0
 22 23  1  0  0  0
 23 24  1  0  0  0
 24 25  1  0  0  0
 25 26  1  0  0  0
 10  1  1  0  0  0
 26 18  1  0  0  0
  8  3  1  0  0  0
 25 20  1  0  0  0
 36 29  1  0  0  0
 27 28  1  0  0  0
 11 14  1  0  0  0
M  END
> <minimizedAffinity>
-8.43041

> <CNNscore>
0.9417251348

> <CNNaffinity>
7.6457724571

> <CNN_VS>
7.2002162933

> <CNNaffinity_variance>
0.0317438245

$$$$
[H]/C(C(=O)N([H])c1c(OC([H])([H])C([H])([H])OC([H])([H])[H])c([H])c2nc([H])nc(N([H])c3c([H])c([H])c(F)c(Cl)c3[H])c2c1[H])=C(/[H])C([H])([H])N1C([H])([H])[C@]2([H])OC([H])([H])C([H])([H])O[C@]2([H])C1([H])[H]


 41 45  0  0  0  0  0  0  0  0999 V2000
   -0.0534  -52.2615  -19.5106 C   0  0  0  0  0  0  0  0  0  0  0  0
   -0.8295  -53.2818  -19.9767 C   0  0  0  0  0  0  0  0  0  0  0  0
   -0.8464  -53.6928  -21.2917 C   0  0  0  0  0  0  0  0  0  0  0  0
   -1.6504  -54.7194  -21.6699 N   0  0  0  0  0  0  0  0  0  0  0  0
   -1.6479  -55.1000  -22.9564 C   0  0  0  0  0  0  0  0  0  0  0  0
   -0.8561  -54.4519  -23.7985 N   0  0  0  0  0  0  0  0  0  0  0  0
   -0.0358  -53.4349  -23.5131 C   0  0  0  0  0  0  0  0  0  0  0  0
   -0.0290  -53.0315  -22.1866 C   0  0  0  0  0  0  0  0  0  0  0  0
    0.7771  -51.9868  -21.7533 C   0  0  0  0  0  0  0  0  0  0  0  0
    0.7783  -51.5902  -20.4272 C   0  0  0  0  0  0  0  0  0  0  0  0
    1.5522  -50.5472  -19.8763 N   0  0  0  0  0  0  0  0  0  0  0  0
    2.9026  -50.6428  -19.4835 C   0  0  0  0  0  0  0  0  0  0  0  0
    3.6069  -51.7098  -19.5806 O   0  0  0  0  0  0  0  0  0  0  0  0
    1.1011  -49.5929  -19.7335 H   0  0  0  0  0  0  0  0  0  0  0  0
    3.6232  -49.4835  -18.9145 C   0  0  0  0  0  0  0  0  0  0  0  0
    3.2669  -48.9022  -17.8008 C   0  0  0  0  0  0  0  0  0  0  0  0
    4.0327  -47.7181  -17.2554 C   0  0  0  0  0  0  0  0  0  0  0  0
    3.3629  -47.1440  -16.1345 N   0  0  0  0  0  0  0  0  0  0  0  0
    2.3875  -47.9929  -15.4990 C   0  0  0  0  0  0  0  0  0  0  0  0
    2.9962  -48.2591  -14.1398 C   0  0  0  0  0  0  0  0  0  0  0  0
    4.0967  -49.1316  -14.2825 O   0  0  0  0  0  0  0  0  0  0  0  0
    4.7892  -49.1767  -13.0736 C   0  0  0  0  0  0  0  0  0  0  0  0
    5.3340  -47.8168  -12.7833 C   0  0  0  0  0  0  0  0  0  0  0  0
    4.3741  -46.8407  -12.7346 O   0  0  0  0  0  0  0  0  0  0  0  0
    3.5289  -46.8543  -13.8055 C   0  0  0  0  0  0  0  0  0  0  0  0
    4.1967  -46.5506  -15.1391 C   0  0  0  0  0  0  0  0  0  0  0  0
    0.7461  -52.8021  -24.5001 N   0  0  0  0  0  0  0  0  0  0  0  0
    1.5897  -52.2642  -24.1339 H   0  0  0  0  0  0  0  0  0  0  0  0
    0.5332  -52.8090  -25.9004 C   0  0  0  0  0  0  0  0  0  0  0  0
    1.4921  -52.9972  -26.8259 C   0  0  0  0  0  0  0  0  0  0  0  0
    1.1601  -53.0087  -28.1879 C   0  0  0  0  0  0  0  0  0  0  0  0
   -0.1482  -52.8267  -28.5809 C   0  0  0  0  0  0  0  0  0  0  0  0
   -0.4712  -52.8372  -29.8946 F   0  0  0  0  0  0  0  0  0  0  0  0
   -1.1325  -52.6332  -27.6381 C   0  0  0  0  0  0  0  0  0  0  0  0
   -2.8184  -52.3948  -28.1011 Cl  0  0  0  0  0  0  0  0  0  0  0  0
   -0.7886  -52.6258  -26.3146 C   0  0  0  0  0  0  0  0  0  0  0  0
   -0.0539  -51.8655  -18.1821 O   0  0  0  0  0  0  0  0  0  0  0  0
   -0.8582  -52.3736  -17.1681 C   0  0  0  0  0  0  0  0  0  0  0  0
   -0.5941  -51.5205  -15.9329 C   0  0  0  0  0  0  0  0  0  0  0  0
    1.2635  -51.6734  -14.5466 C   0  0  0  0  0  0  0  0  0  0  0  0
    0.7306  -51.2336  -15.7318 O   0  0  0  0  0  0  0  0  0  0  0  0
 40 41  1  0  0  0
 41 39  1  0  0  0
 39 38  1  0  0  0
 38 37  1  0  0  0
 37  1  1  0  0  0
  1  2  2  0  0  0
  2  3  1  0  0  0
  3  4  2  0  0  0
  4  5  1  0  0  0
  5  6  2  0  0  0
  6  7  1  0  0  0
  7 27  1  0  0  0
 27 29  1  0  0  0
 29 30  2  0  0  0
 30 31  1  0  0  0
 31 32  2  0  0  0
 32 33  1  0  0  0
 32 34  1  0  0  0
 34 35  1  0  0  0
 34 36  2  0  0  0
  7  8  2  0  0  0
  8  9  1  0  0  0
  9 10  2  0  0  0
 10 11  1  0  0  0
 11 12  1  0  0  0
 12 13  2  0  0  0
 12 15  1  0  0  0
 15 16  2  0  0  0
 16 17  1  0  0  0
 17 18  1  0  0  0
 18 19  1  0  0  0
 19 20  1  0  0  0
 20 21  1  0  0  0
 21 22  1  0  0  0
 22 23  1  0  0  0
 23 24  1  0  0  0
 24 25  1  0  0  0
 25 26  1  0  0  0
 10  1  1  0  0  0
 26 18  1  0  0  0
  8  3  1  0  0  0
 25 20  1  0  0  0
 36 29  1  0  0  0
 27 28  1  0  0  0
 11 14  1  0  0  0
M  END
> <minimizedAffinity>
-8.14322

> <CNNscore>
0.9369746447

> <CNNaffinity>
7.5349912643

> <CNN_VS>
7.0600957870

> <CNNaffinity_variance>
0.0577522591

$$$$
[H]/C(C(=O)N([H])c1c(OC([H])([H])C([H])([H])OC([H])([H])[H])c([H])c2nc([H])nc(N([H])c3c([H])c([H])c(F)c(Cl)c3[H])c2c1[H])=C(/[H])C([H])([H])N1C([H])([H])[C@]2([H])OC([H])([H])C([H])([H])O[C@]2([H])C1([H])[H]


 41 45  0  0  0  0  0  0  0  0999 V2000
   -0.1172  -52.0060  -19.4069 C   0  0  0  0  0  0  0  0  0  0  0  0
   -0.6457  -53.1769  -19.8653 C   0  0  0  0  0  0  0  0  0  0  0  0
   -0.6851  -53.5309  -21.1963 C   0  0  0  0  0  0  0  0  0  0  0  0
   -1.2304  -54.7183  -21.5652 N   0  0  0  0  0  0  0  0  0  0  0  0
   -1.2561  -55.0390  -22.8677 C   0  0  0  0  0  0  0  0  0  0  0  0
   -0.7448  -54.1764  -23.7341 N   0  0  0  0  0  0  0  0  0  0  0  0
   -0.1906  -52.9906  -23.4594 C   0  0  0  0  0  0  0  0  0  0  0  0
   -0.1578  -52.6469  -22.1166 C   0  0  0  0  0  0  0  0  0  0  0  0
    0.3902  -51.4435  -21.6920 C   0  0  0  0  0  0  0  0  0  0  0  0
    0.4192  -51.1078  -20.3494 C   0  0  0  0  0  0  0  0  0  0  0  0
    0.9482  -49.9187  -19.8052 N   0  0  0  0  0  0  0  0  0  0  0  0
    2.3173  -49.6258  -19.6411 C   0  0  0  0  0  0  0  0  0  0  0  0
    3.2681  -50.4194  -19.9728 O   0  0  0  0  0  0  0  0  0  0  0  0
    0.2761  -49.1583  -19.4814 H   0  0  0  0  0  0  0  0  0  0  0  0
    2.7661  -48.3435  -19.0570 C   0  0  0  0  0  0  0  0  0  0  0  0
    3.6038  -47.5430  -19.6591 C   0  0  0  0  0  0  0  0  0  0  0  0
    4.0367  -46.2407  -19.0245 C   0  0  0  0  0  0  0  0  0  0  0  0
    5.4584  -46.1272  -19.0008 N   0  0  0  0  0  0  0  0  0  0  0  0
    5.9674  -44.7819  -18.9172 C   0  0  0  0  0  0  0  0  0  0  0  0
    6.6190  -44.7446  -17.5524 C   0  0  0  0  0  0  0  0  0  0  0  0
    5.6189  -44.7427  -16.5561 O   0  0  0  0  0  0  0  0  0  0  0  0
    6.2235  -44.9509  -15.3176 C   0  0  0  0  0  0  0  0  0  0  0  0
    6.8529  -46.3053  -15.3140 C   0  0  0  0  0  0  0  0  0  0  0  0
    7.7689  -46.4866  -16.3163 O   0  0  0  0  0  0  0  0  0  0  0  0
    7.3086  -46.1205  -17.5474 C   0  0  0  0  0  0  0  0  0  0  0  0
    6.1401  -46.9526  -18.0562 C   0  0  0  0  0  0  0  0  0  0  0  0
    0.3009  -52.1401  -24.4699 N   0  0  0  0  0  0  0  0  0  0  0  0
    0.7956  -51.2627  -24.1228 H   0  0  0  0  0  0  0  0  0  0  0  0
    0.2101  -52.3280  -25.8709 C   0  0  0  0  0  0  0  0  0  0  0  0
    1.2595  -52.4976  -26.6964 C   0  0  0  0  0  0  0  0  0  0  0  0
    1.0481  -52.7005  -28.0674 C   0  0  0  0  0  0  0  0  0  0  0  0
   -0.2343  -52.7259  -28.5716 C   0  0  0  0  0  0  0  0  0  0  0  0
   -0.4410  -52.9213  -29.8942 F   0  0  0  0  0  0  0  0  0  0  0  0
   -1.3109  -52.5524  -27.7313 C   0  0  0  0  0  0  0  0  0  0  0  0
   -2.9675  -52.5765  -28.3385 Cl  0  0  0  0  0  0  0  0  0  0  0  0
   -1.0839  -52.3562  -26.3971 C   0  0  0  0  0  0  0  0  0  0  0  0
   -0.0893  -51.6714  -18.0619 O   0  0  0  0  0  0  0  0  0  0  0  0
   -0.9308  -52.1628  -17.0701 C   0  0  0  0  0  0  0  0  0  0  0  0
   -1.1502  -51.0244  -16.0806 C   0  0  0  0  0  0  0  0  0  0  0  0
   -3.2557  -51.9912  -15.9135 C   0  0  0  0  0  0  0  0  0  0  0  0
   -2.4397  -50.9260  -15.6277 O   0  0  0  0  0  0  0  0  0  0  0  0
 40 41  1  0  0  0
 41 39  1  0  0  0
 39 38  1  0  0  0
 38 37  1  0  0  0
 37  1  1  0  0  0
  1  2  2  0  0  0
  2  3  1  0  0  0
  3  4  2  0  0  0
  4  5  1  0  0  0
  5  6  2  0  0  0
  6  7  1  0  0  0
  7 27  1  0  0  0
 27 29  1  0  0  0
 29 30  2  0  0  0
 30 31  1  0  0  0
 31 32  2  0  0  0
 32 33  1  0  0  0
 32 34  1  0  0  0
 34 35  1  0  0  0
 34 36  2  0  0  0
  7  8  2  0  0  0
  8  9  1  0  0  0
  9 10  2  0  0  0
 10 11  1  0  0  0
 11 12  1  0  0  0
 12 13  2  0  0  0
 12 15  1  0  0  0
 15 16  2  0  0  0
 16 17  1  0  0  0
 17 18  1  0  0  0
 18 19  1  0  0  0
 19 20  1  0  0  0
 20 21  1  0  0  0
 21 22  1  0  0  0
 22 23  1  0  0  0
 23 24  1  0  0  0
 24 25  1  0  0  0
 25 26  1  0  0  0
 10  1  1  0  0  0
 26 18  1  0  0  0
  8  3  1  0  0  0
 25 20  1  0  0  0
 36 29  1  0  0  0
 27 28  1  0  0  0
 11 14  1  0  0  0
M  END
> <minimizedAffinity>
-7.89265

> <CNNscore>
0.8974933028

> <CNNaffinity>
7.4801635742

> <CNN_VS>
6.7133965492

> <CNNaffinity_variance>
0.2267222404

$$$$
[H]/C(C(=O)N([H])c1c(OC([H])([H])C([H])([H])OC([H])([H])[H])c([H])c2nc([H])nc(N([H])c3c([H])c([H])c(F)c(Cl)c3[H])c2c1[H])=C(/[H])C([H])([H])N1C([H])([H])[C@]2([H])OC([H])([H])C([H])([H])O[C@]2([H])C1([H])[H]


 41 45  0  0  0  0  0  0  0  0999 V2000
   -0.0040  -51.7583  -19.8987 C   0  0  0  0  0  0  0  0  0  0  0  0
   -0.6973  -52.8895  -20.2157 C   0  0  0  0  0  0  0  0  0  0  0  0
   -0.6829  -53.4726  -21.4639 C   0  0  0  0  0  0  0  0  0  0  0  0
   -1.4035  -54.6004  -21.6927 N   0  0  0  0  0  0  0  0  0  0  0  0
   -1.3721  -55.1482  -22.9170 C   0  0  0  0  0  0  0  0  0  0  0  0
   -0.6351  -54.5585  -23.8471 N   0  0  0  0  0  0  0  0  0  0  0  0
    0.1024  -53.4513  -23.7091 C   0  0  0  0  0  0  0  0  0  0  0  0
    0.0786  -52.8749  -22.4484 C   0  0  0  0  0  0  0  0  0  0  0  0
    0.7999  -51.7217  -22.1675 C   0  0  0  0  0  0  0  0  0  0  0  0
    0.7710  -51.1525  -20.9062 C   0  0  0  0  0  0  0  0  0  0  0  0
    1.4603  -49.9878  -20.5081 N   0  0  0  0  0  0  0  0  0  0  0  0
    2.8297  -49.9121  -20.1824 C   0  0  0  0  0  0  0  0  0  0  0  0
    3.6323  -50.9117  -20.2085 O   0  0  0  0  0  0  0  0  0  0  0  0
    0.9227  -49.0708  -20.4391 H   0  0  0  0  0  0  0  0  0  0  0  0
    3.4553  -48.6355  -19.7754 C   0  0  0  0  0  0  0  0  0  0  0  0
    3.3773  -47.5461  -20.4911 C   0  0  0  0  0  0  0  0  0  0  0  0
    4.0333  -46.2617  -20.0369 C   0  0  0  0  0  0  0  0  0  0  0  0
    3.9745  -45.2653  -21.0559 N   0  0  0  0  0  0  0  0  0  0  0  0
    5.1800  -44.4970  -21.2361 C   0  0  0  0  0  0  0  0  0  0  0  0
    5.6496  -44.9112  -22.6133 C   0  0  0  0  0  0  0  0  0  0  0  0
    6.1476  -46.2310  -22.5607 O   0  0  0  0  0  0  0  0  0  0  0  0
    6.3497  -46.6832  -23.8636 C   0  0  0  0  0  0  0  0  0  0  0  0
    5.0310  -46.7324  -24.5630 C   0  0  0  0  0  0  0  0  0  0  0  0
    4.3762  -45.5294  -24.5834 O   0  0  0  0  0  0  0  0  0  0  0  0
    4.3044  -44.9278  -23.3609 C   0  0  0  0  0  0  0  0  0  0  0  0
    3.4899  -45.6941  -22.3284 C   0  0  0  0  0  0  0  0  0  0  0  0
    0.8307  -52.8969  -24.7807 N   0  0  0  0  0  0  0  0  0  0  0  0
    1.7367  -52.4073  -24.5075 H   0  0  0  0  0  0  0  0  0  0  0  0
    0.4919  -52.9246  -26.1557 C   0  0  0  0  0  0  0  0  0  0  0  0
    1.3539  -53.1774  -27.1580 C   0  0  0  0  0  0  0  0  0  0  0  0
    0.8999  -53.2032  -28.4841 C   0  0  0  0  0  0  0  0  0  0  0  0
   -0.4292  -52.9693  -28.7633 C   0  0  0  0  0  0  0  0  0  0  0  0
   -0.8698  -52.9935  -30.0421 F   0  0  0  0  0  0  0  0  0  0  0  0
   -1.3147  -52.7096  -27.7416 C   0  0  0  0  0  0  0  0  0  0  0  0
   -3.0234  -52.4033  -28.0581 Cl  0  0  0  0  0  0  0  0  0  0  0  0
   -0.8524  -52.6892  -26.4547 C   0  0  0  0  0  0  0  0  0  0  0  0
   -0.0345  -51.1894  -18.6349 O   0  0  0  0  0  0  0  0  0  0  0  0
    0.8086  -51.4920  -17.5714 C   0  0  0  0  0  0  0  0  0  0  0  0
    0.9085  -50.2307  -16.7215 C   0  0  0  0  0  0  0  0  0  0  0  0
   -0.3714  -48.5755  -15.7125 C   0  0  0  0  0  0  0  0  0  0  0  0
   -0.2149  -49.4471  -16.7604 O   0  0  0  0  0  0  0  0  0  0  0  0
 40 41  1  0  0  0
 41 39  1  0  0  0
 39 38  1  0  0  0
 38 37  1  0  0  0
 37  1  1  0  0  0
  1  2  2  0  0  0
  2  3  1  0  0  0
  3  4  2  0  0  0
  4  5  1  0  0  0
  5  6  2  0  0  0
  6  7  1  0  0  0
  7 27  1  0  0  0
 27 29  1  0  0  0
 29 30  2  0  0  0
 30 31  1  0  0  0
 31 32  2  0  0  0
 32 33  1  0  0  0
 32 34  1  0  0  0
 34 35  1  0  0  0
 34 36  2  0  0  0
  7  8  2  0  0  0
  8  9  1  0  0  0
  9 10  2  0  0  0
 10 11  1  0  0  0
 11 12  1  0  0  0
 12 13  2  0  0  0
 12 15  1  0  0  0
 15 16  2  0  0  0
 16 17  1  0  0  0
 17 18  1  0  0  0
 18 19  1  0  0  0
 19 20  1  0  0  0
 20 21  1  0  0  0
 21 22  1  0  0  0
 22 23  1  0  0  0
 23 24  1  0  0  0
 24 25  1  0  0  0
 25 26  1  0  0  0
 10  1  1  0  0  0
 26 18  1  0  0  0
  8  3  1  0  0  0
 25 20  1  0  0  0
 36 29  1  0  0  0
 27 28  1  0  0  0
 11 14  1  0  0  0
M  END
> <minimizedAffinity>
-7.64026

> <CNNscore>
0.7970489860

> <CNNaffinity>
7.7000083923

> <CNN_VS>
6.1372838020

> <CNNaffinity_variance>
0.1835812181

$$$$
[H]/C(C(=O)N([H])c1c(OC([H])([H])C([H])([H])OC([H])([H])[H])c([H])c2nc([H])nc(N([H])c3c([H])c([H])c(F)c(Cl)c3[H])c2c1[H])=C(/[H])C([H])([H])N1C([H])([H])[C@]2([H])OC([H])([H])C([H])([H])O[C@]2([H])C1([H])[H]


 41 45  0  0  0  0  0  0  0  0999 V2000
    0.2389  -51.5077  -19.0764 C   0  0  0  0  0  0  0  0  0  0  0  0
   -0.2795  -52.7299  -19.3895 C   0  0  0  0  0  0  0  0  0  0  0  0
   -0.4606  -53.1778  -20.6798 C   0  0  0  0  0  0  0  0  0  0  0  0
   -0.9839  -54.4108  -20.9013 N   0  0  0  0  0  0  0  0  0  0  0  0
   -1.1497  -54.8229  -22.1673 C   0  0  0  0  0  0  0  0  0  0  0  0
   -0.7921  -54.0017  -23.1440 N   0  0  0  0  0  0  0  0  0  0  0  0
   -0.2712  -52.7765  -23.0168 C   0  0  0  0  0  0  0  0  0  0  0  0
   -0.0947  -52.3384  -21.7133 C   0  0  0  0  0  0  0  0  0  0  0  0
    0.4372  -51.0853  -21.4380 C   0  0  0  0  0  0  0  0  0  0  0  0
    0.6104  -50.6553  -20.1338 C   0  0  0  0  0  0  0  0  0  0  0  0
    1.1385  -49.4089  -19.7368 N   0  0  0  0  0  0  0  0  0  0  0  0
    2.5075  -49.0961  -19.6137 C   0  0  0  0  0  0  0  0  0  0  0  0
    3.4590  -49.9219  -19.8522 O   0  0  0  0  0  0  0  0  0  0  0  0
    0.4659  -48.6166  -19.5033 H   0  0  0  0  0  0  0  0  0  0  0  0
    2.9555  -47.7526  -19.1880 C   0  0  0  0  0  0  0  0  0  0  0  0
    3.6032  -46.9369  -19.9755 C   0  0  0  0  0  0  0  0  0  0  0  0
    4.0433  -45.5714  -19.4982 C   0  0  0  0  0  0  0  0  0  0  0  0
    5.4387  -45.3740  -19.7190 N   0  0  0  0  0  0  0  0  0  0  0  0
    6.0781  -46.3673  -20.5438 C   0  0  0  0  0  0  0  0  0  0  0  0
    6.4622  -45.5900  -21.7836 C   0  0  0  0  0  0  0  0  0  0  0  0
    5.3004  -45.2931  -22.5285 O   0  0  0  0  0  0  0  0  0  0  0  0
    5.6333  -44.3806  -23.5282 C   0  0  0  0  0  0  0  0  0  0  0  0
    6.0866  -43.1110  -22.8856 C   0  0  0  0  0  0  0  0  0  0  0  0
    7.1463  -43.2759  -22.0333 O   0  0  0  0  0  0  0  0  0  0  0  0
    6.9714  -44.2894  -21.1368 C   0  0  0  0  0  0  0  0  0  0  0  0
    5.8290  -44.0718  -20.1548 C   0  0  0  0  0  0  0  0  0  0  0  0
    0.0500  -51.9784  -24.1330 N   0  0  0  0  0  0  0  0  0  0  0  0
    0.5684  -51.0747  -23.9098 H   0  0  0  0  0  0  0  0  0  0  0  0
   -0.2362  -52.2484  -25.4937 C   0  0  0  0  0  0  0  0  0  0  0  0
   -1.4291  -52.0519  -26.0851 C   0  0  0  0  0  0  0  0  0  0  0  0
   -1.5906  -52.3323  -27.4492 C   0  0  0  0  0  0  0  0  0  0  0  0
   -0.5284  -52.8100  -28.1860 C   0  0  0  0  0  0  0  0  0  0  0  0
   -0.6817  -53.0815  -29.5024 F   0  0  0  0  0  0  0  0  0  0  0  0
    0.6935  -53.0133  -27.5854 C   0  0  0  0  0  0  0  0  0  0  0  0
    2.0769  -53.6252  -28.4940 Cl  0  0  0  0  0  0  0  0  0  0  0  0
    0.8310  -52.7334  -26.2540 C   0  0  0  0  0  0  0  0  0  0  0  0
    0.4113  -51.0786  -17.7694 O   0  0  0  0  0  0  0  0  0  0  0  0
   -0.5951  -50.7896  -16.8546 C   0  0  0  0  0  0  0  0  0  0  0  0
    0.0293  -50.9035  -15.4688 C   0  0  0  0  0  0  0  0  0  0  0  0
    0.9551  -52.3598  -13.9138 C   0  0  0  0  0  0  0  0  0  0  0  0
    0.1835  -52.1945  -15.0361 O   0  0  0  0  0  0  0  0  0  0  0  0
 40 41  1  0  0  0
 41 39  1  0  0  0
 39 38  1  0  0  0
 38 37  1  0  0  0
 37  1  1  0  0  0
  1  2  2  0  0  0
  2  3  1  0  0  0
  3  4  2  0  0  0
  4  5  1  0  0  0
  5  6  2  0  0  0
  6  7  1  0  0  0
  7 27  1  0  0  0
 27 29  1  0  0  0
 29 30  2  0  0  0
 30 31  1  0  0  0
 31 32  2  0  0  0
 32 33  1  0  0  0
 32 34  1  0  0  0
 34 35  1  0  0  0
 34 36  2  0  0  0
  7  8  2  0  0  0
  8  9  1  0  0  0
  9 10  2  0  0  0
 10 11  1  0  0  0
 11 12  1  0  0  0
 12 13  2  0  0  0
 12 15  1  0  0  0
 15 16  2  0  0  0
 16 17  1  0  0  0
 17 18  1  0  0  0
 18 19  1  0  0  0
 19 20  1  0  0  0
 20 21  1  0  0  0
 21 22  1  0  0  0
 22 23  1  0  0  0
 23 24  1  0  0  0
 24 25  1  0  0  0
 25 26  1  0  0  0
 10  1  1  0  0  0
 26 18  1  0  0  0
  8  3  1  0  0  0
 25 20  1  0  0  0
 36 29  1  0  0  0
 27 28  1  0  0  0
 11 14  1  0  0  0
M  END
> <minimizedAffinity>
-7.35175

> <CNNscore>
0.6417419314

> <CNNaffinity>
7.2744774818

> <CNN_VS>
4.6683373451

> <CNNaffinity_variance>
0.2048747241

$$$$
[H]/C(C(=O)N([H])c1c(OC([H])([H])C([H])([H])OC([H])([H])[H])c([H])c2nc([H])nc(N([H])c3c([H])c([H])c(F)c(Cl)c3[H])c2c1[H])=C(/[H])C([H])([H])N1C([H])([H])[C@]2([H])OC([H])([H])C([H])([H])O[C@]2([H])C1([H])[H]


 41 45  0  0  0  0  0  0  0  0999 V2000
   -0.3782  -52.9660  -19.6519 C   0  0  0  0  0  0  0  0  0  0  0  0
   -0.9660  -53.9678  -20.3669 C   0  0  0  0  0  0  0  0  0  0  0  0
   -0.8974  -54.0721  -21.7391 C   0  0  0  0  0  0  0  0  0  0  0  0
   -1.5129  -55.1040  -22.3713 N   0  0  0  0  0  0  0  0  0  0  0  0
   -1.4306  -55.1824  -23.7081 C   0  0  0  0  0  0  0  0  0  0  0  0
   -0.7487  -54.2438  -24.3485 N   0  0  0  0  0  0  0  0  0  0  0  0
   -0.1145  -53.1976  -23.8080 C   0  0  0  0  0  0  0  0  0  0  0  0
   -0.1918  -53.1049  -22.4268 C   0  0  0  0  0  0  0  0  0  0  0  0
    0.4219  -52.0674  -21.7369 C   0  0  0  0  0  0  0  0  0  0  0  0
    0.3402  -51.9820  -20.3578 C   0  0  0  0  0  0  0  0  0  0  0  0
    0.9209  -50.9776  -19.5553 N   0  0  0  0  0  0  0  0  0  0  0  0
    2.2510  -50.9629  -19.0886 C   0  0  0  0  0  0  0  0  0  0  0  0
    3.1128  -51.8780  -19.3414 O   0  0  0  0  0  0  0  0  0  0  0  0
    0.3241  -50.1458  -19.2611 H   0  0  0  0  0  0  0  0  0  0  0  0
    2.7608  -49.8571  -18.2495 C   0  0  0  0  0  0  0  0  0  0  0  0
    2.6804  -48.6023  -18.6020 C   0  0  0  0  0  0  0  0  0  0  0  0
    3.2158  -47.5029  -17.7127 C   0  0  0  0  0  0  0  0  0  0  0  0
    4.1243  -46.6632  -18.4226 N   0  0  0  0  0  0  0  0  0  0  0  0
    5.4821  -46.6790  -17.9409 C   0  0  0  0  0  0  0  0  0  0  0  0
    6.2441  -47.3196  -19.0800 C   0  0  0  0  0  0  0  0  0  0  0  0
    5.9355  -48.6960  -19.1340 O   0  0  0  0  0  0  0  0  0  0  0  0
    6.4466  -49.2210  -20.3197 C   0  0  0  0  0  0  0  0  0  0  0  0
    5.7567  -48.5647  -21.4702 C   0  0  0  0  0  0  0  0  0  0  0  0
    5.8763  -47.2000  -21.4749 O   0  0  0  0  0  0  0  0  0  0  0  0
    5.5723  -46.6227  -20.2766 C   0  0  0  0  0  0  0  0  0  0  0  0
    4.1231  -46.7944  -19.8442 C   0  0  0  0  0  0  0  0  0  0  0  0
    0.5620  -52.2430  -24.5935 N   0  0  0  0  0  0  0  0  0  0  0  0
   -0.0509  -51.7018  -25.2765 H   0  0  0  0  0  0  0  0  0  0  0  0
    1.9437  -51.9323  -24.5681 C   0  0  0  0  0  0  0  0  0  0  0  0
    2.9380  -52.8386  -24.5293 C   0  0  0  0  0  0  0  0  0  0  0  0
    4.2743  -52.4147  -24.5323 C   0  0  0  0  0  0  0  0  0  0  0  0
    4.5716  -51.0696  -24.5742 C   0  0  0  0  0  0  0  0  0  0  0  0
    5.8602  -50.6580  -24.5769 F   0  0  0  0  0  0  0  0  0  0  0  0
    3.5581  -50.1388  -24.6133 C   0  0  0  0  0  0  0  0  0  0  0  0
    3.8976  -48.4080  -24.6657 Cl  0  0  0  0  0  0  0  0  0  0  0  0
    2.2611  -50.5723  -24.6101 C   0  0  0  0  0  0  0  0  0  0  0  0
   -0.4615  -52.8819  -18.2706 O   0  0  0  0  0  0  0  0  0  0  0  0
   -1.6270  -52.8462  -17.5133 C   0  0  0  0  0  0  0  0  0  0  0  0
   -1.3955  -51.8269  -16.4039 C   0  0  0  0  0  0  0  0  0  0  0  0
   -0.3583  -49.7497  -16.3281 C   0  0  0  0  0  0  0  0  0  0  0  0
   -0.2447  -51.0982  -16.5538 O   0  0  0  0  0  0  0  0  0  0  0  0
 40 41  1  0  0  0
 41 39  1  0  0  0
 39 38  1  0  0  0
 38 37  1  0  0  0
 37  1  1  0  0  0
  1  2  2  0  0  0
  2  3  1  0  0  0
  3  4  2  0  0  0
  4  5  1  0  0  0
  5  6  2  0  0  0
  6  7  1  0  0  0
  7 27  1  0  0  0
 27 29  1  0  0  0
 29 30  2  0  0  0
 30 31  1  0  0  0
 31 32  2  0  0  0
 32 33  1  0  0  0
 32 34  1  0  0  0
 34 35  1  0  0  0
 34 36  2  0  0  0
  7  8  2  0  0  0
  8  9  1  0  0  0
  9 10  2  0  0  0
 10 11  1  0  0  0
 11 12  1  0  0  0
 12 13  2  0  0  0
 12 15  1  0  0  0
 15 16  2  0  0  0
 16 17  1  0  0  0
 17 18  1  0  0  0
 18 19  1  0  0  0
 19 20  1  0  0  0
 20 21  1  0  0  0
 21 22  1  0  0  0
 22 23  1  0  0  0
 23 24  1  0  0  0
 24 25  1  0  0  0
 25 26  1  0  0  0
 10  1  1  0  0  0
 26 18  1  0  0  0
  8  3  1  0  0  0
 25 20  1  0  0  0
 36 29  1  0  0  0
 27 28  1  0  0  0
 11 14  1  0  0  0
M  END
> <minimizedAffinity>
-7.37486

> <CNNscore>
0.4832163751

> <CNNaffinity>
6.9843940735

> <CNN_VS>
3.3749735355

> <CNNaffinity_variance>
0.2138586342

$$$$
[H]/C(C(=O)N([H])c1c(OC([H])([H])C([H])([H])OC([H])([H])[H])c([H])c2nc([H])nc(N([H])c3c([H])c([H])c(F)c(Cl)c3[H])c2c1[H])=C(/[H])C([H])([H])N1C([H])([H])[C@]2([H])OC([H])([H])C([H])([H])O[C@]2([H])C1([H])[H]


 41 45  0  0  0  0  0  0  0  0999 V2000
    0.3392  -51.0014  -19.6222 C   0  0  0  0  0  0  0  0  0  0  0  0
   -0.1812  -52.2365  -19.8755 C   0  0  0  0  0  0  0  0  0  0  0  0
   -0.2486  -52.7966  -21.1325 C   0  0  0  0  0  0  0  0  0  0  0  0
   -0.7831  -54.0341  -21.2946 N   0  0  0  0  0  0  0  0  0  0  0  0
   -0.8367  -54.5567  -22.5291 C   0  0  0  0  0  0  0  0  0  0  0  0
   -0.3623  -53.8353  -23.5344 N   0  0  0  0  0  0  0  0  0  0  0  0
    0.1788  -52.6142  -23.4653 C   0  0  0  0  0  0  0  0  0  0  0  0
    0.2401  -52.0625  -22.1949 C   0  0  0  0  0  0  0  0  0  0  0  0
    0.7785  -50.8003  -21.9805 C   0  0  0  0  0  0  0  0  0  0  0  0
    0.8362  -50.2566  -20.7089 C   0  0  0  0  0  0  0  0  0  0  0  0
    1.3589  -48.9899  -20.3736 N   0  0  0  0  0  0  0  0  0  0  0  0
    2.7237  -48.6372  -20.3686 C   0  0  0  0  0  0  0  0  0  0  0  0
    3.6758  -49.4398  -20.6741 O   0  0  0  0  0  0  0  0  0  0  0  0
    0.6850  -48.2131  -20.0958 H   0  0  0  0  0  0  0  0  0  0  0  0
    3.1660  -47.2753  -19.9994 C   0  0  0  0  0  0  0  0  0  0  0  0
    3.2585  -46.8694  -18.7617 C   0  0  0  0  0  0  0  0  0  0  0  0
    3.7149  -45.4667  -18.4293 C   0  0  0  0  0  0  0  0  0  0  0  0
    4.6632  -45.4729  -17.3638 N   0  0  0  0  0  0  0  0  0  0  0  0
    5.2966  -46.7421  -17.1107 C   0  0  0  0  0  0  0  0  0  0  0  0
    6.7392  -46.4884  -17.4893 C   0  0  0  0  0  0  0  0  0  0  0  0
    6.8431  -46.3830  -18.8931 O   0  0  0  0  0  0  0  0  0  0  0  0
    8.1166  -45.9143  -19.2116 C   0  0  0  0  0  0  0  0  0  0  0  0
    8.2751  -44.5399  -18.6491 C   0  0  0  0  0  0  0  0  0  0  0  0
    8.0802  -44.4762  -17.2947 O   0  0  0  0  0  0  0  0  0  0  0  0
    6.9334  -45.0883  -16.8802 C   0  0  0  0  0  0  0  0  0  0  0  0
    5.6541  -44.4457  -17.3969 C   0  0  0  0  0  0  0  0  0  0  0  0
    0.6300  -51.9279  -24.6105 N   0  0  0  0  0  0  0  0  0  0  0  0
    1.2241  -51.0649  -24.4169 H   0  0  0  0  0  0  0  0  0  0  0  0
    0.3834  -52.2608  -25.9650 C   0  0  0  0  0  0  0  0  0  0  0  0
    1.3251  -52.6305  -26.8527 C   0  0  0  0  0  0  0  0  0  0  0  0
    0.9606  -52.9622  -28.1650 C   0  0  0  0  0  0  0  0  0  0  0  0
   -0.3622  -52.9096  -28.5482 C   0  0  0  0  0  0  0  0  0  0  0  0
   -0.7166  -53.2290  -29.8141 F   0  0  0  0  0  0  0  0  0  0  0  0
   -1.3290  -52.5314  -27.6440 C   0  0  0  0  0  0  0  0  0  0  0  0
   -3.0327  -52.4499  -28.0963 Cl  0  0  0  0  0  0  0  0  0  0  0  0
   -0.9534  -52.2121  -26.3685 C   0  0  0  0  0  0  0  0  0  0  0  0
    0.3958  -50.4584  -18.3479 O   0  0  0  0  0  0  0  0  0  0  0  0
    1.0091  -51.0229  -17.2351 C   0  0  0  0  0  0  0  0  0  0  0  0
    2.5018  -50.7472  -17.3728 C   0  0  0  0  0  0  0  0  0  0  0  0
    3.3344  -49.7013  -15.4731 C   0  0  0  0  0  0  0  0  0  0  0  0
    2.9072  -49.5845  -16.7716 O   0  0  0  0  0  0  0  0  0  0  0  0
 40 41  1  0  0  0
 41 39  1  0  0  0
 39 38  1  0  0  0
 38 37  1  0  0  0
 37  1  1  0  0  0
  1  2  2  0  0  0
  2  3  1  0  0  0
  3  4  2  0  0  0
  4  5  1  0  0  0
  5  6  2  0  0  0
  6  7  1  0  0  0
  7 27  1  0  0  0
 27 29  1  0  0  0
 29 30  2  0  0  0
 30 31  1  0  0  0
 31 32  2  0  0  0
 32 33  1  0  0  0
 32 34  1  0  0  0
 34 35  1  0  0  0
 34 36  2  0  0  0
  7  8  2  0  0  0
  8  9  1  0  0  0
  9 10  2  0  0  0
 10 11  1  0  0  0
 11 12  1  0  0  0
 12 13  2  0  0  0
 12 15  1  0  0  0
 15 16  2  0  0  0
 16 17  1  0  0  0
 17 18  1  0  0  0
 18 19  1  0  0  0
 19 20  1  0  0  0
 20 21  1  0  0  0
 21 22  1  0  0  0
 22 23  1  0  0  0
 23 24  1  0  0  0
 24 25  1  0  0  0
 25 26  1  0  0  0
 10  1  1  0  0  0
 26 18  1  0  0  0
  8  3  1  0  0  0
 25 20  1  0  0  0
 36 29  1  0  0  0
 27 28  1  0  0  0
 11 14  1  0  0  0
M  END
> <minimizedAffinity>
-7.05398

> <CNNscore>
0.4708393514

> <CNNaffinity>
7.0511527061

> <CNN_VS>
3.3199601173

> <CNNaffinity_variance>
0.4924144745

$$$$
[H]/C(C(=O)N([H])c1c(OC([H])([H])C([H])([H])[H])c([H])c2nc([H])c(C#N)c(N([H])c3c([H])c([H])c(OC([H])([H])c4c([H])c([H])c([H])c([H])c4[H])c(Cl)c3[H])c2c1[H])=C(/[H])C([H])([H])N1C([H])([H])C([H])([H])N(C([H])([H])[H])C([H])([H])C1([H])[H]


 46 50  0  0  0  0  0  0  0  0999 V2000
   -0.4209  -52.8502  -19.4796 C   0  0  0  0  0  0  0  0  0  0  0  0
   -0.8459  -53.9292  -20.1901 C   0  0  0  0  0  0  0  0  0  0  0  0
   -0.7323  -53.9069  -21.5655 C   0  0  0  0  0  0  0  0  0  0  0  0
   -1.1485  -54.9665  -22.2833 N   0  0  0  0  0  0  0  0  0  0  0  0
   -1.0429  -54.9570  -23.6383 C   0  0  0  0  0  0  0  0  0  0  0  0
   -0.5166  -53.8856  -24.3255 C   0  0  0  0  0  0  0  0  0  0  0  0
   -0.0933  -52.8004  -23.5528 C   0  0  0  0  0  0  0  0  0  0  0  0
   -0.1950  -52.7996  -22.1798 C   0  0  0  0  0  0  0  0  0  0  0  0
    0.2319  -51.7069  -21.4134 C   0  0  0  0  0  0  0  0  0  0  0  0
    0.1369  -51.6894  -20.0458 C   0  0  0  0  0  0  0  0  0  0  0  0
    0.5372  -50.6337  -19.1957 N   0  0  0  0  0  0  0  0  0  0  0  0
    1.7203  -50.5292  -18.4686 C   0  0  0  0  0  0  0  0  0  0  0  0
    2.5905  -51.4311  -18.5112 O   0  0  0  0  0  0  0  0  0  0  0  0
   -0.1413  -49.8191  -19.0968 H   0  0  0  0  0  0  0  0  0  0  0  0
    2.0224  -49.3770  -17.6195 C   0  0  0  0  0  0  0  0  0  0  0  0
    1.6146  -49.2548  -16.3797 C   0  0  0  0  0  0  0  0  0  0  0  0
    2.0004  -48.0072  -15.6129 C   0  0  0  0  0  0  0  0  0  0  0  0
    0.8316  -47.2916  -15.1955 N   0  0  0  0  0  0  0  0  0  0  0  0
    0.9262  -46.8971  -13.8216 C   0  0  0  0  0  0  0  0  0  0  0  0
   -0.3085  -47.2294  -13.0175 C   0  0  0  0  0  0  0  0  0  0  0  0
   -1.5354  -46.9389  -13.6906 N   0  0  0  0  0  0  0  0  0  0  0  0
   -1.9401  -45.5677  -13.6227 C   0  0  0  0  0  0  0  0  0  0  0  0
   -1.6159  -47.5040  -15.0027 C   0  0  0  0  0  0  0  0  0  0  0  0
   -0.3101  -48.1824  -15.3544 C   0  0  0  0  0  0  0  0  0  0  0  0
   -0.4009  -53.8675  -25.7579 C   0  0  0  0  0  0  0  0  0  0  0  0
   -0.2950  -53.8639  -26.9108 N   0  0  0  0  0  0  0  0  0  0  0  0
    0.4350  -51.6980  -24.2389 N   0  0  0  0  0  0  0  0  0  0  0  0
   -0.1863  -51.0618  -24.7849 H   0  0  0  0  0  0  0  0  0  0  0  0
    1.8235  -51.4028  -24.2191 C   0  0  0  0  0  0  0  0  0  0  0  0
    2.2986  -50.1013  -24.3927 C   0  0  0  0  0  0  0  0  0  0  0  0
    3.6451  -49.8079  -24.3707 C   0  0  0  0  0  0  0  0  0  0  0  0
    4.5580  -50.8222  -24.1726 C   0  0  0  0  0  0  0  0  0  0  0  0
    4.0685  -52.1000  -24.0035 C   0  0  0  0  0  0  0  0  0  0  0  0
    5.2155  -53.4220  -23.7469 Cl  0  0  0  0  0  0  0  0  0  0  0  0
    2.7494  -52.4326  -24.0182 C   0  0  0  0  0  0  0  0  0  0  0  0
    5.9239  -50.6282  -24.1340 O   0  0  0  0  0  0  0  0  0  0  0  0
    6.6092  -49.4236  -24.2148 C   0  0  0  0  0  0  0  0  0  0  0  0
    7.4008  -49.2377  -22.9495 C   0  0  0  0  0  0  0  0  0  0  0  0
    8.3745  -48.2498  -22.8695 C   0  0  0  0  0  0  0  0  0  0  0  0
    9.1240  -48.0339  -21.7373 C   0  0  0  0  0  0  0  0  0  0  0  0
    8.9228  -48.8168  -20.6162 C   0  0  0  0  0  0  0  0  0  0  0  0
    7.9613  -49.8028  -20.6755 C   0  0  0  0  0  0  0  0  0  0  0  0
    7.2081  -50.0124  -21.8275 C   0  0  0  0  0  0  0  0  0  0  0  0
   -0.5454  -52.8957  -18.1004 O   0  0  0  0  0  0  0  0  0  0  0  0
   -1.6580  -51.7657  -16.3490 C   0  0  0  0  0  0  0  0  0  0  0  0
   -1.7624  -52.8481  -17.4211 C   0  0  0  0  0  0  0  0  0  0  0  0
 45 46  1  0  0  0
 46 44  1  0  0  0
 44  1  1  0  0  0
  1  2  2  0  0  0
  2  3  1  0  0  0
  3  4  2  0  0  0
  4  5  1  0  0  0
  5  6  2  0  0  0
  6 25  1  0  0  0
 25 26  3  0  0  0
  6  7  1  0  0  0
  7 27  1  0  0  0
 27 29  1  0  0  0
 29 30  2  0  0  0
 30 31  1  0  0  0
 31 32  2  0  0  0
 32 36  1  0  0  0
 36 37  1  0  0  0
 37 38  1  0  0  0
 38 39  2  0  0  0
 39 40  1  0  0  0
 40 41  2  0  0  0
 41 42  1  0  0  0
 42 43  2  0  0  0
 32 33  1  0  0  0
 33 34  1  0  0  0
 33 35  2  0  0  0
  7  8  2  0  0  0
  8  9  1  0  0  0
  9 10  2  0  0  0
 10 11  1  0  0  0
 11 12  1  0  0  0
 12 13  2  0  0  0
 12 15  1  0  0  0
 15 16  2  0  0  0
 16 17  1  0  0  0
 17 18  1  0  0  0
 18 19  1  0  0  0
 19 20  1  0  0  0
 20 21  1  0  0  0
 21 22  1  0  0  0
 21 23  1  0  0  0
 23 24  1  0  0  0
 10  1  1  0  0  0
 24 18  1  0  0  0
  8  3  1  0  0  0
 35 29  1  0  0  0
 43 38  1  0  0  0
 27 28  1  0  0  0
 11 14  1  0  0  0
M  END
> <minimizedAffinity>
-7.58570

> <CNNscore>
0.5399296284

> <CNNaffinity>
7.5907135010

> <CNN_VS>
4.0984511375

> <CNNaffinity_variance>
0.1114624366

$$$$
[H]/C(C(=O)N([H])c1c(OC([H])([H])C([H])([H])[H])c([H])c2nc([H])c(C#N)c(N([H])c3c([H])c([H])c(OC([H])([H])c4c([H])c([H])c([H])c([H])c4[H])c(Cl)c3[H])c2c1[H])=C(/[H])C([H])([H])N1C([H])([H])C([H])([H])N(C([H])([H])[H])C([H])([H])C1([H])[H]


 46 50  0  0  0  0  0  0  0  0999 V2000
   -0.0551  -52.0411  -19.0856 C   0  0  0  0  0  0  0  0  0  0  0  0
   -0.5822  -53.1968  -19.5718 C   0  0  0  0  0  0  0  0  0  0  0  0
   -0.5611  -53.4161  -20.9344 C   0  0  0  0  0  0  0  0  0  0  0  0
   -1.0790  -54.5544  -21.4317 N   0  0  0  0  0  0  0  0  0  0  0  0
   -1.0650  -54.7824  -22.7715 C   0  0  0  0  0  0  0  0  0  0  0  0
   -0.5320  -53.8786  -23.6638 C   0  0  0  0  0  0  0  0  0  0  0  0
   -0.0019  -52.7063  -23.1174 C   0  0  0  0  0  0  0  0  0  0  0  0
   -0.0102  -52.4653  -21.7619 C   0  0  0  0  0  0  0  0  0  0  0  0
    0.5233  -51.2869  -21.2232 C   0  0  0  0  0  0  0  0  0  0  0  0
    0.5221  -51.0309  -19.8763 C   0  0  0  0  0  0  0  0  0  0  0  0
    1.0330  -49.8729  -19.2473 N   0  0  0  0  0  0  0  0  0  0  0  0
    2.3282  -49.6585  -18.7831 C   0  0  0  0  0  0  0  0  0  0  0  0
    3.2118  -50.5416  -18.8922 O   0  0  0  0  0  0  0  0  0  0  0  0
    0.3520  -49.0658  -19.1109 H   0  0  0  0  0  0  0  0  0  0  0  0
    2.7385  -48.4068  -18.1468 C   0  0  0  0  0  0  0  0  0  0  0  0
    3.1636  -47.3562  -18.8055 C   0  0  0  0  0  0  0  0  0  0  0  0
    3.5570  -46.1226  -18.0200 C   0  0  0  0  0  0  0  0  0  0  0  0
    3.6552  -46.4256  -16.6232 N   0  0  0  0  0  0  0  0  0  0  0  0
    2.8769  -45.5153  -15.8374 C   0  0  0  0  0  0  0  0  0  0  0  0
    3.6333  -44.9412  -14.6628 C   0  0  0  0  0  0  0  0  0  0  0  0
    4.4178  -45.9015  -13.9520 N   0  0  0  0  0  0  0  0  0  0  0  0
    3.6826  -46.6889  -13.0097 C   0  0  0  0  0  0  0  0  0  0  0  0
    5.2881  -46.6647  -14.7932 C   0  0  0  0  0  0  0  0  0  0  0  0
    5.0560  -46.3006  -16.2431 C   0  0  0  0  0  0  0  0  0  0  0  0
   -0.5127  -54.1121  -25.0818 C   0  0  0  0  0  0  0  0  0  0  0  0
   -0.4811  -54.2953  -26.2245 N   0  0  0  0  0  0  0  0  0  0  0  0
    0.5349  -51.7720  -24.0141 N   0  0  0  0  0  0  0  0  0  0  0  0
   -0.0867  -51.2205  -24.6454 H   0  0  0  0  0  0  0  0  0  0  0  0
    1.9325  -51.5382  -24.0997 C   0  0  0  0  0  0  0  0  0  0  0  0
    2.8543  -52.5866  -24.0672 C   0  0  0  0  0  0  0  0  0  0  0  0
    4.2121  -52.3662  -24.1537 C   0  0  0  0  0  0  0  0  0  0  0  0
    4.6844  -51.0765  -24.2758 C   0  0  0  0  0  0  0  0  0  0  0  0
    3.7580  -50.0556  -24.3058 C   0  0  0  0  0  0  0  0  0  0  0  0
    4.3337  -48.3904  -24.4622 Cl  0  0  0  0  0  0  0  0  0  0  0  0
    2.4111  -50.2291  -24.2235 C   0  0  0  0  0  0  0  0  0  0  0  0
    6.0234  -50.7555  -24.3696 O   0  0  0  0  0  0  0  0  0  0  0  0
    7.0092  -50.9542  -23.4127 C   0  0  0  0  0  0  0  0  0  0  0  0
    6.8959  -49.8698  -22.3766 C   0  0  0  0  0  0  0  0  0  0  0  0
    6.2791  -50.1250  -21.1581 C   0  0  0  0  0  0  0  0  0  0  0  0
    6.1518  -49.1726  -20.1748 C   0  0  0  0  0  0  0  0  0  0  0  0
    6.6484  -47.8989  -20.3785 C   0  0  0  0  0  0  0  0  0  0  0  0
    7.2639  -47.6256  -21.5813 C   0  0  0  0  0  0  0  0  0  0  0  0
    7.3873  -48.5981  -22.5699 C   0  0  0  0  0  0  0  0  0  0  0  0
   -0.0881  -51.8433  -17.7147 O   0  0  0  0  0  0  0  0  0  0  0  0
   -1.5336  -51.1095  -15.9958 C   0  0  0  0  0  0  0  0  0  0  0  0
   -1.1195  -52.2806  -16.8840 C   0  0  0  0  0  0  0  0  0  0  0  0
 45 46  1  0  0  0
 46 44  1  0  0  0
 44  1  1  0  0  0
  1  2  2  0  0  0
  2  3  1  0  0  0
  3  4  2  0  0  0
  4  5  1  0  0  0
  5  6  2  0  0  0
  6 25  1  0  0  0
 25 26  3  0  0  0
  6  7  1  0  0  0
  7 27  1  0  0  0
 27 29  1  0  0  0
 29 30  2  0  0  0
 30 31  1  0  0  0
 31 32  2  0  0  0
 32 36  1  0  0  0
 36 37  1  0  0  0
 37 38  1  0  0  0
 38 39  2  0  0  0
 39 40  1  0  0  0
 40 41  2  0  0  0
 41 42  1  0  0  0
 42 43  2  0  0  0
 32 33  1  0  0  0
 33 34  1  0  0  0
 33 35  2  0  0  0
  7  8  2  0  0  0
  8  9  1  0  0  0
  9 10  2  0  0  0
 10 11  1  0  0  0
 11 12  1  0  0  0
 12 13  2  0  0  0
 12 15  1  0  0  0
 15 16  2  0  0  0
 16 17  1  0  0  0
 17 18  1  0  0  0
 18 19  1  0  0  0
 19 20  1  0  0  0
 20 21  1  0  0  0
 21 22  1  0  0  0
 21 23  1  0  0  0
 23 24  1  0  0  0
 10  1  1  0  0  0
 24 18  1  0  0  0
  8  3  1  0  0  0
 35 29  1  0  0  0
 43 38  1  0  0  0
 27 28  1  0  0  0
 11 14  1  0  0  0
M  END
> <minimizedAffinity>
-7.29496

> <CNNscore>
0.4065706432

> <CNNaffinity>
7.4117074013

> <CNN_VS>
3.0133826733

> <CNNaffinity_variance>
0.1936502755

$$$$
[H]/C(C(=O)N([H])c1c(OC([H])([H])C([H])([H])[H])c([H])c2nc([H])c(C#N)c(N([H])c3c([H])c([H])c(OC([H])([H])c4c([H])c([H])c([H])c([H])c4[H])c(Cl)c3[H])c2c1[H])=C(/[H])C([H])([H])N1C([H])([H])C([H])([H])N(C([H])([H])[H])C([H])([H])C1([H])[H]


 46 50  0  0  0  0  0  0  0  0999 V2000
   -0.2459  -52.9179  -19.4715 C   0  0  0  0  0  0  0  0  0  0  0  0
   -0.7417  -53.9605  -20.1904 C   0  0  0  0  0  0  0  0  0  0  0  0
   -0.6737  -53.9108  -21.5681 C   0  0  0  0  0  0  0  0  0  0  0  0
   -1.1603  -54.9343  -22.2941 N   0  0  0  0  0  0  0  0  0  0  0  0
   -1.1000  -54.8976  -23.6514 C   0  0  0  0  0  0  0  0  0  0  0  0
   -0.5505  -53.8341  -24.3327 C   0  0  0  0  0  0  0  0  0  0  0  0
   -0.0539  -52.7868  -23.5516 C   0  0  0  0  0  0  0  0  0  0  0  0
   -0.1091  -52.8138  -22.1762 C   0  0  0  0  0  0  0  0  0  0  0  0
    0.3913  -51.7589  -21.4013 C   0  0  0  0  0  0  0  0  0  0  0  0
    0.3432  -51.7694  -20.0311 C   0  0  0  0  0  0  0  0  0  0  0  0
    0.8183  -50.7523  -19.1725 N   0  0  0  0  0  0  0  0  0  0  0  0
    2.0755  -50.6566  -18.5815 C   0  0  0  0  0  0  0  0  0  0  0  0
    2.9531  -51.5309  -18.7766 O   0  0  0  0  0  0  0  0  0  0  0  0
    0.1394  -49.9631  -18.9486 H   0  0  0  0  0  0  0  0  0  0  0  0
    2.4509  -49.5458  -17.7068 C   0  0  0  0  0  0  0  0  0  0  0  0
    1.6216  -48.9480  -16.8863 C   0  0  0  0  0  0  0  0  0  0  0  0
    2.1436  -47.8090  -16.0357 C   0  0  0  0  0  0  0  0  0  0  0  0
    3.4456  -47.4067  -16.4777 N   0  0  0  0  0  0  0  0  0  0  0  0
    4.3805  -47.3878  -15.3925 C   0  0  0  0  0  0  0  0  0  0  0  0
    5.1940  -46.1169  -15.3259 C   0  0  0  0  0  0  0  0  0  0  0  0
    5.6681  -45.6637  -16.5957 N   0  0  0  0  0  0  0  0  0  0  0  0
    6.8534  -46.3205  -17.0564 C   0  0  0  0  0  0  0  0  0  0  0  0
    4.6404  -45.5581  -17.5857 C   0  0  0  0  0  0  0  0  0  0  0  0
    3.3286  -46.0616  -17.0248 C   0  0  0  0  0  0  0  0  0  0  0  0
   -0.4824  -53.7875  -25.7676 C   0  0  0  0  0  0  0  0  0  0  0  0
   -0.4437  -53.7547  -26.9242 N   0  0  0  0  0  0  0  0  0  0  0  0
    0.4992  -51.6925  -24.2312 N   0  0  0  0  0  0  0  0  0  0  0  0
   -0.1131  -51.0040  -24.7211 H   0  0  0  0  0  0  0  0  0  0  0  0
    1.9015  -51.4763  -24.2803 C   0  0  0  0  0  0  0  0  0  0  0  0
    2.7968  -52.5231  -24.5089 C   0  0  0  0  0  0  0  0  0  0  0  0
    4.1589  -52.3189  -24.5613 C   0  0  0  0  0  0  0  0  0  0  0  0
    4.6623  -51.0475  -24.3838 C   0  0  0  0  0  0  0  0  0  0  0  0
    3.7616  -50.0279  -24.1592 C   0  0  0  0  0  0  0  0  0  0  0  0
    4.3776  -48.3860  -23.9282 Cl  0  0  0  0  0  0  0  0  0  0  0  0
    2.4117  -50.1859  -24.0999 C   0  0  0  0  0  0  0  0  0  0  0  0
    6.0081  -50.7434  -24.4194 O   0  0  0  0  0  0  0  0  0  0  0  0
    7.0045  -51.2183  -23.5776 C   0  0  0  0  0  0  0  0  0  0  0  0
    7.1999  -50.2288  -22.4618 C   0  0  0  0  0  0  0  0  0  0  0  0
    8.2031  -49.2709  -22.5408 C   0  0  0  0  0  0  0  0  0  0  0  0
    8.4232  -48.3408  -21.5525 C   0  0  0  0  0  0  0  0  0  0  0  0
    7.6291  -48.3341  -20.4212 C   0  0  0  0  0  0  0  0  0  0  0  0
    6.6282  -49.2768  -20.3237 C   0  0  0  0  0  0  0  0  0  0  0  0
    6.4144  -50.2139  -21.3309 C   0  0  0  0  0  0  0  0  0  0  0  0
   -0.3256  -52.9904  -18.0902 O   0  0  0  0  0  0  0  0  0  0  0  0
   -1.3465  -51.6691  -16.4185 C   0  0  0  0  0  0  0  0  0  0  0  0
   -1.5094  -52.8562  -17.3652 C   0  0  0  0  0  0  0  0  0  0  0  0
 45 46  1  0  0  0
 46 44  1  0  0  0
 44  1  1  0  0  0
  1  2  2  0  0  0
  2  3  1  0  0  0
  3  4  2  0  0  0
  4  5  1  0  0  0
  5  6  2  0  0  0
  6 25  1  0  0  0
 25 26  3  0  0  0
  6  7  1  0  0  0
  7 27  1  0  0  0
 27 29  1  0  0  0
 29 30  2  0  0  0
 30 31  1  0  0  0
 31 32  2  0  0  0
 32 36  1  0  0  0
 36 37  1  0  0  0
 37 38  1  0  0  0
 38 39  2  0  0  0
 39 40  1  0  0  0
 40 41  2  0  0  0
 41 42  1  0  0  0
 42 43  2  0  0  0
 32 33  1  0  0  0
 33 34  1  0  0  0
 33 35  2  0  0  0
  7  8  2  0  0  0
  8  9  1  0  0  0
  9 10  2  0  0  0
 10 11  1  0  0  0
 11 12  1  0  0  0
 12 13  2  0  0  0
 12 15  1  0  0  0
 15 16  2  0  0  0
 16 17  1  0  0  0
 17 18  1  0  0  0
 18 19  1  0  0  0
 19 20  1  0  0  0
 20 21  1  0  0  0
 21 22  1  0  0  0
 21 23  1  0  0  0
 23 24  1  0  0  0
 10  1  1  0  0  0
 24 18  1  0  0  0
  8  3  1  0  0  0
 35 29  1  0  0  0
 43 38  1  0  0  0
 27 28  1  0  0  0
 11 14  1  0  0  0
M  END
> <minimizedAffinity>
-7.57607

> <CNNscore>
0.4014743567

> <CNNaffinity>
7.5611863136

> <CNN_VS>
3.0356223583

> <CNNaffinity_variance>
0.1412785947

$$$$
[H]/C(C(=O)N([H])c1c(OC([H])([H])C([H])([H])[H])c([H])c2nc([H])c(C#N)c(N([H])c3c([H])c([H])c(OC([H])([H])c4c([H])c([H])c([H])c([H])c4[H])c(Cl)c3[H])c2c1[H])=C(/[H])C([H])([H])N1C([H])([H])C([H])([H])N(C([H])([H])[H])C([H])([H])C1([H])[H]


 46 50  0  0  0  0  0  0  0  0999 V2000
    0.8301  -53.0128  -26.5138 C   0  0  0  0  0  0  0  0  0  0  0  0
    0.2270  -54.1179  -25.9993 C   0  0  0  0  0  0  0  0  0  0  0  0
   -0.2625  -54.0691  -24.7096 C   0  0  0  0  0  0  0  0  0  0  0  0
   -0.8618  -55.1542  -24.1855 N   0  0  0  0  0  0  0  0  0  0  0  0
   -1.3476  -55.1195  -22.9166 C   0  0  0  0  0  0  0  0  0  0  0  0
   -1.2511  -53.9967  -22.1247 C   0  0  0  0  0  0  0  0  0  0  0  0
   -0.6238  -52.8862  -22.6965 C   0  0  0  0  0  0  0  0  0  0  0  0
   -0.1287  -52.9100  -23.9810 C   0  0  0  0  0  0  0  0  0  0  0  0
    0.4989  -51.7917  -24.5460 C   0  0  0  0  0  0  0  0  0  0  0  0
    0.9982  -51.7990  -25.8228 C   0  0  0  0  0  0  0  0  0  0  0  0
    1.6469  -50.7232  -26.4704 N   0  0  0  0  0  0  0  0  0  0  0  0
    2.9092  -50.2025  -26.1973 C   0  0  0  0  0  0  0  0  0  0  0  0
    3.6256  -50.6805  -25.2858 O   0  0  0  0  0  0  0  0  0  0  0  0
    1.1125  -50.2525  -27.2621 H   0  0  0  0  0  0  0  0  0  0  0  0
    3.4755  -49.0799  -26.9450 C   0  0  0  0  0  0  0  0  0  0  0  0
    3.8256  -47.9402  -26.4001 C   0  0  0  0  0  0  0  0  0  0  0  0
    4.4005  -46.8602  -27.2926 C   0  0  0  0  0  0  0  0  0  0  0  0
    3.7978  -46.9073  -28.5915 N   0  0  0  0  0  0  0  0  0  0  0  0
    4.7810  -46.7827  -29.6259 C   0  0  0  0  0  0  0  0  0  0  0  0
    4.4149  -45.7641  -30.6794 C   0  0  0  0  0  0  0  0  0  0  0  0
    3.0472  -45.8197  -31.0906 N   0  0  0  0  0  0  0  0  0  0  0  0
    2.7595  -46.8308  -32.0619 C   0  0  0  0  0  0  0  0  0  0  0  0
    2.1203  -45.7800  -30.0013 C   0  0  0  0  0  0  0  0  0  0  0  0
    2.8676  -45.7901  -28.6858 C   0  0  0  0  0  0  0  0  0  0  0  0
   -1.7624  -53.9514  -20.7823 C   0  0  0  0  0  0  0  0  0  0  0  0
   -2.1618  -53.9047  -19.6966 N   0  0  0  0  0  0  0  0  0  0  0  0
   -0.5088  -51.7391  -21.8990 N   0  0  0  0  0  0  0  0  0  0  0  0
   -1.1933  -50.9566  -21.9884 H   0  0  0  0  0  0  0  0  0  0  0  0
    0.5326  -51.5955  -20.9448 C   0  0  0  0  0  0  0  0  0  0  0  0
    0.2625  -51.4237  -19.5857 C   0  0  0  0  0  0  0  0  0  0  0  0
    1.2692  -51.2875  -18.6541 C   0  0  0  0  0  0  0  0  0  0  0  0
    2.5847  -51.3201  -19.0661 C   0  0  0  0  0  0  0  0  0  0  0  0
    2.8299  -51.4904  -20.4122 C   0  0  0  0  0  0  0  0  0  0  0  0
    4.5076  -51.5368  -20.9708 Cl  0  0  0  0  0  0  0  0  0  0  0  0
    1.8673  -51.6285  -21.3636 C   0  0  0  0  0  0  0  0  0  0  0  0
    3.6600  -51.1933  -18.2103 O   0  0  0  0  0  0  0  0  0  0  0  0
    3.8784  -50.1963  -17.2694 C   0  0  0  0  0  0  0  0  0  0  0  0
    3.4053  -50.6905  -15.9299 C   0  0  0  0  0  0  0  0  0  0  0  0
    2.3483  -50.0622  -15.2833 C   0  0  0  0  0  0  0  0  0  0  0  0
    1.8732  -50.4744  -14.0608 C   0  0  0  0  0  0  0  0  0  0  0  0
    2.4516  -51.5563  -13.4242 C   0  0  0  0  0  0  0  0  0  0  0  0
    3.5020  -52.1934  -14.0494 C   0  0  0  0  0  0  0  0  0  0  0  0
    3.9748  -51.7672  -15.2876 C   0  0  0  0  0  0  0  0  0  0  0  0
    1.3138  -53.0860  -27.8101 O   0  0  0  0  0  0  0  0  0  0  0  0
   -0.5022  -52.5985  -29.2409 C   0  0  0  0  0  0  0  0  0  0  0  0
    0.5938  -53.6014  -28.8876 C   0  0  0  0  0  0  0  0  0  0  0  0
 45 46  1  0  0  0
 46 44  1  0  0  0
 44  1  1  0  0  0
  1  2  2  0  0  0
  2  3  1  0  0  0
  3  4  2  0  0  0
  4  5  1  0  0  0
  5  6  2  0  0  0
  6 25  1  0  0  0
 25 26  3  0  0  0
  6  7  1  0  0  0
  7 27  1  0  0  0
 27 29  1  0  0  0
 29 30  2  0  0  0
 30 31  1  0  0  0
 31 32  2  0  0  0
 32 36  1  0  0  0
 36 37  1  0  0  0
 37 38  1  0  0  0
 38 39  2  0  0  0
 39 40  1  0  0  0
 40 41  2  0  0  0
 41 42  1  0  0  0
 42 43  2  0  0  0
 32 33  1  0  0  0
 33 34  1  0  0  0
 33 35  2  0  0  0
  7  8  2  0  0  0
  8  9  1  0  0  0
  9 10  2  0  0  0
 10 11  1  0  0  0
 11 12  1  0  0  0
 12 13  2  0  0  0
 12 15  1  0  0  0
 15 16  2  0  0  0
 16 17  1  0  0  0
 17 18  1  0  0  0
 18 19  1  0  0  0
 19 20  1  0  0  0
 20 21  1  0  0  0
 21 22  1  0  0  0
 21 23  1  0  0  0
 23 24  1  0  0  0
 10  1  1  0  0  0
 24 18  1  0  0  0
  8  3  1  0  0  0
 35 29  1  0  0  0
 43 38  1  0  0  0
 27 28  1  0  0  0
 11 14  1  0  0  0
M  END
> <minimizedAffinity>
-8.36713

> <CNNscore>
0.3802715242

> <CNNaffinity>
7.6086769104

> <CNN_VS>
2.8933632374

> <CNNaffinity_variance>
0.1216063946

$$$$
[H]/C(C(=O)N([H])c1c(OC([H])([H])C([H])([H])[H])c([H])c2nc([H])c(C#N)c(N([H])c3c([H])c([H])c(OC([H])([H])c4c([H])c([H])c([H])c([H])c4[H])c(Cl)c3[H])c2c1[H])=C(/[H])C([H])([H])N1C([H])([H])C([H])([H])N(C([H])([H])[H])C([H])([H])C1([H])[H]


 46 50  0  0  0  0  0  0  0  0999 V2000
    2.0184  -50.5820  -17.8822 C   0  0  0  0  0  0  0  0  0  0  0  0
    0.7462  -51.0429  -17.7451 C   0  0  0  0  0  0  0  0  0  0  0  0
    0.2386  -51.8915  -18.7080 C   0  0  0  0  0  0  0  0  0  0  0  0
   -1.0188  -52.3561  -18.5873 N   0  0  0  0  0  0  0  0  0  0  0  0
   -1.5309  -53.1920  -19.5288 C   0  0  0  0  0  0  0  0  0  0  0  0
   -0.8030  -53.5937  -20.6269 C   0  0  0  0  0  0  0  0  0  0  0  0
    0.4990  -53.0947  -20.7246 C   0  0  0  0  0  0  0  0  0  0  0  0
    1.0281  -52.2481  -19.7765 C   0  0  0  0  0  0  0  0  0  0  0  0
    2.3345  -51.7526  -19.8829 C   0  0  0  0  0  0  0  0  0  0  0  0
    2.8762  -50.9081  -18.9485 C   0  0  0  0  0  0  0  0  0  0  0  0
    4.1781  -50.3588  -18.9764 N   0  0  0  0  0  0  0  0  0  0  0  0
    4.6651  -49.3676  -19.8245 C   0  0  0  0  0  0  0  0  0  0  0  0
    3.9339  -48.8438  -20.6984 O   0  0  0  0  0  0  0  0  0  0  0  0
    4.8722  -50.7438  -18.2665 H   0  0  0  0  0  0  0  0  0  0  0  0
    6.0417  -48.8780  -19.7533 C   0  0  0  0  0  0  0  0  0  0  0  0
    6.4827  -48.0672  -18.8225 C   0  0  0  0  0  0  0  0  0  0  0  0
    7.9344  -47.6381  -18.8679 C   0  0  0  0  0  0  0  0  0  0  0  0
    8.1359  -46.4605  -18.0775 N   0  0  0  0  0  0  0  0  0  0  0  0
    8.7774  -46.7715  -16.8349 C   0  0  0  0  0  0  0  0  0  0  0  0
    8.0970  -46.1496  -15.6384 C   0  0  0  0  0  0  0  0  0  0  0  0
    7.6979  -44.7918  -15.8379 N   0  0  0  0  0  0  0  0  0  0  0  0
    8.7448  -43.8324  -15.6587 C   0  0  0  0  0  0  0  0  0  0  0  0
    6.9233  -44.5916  -17.0243 C   0  0  0  0  0  0  0  0  0  0  0  0
    6.8260  -45.8852  -17.8027 C   0  0  0  0  0  0  0  0  0  0  0  0
   -1.3366  -54.4776  -21.6267 C   0  0  0  0  0  0  0  0  0  0  0  0
   -1.7562  -55.2016  -22.4268 N   0  0  0  0  0  0  0  0  0  0  0  0
    1.2488  -53.4865  -21.8424 N   0  0  0  0  0  0  0  0  0  0  0  0
    1.6252  -54.4568  -21.9186 H   0  0  0  0  0  0  0  0  0  0  0  0
    1.5240  -52.5893  -22.9076 C   0  0  0  0  0  0  0  0  0  0  0  0
    2.7531  -51.9357  -23.0162 C   0  0  0  0  0  0  0  0  0  0  0  0
    3.0276  -51.0664  -24.0500 C   0  0  0  0  0  0  0  0  0  0  0  0
    2.0669  -50.8282  -25.0101 C   0  0  0  0  0  0  0  0  0  0  0  0
    0.8602  -51.4833  -24.8846 C   0  0  0  0  0  0  0  0  0  0  0  0
   -0.3917  -51.1982  -26.1014 Cl  0  0  0  0  0  0  0  0  0  0  0  0
    0.5487  -52.3479  -23.8815 C   0  0  0  0  0  0  0  0  0  0  0  0
    2.2475  -49.9770  -26.0814 O   0  0  0  0  0  0  0  0  0  0  0  0
    3.3968  -49.2755  -26.4193 C   0  0  0  0  0  0  0  0  0  0  0  0
    3.2013  -47.8306  -26.0504 C   0  0  0  0  0  0  0  0  0  0  0  0
    2.7354  -46.9224  -26.9931 C   0  0  0  0  0  0  0  0  0  0  0  0
    2.5350  -45.5923  -26.7091 C   0  0  0  0  0  0  0  0  0  0  0  0
    2.7995  -45.1092  -25.4414 C   0  0  0  0  0  0  0  0  0  0  0  0
    3.2627  -45.9945  -24.4917 C   0  0  0  0  0  0  0  0  0  0  0  0
    3.4619  -47.3397  -24.7906 C   0  0  0  0  0  0  0  0  0  0  0  0
    2.5058  -49.7313  -16.9033 O   0  0  0  0  0  0  0  0  0  0  0  0
    3.4640  -49.7065  -14.7437 C   0  0  0  0  0  0  0  0  0  0  0  0
    2.1731  -49.8190  -15.5517 C   0  0  0  0  0  0  0  0  0  0  0  0
 45 46  1  0  0  0
 46 44  1  0  0  0
 44  1  1  0  0  0
  1  2  2  0  0  0
  2  3  1  0  0  0
  3  4  2  0  0  0
  4  5  1  0  0  0
  5  6  2  0  0  0
  6 25  1  0  0  0
 25 26  3  0  0  0
  6  7  1  0  0  0
  7 27  1  0  0  0
 27 29  1  0  0  0
 29 30  2  0  0  0
 30 31  1  0  0  0
 31 32  2  0  0  0
 32 36  1  0  0  0
 36 37  1  0  0  0
 37 38  1  0  0  0
 38 39  2  0  0  0
 39 40  1  0  0  0
 40 41  2  0  0  0
 41 42  1  0  0  0
 42 43  2  0  0  0
 32 33  1  0  0  0
 33 34  1  0  0  0
 33 35  2  0  0  0
  7  8  2  0  0  0
  8  9  1  0  0  0
  9 10  2  0  0  0
 10 11  1  0  0  0
 11 12  1  0  0  0
 12 13  2  0  0  0
 12 15  1  0  0  0
 15 16  2  0  0  0
 16 17  1  0  0  0
 17 18  1  0  0  0
 18 19  1  0  0  0
 19 20  1  0  0  0
 20 21  1  0  0  0
 21 22  1  0  0  0
 21 23  1  0  0  0
 23 24  1  0  0  0
 10  1  1  0  0  0
 24 18  1  0  0  0
  8  3  1  0  0  0
 35 29  1  0  0  0
 43 38  1  0  0  0
 27 28  1  0  0  0
 11 14  1  0  0  0
M  END
> <minimizedAffinity>
-6.24204

> <CNNscore>
0.3732514381

> <CNNaffinity>
7.2295160294

> <CNN_VS>
2.6984272003

> <CNNaffinity_variance>
0.1347484291

$$$$
[H]/C(C(=O)N([H])c1c(OC([H])([H])C([H])([H])[H])c([H])c2nc([H])c(C#N)c(N([H])c3c([H])c([H])c(OC([H])([H])c4c([H])c([H])c([H])c([H])c4[H])c(Cl)c3[H])c2c1[H])=C(/[H])C([H])([H])N1C([H])([H])C([H])([H])N(C([H])([H])[H])C([H])([H])C1([H])[H]


 46 50  0  0  0  0  0  0  0  0999 V2000
   -0.3922  -52.8365  -19.4901 C   0  0  0  0  0  0  0  0  0  0  0  0
   -0.8633  -53.9056  -20.1863 C   0  0  0  0  0  0  0  0  0  0  0  0
   -0.7582  -53.9021  -21.5626 C   0  0  0  0  0  0  0  0  0  0  0  0
   -1.2199  -54.9522  -22.2664 N   0  0  0  0  0  0  0  0  0  0  0  0
   -1.1231  -54.9610  -23.6220 C   0  0  0  0  0  0  0  0  0  0  0  0
   -0.5605  -53.9180  -24.3239 C   0  0  0  0  0  0  0  0  0  0  0  0
   -0.0904  -52.8420  -23.5657 C   0  0  0  0  0  0  0  0  0  0  0  0
   -0.1827  -52.8229  -22.1921 C   0  0  0  0  0  0  0  0  0  0  0  0
    0.2913  -51.7396  -21.4402 C   0  0  0  0  0  0  0  0  0  0  0  0
    0.2062  -51.7041  -20.0722 C   0  0  0  0  0  0  0  0  0  0  0  0
    0.6528  -50.6559  -19.2360 N   0  0  0  0  0  0  0  0  0  0  0  0
    1.8814  -50.5485  -18.5894 C   0  0  0  0  0  0  0  0  0  0  0  0
    2.7557  -51.4401  -18.7038 O   0  0  0  0  0  0  0  0  0  0  0  0
   -0.0256  -49.8502  -19.0796 H   0  0  0  0  0  0  0  0  0  0  0  0
    2.2289  -49.4048  -17.7461 C   0  0  0  0  0  0  0  0  0  0  0  0
    3.0462  -48.4475  -18.1120 C   0  0  0  0  0  0  0  0  0  0  0  0
    3.3187  -47.3200  -17.1383 C   0  0  0  0  0  0  0  0  0  0  0  0
    3.9468  -46.2192  -17.8062 N   0  0  0  0  0  0  0  0  0  0  0  0
    3.5347  -44.9670  -17.2457 C   0  0  0  0  0  0  0  0  0  0  0  0
    3.1116  -43.9565  -18.2855 C   0  0  0  0  0  0  0  0  0  0  0  0
    3.9708  -43.9027  -19.4264 N   0  0  0  0  0  0  0  0  0  0  0  0
    5.1546  -43.1197  -19.2423 C   0  0  0  0  0  0  0  0  0  0  0  0
    4.2068  -45.1805  -20.0257 C   0  0  0  0  0  0  0  0  0  0  0  0
    3.5451  -46.2662  -19.2057 C   0  0  0  0  0  0  0  0  0  0  0  0
   -0.4538  -53.9194  -25.7572 C   0  0  0  0  0  0  0  0  0  0  0  0
   -0.3844  -53.9179  -26.9128 N   0  0  0  0  0  0  0  0  0  0  0  0
    0.4756  -51.7681  -24.2668 N   0  0  0  0  0  0  0  0  0  0  0  0
   -0.1264  -51.1011  -24.7975 H   0  0  0  0  0  0  0  0  0  0  0  0
    1.8774  -51.5441  -24.2834 C   0  0  0  0  0  0  0  0  0  0  0  0
    2.7871  -52.5997  -24.3719 C   0  0  0  0  0  0  0  0  0  0  0  0
    4.1490  -52.3884  -24.3923 C   0  0  0  0  0  0  0  0  0  0  0  0
    4.6376  -51.1008  -24.3235 C   0  0  0  0  0  0  0  0  0  0  0  0
    3.7228  -50.0728  -24.2364 C   0  0  0  0  0  0  0  0  0  0  0  0
    4.3196  -48.4100  -24.1472 Cl  0  0  0  0  0  0  0  0  0  0  0  0
    2.3725  -50.2372  -24.2134 C   0  0  0  0  0  0  0  0  0  0  0  0
    5.9819  -50.7886  -24.3377 O   0  0  0  0  0  0  0  0  0  0  0  0
    6.9311  -51.0952  -23.3723 C   0  0  0  0  0  0  0  0  0  0  0  0
    6.8471  -50.0691  -22.2759 C   0  0  0  0  0  0  0  0  0  0  0  0
    6.0006  -50.2677  -21.1922 C   0  0  0  0  0  0  0  0  0  0  0  0
    5.8877  -49.3652  -20.1611 C   0  0  0  0  0  0  0  0  0  0  0  0
    6.6351  -48.2026  -20.1760 C   0  0  0  0  0  0  0  0  0  0  0  0
    7.4811  -47.9869  -21.2428 C   0  0  0  0  0  0  0  0  0  0  0  0
    7.5873  -48.9081  -22.2815 C   0  0  0  0  0  0  0  0  0  0  0  0
   -0.5090  -52.8628  -18.1098 O   0  0  0  0  0  0  0  0  0  0  0  0
   -1.6206  -51.7299  -16.3595 C   0  0  0  0  0  0  0  0  0  0  0  0
   -1.7230  -52.8192  -17.4248 C   0  0  0  0  0  0  0  0  0  0  0  0
 45 46  1  0  0  0
 46 44  1  0  0  0
 44  1  1  0  0  0
  1  2  2  0  0  0
  2  3  1  0  0  0
  3  4  2  0  0  0
  4  5  1  0  0  0
  5  6  2  0  0  0
  6 25  1  0  0  0
 25 26  3  0  0  0
  6  7  1  0  0  0
  7 27  1  0  0  0
 27 29  1  0  0  0
 29 30  2  0  0  0
 30 31  1  0  0  0
 31 32  2  0  0  0
 32 36  1  0  0  0
 36 37  1  0  0  0
 37 38  1  0  0  0
 38 39  2  0  0  0
 39 40  1  0  0  0
 40 41  2  0  0  0
 41 42  1  0  0  0
 42 43  2  0  0  0
 32 33  1  0  0  0
 33 34  1  0  0  0
 33 35  2  0  0  0
  7  8  2  0  0  0
  8  9  1  0  0  0
  9 10  2  0  0  0
 10 11  1  0  0  0
 11 12  1  0  0  0
 12 13  2  0  0  0
 12 15  1  0  0  0
 15 16  2  0  0  0
 16 17  1  0  0  0
 17 18  1  0  0  0
 18 19  1  0  0  0
 19 20  1  0  0  0
 20 21  1  0  0  0
 21 22  1  0  0  0
 21 23  1  0  0  0
 23 24  1  0  0  0
 10  1  1  0  0  0
 24 18  1  0  0  0
  8  3  1  0  0  0
 35 29  1  0  0  0
 43 38  1  0  0  0
 27 28  1  0  0  0
 11 14  1  0  0  0
M  END
> <minimizedAffinity>
-7.69940

> <CNNscore>
0.3106280267

> <CNNaffinity>
7.4012742043

> <CNN_VS>
2.2990431786

> <CNNaffinity_variance>
0.2305429280

$$$$
[H]/C(C(=O)N([H])c1c(OC([H])([H])C([H])([H])[H])c([H])c2nc([H])c(C#N)c(N([H])c3c([H])c([H])c(OC([H])([H])c4c([H])c([H])c([H])c([H])c4[H])c(Cl)c3[H])c2c1[H])=C(/[H])C([H])([H])N1C([H])([H])C([H])([H])N(C([H])([H])[H])C([H])([H])C1([H])[H]


 46 50  0  0  0  0  0  0  0  0999 V2000
   -0.5485  -52.6477  -19.3924 C   0  0  0  0  0  0  0  0  0  0  0  0
   -1.0471  -53.7275  -20.0521 C   0  0  0  0  0  0  0  0  0  0  0  0
   -0.8735  -53.8106  -21.4189 C   0  0  0  0  0  0  0  0  0  0  0  0
   -1.3612  -54.8725  -22.0867 N   0  0  0  0  0  0  0  0  0  0  0  0
   -1.1975  -54.9663  -23.4327 C   0  0  0  0  0  0  0  0  0  0  0  0
   -0.5394  -53.9997  -24.1606 C   0  0  0  0  0  0  0  0  0  0  0  0
   -0.0445  -52.9094  -23.4395 C   0  0  0  0  0  0  0  0  0  0  0  0
   -0.2040  -52.8046  -22.0760 C   0  0  0  0  0  0  0  0  0  0  0  0
    0.2956  -51.7075  -21.3614 C   0  0  0  0  0  0  0  0  0  0  0  0
    0.1445  -51.5871  -20.0040 C   0  0  0  0  0  0  0  0  0  0  0  0
    0.6105  -50.5186  -19.2049 N   0  0  0  0  0  0  0  0  0  0  0  0
    1.9243  -50.0853  -19.0460 C   0  0  0  0  0  0  0  0  0  0  0  0
    2.8713  -50.6511  -19.6424 O   0  0  0  0  0  0  0  0  0  0  0  0
   -0.1257  -49.9768  -18.6587 H   0  0  0  0  0  0  0  0  0  0  0  0
    2.2819  -48.9575  -18.1857 C   0  0  0  0  0  0  0  0  0  0  0  0
    3.3983  -48.8835  -17.5027 C   0  0  0  0  0  0  0  0  0  0  0  0
    3.6424  -47.6561  -16.6499 C   0  0  0  0  0  0  0  0  0  0  0  0
    4.4692  -46.7159  -17.3461 N   0  0  0  0  0  0  0  0  0  0  0  0
    5.2983  -47.3695  -18.3144 C   0  0  0  0  0  0  0  0  0  0  0  0
    6.7476  -46.9506  -18.2410 C   0  0  0  0  0  0  0  0  0  0  0  0
    6.9377  -45.5443  -18.0708 N   0  0  0  0  0  0  0  0  0  0  0  0
    6.8467  -44.7820  -19.2788 C   0  0  0  0  0  0  0  0  0  0  0  0
    6.1937  -44.9943  -16.9793 C   0  0  0  0  0  0  0  0  0  0  0  0
    5.3189  -46.0620  -16.3599 C   0  0  0  0  0  0  0  0  0  0  0  0
   -0.3616  -54.0913  -25.5838 C   0  0  0  0  0  0  0  0  0  0  0  0
   -0.2342  -54.1704  -26.7318 N   0  0  0  0  0  0  0  0  0  0  0  0
    0.6187  -51.9123  -24.1682 N   0  0  0  0  0  0  0  0  0  0  0  0
    0.0954  -51.2982  -24.8300 H   0  0  0  0  0  0  0  0  0  0  0  0
    2.0158  -51.6972  -24.0371 C   0  0  0  0  0  0  0  0  0  0  0  0
    2.9479  -52.5926  -24.5656 C   0  0  0  0  0  0  0  0  0  0  0  0
    4.3055  -52.3873  -24.4449 C   0  0  0  0  0  0  0  0  0  0  0  0
    4.7670  -51.2683  -23.7844 C   0  0  0  0  0  0  0  0  0  0  0  0
    3.8305  -50.3969  -23.2698 C   0  0  0  0  0  0  0  0  0  0  0  0
    4.3924  -48.9523  -22.4176 Cl  0  0  0  0  0  0  0  0  0  0  0  0
    2.4835  -50.5615  -23.3666 C   0  0  0  0  0  0  0  0  0  0  0  0
    6.1049  -50.9760  -23.6130 O   0  0  0  0  0  0  0  0  0  0  0  0
    6.6930  -49.7208  -23.5376 C   0  0  0  0  0  0  0  0  0  0  0  0
    7.1244  -49.3108  -24.9188 C   0  0  0  0  0  0  0  0  0  0  0  0
    8.3729  -49.6809  -25.4030 C   0  0  0  0  0  0  0  0  0  0  0  0
    8.8161  -49.3369  -26.6582 C   0  0  0  0  0  0  0  0  0  0  0  0
    8.0075  -48.5920  -27.4960 C   0  0  0  0  0  0  0  0  0  0  0  0
    6.7648  -48.2147  -27.0340 C   0  0  0  0  0  0  0  0  0  0  0  0
    6.3264  -48.5689  -25.7609 C   0  0  0  0  0  0  0  0  0  0  0  0
   -0.7355  -52.5863  -18.0210 O   0  0  0  0  0  0  0  0  0  0  0  0
   -2.2130  -51.9793  -16.2800 C   0  0  0  0  0  0  0  0  0  0  0  0
   -1.8957  -53.0023  -17.3684 C   0  0  0  0  0  0  0  0  0  0  0  0
 45 46  1  0  0  0
 46 44  1  0  0  0
 44  1  1  0  0  0
  1  2  2  0  0  0
  2  3  1  0  0  0
  3  4  2  0  0  0
  4  5  1  0  0  0
  5  6  2  0  0  0
  6 25  1  0  0  0
 25 26  3  0  0  0
  6  7  1  0  0  0
  7 27  1  0  0  0
 27 29  1  0  0  0
 29 30  2  0  0  0
 30 31  1  0  0  0
 31 32  2  0  0  0
 32 36  1  0  0  0
 36 37  1  0  0  0
 37 38  1  0  0  0
 38 39  2  0  0  0
 39 40  1  0  0  0
 40 41  2  0  0  0
 41 42  1  0  0  0
 42 43  2  0  0  0
 32 33  1  0  0  0
 33 34  1  0  0  0
 33 35  2  0  0  0
  7  8  2  0  0  0
  8  9  1  0  0  0
  9 10  2  0  0  0
 10 11  1  0  0  0
 11 12  1  0  0  0
 12 13  2  0  0  0
 12 15  1  0  0  0
 15 16  2  0  0  0
 16 17  1  0  0  0
 17 18  1  0  0  0
 18 19  1  0  0  0
 19 20  1  0  0  0
 20 21  1  0  0  0
 21 22  1  0  0  0
 21 23  1  0  0  0
 23 24  1  0  0  0
 10  1  1  0  0  0
 24 18  1  0  0  0
  8  3  1  0  0  0
 35 29  1  0  0  0
 43 38  1  0  0  0
 27 28  1  0  0  0
 11 14  1  0  0  0
M  END
> <minimizedAffinity>
-7.45053

> <CNNscore>
0.3000055254

> <CNNaffinity>
7.4810934067

> <CNN_VS>
2.2443692684

> <CNNaffinity_variance>
0.0678171664

$$$$
[H]/C(C(=O)N([H])c1c(OC([H])([H])C([H])([H])[H])c([H])c2nc([H])c(C#N)c(N([H])c3c([H])c([H])c(OC([H])([H])c4c([H])c([H])c([H])c([H])c4[H])c(Cl)c3[H])c2c1[H])=C(/[H])C([H])([H])N1C([H])([H])C([H])([H])N(C([H])([H])[H])C([H])([H])C1([H])[H]


 46 50  0  0  0  0  0  0  0  0999 V2000
    0.1738  -51.3350  -18.7140 C   0  0  0  0  0  0  0  0  0  0  0  0
   -0.4971  -52.0845  -19.6294 C   0  0  0  0  0  0  0  0  0  0  0  0
    0.0910  -52.3206  -20.8556 C   0  0  0  0  0  0  0  0  0  0  0  0
   -0.5598  -53.0600  -21.7727 N   0  0  0  0  0  0  0  0  0  0  0  0
    0.0078  -53.2994  -22.9841 C   0  0  0  0  0  0  0  0  0  0  0  0
    1.2487  -52.8069  -23.3229 C   0  0  0  0  0  0  0  0  0  0  0  0
    1.8997  -52.0429  -22.3501 C   0  0  0  0  0  0  0  0  0  0  0  0
    1.3343  -51.7947  -21.1196 C   0  0  0  0  0  0  0  0  0  0  0  0
    1.9944  -51.0273  -20.1505 C   0  0  0  0  0  0  0  0  0  0  0  0
    1.4453  -50.7698  -18.9209 C   0  0  0  0  0  0  0  0  0  0  0  0
    2.0349  -50.0065  -17.8879 N   0  0  0  0  0  0  0  0  0  0  0  0
    3.0507  -50.3939  -17.0177 C   0  0  0  0  0  0  0  0  0  0  0  0
    3.5618  -51.5372  -17.0841 O   0  0  0  0  0  0  0  0  0  0  0  0
    1.6633  -49.0174  -17.7557 H   0  0  0  0  0  0  0  0  0  0  0  0
    3.5817  -49.5059  -15.9836 C   0  0  0  0  0  0  0  0  0  0  0  0
    3.5218  -48.1977  -16.0412 C   0  0  0  0  0  0  0  0  0  0  0  0
    4.1122  -47.3974  -14.8991 C   0  0  0  0  0  0  0  0  0  0  0  0
    4.6199  -46.1443  -15.3725 N   0  0  0  0  0  0  0  0  0  0  0  0
    3.5722  -45.3276  -15.9086 C   0  0  0  0  0  0  0  0  0  0  0  0
    3.9025  -44.7428  -17.2615 C   0  0  0  0  0  0  0  0  0  0  0  0
    5.2349  -44.2360  -17.3654 N   0  0  0  0  0  0  0  0  0  0  0  0
    5.4145  -42.9222  -16.8267 C   0  0  0  0  0  0  0  0  0  0  0  0
    6.2368  -45.1729  -16.9582 C   0  0  0  0  0  0  0  0  0  0  0  0
    5.5837  -46.4299  -16.4269 C   0  0  0  0  0  0  0  0  0  0  0  0
    1.8564  -53.0557  -24.6013 C   0  0  0  0  0  0  0  0  0  0  0  0
    2.3518  -53.2708  -25.6254 N   0  0  0  0  0  0  0  0  0  0  0  0
    3.1592  -51.5260  -22.6841 N   0  0  0  0  0  0  0  0  0  0  0  0
    4.0320  -52.0200  -22.3957 H   0  0  0  0  0  0  0  0  0  0  0  0
    3.2992  -50.3215  -23.4224 C   0  0  0  0  0  0  0  0  0  0  0  0
    3.8897  -50.3018  -24.6875 C   0  0  0  0  0  0  0  0  0  0  0  0
    4.0251  -49.1363  -25.4106 C   0  0  0  0  0  0  0  0  0  0  0  0
    3.5674  -47.9496  -24.8780 C   0  0  0  0  0  0  0  0  0  0  0  0
    2.9877  -47.9905  -23.6276 C   0  0  0  0  0  0  0  0  0  0  0  0
    2.3908  -46.4840  -22.9183 Cl  0  0  0  0  0  0  0  0  0  0  0  0
    2.8347  -49.1175  -22.8812 C   0  0  0  0  0  0  0  0  0  0  0  0
    3.6572  -46.7334  -25.5243 O   0  0  0  0  0  0  0  0  0  0  0  0
    4.5674  -46.3623  -26.5045 C   0  0  0  0  0  0  0  0  0  0  0  0
    3.8515  -46.3073  -27.8261 C   0  0  0  0  0  0  0  0  0  0  0  0
    4.3826  -46.9469  -28.9392 C   0  0  0  0  0  0  0  0  0  0  0  0
    3.7687  -46.9322  -30.1693 C   0  0  0  0  0  0  0  0  0  0  0  0
    2.5720  -46.2609  -30.3359 C   0  0  0  0  0  0  0  0  0  0  0  0
    2.0286  -45.6196  -29.2434 C   0  0  0  0  0  0  0  0  0  0  0  0
    2.6592  -45.6413  -28.0023 C   0  0  0  0  0  0  0  0  0  0  0  0
   -0.4369  -51.1114  -17.4906 O   0  0  0  0  0  0  0  0  0  0  0  0
    0.0893  -51.7705  -15.2835 C   0  0  0  0  0  0  0  0  0  0  0  0
   -0.6952  -52.1077  -16.5495 C   0  0  0  0  0  0  0  0  0  0  0  0
 45 46  1  0  0  0
 46 44  1  0  0  0
 44  1  1  0  0  0
  1  2  2  0  0  0
  2  3  1  0  0  0
  3  4  2  0  0  0
  4  5  1  0  0  0
  5  6  2  0  0  0
  6 25  1  0  0  0
 25 26  3  0  0  0
  6  7  1  0  0  0
  7 27  1  0  0  0
 27 29  1  0  0  0
 29 30  2  0  0  0
 30 31  1  0  0  0
 31 32  2  0  0  0
 32 36  1  0  0  0
 36 37  1  0  0  0
 37 38  1  0  0  0
 38 39  2  0  0  0
 39 40  1  0  0  0
 40 41  2  0  0  0
 41 42  1  0  0  0
 42 43  2  0  0  0
 32 33  1  0  0  0
 33 34  1  0  0  0
 33 35  2  0  0  0
  7  8  2  0  0  0
  8  9  1  0  0  0
  9 10  2  0  0  0
 10 11  1  0  0  0
 11 12  1  0  0  0
 12 13  2  0  0  0
 12 15  1  0  0  0
 15 16  2  0  0  0
 16 17  1  0  0  0
 17 18  1  0  0  0
 18 19  1  0  0  0
 19 20  1  0  0  0
 20 21  1  0  0  0
 21 22  1  0  0  0
 21 23  1  0  0  0
 23 24  1  0  0  0
 10  1  1  0  0  0
 24 18  1  0  0  0
  8  3  1  0  0  0
 35 29  1  0  0  0
 43 38  1  0  0  0
 27 28  1  0  0  0
 11 14  1  0  0  0
M  END
> <minimizedAffinity>
-6.37792

> <CNNscore>
0.2695003152

> <CNNaffinity>
7.3286542892

> <CNN_VS>
1.9750746489

> <CNNaffinity_variance>
0.1081607118

$$$$
[H]/C(C(=O)N([H])c1c(OC([H])([H])C([H])([H])[H])c([H])c2nc([H])c(C#N)c(N([H])c3c([H])c([H])c(OC([H])([H])c4c([H])c([H])c([H])c([H])c4[H])c(Cl)c3[H])c2c1[H])=C(/[H])C([H])([H])N1C([H])([H])C([H])([H])N(C([H])([H])[H])C([H])([H])C1([H])[H]


 46 50  0  0  0  0  0  0  0  0999 V2000
    0.1911  -52.2354  -19.6670 C   0  0  0  0  0  0  0  0  0  0  0  0
   -0.5694  -52.8239  -20.6289 C   0  0  0  0  0  0  0  0  0  0  0  0
   -0.0660  -52.9170  -21.9107 C   0  0  0  0  0  0  0  0  0  0  0  0
   -0.8060  -53.4962  -22.8741 N   0  0  0  0  0  0  0  0  0  0  0  0
   -0.3223  -53.5937  -24.1405 C   0  0  0  0  0  0  0  0  0  0  0  0
    0.9209  -53.1145  -24.4897 C   0  0  0  0  0  0  0  0  0  0  0  0
    1.6655  -52.5184  -23.4680 C   0  0  0  0  0  0  0  0  0  0  0  0
    1.1857  -52.4149  -22.1817 C   0  0  0  0  0  0  0  0  0  0  0  0
    1.9394  -51.8155  -21.1637 C   0  0  0  0  0  0  0  0  0  0  0  0
    1.4762  -51.7034  -19.8782 C   0  0  0  0  0  0  0  0  0  0  0  0
    2.1631  -51.1136  -18.7930 N   0  0  0  0  0  0  0  0  0  0  0  0
    2.1851  -49.7695  -18.4297 C   0  0  0  0  0  0  0  0  0  0  0  0
    1.5512  -48.9090  -19.0858 O   0  0  0  0  0  0  0  0  0  0  0  0
    2.7313  -51.7699  -18.1764 H   0  0  0  0  0  0  0  0  0  0  0  0
    2.9378  -49.2789  -17.2753 C   0  0  0  0  0  0  0  0  0  0  0  0
    2.5309  -48.3066  -16.4961 C   0  0  0  0  0  0  0  0  0  0  0  0
    3.4107  -47.8978  -15.3331 C   0  0  0  0  0  0  0  0  0  0  0  0
    3.0038  -46.6246  -14.8176 N   0  0  0  0  0  0  0  0  0  0  0  0
    1.7494  -46.7178  -14.1321 C   0  0  0  0  0  0  0  0  0  0  0  0
    0.7599  -45.6551  -14.5482 C   0  0  0  0  0  0  0  0  0  0  0  0
    1.3295  -44.3509  -14.6799 N   0  0  0  0  0  0  0  0  0  0  0  0
    1.4755  -43.6391  -13.4468 C   0  0  0  0  0  0  0  0  0  0  0  0
    2.4930  -44.3161  -15.5120 C   0  0  0  0  0  0  0  0  0  0  0  0
    2.8587  -45.7177  -15.9484 C   0  0  0  0  0  0  0  0  0  0  0  0
    1.4401  -53.2139  -25.8262 C   0  0  0  0  0  0  0  0  0  0  0  0
    1.8525  -53.3097  -26.9038 N   0  0  0  0  0  0  0  0  0  0  0  0
    2.9288  -52.0165  -23.8105 N   0  0  0  0  0  0  0  0  0  0  0  0
    3.7742  -52.6268  -23.7697 H   0  0  0  0  0  0  0  0  0  0  0  0
    3.1094  -50.6705  -24.2242 C   0  0  0  0  0  0  0  0  0  0  0  0
    2.9545  -49.6039  -23.3365 C   0  0  0  0  0  0  0  0  0  0  0  0
    3.1321  -48.2953  -23.7312 C   0  0  0  0  0  0  0  0  0  0  0  0
    3.4726  -48.0207  -25.0389 C   0  0  0  0  0  0  0  0  0  0  0  0
    3.6206  -49.0879  -25.8995 C   0  0  0  0  0  0  0  0  0  0  0  0
    4.0575  -48.7670  -27.5833 Cl  0  0  0  0  0  0  0  0  0  0  0  0
    3.4548  -50.3925  -25.5515 C   0  0  0  0  0  0  0  0  0  0  0  0
    3.6723  -46.7458  -25.5282 O   0  0  0  0  0  0  0  0  0  0  0  0
    2.7051  -45.8231  -25.9028 C   0  0  0  0  0  0  0  0  0  0  0  0
    2.8361  -45.5652  -27.3788 C   0  0  0  0  0  0  0  0  0  0  0  0
    3.9885  -44.9809  -27.8896 C   0  0  0  0  0  0  0  0  0  0  0  0
    4.1626  -44.7265  -29.2294 C   0  0  0  0  0  0  0  0  0  0  0  0
    3.1666  -45.0548  -30.1298 C   0  0  0  0  0  0  0  0  0  0  0  0
    2.0152  -45.6354  -29.6428 C   0  0  0  0  0  0  0  0  0  0  0  0
    1.8499  -45.8885  -28.2837 C   0  0  0  0  0  0  0  0  0  0  0  0
   -0.3356  -52.1533  -18.3882 O   0  0  0  0  0  0  0  0  0  0  0  0
   -1.9958  -52.3065  -16.7140 C   0  0  0  0  0  0  0  0  0  0  0  0
   -1.3172  -53.0085  -17.8881 C   0  0  0  0  0  0  0  0  0  0  0  0
 45 46  1  0  0  0
 46 44  1  0  0  0
 44  1  1  0  0  0
  1  2  2  0  0  0
  2  3  1  0  0  0
  3  4  2  0  0  0
  4  5  1  0  0  0
  5  6  2  0  0  0
  6 25  1  0  0  0
 25 26  3  0  0  0
  6  7  1  0  0  0
  7 27  1  0  0  0
 27 29  1  0  0  0
 29 30  2  0  0  0
 30 31  1  0  0  0
 31 32  2  0  0  0
 32 36  1  0  0  0
 36 37  1  0  0  0
 37 38  1  0  0  0
 38 39  2  0  0  0
 39 40  1  0  0  0
 40 41  2  0  0  0
 41 42  1  0  0  0
 42 43  2  0  0  0
 32 33  1  0  0  0
 33 34  1  0  0  0
 33 35  2  0  0  0
  7  8  2  0  0  0
  8  9  1  0  0  0
  9 10  2  0  0  0
 10 11  1  0  0  0
 11 12  1  0  0  0
 12 13  2  0  0  0
 12 15  1  0  0  0
 15 16  2  0  0  0
 16 17  1  0  0  0
 17 18  1  0  0  0
 18 19  1  0  0  0
 19 20  1  0  0  0
 20 21  1  0  0  0
 21 22  1  0  0  0
 21 23  1  0  0  0
 23 24  1  0  0  0
 10  1  1  0  0  0
 24 18  1  0  0  0
  8  3  1  0  0  0
 35 29  1  0  0  0
 43 38  1  0  0  0
 27 28  1  0  0  0
 11 14  1  0  0  0
M  END
> <minimizedAffinity>
-6.87617

> <CNNscore>
0.2451379895

> <CNNaffinity>
7.3678269386

> <CNN_VS>
1.8061342239

> <CNNaffinity_variance>
0.1956682503

$$$$
[H]/C(C(=O)N([H])c1c(OC([H])([H])C([H])([H])[H])c([H])c2nc([H])c(C#N)c(N([H])c3c([H])c([H])c(OC([H])([H])c4c([H])c([H])c([H])c([H])c4[H])c(Cl)c3[H])c2c1[H])=C(/[H])C([H])([H])N1C([H])([H])C([H])([H])C([H])([H])C1([H])[H]


 44 48  0  0  0  0  0  0  0  0999 V2000
   -0.4045  -52.8940  -19.5030 C   0  0  0  0  0  0  0  0  0  0  0  0
   -0.8573  -53.9457  -20.2337 C   0  0  0  0  0  0  0  0  0  0  0  0
   -0.7955  -53.9924  -21.6020 C   0  0  0  0  0  0  0  0  0  0  0  0
   -1.2571  -55.0586  -22.2806 N   0  0  0  0  0  0  0  0  0  0  0  0
   -1.1837  -55.0818  -23.6382 C   0  0  0  0  0  0  0  0  0  0  0  0
   -0.6410  -54.0239  -24.3333 C   0  0  0  0  0  0  0  0  0  0  0  0
   -0.1660  -52.9283  -23.6559 C   0  0  0  0  0  0  0  0  0  0  0  0
   -0.2476  -52.9209  -22.2749 C   0  0  0  0  0  0  0  0  0  0  0  0
    0.2265  -51.8246  -21.5448 C   0  0  0  0  0  0  0  0  0  0  0  0
    0.1583  -51.7916  -20.1728 C   0  0  0  0  0  0  0  0  0  0  0  0
    0.6344  -50.7014  -19.4026 N   0  0  0  0  0  0  0  0  0  0  0  0
    1.8727  -50.5523  -18.7643 C   0  0  0  0  0  0  0  0  0  0  0  0
    2.7686  -51.3875  -18.7839 O   0  0  0  0  0  0  0  0  0  0  0  0
   -0.0859  -49.8884  -19.3126 H   0  0  0  0  0  0  0  0  0  0  0  0
    2.1191  -49.3070  -18.0170 C   0  0  0  0  0  0  0  0  0  0  0  0
    3.1710  -49.1010  -17.2628 C   0  0  0  0  0  0  0  0  0  0  0  0
    3.3971  -47.8335  -16.5182 C   0  0  0  0  0  0  0  0  0  0  0  0
    3.9188  -48.0346  -15.1925 N   0  0  0  0  0  0  0  0  0  0  0  0
    3.8686  -46.7659  -14.4903 C   0  0  0  0  0  0  0  0  0  0  0  0
    2.4040  -46.3945  -14.4222 C   0  0  0  0  0  0  0  0  0  0  0  0
    1.7658  -47.7629  -14.2369 C   0  0  0  0  0  0  0  0  0  0  0  0
    2.8819  -48.7696  -14.4519 C   0  0  0  0  0  0  0  0  0  0  0  0
   -0.5382  -54.0058  -25.7651 C   0  0  0  0  0  0  0  0  0  0  0  0
   -0.4342  -53.9843  -26.9290 N   0  0  0  0  0  0  0  0  0  0  0  0
    0.3852  -51.8265  -24.3614 N   0  0  0  0  0  0  0  0  0  0  0  0
   -0.2638  -51.2098  -24.8868 H   0  0  0  0  0  0  0  0  0  0  0  0
    1.7847  -51.5538  -24.3633 C   0  0  0  0  0  0  0  0  0  0  0  0
    2.6801  -52.5907  -24.4428 C   0  0  0  0  0  0  0  0  0  0  0  0
    4.0191  -52.3353  -24.4404 C   0  0  0  0  0  0  0  0  0  0  0  0
    4.5538  -51.0462  -24.3597 C   0  0  0  0  0  0  0  0  0  0  0  0
    3.6322  -50.0248  -24.2812 C   0  0  0  0  0  0  0  0  0  0  0  0
    4.2594  -48.3895  -24.1769 Cl  0  0  0  0  0  0  0  0  0  0  0  0
    2.2581  -50.2646  -24.2821 C   0  0  0  0  0  0  0  0  0  0  0  0
    5.9293  -50.8181  -24.3595 O   0  0  0  0  0  0  0  0  0  0  0  0
    6.6387  -51.2077  -23.1869 C   0  0  0  0  0  0  0  0  0  0  0  0
    6.5113  -50.2485  -22.0847 C   0  0  0  0  0  0  0  0  0  0  0  0
    5.5942  -50.4054  -21.0801 C   0  0  0  0  0  0  0  0  0  0  0  0
    5.5223  -49.4837  -20.0866 C   0  0  0  0  0  0  0  0  0  0  0  0
    6.3720  -48.3738  -20.0735 C   0  0  0  0  0  0  0  0  0  0  0  0
    7.3007  -48.1967  -21.0733 C   0  0  0  0  0  0  0  0  0  0  0  0
    7.3621  -49.1436  -22.0780 C   0  0  0  0  0  0  0  0  0  0  0  0
   -0.4733  -52.8587  -18.1182 O   0  0  0  0  0  0  0  0  0  0  0  0
   -1.7812  -51.8750  -16.3461 C   0  0  0  0  0  0  0  0  0  0  0  0
   -1.7464  -52.8591  -17.5096 C   0  0  0  0  0  0  0  0  0  0  0  0
 43 44  1  0  0  0
 44 42  1  0  0  0
 42  1  1  0  0  0
  1  2  2  0  0  0
  2  3  1  0  0  0
  3  4  2  0  0  0
  4  5  1  0  0  0
  5  6  2  0  0  0
  6 23  1  0  0  0
 23 24  3  0  0  0
  6  7  1  0  0  0
  7 25  1  0  0  0
 25 27  1  0  0  0
 27 28  2  0  0  0
 28 29  1  0  0  0
 29 30  2  0  0  0
 30 34  1  0  0  0
 34 35  1  0  0  0
 35 36  1  0  0  0
 36 37  2  0  0  0
 37 38  1  0  0  0
 38 39  2  0  0  0
 39 40  1  0  0  0
 40 41  2  0  0  0
 30 31  1  0  0  0
 31 32  1  0  0  0
 31 33  2  0  0  0
  7  8  2  0  0  0
  8  9  1  0  0  0
  9 10  2  0  0  0
 10 11  1  0  0  0
 11 12  1  0  0  0
 12 13  2  0  0  0
 12 15  1  0  0  0
 15 16  2  0  0  0
 16 17  1  0  0  0
 17 18  1  0  0  0
 18 19  1  0  0  0
 19 20  1  0  0  0
 20 21  1  0  0  0
 21 22  1  0  0  0
 10  1  1  0  0  0
 22 18  1  0  0  0
  8  3  1  0  0  0
 33 27  1  0  0  0
 41 36  1  0  0  0
 25 26  1  0  0  0
 11 14  1  0  0  0
M  END
> <minimizedAffinity>
-7.40047

> <CNNscore>
0.5464562178

> <CNNaffinity>
7.6397361755

> <CNN_VS>
4.1747813225

> <CNNaffinity_variance>
0.1151649579

$$$$
[H]/C(C(=O)N([H])c1c(OC([H])([H])C([H])([H])[H])c([H])c2nc([H])c(C#N)c(N([H])c3c([H])c([H])c(OC([H])([H])c4c([H])c([H])c([H])c([H])c4[H])c(Cl)c3[H])c2c1[H])=C(/[H])C([H])([H])N1C([H])([H])C([H])([H])C([H])([H])C1([H])[H]


 44 48  0  0  0  0  0  0  0  0999 V2000
    0.9277  -52.8367  -26.6083 C   0  0  0  0  0  0  0  0  0  0  0  0
    0.3113  -53.9320  -26.0934 C   0  0  0  0  0  0  0  0  0  0  0  0
   -0.1964  -53.9804  -24.8213 C   0  0  0  0  0  0  0  0  0  0  0  0
   -0.7999  -55.0900  -24.3576 N   0  0  0  0  0  0  0  0  0  0  0  0
   -1.2966  -55.1130  -23.0921 C   0  0  0  0  0  0  0  0  0  0  0  0
   -1.1905  -54.0111  -22.2727 C   0  0  0  0  0  0  0  0  0  0  0  0
   -0.5772  -52.8713  -22.7304 C   0  0  0  0  0  0  0  0  0  0  0  0
   -0.0778  -52.8642  -24.0206 C   0  0  0  0  0  0  0  0  0  0  0  0
    0.5533  -51.7222  -24.5278 C   0  0  0  0  0  0  0  0  0  0  0  0
    1.0576  -51.6880  -25.8056 C   0  0  0  0  0  0  0  0  0  0  0  0
    1.6960  -50.5473  -26.3528 N   0  0  0  0  0  0  0  0  0  0  0  0
    2.8785  -49.9202  -25.9387 C   0  0  0  0  0  0  0  0  0  0  0  0
    3.5664  -50.2900  -24.9950 O   0  0  0  0  0  0  0  0  0  0  0  0
    1.1679  -50.1246  -27.2075 H   0  0  0  0  0  0  0  0  0  0  0  0
    3.3300  -48.7342  -26.6867 C   0  0  0  0  0  0  0  0  0  0  0  0
    4.0609  -48.7877  -27.7733 C   0  0  0  0  0  0  0  0  0  0  0  0
    4.5039  -47.5747  -28.5111 C   0  0  0  0  0  0  0  0  0  0  0  0
    3.7286  -47.3099  -29.6938 N   0  0  0  0  0  0  0  0  0  0  0  0
    2.8128  -46.2237  -29.3995 C   0  0  0  0  0  0  0  0  0  0  0  0
    3.6846  -45.0320  -29.0714 C   0  0  0  0  0  0  0  0  0  0  0  0
    4.8414  -45.2443  -30.0361 C   0  0  0  0  0  0  0  0  0  0  0  0
    4.6327  -46.6255  -30.6310 C   0  0  0  0  0  0  0  0  0  0  0  0
   -1.7036  -53.9873  -20.9322 C   0  0  0  0  0  0  0  0  0  0  0  0
   -2.1350  -53.9525  -19.8465 N   0  0  0  0  0  0  0  0  0  0  0  0
   -0.4512  -51.7328  -21.8917 N   0  0  0  0  0  0  0  0  0  0  0  0
   -1.1658  -50.9844  -21.9748 H   0  0  0  0  0  0  0  0  0  0  0  0
    0.6154  -51.5979  -20.9553 C   0  0  0  0  0  0  0  0  0  0  0  0
    0.3380  -51.5262  -19.6132 C   0  0  0  0  0  0  0  0  0  0  0  0
    1.3540  -51.3925  -18.7143 C   0  0  0  0  0  0  0  0  0  0  0  0
    2.7003  -51.3219  -19.0837 C   0  0  0  0  0  0  0  0  0  0  0  0
    2.9497  -51.3966  -20.4369 C   0  0  0  0  0  0  0  0  0  0  0  0
    4.6265  -51.3106  -20.9460 Cl  0  0  0  0  0  0  0  0  0  0  0  0
    1.9246  -51.5333  -21.3730 C   0  0  0  0  0  0  0  0  0  0  0  0
    3.7169  -51.1851  -18.1394 O   0  0  0  0  0  0  0  0  0  0  0  0
    3.4659  -50.2906  -17.0592 C   0  0  0  0  0  0  0  0  0  0  0  0
    3.1881  -50.9736  -15.7913 C   0  0  0  0  0  0  0  0  0  0  0  0
    4.1047  -51.7890  -15.1830 C   0  0  0  0  0  0  0  0  0  0  0  0
    3.7901  -52.3951  -14.0102 C   0  0  0  0  0  0  0  0  0  0  0  0
    2.5417  -52.1995  -13.4126 C   0  0  0  0  0  0  0  0  0  0  0  0
    1.6058  -51.3843  -14.0070 C   0  0  0  0  0  0  0  0  0  0  0  0
    1.9407  -50.7740  -15.2008 C   0  0  0  0  0  0  0  0  0  0  0  0
    1.4380  -52.8006  -27.8976 O   0  0  0  0  0  0  0  0  0  0  0  0
   -0.5567  -52.6146  -29.2411 C   0  0  0  0  0  0  0  0  0  0  0  0
    0.6997  -53.4192  -28.9288 C   0  0  0  0  0  0  0  0  0  0  0  0
 43 44  1  0  0  0
 44 42  1  0  0  0
 42  1  1  0  0  0
  1  2  2  0  0  0
  2  3  1  0  0  0
  3  4  2  0  0  0
  4  5  1  0  0  0
  5  6  2  0  0  0
  6 23  1  0  0  0
 23 24  3  0  0  0
  6  7  1  0  0  0
  7 25  1  0  0  0
 25 27  1  0  0  0
 27 28  2  0  0  0
 28 29  1  0  0  0
 29 30  2  0  0  0
 30 34  1  0  0  0
 34 35  1  0  0  0
 35 36  1  0  0  0
 36 37  2  0  0  0
 37 38  1  0  0  0
 38 39  2  0  0  0
 39 40  1  0  0  0
 40 41  2  0  0  0
 30 31  1  0  0  0
 31 32  1  0  0  0
 31 33  2  0  0  0
  7  8  2  0  0  0
  8  9  1  0  0  0
  9 10  2  0  0  0
 10 11  1  0  0  0
 11 12  1  0  0  0
 12 13  2  0  0  0
 12 15  1  0  0  0
 15 16  2  0  0  0
 16 17  1  0  0  0
 17 18  1  0  0  0
 18 19  1  0  0  0
 19 20  1  0  0  0
 20 21  1  0  0  0
 21 22  1  0  0  0
 10  1  1  0  0  0
 22 18  1  0  0  0
  8  3  1  0  0  0
 33 27  1  0  0  0
 41 36  1  0  0  0
 25 26  1  0  0  0
 11 14  1  0  0  0
M  END
> <minimizedAffinity>
-8.29598

> <CNNscore>
0.4754600227

> <CNNaffinity>
7.7149820328

> <CNN_VS>
3.6681654453

> <CNNaffinity_variance>
0.1131647676

$$$$
[H]/C(C(=O)N([H])c1c(OC([H])([H])C([H])([H])[H])c([H])c2nc([H])c(C#N)c(N([H])c3c([H])c([H])c(OC([H])([H])c4c([H])c([H])c([H])c([H])c4[H])c(Cl)c3[H])c2c1[H])=C(/[H])C([H])([H])N1C([H])([H])C([H])([H])C([H])([H])C1([H])[H]


 44 48  0  0  0  0  0  0  0  0999 V2000
   -0.4478  -52.4159  -21.2309 C   0  0  0  0  0  0  0  0  0  0  0  0
   -0.8219  -53.1055  -22.3397 C   0  0  0  0  0  0  0  0  0  0  0  0
   -0.0681  -53.1568  -23.4830 C   0  0  0  0  0  0  0  0  0  0  0  0
   -0.4823  -53.8556  -24.5556 N   0  0  0  0  0  0  0  0  0  0  0  0
    0.2841  -53.8920  -25.6782 C   0  0  0  0  0  0  0  0  0  0  0  0
    1.4851  -53.2201  -25.7343 C   0  0  0  0  0  0  0  0  0  0  0  0
    1.9218  -52.5020  -24.6488 C   0  0  0  0  0  0  0  0  0  0  0  0
    1.1304  -52.4758  -23.5143 C   0  0  0  0  0  0  0  0  0  0  0  0
    1.5388  -51.7574  -22.3843 C   0  0  0  0  0  0  0  0  0  0  0  0
    0.7726  -51.7151  -21.2444 C   0  0  0  0  0  0  0  0  0  0  0  0
    1.1586  -51.0037  -20.0812 N   0  0  0  0  0  0  0  0  0  0  0  0
    2.2594  -51.2237  -19.2428 C   0  0  0  0  0  0  0  0  0  0  0  0
    3.0903  -52.1089  -19.4061 O   0  0  0  0  0  0  0  0  0  0  0  0
    0.4850  -50.1837  -19.8325 H   0  0  0  0  0  0  0  0  0  0  0  0
    2.4342  -50.3314  -18.0838 C   0  0  0  0  0  0  0  0  0  0  0  0
    3.2769  -50.5571  -17.1058 C   0  0  0  0  0  0  0  0  0  0  0  0
    3.4351  -49.6397  -15.9459 C   0  0  0  0  0  0  0  0  0  0  0  0
    2.9206  -50.1798  -14.7156 N   0  0  0  0  0  0  0  0  0  0  0  0
    4.0061  -50.2257  -13.7539 C   0  0  0  0  0  0  0  0  0  0  0  0
    4.4344  -48.7892  -13.5525 C   0  0  0  0  0  0  0  0  0  0  0  0
    3.0962  -48.0716  -13.6444 C   0  0  0  0  0  0  0  0  0  0  0  0
    2.1003  -49.1173  -14.1137 C   0  0  0  0  0  0  0  0  0  0  0  0
    2.3295  -53.2336  -26.8952 C   0  0  0  0  0  0  0  0  0  0  0  0
    3.0091  -53.2254  -27.8460 N   0  0  0  0  0  0  0  0  0  0  0  0
    3.1523  -51.7957  -24.6980 N   0  0  0  0  0  0  0  0  0  0  0  0
    4.0289  -52.3325  -24.5530 H   0  0  0  0  0  0  0  0  0  0  0  0
    3.2088  -50.3914  -24.9381 C   0  0  0  0  0  0  0  0  0  0  0  0
    3.1733  -49.9191  -26.2261 C   0  0  0  0  0  0  0  0  0  0  0  0
    3.2318  -48.5777  -26.4610 C   0  0  0  0  0  0  0  0  0  0  0  0
    3.3284  -47.6244  -25.4431 C   0  0  0  0  0  0  0  0  0  0  0  0
    3.3619  -48.1265  -24.1603 C   0  0  0  0  0  0  0  0  0  0  0  0
    3.4842  -46.9651  -22.8509 Cl  0  0  0  0  0  0  0  0  0  0  0  0
    3.3033  -49.4954  -23.8985 C   0  0  0  0  0  0  0  0  0  0  0  0
    3.3863  -46.2584  -25.7165 O   0  0  0  0  0  0  0  0  0  0  0  0
    2.3876  -45.7416  -26.5914 C   0  0  0  0  0  0  0  0  0  0  0  0
    2.8911  -45.4424  -27.9360 C   0  0  0  0  0  0  0  0  0  0  0  0
    4.1151  -44.8662  -28.1480 C   0  0  0  0  0  0  0  0  0  0  0  0
    4.5271  -44.6121  -29.4158 C   0  0  0  0  0  0  0  0  0  0  0  0
    3.7189  -44.9299  -30.5112 C   0  0  0  0  0  0  0  0  0  0  0  0
    2.4852  -45.5092  -30.3207 C   0  0  0  0  0  0  0  0  0  0  0  0
    2.0796  -45.7621  -29.0241 C   0  0  0  0  0  0  0  0  0  0  0  0
   -1.2204  -52.3714  -20.0798 O   0  0  0  0  0  0  0  0  0  0  0  0
   -1.1208  -52.8585  -17.7195 C   0  0  0  0  0  0  0  0  0  0  0  0
   -1.0822  -53.4135  -19.1385 C   0  0  0  0  0  0  0  0  0  0  0  0
 43 44  1  0  0  0
 44 42  1  0  0  0
 42  1  1  0  0  0
  1  2  2  0  0  0
  2  3  1  0  0  0
  3  4  2  0  0  0
  4  5  1  0  0  0
  5  6  2  0  0  0
  6 23  1  0  0  0
 23 24  3  0  0  0
  6  7  1  0  0  0
  7 25  1  0  0  0
 25 27  1  0  0  0
 27 28  2  0  0  0
 28 29  1  0  0  0
 29 30  2  0  0  0
 30 34  1  0  0  0
 34 35  1  0  0  0
 35 36  1  0  0  0
 36 37  2  0  0  0
 37 38  1  0  0  0
 38 39  2  0  0  0
 39 40  1  0  0  0
 40 41  2  0  0  0
 30 31  1  0  0  0
 31 32  1  0  0  0
 31 33  2  0  0  0
  7  8  2  0  0  0
  8  9  1  0  0  0
  9 10  2  0  0  0
 10 11  1  0  0  0
 11 12  1  0  0  0
 12 13  2  0  0  0
 12 15  1  0  0  0
 15 16  2  0  0  0
 16 17  1  0  0  0
 17 18  1  0  0  0
 18 19  1  0  0  0
 19 20  1  0  0  0
 20 21  1  0  0  0
 21 22  1  0  0  0
 10  1  1  0  0  0
 22 18  1  0  0  0
  8  3  1  0  0  0
 33 27  1  0  0  0
 41 36  1  0  0  0
 25 26  1  0  0  0
 11 14  1  0  0  0
M  END
> <minimizedAffinity>
-7.19339

> <CNNscore>
0.3526782990

> <CNNaffinity>
7.4586677551

> <CNN_VS>
2.6305103302

> <CNNaffinity_variance>
0.0455747619

$$$$
[H]/C(C(=O)N([H])c1c(OC([H])([H])C([H])([H])[H])c([H])c2nc([H])c(C#N)c(N([H])c3c([H])c([H])c(OC([H])([H])c4c([H])c([H])c([H])c([H])c4[H])c(Cl)c3[H])c2c1[H])=C(/[H])C([H])([H])N1C([H])([H])C([H])([H])C([H])([H])C1([H])[H]


 44 48  0  0  0  0  0  0  0  0999 V2000
    2.7746  -49.6667  -24.4533 C   0  0  0  0  0  0  0  0  0  0  0  0
    2.2249  -50.6433  -25.2208 C   0  0  0  0  0  0  0  0  0  0  0  0
    1.4057  -51.6213  -24.7200 C   0  0  0  0  0  0  0  0  0  0  0  0
    0.8846  -52.5670  -25.5227 N   0  0  0  0  0  0  0  0  0  0  0  0
    0.0736  -53.5262  -25.0021 C   0  0  0  0  0  0  0  0  0  0  0  0
   -0.2241  -53.5446  -23.6575 C   0  0  0  0  0  0  0  0  0  0  0  0
    0.2999  -52.5871  -22.8249 C   0  0  0  0  0  0  0  0  0  0  0  0
    1.1227  -51.6179  -23.3706 C   0  0  0  0  0  0  0  0  0  0  0  0
    1.6768  -50.6218  -22.5578 C   0  0  0  0  0  0  0  0  0  0  0  0
    2.4965  -49.6472  -23.0738 C   0  0  0  0  0  0  0  0  0  0  0  0
    3.0686  -48.6210  -22.2815 N   0  0  0  0  0  0  0  0  0  0  0  0
    2.4551  -47.8136  -21.3147 C   0  0  0  0  0  0  0  0  0  0  0  0
    1.2737  -47.8851  -20.9988 O   0  0  0  0  0  0  0  0  0  0  0  0
    4.1290  -48.4631  -22.4783 H   0  0  0  0  0  0  0  0  0  0  0  0
    3.2837  -46.8079  -20.6277 C   0  0  0  0  0  0  0  0  0  0  0  0
    3.4436  -46.7542  -19.3280 C   0  0  0  0  0  0  0  0  0  0  0  0
    4.2865  -45.7282  -18.6580 C   0  0  0  0  0  0  0  0  0  0  0  0
    5.1226  -46.2657  -17.6178 N   0  0  0  0  0  0  0  0  0  0  0  0
    6.2393  -46.9486  -18.2437 C   0  0  0  0  0  0  0  0  0  0  0  0
    6.9880  -45.8848  -19.0153 C   0  0  0  0  0  0  0  0  0  0  0  0
    6.8293  -44.6886  -18.0891 C   0  0  0  0  0  0  0  0  0  0  0  0
    5.8312  -45.1189  -17.0289 C   0  0  0  0  0  0  0  0  0  0  0  0
   -1.0786  -54.5340  -23.0642 C   0  0  0  0  0  0  0  0  0  0  0  0
   -1.7866  -55.3238  -22.5735 N   0  0  0  0  0  0  0  0  0  0  0  0
    0.0101  -52.6017  -21.4352 N   0  0  0  0  0  0  0  0  0  0  0  0
   -0.8713  -53.0545  -21.1256 H   0  0  0  0  0  0  0  0  0  0  0  0
    0.8871  -52.0192  -20.4737 C   0  0  0  0  0  0  0  0  0  0  0  0
    2.1888  -52.4464  -20.3928 C   0  0  0  0  0  0  0  0  0  0  0  0
    3.0298  -51.8959  -19.4722 C   0  0  0  0  0  0  0  0  0  0  0  0
    2.6391  -50.8941  -18.5790 C   0  0  0  0  0  0  0  0  0  0  0  0
    1.3275  -50.4844  -18.6826 C   0  0  0  0  0  0  0  0  0  0  0  0
    0.7934  -49.2291  -17.5793 Cl  0  0  0  0  0  0  0  0  0  0  0  0
    0.4508  -51.0348  -19.6175 C   0  0  0  0  0  0  0  0  0  0  0  0
    3.5241  -50.3511  -17.6483 O   0  0  0  0  0  0  0  0  0  0  0  0
    3.6230  -51.0240  -16.3964 C   0  0  0  0  0  0  0  0  0  0  0  0
    3.6233  -50.1144  -15.2459 C   0  0  0  0  0  0  0  0  0  0  0  0
    3.5670  -48.7537  -15.3885 C   0  0  0  0  0  0  0  0  0  0  0  0
    3.5712  -47.9623  -14.2860 C   0  0  0  0  0  0  0  0  0  0  0  0
    3.6325  -48.5164  -13.0041 C   0  0  0  0  0  0  0  0  0  0  0  0
    3.6898  -49.8813  -12.8381 C   0  0  0  0  0  0  0  0  0  0  0  0
    3.6847  -50.6740  -13.9701 C   0  0  0  0  0  0  0  0  0  0  0  0
    3.6029  -48.6826  -24.9724 O   0  0  0  0  0  0  0  0  0  0  0  0
    4.5369  -48.4757  -27.1867 C   0  0  0  0  0  0  0  0  0  0  0  0
    4.6804  -49.0773  -25.7936 C   0  0  0  0  0  0  0  0  0  0  0  0
 43 44  1  0  0  0
 44 42  1  0  0  0
 42  1  1  0  0  0
  1  2  2  0  0  0
  2  3  1  0  0  0
  3  4  2  0  0  0
  4  5  1  0  0  0
  5  6  2  0  0  0
  6 23  1  0  0  0
 23 24  3  0  0  0
  6  7  1  0  0  0
  7 25  1  0  0  0
 25 27  1  0  0  0
 27 28  2  0  0  0
 28 29  1  0  0  0
 29 30  2  0  0  0
 30 34  1  0  0  0
 34 35  1  0  0  0
 35 36  1  0  0  0
 36 37  2  0  0  0
 37 38  1  0  0  0
 38 39  2  0  0  0
 39 40  1  0  0  0
 40 41  2  0  0  0
 30 31  1  0  0  0
 31 32  1  0  0  0
 31 33  2  0  0  0
  7  8  2  0  0  0
  8  9  1  0  0  0
  9 10  2  0  0  0
 10 11  1  0  0  0
 11 12  1  0  0  0
 12 13  2  0  0  0
 12 15  1  0  0  0
 15 16  2  0  0  0
 16 17  1  0  0  0
 17 18  1  0  0  0
 18 19  1  0  0  0
 19 20  1  0  0  0
 20 21  1  0  0  0
 21 22  1  0  0  0
 10  1  1  0  0  0
 22 18  1  0  0  0
  8  3  1  0  0  0
 33 27  1  0  0  0
 41 36  1  0  0  0
 25 26  1  0  0  0
 11 14  1  0  0  0
M  END
> <minimizedAffinity>
-6.14743

> <CNNscore>
0.3311865628

> <CNNaffinity>
7.2930717468

> <CNN_VS>
2.4153673649

> <CNNaffinity_variance>
0.3130974770

$$$$
[H]/C(C(=O)N([H])c1c(OC([H])([H])C([H])([H])[H])c([H])c2nc([H])c(C#N)c(N([H])c3c([H])c([H])c(OC([H])([H])c4c([H])c([H])c([H])c([H])c4[H])c(Cl)c3[H])c2c1[H])=C(/[H])C([H])([H])N1C([H])([H])C([H])([H])C([H])([H])C1([H])[H]


 44 48  0  0  0  0  0  0  0  0999 V2000
    3.0538  -49.7879  -24.4588 C   0  0  0  0  0  0  0  0  0  0  0  0
    2.0268  -50.3594  -25.1397 C   0  0  0  0  0  0  0  0  0  0  0  0
    1.2572  -51.3718  -24.6288 C   0  0  0  0  0  0  0  0  0  0  0  0
    0.2492  -51.9045  -25.3434 N   0  0  0  0  0  0  0  0  0  0  0  0
   -0.5008  -52.9075  -24.8141 C   0  0  0  0  0  0  0  0  0  0  0  0
   -0.2426  -53.3895  -23.5500 C   0  0  0  0  0  0  0  0  0  0  0  0
    0.7825  -52.8572  -22.8080 C   0  0  0  0  0  0  0  0  0  0  0  0
    1.5355  -51.8369  -23.3610 C   0  0  0  0  0  0  0  0  0  0  0  0
    2.5889  -51.2644  -22.6382 C   0  0  0  0  0  0  0  0  0  0  0  0
    3.3522  -50.2495  -23.1633 C   0  0  0  0  0  0  0  0  0  0  0  0
    4.4209  -49.6433  -22.4572 N   0  0  0  0  0  0  0  0  0  0  0  0
    5.6456  -50.2026  -22.0694 C   0  0  0  0  0  0  0  0  0  0  0  0
    5.9855  -51.3568  -22.2996 O   0  0  0  0  0  0  0  0  0  0  0  0
    4.2300  -48.6031  -22.1935 H   0  0  0  0  0  0  0  0  0  0  0  0
    6.5935  -49.3477  -21.3341 C   0  0  0  0  0  0  0  0  0  0  0  0
    6.3122  -48.7440  -20.2054 C   0  0  0  0  0  0  0  0  0  0  0  0
    7.2876  -47.8856  -19.4817 C   0  0  0  0  0  0  0  0  0  0  0  0
    6.7127  -47.1824  -18.3660 N   0  0  0  0  0  0  0  0  0  0  0  0
    7.4410  -45.9396  -18.1919 C   0  0  0  0  0  0  0  0  0  0  0  0
    7.2240  -45.1569  -19.4677 C   0  0  0  0  0  0  0  0  0  0  0  0
    5.7888  -45.5357  -19.8002 C   0  0  0  0  0  0  0  0  0  0  0  0
    5.4243  -46.6513  -18.8370 C   0  0  0  0  0  0  0  0  0  0  0  0
   -1.0101  -54.4431  -22.9484 C   0  0  0  0  0  0  0  0  0  0  0  0
   -1.6303  -55.3134  -22.4753 N   0  0  0  0  0  0  0  0  0  0  0  0
    1.0661  -53.3531  -21.5083 N   0  0  0  0  0  0  0  0  0  0  0  0
    1.6219  -54.2263  -21.4301 H   0  0  0  0  0  0  0  0  0  0  0  0
    0.6128  -52.6897  -20.3305 C   0  0  0  0  0  0  0  0  0  0  0  0
    1.2246  -51.5306  -19.9238 C   0  0  0  0  0  0  0  0  0  0  0  0
    0.7978  -50.8952  -18.7959 C   0  0  0  0  0  0  0  0  0  0  0  0
   -0.2546  -51.3632  -18.0038 C   0  0  0  0  0  0  0  0  0  0  0  0
   -0.8505  -52.5283  -18.4355 C   0  0  0  0  0  0  0  0  0  0  0  0
   -2.1757  -53.1530  -17.4701 Cl  0  0  0  0  0  0  0  0  0  0  0  0
   -0.4289  -53.1939  -19.5866 C   0  0  0  0  0  0  0  0  0  0  0  0
   -0.6676  -50.6897  -16.8549 O   0  0  0  0  0  0  0  0  0  0  0  0
    0.3306  -49.9504  -16.1572 C   0  0  0  0  0  0  0  0  0  0  0  0
    1.0342  -50.7394  -15.1406 C   0  0  0  0  0  0  0  0  0  0  0  0
    0.4378  -51.7793  -14.4788 C   0  0  0  0  0  0  0  0  0  0  0  0
    1.1394  -52.4729  -13.5470 C   0  0  0  0  0  0  0  0  0  0  0  0
    2.4647  -52.1408  -13.2514 C   0  0  0  0  0  0  0  0  0  0  0  0
    3.0832  -51.0993  -13.9045 C   0  0  0  0  0  0  0  0  0  0  0  0
    2.3560  -50.4026  -14.8508 C   0  0  0  0  0  0  0  0  0  0  0  0
    3.8258  -48.7640  -24.9876 O   0  0  0  0  0  0  0  0  0  0  0  0
    3.2723  -46.4712  -25.4924 C   0  0  0  0  0  0  0  0  0  0  0  0
    3.2472  -47.9215  -25.9605 C   0  0  0  0  0  0  0  0  0  0  0  0
 43 44  1  0  0  0
 44 42  1  0  0  0
 42  1  1  0  0  0
  1  2  2  0  0  0
  2  3  1  0  0  0
  3  4  2  0  0  0
  4  5  1  0  0  0
  5  6  2  0  0  0
  6 23  1  0  0  0
 23 24  3  0  0  0
  6  7  1  0  0  0
  7 25  1  0  0  0
 25 27  1  0  0  0
 27 28  2  0  0  0
 28 29  1  0  0  0
 29 30  2  0  0  0
 30 34  1  0  0  0
 34 35  1  0  0  0
 35 36  1  0  0  0
 36 37  2  0  0  0
 37 38  1  0  0  0
 38 39  2  0  0  0
 39 40  1  0  0  0
 40 41  2  0  0  0
 30 31  1  0  0  0
 31 32  1  0  0  0
 31 33  2  0  0  0
  7  8  2  0  0  0
  8  9  1  0  0  0
  9 10  2  0  0  0
 10 11  1  0  0  0
 11 12  1  0  0  0
 12 13  2  0  0  0
 12 15  1  0  0  0
 15 16  2  0  0  0
 16 17  1  0  0  0
 17 18  1  0  0  0
 18 19  1  0  0  0
 19 20  1  0  0  0
 20 21  1  0  0  0
 21 22  1  0  0  0
 10  1  1  0  0  0
 22 18  1  0  0  0
  8  3  1  0  0  0
 33 27  1  0  0  0
 41 36  1  0  0  0
 25 26  1  0  0  0
 11 14  1  0  0  0
M  END
> <minimizedAffinity>
-6.48392

> <CNNscore>
0.3206637502

> <CNNaffinity>
7.5426893234

> <CNN_VS>
2.4186670780

> <CNNaffinity_variance>
0.0997035131

$$$$
[H]/C(C(=O)N([H])c1c(OC([H])([H])C([H])([H])[H])c([H])c2nc([H])c(C#N)c(N([H])c3c([H])c([H])c(OC([H])([H])c4c([H])c([H])c([H])c([H])c4[H])c(Cl)c3[H])c2c1[H])=C(/[H])C([H])([H])N1C([H])([H])C([H])([H])C([H])([H])C1([H])[H]


 44 48  0  0  0  0  0  0  0  0999 V2000
    3.2337  -49.5126  -23.7942 C   0  0  0  0  0  0  0  0  0  0  0  0
    2.2439  -50.0480  -24.5548 C   0  0  0  0  0  0  0  0  0  0  0  0
    1.4441  -51.0775  -24.1319 C   0  0  0  0  0  0  0  0  0  0  0  0
    0.4753  -51.5728  -24.9233 N   0  0  0  0  0  0  0  0  0  0  0  0
   -0.3059  -52.5938  -24.4805 C   0  0  0  0  0  0  0  0  0  0  0  0
   -0.1191  -53.1321  -23.2267 C   0  0  0  0  0  0  0  0  0  0  0  0
    0.8654  -52.6385  -22.4070 C   0  0  0  0  0  0  0  0  0  0  0  0
    1.6509  -51.5992  -22.8724 C   0  0  0  0  0  0  0  0  0  0  0  0
    2.6649  -51.0648  -22.0686 C   0  0  0  0  0  0  0  0  0  0  0  0
    3.4591  -50.0322  -22.5058 C   0  0  0  0  0  0  0  0  0  0  0  0
    4.4893  -49.4635  -21.7163 N   0  0  0  0  0  0  0  0  0  0  0  0
    5.7894  -49.9372  -21.4964 C   0  0  0  0  0  0  0  0  0  0  0  0
    6.2452  -50.9648  -21.9830 O   0  0  0  0  0  0  0  0  0  0  0  0
    4.1960  -48.5351  -21.2263 H   0  0  0  0  0  0  0  0  0  0  0  0
    6.6730  -49.1486  -20.6205 C   0  0  0  0  0  0  0  0  0  0  0  0
    6.2595  -48.1725  -19.8498 C   0  0  0  0  0  0  0  0  0  0  0  0
    7.1724  -47.3909  -18.9735 C   0  0  0  0  0  0  0  0  0  0  0  0
    6.8543  -45.9887  -18.9225 N   0  0  0  0  0  0  0  0  0  0  0  0
    5.4450  -45.8569  -18.6033 C   0  0  0  0  0  0  0  0  0  0  0  0
    5.2763  -46.4787  -17.2349 C   0  0  0  0  0  0  0  0  0  0  0  0
    6.5821  -46.0727  -16.5685 C   0  0  0  0  0  0  0  0  0  0  0  0
    7.4407  -45.4814  -17.6724 C   0  0  0  0  0  0  0  0  0  0  0  0
   -0.9217  -54.2067  -22.7149 C   0  0  0  0  0  0  0  0  0  0  0  0
   -1.5591  -55.0952  -22.3022 N   0  0  0  0  0  0  0  0  0  0  0  0
    1.0757  -53.1924  -21.1168 N   0  0  0  0  0  0  0  0  0  0  0  0
    1.6200  -54.0736  -21.0471 H   0  0  0  0  0  0  0  0  0  0  0  0
    0.5652  -52.5758  -19.9370 C   0  0  0  0  0  0  0  0  0  0  0  0
    1.1663  -51.4441  -19.4457 C   0  0  0  0  0  0  0  0  0  0  0  0
    0.6848  -50.8536  -18.3155 C   0  0  0  0  0  0  0  0  0  0  0  0
   -0.4150  -51.3420  -17.6041 C   0  0  0  0  0  0  0  0  0  0  0  0
   -0.9989  -52.4786  -18.1197 C   0  0  0  0  0  0  0  0  0  0  0  0
   -2.3823  -53.1275  -17.2574 Cl  0  0  0  0  0  0  0  0  0  0  0  0
   -0.5216  -53.0982  -19.2747 C   0  0  0  0  0  0  0  0  0  0  0  0
   -0.8835  -50.7144  -16.4504 O   0  0  0  0  0  0  0  0  0  0  0  0
    0.0510  -49.9054  -15.7418 C   0  0  0  0  0  0  0  0  0  0  0  0
   -0.5673  -48.7617  -15.0632 C   0  0  0  0  0  0  0  0  0  0  0  0
    0.1242  -47.9696  -14.1860 C   0  0  0  0  0  0  0  0  0  0  0  0
   -0.5020  -46.9250  -13.5874 C   0  0  0  0  0  0  0  0  0  0  0  0
   -1.8456  -46.6449  -13.8531 C   0  0  0  0  0  0  0  0  0  0  0  0
   -2.5592  -47.4282  -14.7311 C   0  0  0  0  0  0  0  0  0  0  0  0
   -1.9079  -48.4881  -15.3329 C   0  0  0  0  0  0  0  0  0  0  0  0
    4.0368  -48.4709  -24.2343 O   0  0  0  0  0  0  0  0  0  0  0  0
    3.7283  -46.1345  -24.7484 C   0  0  0  0  0  0  0  0  0  0  0  0
    3.5112  -47.5768  -25.1911 C   0  0  0  0  0  0  0  0  0  0  0  0
 43 44  1  0  0  0
 44 42  1  0  0  0
 42  1  1  0  0  0
  1  2  2  0  0  0
  2  3  1  0  0  0
  3  4  2  0  0  0
  4  5  1  0  0  0
  5  6  2  0  0  0
  6 23  1  0  0  0
 23 24  3  0  0  0
  6  7  1  0  0  0
  7 25  1  0  0  0
 25 27  1  0  0  0
 27 28  2  0  0  0
 28 29  1  0  0  0
 29 30  2  0  0  0
 30 34  1  0  0  0
 34 35  1  0  0  0
 35 36  1  0  0  0
 36 37  2  0  0  0
 37 38  1  0  0  0
 38 39  2  0  0  0
 39 40  1  0  0  0
 40 41  2  0  0  0
 30 31  1  0  0  0
 31 32  1  0  0  0
 31 33  2  0  0  0
  7  8  2  0  0  0
  8  9  1  0  0  0
  9 10  2  0  0  0
 10 11  1  0  0  0
 11 12  1  0  0  0
 12 13  2  0  0  0
 12 15  1  0  0  0
 15 16  2  0  0  0
 16 17  1  0  0  0
 17 18  1  0  0  0
 18 19  1  0  0  0
 19 20  1  0  0  0
 20 21  1  0  0  0
 21 22  1  0  0  0
 10  1  1  0  0  0
 22 18  1  0  0  0
  8  3  1  0  0  0
 33 27  1  0  0  0
 41 36  1  0  0  0
 25 26  1  0  0  0
 11 14  1  0  0  0
M  END
> <minimizedAffinity>
-6.29394

> <CNNscore>
0.2706917226

> <CNNaffinity>
7.2470612526

> <CNN_VS>
1.9617195129

> <CNNaffinity_variance>
0.1739254296

$$$$
[H]/C(C(=O)N([H])c1c(OC([H])([H])C([H])([H])[H])c([H])c2nc([H])c(C#N)c(N([H])c3c([H])c([H])c(OC([H])([H])c4c([H])c([H])c([H])c([H])c4[H])c(Cl)c3[H])c2c1[H])=C(/[H])C([H])([H])N1C([H])([H])C([H])([H])C([H])([H])C1([H])[H]


 44 48  0  0  0  0  0  0  0  0999 V2000
    0.9647  -52.8461  -26.5997 C   0  0  0  0  0  0  0  0  0  0  0  0
    0.3417  -53.9430  -26.0961 C   0  0  0  0  0  0  0  0  0  0  0  0
   -0.1782  -53.9970  -24.8291 C   0  0  0  0  0  0  0  0  0  0  0  0
   -0.7877  -55.1079  -24.3768 N   0  0  0  0  0  0  0  0  0  0  0  0
   -1.2964  -55.1364  -23.1162 C   0  0  0  0  0  0  0  0  0  0  0  0
   -1.1963  -54.0389  -22.2902 C   0  0  0  0  0  0  0  0  0  0  0  0
   -0.5769  -52.8978  -22.7364 C   0  0  0  0  0  0  0  0  0  0  0  0
   -0.0654  -52.8851  -24.0217 C   0  0  0  0  0  0  0  0  0  0  0  0
    0.5724  -51.7416  -24.5172 C   0  0  0  0  0  0  0  0  0  0  0  0
    1.0888  -51.7017  -25.7900 C   0  0  0  0  0  0  0  0  0  0  0  0
    1.7342  -50.5594  -26.3253 N   0  0  0  0  0  0  0  0  0  0  0  0
    2.9451  -49.9721  -25.9355 C   0  0  0  0  0  0  0  0  0  0  0  0
    3.6570  -50.3862  -25.0287 O   0  0  0  0  0  0  0  0  0  0  0  0
    1.1864  -50.0987  -27.1473 H   0  0  0  0  0  0  0  0  0  0  0  0
    3.3977  -48.7741  -26.6634 C   0  0  0  0  0  0  0  0  0  0  0  0
    4.0677  -48.8103  -27.7892 C   0  0  0  0  0  0  0  0  0  0  0  0
    4.5134  -47.5853  -28.5054 C   0  0  0  0  0  0  0  0  0  0  0  0
    3.7434  -47.3022  -29.6874 N   0  0  0  0  0  0  0  0  0  0  0  0
    2.7922  -46.2546  -29.3663 C   0  0  0  0  0  0  0  0  0  0  0  0
    3.6241  -45.0500  -28.9865 C   0  0  0  0  0  0  0  0  0  0  0  0
    4.7973  -45.1937  -29.9440 C   0  0  0  0  0  0  0  0  0  0  0  0
    4.6367  -46.5587  -30.5892 C   0  0  0  0  0  0  0  0  0  0  0  0
   -1.7221  -54.0210  -20.9545 C   0  0  0  0  0  0  0  0  0  0  0  0
   -2.1636  -53.9908  -19.8728 N   0  0  0  0  0  0  0  0  0  0  0  0
   -0.4571  -51.7637  -21.8908 N   0  0  0  0  0  0  0  0  0  0  0  0
   -1.1931  -51.0338  -21.9467 H   0  0  0  0  0  0  0  0  0  0  0  0
    0.6318  -51.6089  -20.9834 C   0  0  0  0  0  0  0  0  0  0  0  0
    0.3840  -51.4588  -19.6420 C   0  0  0  0  0  0  0  0  0  0  0  0
    1.4214  -51.3058  -18.7712 C   0  0  0  0  0  0  0  0  0  0  0  0
    2.7612  -51.2917  -19.1695 C   0  0  0  0  0  0  0  0  0  0  0  0
    2.9807  -51.4446  -20.5213 C   0  0  0  0  0  0  0  0  0  0  0  0
    4.6484  -51.4316  -21.0662 Cl  0  0  0  0  0  0  0  0  0  0  0  0
    1.9334  -51.6024  -21.4290 C   0  0  0  0  0  0  0  0  0  0  0  0
    3.8003  -51.1332  -18.2534 O   0  0  0  0  0  0  0  0  0  0  0  0
    3.8364  -49.9010  -17.5390 C   0  0  0  0  0  0  0  0  0  0  0  0
    4.0840  -48.7381  -18.3978 C   0  0  0  0  0  0  0  0  0  0  0  0
    3.1278  -47.7875  -18.6365 C   0  0  0  0  0  0  0  0  0  0  0  0
    3.4153  -46.7333  -19.4414 C   0  0  0  0  0  0  0  0  0  0  0  0
    4.6756  -46.6031  -20.0320 C   0  0  0  0  0  0  0  0  0  0  0  0
    5.6510  -47.5469  -19.8056 C   0  0  0  0  0  0  0  0  0  0  0  0
    5.3434  -48.6146  -18.9838 C   0  0  0  0  0  0  0  0  0  0  0  0
    1.4873  -52.8045  -27.8838 O   0  0  0  0  0  0  0  0  0  0  0  0
   -0.5454  -52.5700  -29.1612 C   0  0  0  0  0  0  0  0  0  0  0  0
    0.7325  -53.3692  -28.9338 C   0  0  0  0  0  0  0  0  0  0  0  0
 43 44  1  0  0  0
 44 42  1  0  0  0
 42  1  1  0  0  0
  1  2  2  0  0  0
  2  3  1  0  0  0
  3  4  2  0  0  0
  4  5  1  0  0  0
  5  6  2  0  0  0
  6 23  1  0  0  0
 23 24  3  0  0  0
  6  7  1  0  0  0
  7 25  1  0  0  0
 25 27  1  0  0  0
 27 28  2  0  0  0
 28 29  1  0  0  0
 29 30  2  0  0  0
 30 34  1  0  0  0
 34 35  1  0  0  0
 35 36  1  0  0  0
 36 37  2  0  0  0
 37 38  1  0  0  0
 38 39  2  0  0  0
 39 40  1  0  0  0
 40 41  2  0  0  0
 30 31  1  0  0  0
 31 32  1  0  0  0
 31 33  2  0  0  0
  7  8  2  0  0  0
  8  9  1  0  0  0
  9 10  2  0  0  0
 10 11  1  0  0  0
 11 12  1  0  0  0
 12 13  2  0  0  0
 12 15  1  0  0  0
 15 16  2  0  0  0
 16 17  1  0  0  0
 17 18  1  0  0  0
 18 19  1  0  0  0
 19 20  1  0  0  0
 20 21  1  0  0  0
 21 22  1  0  0  0
 10  1  1  0  0  0
 22 18  1  0  0  0
  8  3  1  0  0  0
 33 27  1  0  0  0
 41 36  1  0  0  0
 25 26  1  0  0  0
 11 14  1  0  0  0
M  END
> <minimizedAffinity>
-7.77420

> <CNNscore>
0.2347926199

> <CNNaffinity>
7.4861612320

> <CNN_VS>
1.7576954365

> <CNNaffinity_variance>
0.2471385002

$$$$
[H]/C(C(=O)N([H])c1c(OC([H])([H])C([H])([H])[H])c([H])c2nc([H])c(C#N)c(N([H])c3c([H])c([H])c(OC([H])([H])c4c([H])c([H])c([H])c([H])c4[H])c(Cl)c3[H])c2c1[H])=C(/[H])C([H])([H])N1C([H])([H])C([H])([H])C([H])([H])C1([H])[H]


 44 48  0  0  0  0  0  0  0  0999 V2000
    1.1064  -52.6964  -26.3681 C   0  0  0  0  0  0  0  0  0  0  0  0
    0.5064  -53.8169  -25.8893 C   0  0  0  0  0  0  0  0  0  0  0  0
   -0.0772  -53.8866  -24.6512 C   0  0  0  0  0  0  0  0  0  0  0  0
   -0.6605  -55.0208  -24.2228 N   0  0  0  0  0  0  0  0  0  0  0  0
   -1.2337  -55.0646  -22.9906 C   0  0  0  0  0  0  0  0  0  0  0  0
   -1.2261  -53.9590  -22.1694 C   0  0  0  0  0  0  0  0  0  0  0  0
   -0.6346  -52.7941  -22.5914 C   0  0  0  0  0  0  0  0  0  0  0  0
   -0.0565  -52.7661  -23.8480 C   0  0  0  0  0  0  0  0  0  0  0  0
    0.5558  -51.5983  -24.3183 C   0  0  0  0  0  0  0  0  0  0  0  0
    1.1369  -51.5429  -25.5623 C   0  0  0  0  0  0  0  0  0  0  0  0
    1.7589  -50.3762  -26.0720 N   0  0  0  0  0  0  0  0  0  0  0  0
    3.0081  -49.8330  -25.7440 C   0  0  0  0  0  0  0  0  0  0  0  0
    3.7823  -50.3166  -24.9271 O   0  0  0  0  0  0  0  0  0  0  0  0
    1.1559  -49.8540  -26.8148 H   0  0  0  0  0  0  0  0  0  0  0  0
    3.4237  -48.5951  -26.4259 C   0  0  0  0  0  0  0  0  0  0  0  0
    3.7273  -48.5264  -27.6990 C   0  0  0  0  0  0  0  0  0  0  0  0
    4.1442  -47.2633  -28.3645 C   0  0  0  0  0  0  0  0  0  0  0  0
    3.5484  -46.0886  -27.7857 N   0  0  0  0  0  0  0  0  0  0  0  0
    4.2455  -44.9266  -28.3044 C   0  0  0  0  0  0  0  0  0  0  0  0
    4.0139  -44.9448  -29.7989 C   0  0  0  0  0  0  0  0  0  0  0  0
    2.5895  -45.4745  -29.8656 C   0  0  0  0  0  0  0  0  0  0  0  0
    2.2490  -45.9174  -28.4537 C   0  0  0  0  0  0  0  0  0  0  0  0
   -1.8224  -53.9567  -20.8636 C   0  0  0  0  0  0  0  0  0  0  0  0
   -2.2918  -53.9672  -19.7933 N   0  0  0  0  0  0  0  0  0  0  0  0
   -0.6098  -51.6510  -21.7499 N   0  0  0  0  0  0  0  0  0  0  0  0
   -1.4552  -51.0493  -21.7196 H   0  0  0  0  0  0  0  0  0  0  0  0
    0.5296  -51.3181  -20.9601 C   0  0  0  0  0  0  0  0  0  0  0  0
    1.2678  -52.3164  -20.3755 C   0  0  0  0  0  0  0  0  0  0  0  0
    2.3552  -52.0030  -19.6158 C   0  0  0  0  0  0  0  0  0  0  0  0
    2.7788  -50.6905  -19.3876 C   0  0  0  0  0  0  0  0  0  0  0  0
    2.0197  -49.7088  -19.9866 C   0  0  0  0  0  0  0  0  0  0  0  0
    2.5146  -48.0458  -19.7257 Cl  0  0  0  0  0  0  0  0  0  0  0  0
    0.9034  -50.0082  -20.7676 C   0  0  0  0  0  0  0  0  0  0  0  0
    3.8963  -50.4028  -18.6050 O   0  0  0  0  0  0  0  0  0  0  0  0
    3.7969  -50.7086  -17.2170 C   0  0  0  0  0  0  0  0  0  0  0  0
    2.8377  -49.8601  -16.5019 C   0  0  0  0  0  0  0  0  0  0  0  0
    3.0606  -48.5269  -16.2836 C   0  0  0  0  0  0  0  0  0  0  0  0
    2.1363  -47.7923  -15.6144 C   0  0  0  0  0  0  0  0  0  0  0  0
    0.9576  -48.3776  -15.1432 C   0  0  0  0  0  0  0  0  0  0  0  0
    0.7136  -49.7158  -15.3516 C   0  0  0  0  0  0  0  0  0  0  0  0
    1.6640  -50.4506  -16.0347 C   0  0  0  0  0  0  0  0  0  0  0  0
    1.6942  -52.6389  -27.6232 O   0  0  0  0  0  0  0  0  0  0  0  0
   -0.0887  -52.8116  -29.2387 C   0  0  0  0  0  0  0  0  0  0  0  0
    1.1642  -53.4492  -28.6497 C   0  0  0  0  0  0  0  0  0  0  0  0
 43 44  1  0  0  0
 44 42  1  0  0  0
 42  1  1  0  0  0
  1  2  2  0  0  0
  2  3  1  0  0  0
  3  4  2  0  0  0
  4  5  1  0  0  0
  5  6  2  0  0  0
  6 23  1  0  0  0
 23 24  3  0  0  0
  6  7  1  0  0  0
  7 25  1  0  0  0
 25 27  1  0  0  0
 27 28  2  0  0  0
 28 29  1  0  0  0
 29 30  2  0  0  0
 30 34  1  0  0  0
 34 35  1  0  0  0
 35 36  1  0  0  0
 36 37  2  0  0  0
 37 38  1  0  0  0
 38 39  2  0  0  0
 39 40  1  0  0  0
 40 41  2  0  0  0
 30 31  1  0  0  0
 31 32  1  0  0  0
 31 33  2  0  0  0
  7  8  2  0  0  0
  8  9  1  0  0  0
  9 10  2  0  0  0
 10 11  1  0  0  0
 11 12  1  0  0  0
 12 13  2  0  0  0
 12 15  1  0  0  0
 15 16  2  0  0  0
 16 17  1  0  0  0
 17 18  1  0  0  0
 18 19  1  0  0  0
 19 20  1  0  0  0
 20 21  1  0  0  0
 21 22  1  0  0  0
 10  1  1  0  0  0
 22 18  1  0  0  0
  8  3  1  0  0  0
 33 27  1  0  0  0
 41 36  1  0  0  0
 25 26  1  0  0  0
 11 14  1  0  0  0
M  END
> <minimizedAffinity>
-7.37053

> <CNNscore>
0.1980899423

> <CNNaffinity>
7.3519859314

> <CNN_VS>
1.4563544989

> <CNNaffinity_variance>
0.1408041120

$$$$
[H]/C(C(=O)N([H])c1c(OC([H])([H])C([H])([H])[H])c([H])c2nc([H])c(C#N)c(N([H])c3c([H])c([H])c(OC([H])([H])c4c([H])c([H])c([H])c([H])c4[H])c(Cl)c3[H])c2c1[H])=C(/[H])C([H])([H])N1C([H])([H])C([H])([H])C([H])([H])C1([H])[H]


 44 48  0  0  0  0  0  0  0  0999 V2000
    0.8678  -52.7194  -26.7227 C   0  0  0  0  0  0  0  0  0  0  0  0
    0.2507  -53.8082  -26.1948 C   0  0  0  0  0  0  0  0  0  0  0  0
   -0.1839  -53.8701  -24.8965 C   0  0  0  0  0  0  0  0  0  0  0  0
   -0.7913  -54.9724  -24.4208 N   0  0  0  0  0  0  0  0  0  0  0  0
   -1.2147  -55.0091  -23.1292 C   0  0  0  0  0  0  0  0  0  0  0  0
   -1.0298  -53.9286  -22.2954 C   0  0  0  0  0  0  0  0  0  0  0  0
   -0.4113  -52.7965  -22.7652 C   0  0  0  0  0  0  0  0  0  0  0  0
    0.0128  -52.7753  -24.0818 C   0  0  0  0  0  0  0  0  0  0  0  0
    0.6463  -51.6404  -24.6021 C   0  0  0  0  0  0  0  0  0  0  0  0
    1.0768  -51.5924  -25.9061 C   0  0  0  0  0  0  0  0  0  0  0  0
    1.7152  -50.4582  -26.4666 N   0  0  0  0  0  0  0  0  0  0  0  0
    2.9321  -49.8669  -26.1028 C   0  0  0  0  0  0  0  0  0  0  0  0
    3.6570  -50.2692  -25.2009 O   0  0  0  0  0  0  0  0  0  0  0  0
    1.1557  -50.0084  -27.2868 H   0  0  0  0  0  0  0  0  0  0  0  0
    3.3750  -48.6795  -26.8537 C   0  0  0  0  0  0  0  0  0  0  0  0
    4.2562  -48.7123  -27.8233 C   0  0  0  0  0  0  0  0  0  0  0  0
    4.6867  -47.4984  -28.5670 C   0  0  0  0  0  0  0  0  0  0  0  0
    5.6454  -47.7733  -29.6040 N   0  0  0  0  0  0  0  0  0  0  0  0
    4.9225  -48.2180  -30.7808 C   0  0  0  0  0  0  0  0  0  0  0  0
    4.0411  -47.0562  -31.1819 C   0  0  0  0  0  0  0  0  0  0  0  0
    4.9416  -45.8780  -30.8429 C   0  0  0  0  0  0  0  0  0  0  0  0
    6.1174  -46.4647  -30.0822 C   0  0  0  0  0  0  0  0  0  0  0  0
   -1.4638  -53.9197  -20.9270 C   0  0  0  0  0  0  0  0  0  0  0  0
   -1.7979  -53.9050  -19.8072 N   0  0  0  0  0  0  0  0  0  0  0  0
   -0.2044  -51.6803  -21.9126 N   0  0  0  0  0  0  0  0  0  0  0  0
   -1.0107  -51.3341  -21.3581 H   0  0  0  0  0  0  0  0  0  0  0  0
    1.0634  -51.0370  -21.8036 C   0  0  0  0  0  0  0  0  0  0  0  0
    1.1235  -49.6811  -21.6003 C   0  0  0  0  0  0  0  0  0  0  0  0
    2.3331  -49.0609  -21.5001 C   0  0  0  0  0  0  0  0  0  0  0  0
    3.5523  -49.7383  -21.5939 C   0  0  0  0  0  0  0  0  0  0  0  0
    3.4622  -51.0981  -21.7978 C   0  0  0  0  0  0  0  0  0  0  0  0
    4.9687  -51.9885  -21.9232 Cl  0  0  0  0  0  0  0  0  0  0  0  0
    2.2345  -51.7519  -21.9033 C   0  0  0  0  0  0  0  0  0  0  0  0
    4.7738  -49.0744  -21.4871 O   0  0  0  0  0  0  0  0  0  0  0  0
    4.7250  -47.6506  -21.4716 C   0  0  0  0  0  0  0  0  0  0  0  0
    4.8804  -47.0490  -22.8002 C   0  0  0  0  0  0  0  0  0  0  0  0
    5.8824  -47.4171  -23.6577 C   0  0  0  0  0  0  0  0  0  0  0  0
    5.9762  -46.8241  -24.8748 C   0  0  0  0  0  0  0  0  0  0  0  0
    5.0635  -45.8406  -25.2670 C   0  0  0  0  0  0  0  0  0  0  0  0
    4.0491  -45.4556  -24.4207 C   0  0  0  0  0  0  0  0  0  0  0  0
    3.9664  -46.0686  -23.1848 C   0  0  0  0  0  0  0  0  0  0  0  0
    1.3037  -52.6696  -28.0386 O   0  0  0  0  0  0  0  0  0  0  0  0
   -0.7909  -52.4673  -29.2176 C   0  0  0  0  0  0  0  0  0  0  0  0
    0.4979  -53.2604  -29.0350 C   0  0  0  0  0  0  0  0  0  0  0  0
 43 44  1  0  0  0
 44 42  1  0  0  0
 42  1  1  0  0  0
  1  2  2  0  0  0
  2  3  1  0  0  0
  3  4  2  0  0  0
  4  5  1  0  0  0
  5  6  2  0  0  0
  6 23  1  0  0  0
 23 24  3  0  0  0
  6  7  1  0  0  0
  7 25  1  0  0  0
 25 27  1  0  0  0
 27 28  2  0  0  0
 28 29  1  0  0  0
 29 30  2  0  0  0
 30 34  1  0  0  0
 34 35  1  0  0  0
 35 36  1  0  0  0
 36 37  2  0  0  0
 37 38  1  0  0  0
 38 39  2  0  0  0
 39 40  1  0  0  0
 40 41  2  0  0  0
 30 31  1  0  0  0
 31 32  1  0  0  0
 31 33  2  0  0  0
  7  8  2  0  0  0
  8  9  1  0  0  0
  9 10  2  0  0  0
 10 11  1  0  0  0
 11 12  1  0  0  0
 12 13  2  0  0  0
 12 15  1  0  0  0
 15 16  2  0  0  0
 16 17  1  0  0  0
 17 18  1  0  0  0
 18 19  1  0  0  0
 19 20  1  0  0  0
 20 21  1  0  0  0
 21 22  1  0  0  0
 10  1  1  0  0  0
 22 18  1  0  0  0
  8  3  1  0  0  0
 33 27  1  0  0  0
 41 36  1  0  0  0
 25 26  1  0  0  0
 11 14  1  0  0  0
M  END
> <minimizedAffinity>
-7.38041

> <CNNscore>
0.1909104735

> <CNNaffinity>
7.1377129555

> <CNN_VS>
1.3626641035

> <CNNaffinity_variance>
0.5916631222

$$$$
[H]c1nc(N([H])c2c([H])c([H])c(OC([H])([H])c3nc([H])c([H])c([H])c3[H])c(Cl)c2[H])c2c(O[C@@]([H])(C(=O)N(C([H])([H])[H])C([H])([H])[H])C([H])([H])[H])c([H])c([H])c([H])c2n1


 35 38  0  0  0  0  0  0  0  0999 V2000
    0.3905  -52.6397  -23.9437 C   0  0  0  0  0  0  0  0  0  0  0  0
    0.3006  -53.5407  -25.0112 C   0  0  0  0  0  0  0  0  0  0  0  0
   -0.3896  -54.7240  -24.8710 C   0  0  0  0  0  0  0  0  0  0  0  0
   -1.0037  -55.0518  -23.6925 C   0  0  0  0  0  0  0  0  0  0  0  0
   -0.9426  -54.1960  -22.6137 C   0  0  0  0  0  0  0  0  0  0  0  0
   -1.5383  -54.5256  -21.4518 N   0  0  0  0  0  0  0  0  0  0  0  0
   -1.4863  -53.7193  -20.3856 C   0  0  0  0  0  0  0  0  0  0  0  0
   -0.8298  -52.5871  -20.5146 N   0  0  0  0  0  0  0  0  0  0  0  0
   -0.1975  -52.1799  -21.6644 C   0  0  0  0  0  0  0  0  0  0  0  0
   -0.2443  -52.9976  -22.7557 C   0  0  0  0  0  0  0  0  0  0  0  0
    0.3989  -50.9079  -21.6848 N   0  0  0  0  0  0  0  0  0  0  0  0
    0.3352  -50.1365  -22.3440 H   0  0  0  0  0  0  0  0  0  0  0  0
    1.2643  -50.5691  -20.5571 C   0  0  0  0  0  0  0  0  0  0  0  0
    1.7014  -51.5898  -19.7131 C   0  0  0  0  0  0  0  0  0  0  0  0
    2.4861  -51.3189  -18.6160 C   0  0  0  0  0  0  0  0  0  0  0  0
    2.8616  -50.0322  -18.3209 C   0  0  0  0  0  0  0  0  0  0  0  0
    2.4460  -49.0152  -19.1316 C   0  0  0  0  0  0  0  0  0  0  0  0
    2.9037  -47.3439  -18.7923 Cl  0  0  0  0  0  0  0  0  0  0  0  0
    1.6476  -49.3016  -20.2445 C   0  0  0  0  0  0  0  0  0  0  0  0
    3.6595  -49.7299  -17.2116 O   0  0  0  0  0  0  0  0  0  0  0  0
    3.1084  -49.1776  -16.0381 C   0  0  0  0  0  0  0  0  0  0  0  0
    3.0539  -50.2606  -15.0181 C   0  0  0  0  0  0  0  0  0  0  0  0
    3.8799  -51.3746  -15.2017 C   0  0  0  0  0  0  0  0  0  0  0  0
    3.8916  -52.4195  -14.3075 C   0  0  0  0  0  0  0  0  0  0  0  0
    3.0400  -52.3093  -13.2132 C   0  0  0  0  0  0  0  0  0  0  0  0
    2.2354  -51.2163  -13.0410 C   0  0  0  0  0  0  0  0  0  0  0  0
    2.2526  -50.2124  -13.9401 N   0  0  0  0  0  0  0  0  0  0  0  0
    1.0794  -51.4663  -24.0834 O   0  0  0  0  0  0  0  0  0  0  0  0
    3.3435  -52.0354  -23.4819 C   0  0  0  0  0  0  0  0  0  0  0  0
    2.3985  -51.3098  -24.4508 C   0  0  0  0  0  0  0  0  0  0  0  0
    2.8338  -49.8742  -24.4214 C   0  0  0  0  0  0  0  0  0  0  0  0
    2.7494  -49.2797  -23.3291 O   0  0  0  0  0  0  0  0  0  0  0  0
    3.3183  -49.2011  -25.5525 N   0  0  0  0  0  0  0  0  0  0  0  0
    3.4487  -49.8079  -26.8622 C   0  0  0  0  0  0  0  0  0  0  0  0
    3.7207  -47.8154  -25.4377 C   0  0  0  0  0  0  0  0  0  0  0  0
 29 30  1  0  0  0
 30 28  1  0  0  0
 28  1  1  0  0  0
  1  2  2  0  0  0
  2  3  1  0  0  0
  3  4  2  0  0  0
  4  5  1  0  0  0
  5  6  2  0  0  0
  6  7  1  0  0  0
  7  8  2  0  0  0
  8  9  1  0  0  0
  9 11  1  0  0  0
 11 13  1  0  0  0
 13 14  2  0  0  0
 14 15  1  0  0  0
 15 16  2  0  0  0
 16 20  1  0  0  0
 20 21  1  0  0  0
 21 22  1  0  0  0
 22 23  2  0  0  0
 23 24  1  0  0  0
 24 25  2  0  0  0
 25 26  1  0  0  0
 26 27  2  0  0  0
 16 17  1  0  0  0
 17 18  1  0  0  0
 17 19  2  0  0  0
  9 10  2  0  0  0
 30 31  1  0  0  0
 31 32  2  0  0  0
 31 33  1  0  0  0
 33 34  1  0  0  0
 33 35  1  0  0  0
 10  1  1  0  0  0
 10  5  1  0  0  0
 19 13  1  0  0  0
 27 22  1  0  0  0
 11 12  1  0  0  0
M  END
> <minimizedAffinity>
-7.08270

> <CNNscore>
0.5847615004

> <CNNaffinity>
7.1318235397

> <CNN_VS>
4.1704158783

> <CNNaffinity_variance>
0.1133136600

$$$$
[H]c1nc(N([H])c2c([H])c([H])c(OC([H])([H])c3nc([H])c([H])c([H])c3[H])c(Cl)c2[H])c2c(O[C@@]([H])(C(=O)N(C([H])([H])[H])C([H])([H])[H])C([H])([H])[H])c([H])c([H])c([H])c2n1


 35 38  0  0  0  0  0  0  0  0999 V2000
    1.1834  -51.6913  -24.1509 C   0  0  0  0  0  0  0  0  0  0  0  0
    0.9496  -51.2360  -25.4537 C   0  0  0  0  0  0  0  0  0  0  0  0
   -0.0280  -51.8150  -26.2317 C   0  0  0  0  0  0  0  0  0  0  0  0
   -0.7944  -52.8454  -25.7577 C   0  0  0  0  0  0  0  0  0  0  0  0
   -0.6006  -53.3274  -24.4810 C   0  0  0  0  0  0  0  0  0  0  0  0
   -1.3484  -54.3483  -24.0207 N   0  0  0  0  0  0  0  0  0  0  0  0
   -1.1751  -54.8430  -22.7898 C   0  0  0  0  0  0  0  0  0  0  0  0
   -0.2439  -54.2925  -22.0419 N   0  0  0  0  0  0  0  0  0  0  0  0
    0.5580  -53.2496  -22.4382 C   0  0  0  0  0  0  0  0  0  0  0  0
    0.3887  -52.7407  -23.6929 C   0  0  0  0  0  0  0  0  0  0  0  0
    1.4585  -52.7070  -21.5061 N   0  0  0  0  0  0  0  0  0  0  0  0
    2.4672  -52.5815  -21.5274 H   0  0  0  0  0  0  0  0  0  0  0  0
    0.8875  -52.1883  -20.2651 C   0  0  0  0  0  0  0  0  0  0  0  0
    1.3915  -50.9999  -19.7368 C   0  0  0  0  0  0  0  0  0  0  0  0
    0.9147  -50.4894  -18.5516 C   0  0  0  0  0  0  0  0  0  0  0  0
   -0.0735  -51.1378  -17.8541 C   0  0  0  0  0  0  0  0  0  0  0  0
   -0.5831  -52.3034  -18.3501 C   0  0  0  0  0  0  0  0  0  0  0  0
   -1.8553  -53.1731  -17.4882 Cl  0  0  0  0  0  0  0  0  0  0  0  0
   -0.0906  -52.8143  -19.5561 C   0  0  0  0  0  0  0  0  0  0  0  0
   -0.5763  -50.6395  -16.6467 O   0  0  0  0  0  0  0  0  0  0  0  0
    0.2278  -49.8813  -15.7726 C   0  0  0  0  0  0  0  0  0  0  0  0
   -0.5404  -48.6600  -15.4058 C   0  0  0  0  0  0  0  0  0  0  0  0
   -1.9369  -48.7419  -15.4024 C   0  0  0  0  0  0  0  0  0  0  0  0
   -2.7224  -47.6612  -15.0757 C   0  0  0  0  0  0  0  0  0  0  0  0
   -2.0552  -46.4850  -14.7497 C   0  0  0  0  0  0  0  0  0  0  0  0
   -0.6889  -46.4134  -14.7554 C   0  0  0  0  0  0  0  0  0  0  0  0
    0.0462  -47.4950  -15.0814 N   0  0  0  0  0  0  0  0  0  0  0  0
    2.1571  -51.1174  -23.3805 O   0  0  0  0  0  0  0  0  0  0  0  0
    4.0644  -52.2926  -24.2713 C   0  0  0  0  0  0  0  0  0  0  0  0
    3.4965  -50.9935  -23.6811 C   0  0  0  0  0  0  0  0  0  0  0  0
    4.3321  -50.7171  -22.4659 C   0  0  0  0  0  0  0  0  0  0  0  0
    4.3135  -51.5730  -21.5599 O   0  0  0  0  0  0  0  0  0  0  0  0
    5.1101  -49.5589  -22.3230 N   0  0  0  0  0  0  0  0  0  0  0  0
    5.1915  -48.5097  -23.3196 C   0  0  0  0  0  0  0  0  0  0  0  0
    5.8907  -49.3703  -21.1188 C   0  0  0  0  0  0  0  0  0  0  0  0
 29 30  1  0  0  0
 30 28  1  0  0  0
 28  1  1  0  0  0
  1  2  2  0  0  0
  2  3  1  0  0  0
  3  4  2  0  0  0
  4  5  1  0  0  0
  5  6  2  0  0  0
  6  7  1  0  0  0
  7  8  2  0  0  0
  8  9  1  0  0  0
  9 11  1  0  0  0
 11 13  1  0  0  0
 13 14  2  0  0  0
 14 15  1  0  0  0
 15 16  2  0  0  0
 16 20  1  0  0  0
 20 21  1  0  0  0
 21 22  1  0  0  0
 22 23  2  0  0  0
 23 24  1  0  0  0
 24 25  2  0  0  0
 25 26  1  0  0  0
 26 27  2  0  0  0
 16 17  1  0  0  0
 17 18  1  0  0  0
 17 19  2  0  0  0
  9 10  2  0  0  0
 30 31  1  0  0  0
 31 32  2  0  0  0
 31 33  1  0  0  0
 33 34  1  0  0  0
 33 35  1  0  0  0
 10  1  1  0  0  0
 10  5  1  0  0  0
 19 13  1  0  0  0
 27 22  1  0  0  0
 11 12  1  0  0  0
M  END
> <minimizedAffinity>
-7.57553

> <CNNscore>
0.5318726897

> <CNNaffinity>
7.1766562462

> <CNN_VS>
3.8170673847

> <CNNaffinity_variance>
0.1981467605

$$$$
[H]c1nc(N([H])c2c([H])c([H])c(OC([H])([H])c3nc([H])c([H])c([H])c3[H])c(Cl)c2[H])c2c(O[C@@]([H])(C(=O)N(C([H])([H])[H])C([H])([H])[H])C([H])([H])[H])c([H])c([H])c([H])c2n1


 35 38  0  0  0  0  0  0  0  0999 V2000
    0.1276  -49.6745  -16.7934 C   0  0  0  0  0  0  0  0  0  0  0  0
   -0.1452  -48.6561  -15.8726 C   0  0  0  0  0  0  0  0  0  0  0  0
   -1.2297  -48.7485  -15.0290 C   0  0  0  0  0  0  0  0  0  0  0  0
   -2.0668  -49.8308  -15.0655 C   0  0  0  0  0  0  0  0  0  0  0  0
   -1.8383  -50.8584  -15.9554 C   0  0  0  0  0  0  0  0  0  0  0  0
   -2.6695  -51.9170  -15.9970 N   0  0  0  0  0  0  0  0  0  0  0  0
   -2.4779  -52.9235  -16.8573 C   0  0  0  0  0  0  0  0  0  0  0  0
   -1.4426  -52.8411  -17.6641 N   0  0  0  0  0  0  0  0  0  0  0  0
   -0.5503  -51.7965  -17.6822 C   0  0  0  0  0  0  0  0  0  0  0  0
   -0.7398  -50.7653  -16.8091 C   0  0  0  0  0  0  0  0  0  0  0  0
    0.5569  -51.8779  -18.5434 N   0  0  0  0  0  0  0  0  0  0  0  0
    1.5575  -51.8177  -18.3735 H   0  0  0  0  0  0  0  0  0  0  0  0
    0.2744  -52.1182  -19.9569 C   0  0  0  0  0  0  0  0  0  0  0  0
    0.4174  -51.0656  -20.8607 C   0  0  0  0  0  0  0  0  0  0  0  0
    0.1275  -51.2296  -22.1956 C   0  0  0  0  0  0  0  0  0  0  0  0
   -0.3120  -52.4377  -22.6761 C   0  0  0  0  0  0  0  0  0  0  0  0
   -0.4606  -53.4836  -21.8111 C   0  0  0  0  0  0  0  0  0  0  0  0
   -1.0230  -55.0568  -22.3829 Cl  0  0  0  0  0  0  0  0  0  0  0  0
   -0.1637  -53.3060  -20.4553 C   0  0  0  0  0  0  0  0  0  0  0  0
   -0.6131  -52.6309  -24.0291 O   0  0  0  0  0  0  0  0  0  0  0  0
    0.0989  -51.9606  -25.0438 C   0  0  0  0  0  0  0  0  0  0  0  0
   -0.6162  -52.2046  -26.3265 C   0  0  0  0  0  0  0  0  0  0  0  0
    0.1539  -52.4404  -27.4703 C   0  0  0  0  0  0  0  0  0  0  0  0
   -0.4262  -52.6747  -28.6951 C   0  0  0  0  0  0  0  0  0  0  0  0
   -1.8165  -52.6645  -28.7354 C   0  0  0  0  0  0  0  0  0  0  0  0
   -2.5623  -52.4331  -27.6120 C   0  0  0  0  0  0  0  0  0  0  0  0
   -1.9563  -52.2075  -26.4295 N   0  0  0  0  0  0  0  0  0  0  0  0
    1.2032  -49.5798  -17.6330 O   0  0  0  0  0  0  0  0  0  0  0  0
    3.3411  -48.8784  -18.4989 C   0  0  0  0  0  0  0  0  0  0  0  0
    2.5146  -49.3340  -17.2874 C   0  0  0  0  0  0  0  0  0  0  0  0
    3.2111  -50.5610  -16.7770 C   0  0  0  0  0  0  0  0  0  0  0  0
    3.5827  -51.3950  -17.6257 O   0  0  0  0  0  0  0  0  0  0  0  0
    3.4494  -50.7912  -15.4142 N   0  0  0  0  0  0  0  0  0  0  0  0
    3.0519  -49.8823  -14.3576 C   0  0  0  0  0  0  0  0  0  0  0  0
    4.1314  -52.0007  -15.0055 C   0  0  0  0  0  0  0  0  0  0  0  0
 29 30  1  0  0  0
 30 28  1  0  0  0
 28  1  1  0  0  0
  1  2  2  0  0  0
  2  3  1  0  0  0
  3  4  2  0  0  0
  4  5  1  0  0  0
  5  6  2  0  0  0
  6  7  1  0  0  0
  7  8  2  0  0  0
  8  9  1  0  0  0
  9 11  1  0  0  0
 11 13  1  0  0  0
 13 14  2  0  0  0
 14 15  1  0  0  0
 15 16  2  0  0  0
 16 20  1  0  0  0
 20 21  1  0  0  0
 21 22  1  0  0  0
 22 23  2  0  0  0
 23 24  1  0  0  0
 24 25  2  0  0  0
 25 26  1  0  0  0
 26 27  2  0  0  0
 16 17  1  0  0  0
 17 18  1  0  0  0
 17 19  2  0  0  0
  9 10  2  0  0  0
 30 31  1  0  0  0
 31 32  2  0  0  0
 31 33  1  0  0  0
 33 34  1  0  0  0
 33 35  1  0  0  0
 10  1  1  0  0  0
 10  5  1  0  0  0
 19 13  1  0  0  0
 27 22  1  0  0  0
 11 12  1  0  0  0
M  END
> <minimizedAffinity>
-8.34744

> <CNNscore>
0.4286520779

> <CNNaffinity>
6.9194960594

> <CNN_VS>
2.9660563469

> <CNNaffinity_variance>
0.1167806163

$$$$
[H]c1nc(N([H])c2c([H])c([H])c(OC([H])([H])c3nc([H])c([H])c([H])c3[H])c(Cl)c2[H])c2c(O[C@@]([H])(C(=O)N(C([H])([H])[H])C([H])([H])[H])C([H])([H])[H])c([H])c([H])c([H])c2n1


 35 38  0  0  0  0  0  0  0  0999 V2000
    1.0017  -51.6208  -24.5717 C   0  0  0  0  0  0  0  0  0  0  0  0
    0.6002  -51.2604  -25.8633 C   0  0  0  0  0  0  0  0  0  0  0  0
   -0.4334  -51.9249  -26.4850 C   0  0  0  0  0  0  0  0  0  0  0  0
   -1.0939  -52.9498  -25.8631 C   0  0  0  0  0  0  0  0  0  0  0  0
   -0.7339  -53.3399  -24.5910 C   0  0  0  0  0  0  0  0  0  0  0  0
   -1.3780  -54.3557  -23.9854 N   0  0  0  0  0  0  0  0  0  0  0  0
   -1.0431  -54.7623  -22.7556 C   0  0  0  0  0  0  0  0  0  0  0  0
   -0.0578  -54.1299  -22.1566 N   0  0  0  0  0  0  0  0  0  0  0  0
    0.6464  -53.0861  -22.7065 C   0  0  0  0  0  0  0  0  0  0  0  0
    0.3121  -52.6667  -23.9611 C   0  0  0  0  0  0  0  0  0  0  0  0
    1.6227  -52.4508  -21.9208 N   0  0  0  0  0  0  0  0  0  0  0  0
    2.6052  -52.2490  -22.0873 H   0  0  0  0  0  0  0  0  0  0  0  0
    1.1922  -51.9437  -20.6197 C   0  0  0  0  0  0  0  0  0  0  0  0
    0.2443  -52.6661  -19.8953 C   0  0  0  0  0  0  0  0  0  0  0  0
   -0.2222  -52.2124  -18.6831 C   0  0  0  0  0  0  0  0  0  0  0  0
    0.2341  -51.0322  -18.1516 C   0  0  0  0  0  0  0  0  0  0  0  0
    1.1619  -50.3062  -18.8419 C   0  0  0  0  0  0  0  0  0  0  0  0
    1.7785  -48.7819  -18.1983 Cl  0  0  0  0  0  0  0  0  0  0  0  0
    1.6292  -50.7763  -20.0742 C   0  0  0  0  0  0  0  0  0  0  0  0
   -0.2237  -50.5488  -16.9206 O   0  0  0  0  0  0  0  0  0  0  0  0
   -0.7899  -51.4081  -15.9579 C   0  0  0  0  0  0  0  0  0  0  0  0
   -2.1479  -50.8881  -15.6393 C   0  0  0  0  0  0  0  0  0  0  0  0
   -3.2448  -51.7128  -15.9113 C   0  0  0  0  0  0  0  0  0  0  0  0
   -4.5332  -51.3103  -15.6476 C   0  0  0  0  0  0  0  0  0  0  0  0
   -4.6868  -50.0421  -15.0973 C   0  0  0  0  0  0  0  0  0  0  0  0
   -3.6088  -49.2419  -14.8342 C   0  0  0  0  0  0  0  0  0  0  0  0
   -2.3611  -49.6725  -15.1069 N   0  0  0  0  0  0  0  0  0  0  0  0
    2.0308  -50.9621  -23.9568 O   0  0  0  0  0  0  0  0  0  0  0  0
    3.9034  -52.2109  -24.8204 C   0  0  0  0  0  0  0  0  0  0  0  0
    3.3326  -50.8501  -24.3954 C   0  0  0  0  0  0  0  0  0  0  0  0
    4.2570  -50.3553  -23.3223 C   0  0  0  0  0  0  0  0  0  0  0  0
    4.3595  -51.0560  -22.2965 O   0  0  0  0  0  0  0  0  0  0  0  0
    4.9875  -49.1633  -23.4351 N   0  0  0  0  0  0  0  0  0  0  0  0
    4.9302  -48.2840  -24.5858 C   0  0  0  0  0  0  0  0  0  0  0  0
    5.8605  -48.7588  -22.3538 C   0  0  0  0  0  0  0  0  0  0  0  0
 29 30  1  0  0  0
 30 28  1  0  0  0
 28  1  1  0  0  0
  1  2  2  0  0  0
  2  3  1  0  0  0
  3  4  2  0  0  0
  4  5  1  0  0  0
  5  6  2  0  0  0
  6  7  1  0  0  0
  7  8  2  0  0  0
  8  9  1  0  0  0
  9 11  1  0  0  0
 11 13  1  0  0  0
 13 14  2  0  0  0
 14 15  1  0  0  0
 15 16  2  0  0  0
 16 20  1  0  0  0
 20 21  1  0  0  0
 21 22  1  0  0  0
 22 23  2  0  0  0
 23 24  1  0  0  0
 24 25  2  0  0  0
 25 26  1  0  0  0
 26 27  2  0  0  0
 16 17  1  0  0  0
 17 18  1  0  0  0
 17 19  2  0  0  0
  9 10  2  0  0  0
 30 31  1  0  0  0
 31 32  2  0  0  0
 31 33  1  0  0  0
 33 34  1  0  0  0
 33 35  1  0  0  0
 10  1  1  0  0  0
 10  5  1  0  0  0
 19 13  1  0  0  0
 27 22  1  0  0  0
 11 12  1  0  0  0
M  END
> <minimizedAffinity>
-7.76760

> <CNNscore>
0.4177057743

> <CNNaffinity>
7.0585007668

> <CNN_VS>
2.9483764172

> <CNNaffinity_variance>
0.4028951228

$$$$
[H]c1nc(N([H])c2c([H])c([H])c(OC([H])([H])c3nc([H])c([H])c([H])c3[H])c(Cl)c2[H])c2c(O[C@@]([H])(C(=O)N(C([H])([H])[H])C([H])([H])[H])C([H])([H])[H])c([H])c([H])c([H])c2n1


 35 38  0  0  0  0  0  0  0  0999 V2000
    0.9456  -51.5490  -24.0440 C   0  0  0  0  0  0  0  0  0  0  0  0
    0.6706  -51.1704  -25.3632 C   0  0  0  0  0  0  0  0  0  0  0  0
   -0.2149  -51.8960  -26.1286 C   0  0  0  0  0  0  0  0  0  0  0  0
   -0.8476  -53.0007  -25.6259 C   0  0  0  0  0  0  0  0  0  0  0  0
   -0.6085  -53.4118  -24.3321 C   0  0  0  0  0  0  0  0  0  0  0  0
   -1.2239  -54.5053  -23.8432 N   0  0  0  0  0  0  0  0  0  0  0  0
   -1.0030  -54.9331  -22.5950 C   0  0  0  0  0  0  0  0  0  0  0  0
   -0.1595  -54.2427  -21.8592 N   0  0  0  0  0  0  0  0  0  0  0  0
    0.5059  -53.1184  -22.2844 C   0  0  0  0  0  0  0  0  0  0  0  0
    0.2874  -52.6768  -23.5568 C   0  0  0  0  0  0  0  0  0  0  0  0
    1.3178  -52.4339  -21.3644 N   0  0  0  0  0  0  0  0  0  0  0  0
    2.2647  -52.0698  -21.4311 H   0  0  0  0  0  0  0  0  0  0  0  0
    0.7307  -52.1432  -20.0582 C   0  0  0  0  0  0  0  0  0  0  0  0
    1.3276  -51.1742  -19.2520 C   0  0  0  0  0  0  0  0  0  0  0  0
    0.8364  -50.8903  -17.9986 C   0  0  0  0  0  0  0  0  0  0  0  0
   -0.2582  -51.5551  -17.5055 C   0  0  0  0  0  0  0  0  0  0  0  0
   -0.8602  -52.5087  -18.2753 C   0  0  0  0  0  0  0  0  0  0  0  0
   -2.2711  -53.3903  -17.6836 Cl  0  0  0  0  0  0  0  0  0  0  0  0
   -0.3522  -52.7903  -19.5483 C   0  0  0  0  0  0  0  0  0  0  0  0
   -0.7778  -51.2849  -16.2344 O   0  0  0  0  0  0  0  0  0  0  0  0
   -1.0728  -49.9691  -15.8252 C   0  0  0  0  0  0  0  0  0  0  0  0
   -2.3233  -50.0221  -15.0192 C   0  0  0  0  0  0  0  0  0  0  0  0
   -3.4206  -50.7024  -15.5577 C   0  0  0  0  0  0  0  0  0  0  0  0
   -4.6133  -50.7993  -14.8797 C   0  0  0  0  0  0  0  0  0  0  0  0
   -4.6698  -50.1859  -13.6326 C   0  0  0  0  0  0  0  0  0  0  0  0
   -3.5919  -49.5226  -13.1130 C   0  0  0  0  0  0  0  0  0  0  0  0
   -2.4398  -49.4497  -13.8086 N   0  0  0  0  0  0  0  0  0  0  0  0
    1.8279  -50.8293  -23.2860 O   0  0  0  0  0  0  0  0  0  0  0  0
    4.1611  -51.0110  -23.8654 C   0  0  0  0  0  0  0  0  0  0  0  0
    2.9211  -50.1155  -23.7276 C   0  0  0  0  0  0  0  0  0  0  0  0
    3.3234  -49.0341  -22.7684 C   0  0  0  0  0  0  0  0  0  0  0  0
    3.2247  -49.2908  -21.5526 O   0  0  0  0  0  0  0  0  0  0  0  0
    3.7930  -47.7803  -23.1862 N   0  0  0  0  0  0  0  0  0  0  0  0
    3.9381  -47.3912  -24.5748 C   0  0  0  0  0  0  0  0  0  0  0  0
    4.1634  -46.7928  -22.1948 C   0  0  0  0  0  0  0  0  0  0  0  0
 29 30  1  0  0  0
 30 28  1  0  0  0
 28  1  1  0  0  0
  1  2  2  0  0  0
  2  3  1  0  0  0
  3  4  2  0  0  0
  4  5  1  0  0  0
  5  6  2  0  0  0
  6  7  1  0  0  0
  7  8  2  0  0  0
  8  9  1  0  0  0
  9 11  1  0  0  0
 11 13  1  0  0  0
 13 14  2  0  0  0
 14 15  1  0  0  0
 15 16  2  0  0  0
 16 20  1  0  0  0
 20 21  1  0  0  0
 21 22  1  0  0  0
 22 23  2  0  0  0
 23 24  1  0  0  0
 24 25  2  0  0  0
 25 26  1  0  0  0
 26 27  2  0  0  0
 16 17  1  0  0  0
 17 18  1  0  0  0
 17 19  2  0  0  0
  9 10  2  0  0  0
 30 31  1  0  0  0
 31 32  2  0  0  0
 31 33  1  0  0  0
 33 34  1  0  0  0
 33 35  1  0  0  0
 10  1  1  0  0  0
 10  5  1  0  0  0
 19 13  1  0  0  0
 27 22  1  0  0  0
 11 12  1  0  0  0
M  END
> <minimizedAffinity>
-7.38684

> <CNNscore>
0.3650114536

> <CNNaffinity>
6.9665641785

> <CNN_VS>
2.5428757668

> <CNNaffinity_variance>
0.1801845878

$$$$
[H]c1nc(N([H])c2c([H])c([H])c(OC([H])([H])c3nc([H])c([H])c([H])c3[H])c(Cl)c2[H])c2c(O[C@@]([H])(C(=O)N(C([H])([H])[H])C([H])([H])[H])C([H])([H])[H])c([H])c([H])c([H])c2n1


 35 38  0  0  0  0  0  0  0  0999 V2000
    1.2275  -51.5699  -24.2290 C   0  0  0  0  0  0  0  0  0  0  0  0
    0.9313  -51.1517  -25.5317 C   0  0  0  0  0  0  0  0  0  0  0  0
   -0.0817  -51.7522  -26.2453 C   0  0  0  0  0  0  0  0  0  0  0  0
   -0.8236  -52.7684  -25.7063 C   0  0  0  0  0  0  0  0  0  0  0  0
   -0.5687  -53.2140  -24.4270 C   0  0  0  0  0  0  0  0  0  0  0  0
   -1.2927  -54.2211  -23.9028 N   0  0  0  0  0  0  0  0  0  0  0  0
   -1.0604  -54.6807  -22.6680 C   0  0  0  0  0  0  0  0  0  0  0  0
   -0.0952  -54.1095  -21.9814 N   0  0  0  0  0  0  0  0  0  0  0  0
    0.6859  -53.0786  -22.4449 C   0  0  0  0  0  0  0  0  0  0  0  0
    0.4565  -52.6055  -23.7040 C   0  0  0  0  0  0  0  0  0  0  0  0
    1.6294  -52.5101  -21.5727 N   0  0  0  0  0  0  0  0  0  0  0  0
    2.6425  -52.4387  -21.6183 H   0  0  0  0  0  0  0  0  0  0  0  0
    1.1078  -51.8650  -20.3696 C   0  0  0  0  0  0  0  0  0  0  0  0
    1.4547  -50.5389  -20.1122 C   0  0  0  0  0  0  0  0  0  0  0  0
    1.0212  -49.8979  -18.9746 C   0  0  0  0  0  0  0  0  0  0  0  0
    0.2327  -50.5483  -18.0587 C   0  0  0  0  0  0  0  0  0  0  0  0
   -0.1201  -51.8472  -18.2876 C   0  0  0  0  0  0  0  0  0  0  0  0
   -1.1329  -52.7251  -17.1380 Cl  0  0  0  0  0  0  0  0  0  0  0  0
    0.3267  -52.4900  -19.4474 C   0  0  0  0  0  0  0  0  0  0  0  0
   -0.2219  -49.9191  -16.8942 O   0  0  0  0  0  0  0  0  0  0  0  0
    0.6611  -49.2332  -16.0365 C   0  0  0  0  0  0  0  0  0  0  0  0
    1.4997  -50.2540  -15.3502 C   0  0  0  0  0  0  0  0  0  0  0  0
    2.8796  -50.2282  -15.5786 C   0  0  0  0  0  0  0  0  0  0  0  0
    3.7264  -51.1346  -14.9846 C   0  0  0  0  0  0  0  0  0  0  0  0
    3.1385  -52.0762  -14.1464 C   0  0  0  0  0  0  0  0  0  0  0  0
    1.7880  -52.0945  -13.9283 C   0  0  0  0  0  0  0  0  0  0  0  0
    0.9910  -51.1888  -14.5293 N   0  0  0  0  0  0  0  0  0  0  0  0
    2.2362  -50.9747  -23.5226 O   0  0  0  0  0  0  0  0  0  0  0  0
    4.0681  -52.3265  -24.3158 C   0  0  0  0  0  0  0  0  0  0  0  0
    3.5776  -50.9517  -23.8386 C   0  0  0  0  0  0  0  0  0  0  0  0
    4.4381  -50.6176  -22.6557 C   0  0  0  0  0  0  0  0  0  0  0  0
    4.5164  -51.4738  -21.7531 O   0  0  0  0  0  0  0  0  0  0  0  0
    5.1361  -49.4067  -22.5383 N   0  0  0  0  0  0  0  0  0  0  0  0
    5.1030  -48.3530  -23.5329 C   0  0  0  0  0  0  0  0  0  0  0  0
    5.9475  -49.1642  -21.3645 C   0  0  0  0  0  0  0  0  0  0  0  0
 29 30  1  0  0  0
 30 28  1  0  0  0
 28  1  1  0  0  0
  1  2  2  0  0  0
  2  3  1  0  0  0
  3  4  2  0  0  0
  4  5  1  0  0  0
  5  6  2  0  0  0
  6  7  1  0  0  0
  7  8  2  0  0  0
  8  9  1  0  0  0
  9 11  1  0  0  0
 11 13  1  0  0  0
 13 14  2  0  0  0
 14 15  1  0  0  0
 15 16  2  0  0  0
 16 20  1  0  0  0
 20 21  1  0  0  0
 21 22  1  0  0  0
 22 23  2  0  0  0
 23 24  1  0  0  0
 24 25  2  0  0  0
 25 26  1  0  0  0
 26 27  2  0  0  0
 16 17  1  0  0  0
 17 18  1  0  0  0
 17 19  2  0  0  0
  9 10  2  0  0  0
 30 31  1  0  0  0
 31 32  2  0  0  0
 31 33  1  0  0  0
 33 34  1  0  0  0
 33 35  1  0  0  0
 10  1  1  0  0  0
 10  5  1  0  0  0
 19 13  1  0  0  0
 27 22  1  0  0  0
 11 12  1  0  0  0
M  END
> <minimizedAffinity>
-7.47296

> <CNNscore>
0.3535052836

> <CNNaffinity>
7.0718564987

> <CNN_VS>
2.4999387264

> <CNNaffinity_variance>
0.2064679861

$$$$
[H]c1nc(N([H])c2c([H])c([H])c(OC([H])([H])c3nc([H])c([H])c([H])c3[H])c(Cl)c2[H])c2c(O[C@@]([H])(C(=O)N(C([H])([H])[H])C([H])([H])[H])C([H])([H])[H])c([H])c([H])c([H])c2n1


 35 38  0  0  0  0  0  0  0  0999 V2000
    2.1002  -51.7839  -25.4795 C   0  0  0  0  0  0  0  0  0  0  0  0
    2.4272  -51.9354  -26.8321 C   0  0  0  0  0  0  0  0  0  0  0  0
    1.7812  -52.8729  -27.6068 C   0  0  0  0  0  0  0  0  0  0  0  0
    0.8075  -53.6785  -27.0812 C   0  0  0  0  0  0  0  0  0  0  0  0
    0.4514  -53.5657  -25.7543 C   0  0  0  0  0  0  0  0  0  0  0  0
   -0.4992  -54.3668  -25.2367 N   0  0  0  0  0  0  0  0  0  0  0  0
   -0.8574  -54.2865  -23.9502 C   0  0  0  0  0  0  0  0  0  0  0  0
   -0.2448  -53.3916  -23.2063 N   0  0  0  0  0  0  0  0  0  0  0  0
    0.7327  -52.5390  -23.6595 C   0  0  0  0  0  0  0  0  0  0  0  0
    1.1049  -52.6160  -24.9700 C   0  0  0  0  0  0  0  0  0  0  0  0
    1.2452  -51.5776  -22.7724 N   0  0  0  0  0  0  0  0  0  0  0  0
    1.8407  -50.7663  -22.9173 H   0  0  0  0  0  0  0  0  0  0  0  0
    0.8611  -51.7071  -21.3685 C   0  0  0  0  0  0  0  0  0  0  0  0
    0.3467  -52.9236  -20.9204 C   0  0  0  0  0  0  0  0  0  0  0  0
   -0.0650  -53.0855  -19.6176 C   0  0  0  0  0  0  0  0  0  0  0  0
    0.0194  -52.0507  -18.7201 C   0  0  0  0  0  0  0  0  0  0  0  0
    0.5190  -50.8494  -19.1346 C   0  0  0  0  0  0  0  0  0  0  0  0
    0.6469  -49.4891  -18.0161 Cl  0  0  0  0  0  0  0  0  0  0  0  0
    0.9343  -50.6952  -20.4619 C   0  0  0  0  0  0  0  0  0  0  0  0
   -0.3919  -52.1894  -17.3896 O   0  0  0  0  0  0  0  0  0  0  0  0
   -1.5862  -52.8584  -17.0552 C   0  0  0  0  0  0  0  0  0  0  0  0
   -2.4390  -51.8992  -16.3011 C   0  0  0  0  0  0  0  0  0  0  0  0
   -1.8165  -50.7936  -15.7117 C   0  0  0  0  0  0  0  0  0  0  0  0
   -2.5300  -49.8594  -14.9977 C   0  0  0  0  0  0  0  0  0  0  0  0
   -3.9006  -50.0723  -14.8933 C   0  0  0  0  0  0  0  0  0  0  0  0
   -4.5016  -51.1562  -15.4728 C   0  0  0  0  0  0  0  0  0  0  0  0
   -3.7676  -52.0500  -16.1648 N   0  0  0  0  0  0  0  0  0  0  0  0
    2.7450  -50.8547  -24.7104 O   0  0  0  0  0  0  0  0  0  0  0  0
    4.9399  -51.0423  -23.7307 C   0  0  0  0  0  0  0  0  0  0  0  0
    4.0526  -50.4348  -24.8271 C   0  0  0  0  0  0  0  0  0  0  0  0
    4.1928  -48.9496  -24.6665 C   0  0  0  0  0  0  0  0  0  0  0  0
    4.4292  -48.5245  -23.5188 O   0  0  0  0  0  0  0  0  0  0  0  0
    4.0693  -48.0519  -25.7370 N   0  0  0  0  0  0  0  0  0  0  0  0
    3.7927  -48.4524  -27.1022 C   0  0  0  0  0  0  0  0  0  0  0  0
    4.2219  -46.6327  -25.4966 C   0  0  0  0  0  0  0  0  0  0  0  0
 29 30  1  0  0  0
 30 28  1  0  0  0
 28  1  1  0  0  0
  1  2  2  0  0  0
  2  3  1  0  0  0
  3  4  2  0  0  0
  4  5  1  0  0  0
  5  6  2  0  0  0
  6  7  1  0  0  0
  7  8  2  0  0  0
  8  9  1  0  0  0
  9 11  1  0  0  0
 11 13  1  0  0  0
 13 14  2  0  0  0
 14 15  1  0  0  0
 15 16  2  0  0  0
 16 20  1  0  0  0
 20 21  1  0  0  0
 21 22  1  0  0  0
 22 23  2  0  0  0
 23 24  1  0  0  0
 24 25  2  0  0  0
 25 26  1  0  0  0
 26 27  2  0  0  0
 16 17  1  0  0  0
 17 18  1  0  0  0
 17 19  2  0  0  0
  9 10  2  0  0  0
 30 31  1  0  0  0
 31 32  2  0  0  0
 31 33  1  0  0  0
 33 34  1  0  0  0
 33 35  1  0  0  0
 10  1  1  0  0  0
 10  5  1  0  0  0
 19 13  1  0  0  0
 27 22  1  0  0  0
 11 12  1  0  0  0
M  END
> <minimizedAffinity>
-7.57239

> <CNNscore>
0.3274050057

> <CNNaffinity>
7.0793581009

> <CNN_VS>
2.3178172112

> <CNNaffinity_variance>
0.2839642763

$$$$
[H]c1nc(N([H])c2c([H])c([H])c(OC([H])([H])c3nc([H])c([H])c([H])c3[H])c(Cl)c2[H])c2c(O[C@@]([H])(C(=O)N(C([H])([H])[H])C([H])([H])[H])C([H])([H])[H])c([H])c([H])c([H])c2n1


 35 38  0  0  0  0  0  0  0  0999 V2000
    0.0853  -49.6071  -16.5092 C   0  0  0  0  0  0  0  0  0  0  0  0
   -0.2100  -48.5383  -15.6549 C   0  0  0  0  0  0  0  0  0  0  0  0
   -1.3563  -48.5494  -14.8920 C   0  0  0  0  0  0  0  0  0  0  0  0
   -2.2344  -49.5980  -14.9459 C   0  0  0  0  0  0  0  0  0  0  0  0
   -1.9859  -50.6728  -15.7723 C   0  0  0  0  0  0  0  0  0  0  0  0
   -2.8566  -51.6982  -15.8319 N   0  0  0  0  0  0  0  0  0  0  0  0
   -2.6461  -52.7491  -16.6325 C   0  0  0  0  0  0  0  0  0  0  0  0
   -1.5520  -52.7444  -17.3621 N   0  0  0  0  0  0  0  0  0  0  0  0
   -0.6165  -51.7382  -17.3569 C   0  0  0  0  0  0  0  0  0  0  0  0
   -0.8248  -50.6620  -16.5443 C   0  0  0  0  0  0  0  0  0  0  0  0
    0.5462  -51.9023  -18.1285 N   0  0  0  0  0  0  0  0  0  0  0  0
    1.5280  -51.9725  -17.8739 H   0  0  0  0  0  0  0  0  0  0  0  0
    0.3649  -52.0251  -19.5732 C   0  0  0  0  0  0  0  0  0  0  0  0
    0.5336  -50.8941  -20.3718 C   0  0  0  0  0  0  0  0  0  0  0  0
    0.3373  -50.9480  -21.7325 C   0  0  0  0  0  0  0  0  0  0  0  0
   -0.0312  -52.1204  -22.3435 C   0  0  0  0  0  0  0  0  0  0  0  0
   -0.2033  -53.2415  -21.5833 C   0  0  0  0  0  0  0  0  0  0  0  0
   -0.6769  -54.7726  -22.3247 Cl  0  0  0  0  0  0  0  0  0  0  0  0
   -0.0017  -53.1756  -20.2002 C   0  0  0  0  0  0  0  0  0  0  0  0
   -0.2366  -52.2021  -23.7254 O   0  0  0  0  0  0  0  0  0  0  0  0
    0.7173  -51.7140  -24.6406 C   0  0  0  0  0  0  0  0  0  0  0  0
    0.2813  -52.1273  -26.0027 C   0  0  0  0  0  0  0  0  0  0  0  0
   -1.0913  -52.1476  -26.2723 C   0  0  0  0  0  0  0  0  0  0  0  0
   -1.5794  -52.5168  -27.5040 C   0  0  0  0  0  0  0  0  0  0  0  0
   -0.6371  -52.8682  -28.4650 C   0  0  0  0  0  0  0  0  0  0  0  0
    0.7035  -52.8457  -28.1931 C   0  0  0  0  0  0  0  0  0  0  0  0
    1.1426  -52.4779  -26.9731 N   0  0  0  0  0  0  0  0  0  0  0  0
    1.2226  -49.5932  -17.2691 O   0  0  0  0  0  0  0  0  0  0  0  0
    3.3956  -48.8161  -17.9667 C   0  0  0  0  0  0  0  0  0  0  0  0
    2.5129  -49.3704  -16.8388 C   0  0  0  0  0  0  0  0  0  0  0  0
    3.1928  -50.6315  -16.3931 C   0  0  0  0  0  0  0  0  0  0  0  0
    3.6483  -51.3742  -17.2845 O   0  0  0  0  0  0  0  0  0  0  0  0
    3.3270  -50.9893  -15.0436 N   0  0  0  0  0  0  0  0  0  0  0  0
    2.8276  -50.1924  -13.9408 C   0  0  0  0  0  0  0  0  0  0  0  0
    4.0002  -52.2232  -14.6982 C   0  0  0  0  0  0  0  0  0  0  0  0
 29 30  1  0  0  0
 30 28  1  0  0  0
 28  1  1  0  0  0
  1  2  2  0  0  0
  2  3  1  0  0  0
  3  4  2  0  0  0
  4  5  1  0  0  0
  5  6  2  0  0  0
  6  7  1  0  0  0
  7  8  2  0  0  0
  8  9  1  0  0  0
  9 11  1  0  0  0
 11 13  1  0  0  0
 13 14  2  0  0  0
 14 15  1  0  0  0
 15 16  2  0  0  0
 16 20  1  0  0  0
 20 21  1  0  0  0
 21 22  1  0  0  0
 22 23  2  0  0  0
 23 24  1  0  0  0
 24 25  2  0  0  0
 25 26  1  0  0  0
 26 27  2  0  0  0
 16 17  1  0  0  0
 17 18  1  0  0  0
 17 19  2  0  0  0
  9 10  2  0  0  0
 30 31  1  0  0  0
 31 32  2  0  0  0
 31 33  1  0  0  0
 33 34  1  0  0  0
 33 35  1  0  0  0
 10  1  1  0  0  0
 10  5  1  0  0  0
 19 13  1  0  0  0
 27 22  1  0  0  0
 11 12  1  0  0  0
M  END
> <minimizedAffinity>
-8.08149

> <CNNscore>
0.3244231045

> <CNNaffinity>
6.7730207443

> <CNN_VS>
2.1973245144

> <CNNaffinity_variance>
0.1024381071

$$$$
[H]c1nc(N([H])c2c([H])c([H])c(OC([H])([H])c3nc([H])c([H])c([H])c3[H])c(Cl)c2[H])c2c(O[C@@]([H])(C(=O)N(C([H])([H])[H])C([H])([H])[H])C([H])([H])[H])c([H])c([H])c([H])c2n1


 35 38  0  0  0  0  0  0  0  0999 V2000
    1.0261  -51.4875  -23.8545 C   0  0  0  0  0  0  0  0  0  0  0  0
    0.8412  -51.2512  -25.2218 C   0  0  0  0  0  0  0  0  0  0  0  0
    0.0265  -52.0720  -25.9692 C   0  0  0  0  0  0  0  0  0  0  0  0
   -0.6220  -53.1355  -25.4016 C   0  0  0  0  0  0  0  0  0  0  0  0
   -0.4706  -53.4075  -24.0588 C   0  0  0  0  0  0  0  0  0  0  0  0
   -1.1009  -54.4607  -23.5049 N   0  0  0  0  0  0  0  0  0  0  0  0
   -0.9639  -54.7545  -22.2069 C   0  0  0  0  0  0  0  0  0  0  0  0
   -0.1883  -53.9727  -21.4881 N   0  0  0  0  0  0  0  0  0  0  0  0
    0.4868  -52.8811  -21.9786 C   0  0  0  0  0  0  0  0  0  0  0  0
    0.3538  -52.5760  -23.3018 C   0  0  0  0  0  0  0  0  0  0  0  0
    1.2177  -52.0873  -21.0787 N   0  0  0  0  0  0  0  0  0  0  0  0
    2.0915  -51.5766  -21.1758 H   0  0  0  0  0  0  0  0  0  0  0  0
    0.6467  -51.9090  -19.7454 C   0  0  0  0  0  0  0  0  0  0  0  0
   -0.2140  -52.8857  -19.2451 C   0  0  0  0  0  0  0  0  0  0  0  0
   -0.8075  -52.7470  -18.0117 C   0  0  0  0  0  0  0  0  0  0  0  0
   -0.5680  -51.6398  -17.2370 C   0  0  0  0  0  0  0  0  0  0  0  0
    0.2705  -50.6690  -17.7048 C   0  0  0  0  0  0  0  0  0  0  0  0
    0.6090  -49.2267  -16.7440 Cl  0  0  0  0  0  0  0  0  0  0  0  0
    0.8684  -50.8196  -18.9609 C   0  0  0  0  0  0  0  0  0  0  0  0
   -1.1585  -51.4748  -15.9789 O   0  0  0  0  0  0  0  0  0  0  0  0
   -2.4056  -50.8357  -15.8302 C   0  0  0  0  0  0  0  0  0  0  0  0
   -3.3597  -51.8402  -15.2855 C   0  0  0  0  0  0  0  0  0  0  0  0
   -4.0635  -52.6353  -16.1963 C   0  0  0  0  0  0  0  0  0  0  0  0
   -4.9638  -53.5872  -15.7781 C   0  0  0  0  0  0  0  0  0  0  0  0
   -5.1366  -53.7166  -14.4039 C   0  0  0  0  0  0  0  0  0  0  0  0
   -4.4443  -52.9350  -13.5199 C   0  0  0  0  0  0  0  0  0  0  0  0
   -3.5703  -52.0127  -13.9693 N   0  0  0  0  0  0  0  0  0  0  0  0
    1.8384  -50.6733  -23.1142 O   0  0  0  0  0  0  0  0  0  0  0  0
    4.1097  -50.4909  -22.3267 C   0  0  0  0  0  0  0  0  0  0  0  0
    3.0963  -50.2198  -23.4483 C   0  0  0  0  0  0  0  0  0  0  0  0
    3.1317  -48.7345  -23.6578 C   0  0  0  0  0  0  0  0  0  0  0  0
    3.6691  -48.3235  -24.7048 O   0  0  0  0  0  0  0  0  0  0  0  0
    2.5945  -47.8218  -22.7383 N   0  0  0  0  0  0  0  0  0  0  0  0
    1.9550  -48.2054  -21.4956 C   0  0  0  0  0  0  0  0  0  0  0  0
    2.6674  -46.4035  -23.0184 C   0  0  0  0  0  0  0  0  0  0  0  0
 29 30  1  0  0  0
 30 28  1  0  0  0
 28  1  1  0  0  0
  1  2  2  0  0  0
  2  3  1  0  0  0
  3  4  2  0  0  0
  4  5  1  0  0  0
  5  6  2  0  0  0
  6  7  1  0  0  0
  7  8  2  0  0  0
  8  9  1  0  0  0
  9 11  1  0  0  0
 11 13  1  0  0  0
 13 14  2  0  0  0
 14 15  1  0  0  0
 15 16  2  0  0  0
 16 20  1  0  0  0
 20 21  1  0  0  0
 21 22  1  0  0  0
 22 23  2  0  0  0
 23 24  1  0  0  0
 24 25  2  0  0  0
 25 26  1  0  0  0
 26 27  2  0  0  0
 16 17  1  0  0  0
 17 18  1  0  0  0
 17 19  2  0  0  0
  9 10  2  0  0  0
 30 31  1  0  0  0
 31 32  2  0  0  0
 31 33  1  0  0  0
 33 34  1  0  0  0
 33 35  1  0  0  0
 10  1  1  0  0  0
 10  5  1  0  0  0
 19 13  1  0  0  0
 27 22  1  0  0  0
 11 12  1  0  0  0
M  END
> <minimizedAffinity>
-8.15500

> <CNNscore>
0.3118095398

> <CNNaffinity>
6.9125480652

> <CNN_VS>
2.1553983688

> <CNNaffinity_variance>
0.1568361819

$$$$
[H]c1nc(N([H])c2c([H])c([H])c3c(c([H])nn3C([H])([H])c3c([H])c([H])c([H])c(F)c3[H])c2[H])c2c(O[C@@]([H])(C(=O)N(C([H])([H])[H])C([H])([H])[H])C([H])([H])[H])c([H])c([H])c([H])c2n1


 37 41  0  0  0  0  0  0  0  0999 V2000
   -0.2594  -52.7880  -17.9209 N   0  0  0  0  0  0  0  0  0  0  0  0
    0.6103  -53.1273  -17.5404 H   0  0  0  0  0  0  0  0  0  0  0  0
   -0.4519  -50.4373  -16.2374 C   0  0  0  0  0  0  0  0  0  0  0  0
   -0.6622  -49.3100  -15.4339 C   0  0  0  0  0  0  0  0  0  0  0  0
   -1.8751  -49.0431  -14.8254 C   0  0  0  0  0  0  0  0  0  0  0  0
   -2.9265  -49.9081  -15.0058 C   0  0  0  0  0  0  0  0  0  0  0  0
   -2.7475  -51.0227  -15.7902 C   0  0  0  0  0  0  0  0  0  0  0  0
   -3.7784  -51.8664  -15.9461 N   0  0  0  0  0  0  0  0  0  0  0  0
   -3.6716  -52.9872  -16.6909 C   0  0  0  0  0  0  0  0  0  0  0  0
   -2.5189  -53.2173  -17.2570 N   0  0  0  0  0  0  0  0  0  0  0  0
   -1.3966  -52.4386  -17.1765 C   0  0  0  0  0  0  0  0  0  0  0  0
   -1.5279  -51.2850  -16.3993 C   0  0  0  0  0  0  0  0  0  0  0  0
    0.7569  -50.6541  -16.8056 O   0  0  0  0  0  0  0  0  0  0  0  0
    2.4119  -49.1335  -17.6065 C   0  0  0  0  0  0  0  0  0  0  0  0
    1.9968  -50.0733  -16.5070 C   0  0  0  0  0  0  0  0  0  0  0  0
    3.0237  -51.0138  -16.0766 C   0  0  0  0  0  0  0  0  0  0  0  0
    3.9003  -51.3889  -16.8953 O   0  0  0  0  0  0  0  0  0  0  0  0
    3.0833  -51.5345  -14.7595 N   0  0  0  0  0  0  0  0  0  0  0  0
    4.1418  -52.4769  -14.3746 C   0  0  0  0  0  0  0  0  0  0  0  0
    2.1416  -51.2018  -13.7119 C   0  0  0  0  0  0  0  0  0  0  0  0
   -0.2665  -52.6438  -19.3372 C   0  0  0  0  0  0  0  0  0  0  0  0
    0.0510  -51.5042  -20.0184 C   0  0  0  0  0  0  0  0  0  0  0  0
    0.0578  -51.4286  -21.3986 C   0  0  0  0  0  0  0  0  0  0  0  0
   -0.2685  -52.5427  -22.1291 C   0  0  0  0  0  0  0  0  0  0  0  0
   -0.3399  -52.7342  -23.4605 N   0  0  0  0  0  0  0  0  0  0  0  0
   -0.7061  -54.0010  -23.6491 N   0  0  0  0  0  0  0  0  0  0  0  0
   -0.8726  -54.6320  -22.4747 C   0  0  0  0  0  0  0  0  0  0  0  0
   -0.5959  -53.7111  -21.4883 C   0  0  0  0  0  0  0  0  0  0  0  0
   -0.5945  -53.7596  -20.1160 C   0  0  0  0  0  0  0  0  0  0  0  0
   -0.0550  -51.7252  -24.4421 C   0  0  0  0  0  0  0  0  0  0  0  0
   -0.3931  -52.0761  -25.8184 C   0  0  0  0  0  0  0  0  0  0  0  0
    0.6135  -52.3761  -26.7091 C   0  0  0  0  0  0  0  0  0  0  0  0
    0.3230  -52.7174  -28.0247 C   0  0  0  0  0  0  0  0  0  0  0  0
   -0.9683  -52.7659  -28.4751 C   0  0  0  0  0  0  0  0  0  0  0  0
   -1.9838  -52.4687  -27.5962 C   0  0  0  0  0  0  0  0  0  0  0  0
   -3.2585  -52.5204  -28.0547 F   0  0  0  0  0  0  0  0  0  0  0  0
   -1.6890  -52.1259  -26.2737 C   0  0  0  0  0  0  0  0  0  0  0  0
 14 15  1  0  0  0
 15 13  1  0  0  0
 13  3  1  0  0  0
  3  4  2  0  0  0
  4  5  1  0  0  0
  5  6  2  0  0  0
  6  7  1  0  0  0
  7  8  2  0  0  0
  8  9  1  0  0  0
  9 10  2  0  0  0
 10 11  1  0  0  0
 11  1  1  0  0  0
  1 21  1  0  0  0
 21 22  2  0  0  0
 22 23  1  0  0  0
 23 24  2  0  0  0
 24 25  1  0  0  0
 25 30  1  0  0  0
 30 31  1  0  0  0
 31 32  2  0  0  0
 32 33  1  0  0  0
 33 34  2  0  0  0
 34 35  1  0  0  0
 35 36  1  0  0  0
 35 37  2  0  0  0
 25 26  1  0  0  0
 26 27  2  0  0  0
 27 28  1  0  0  0
 28 29  2  0  0  0
 11 12  2  0  0  0
 15 16  1  0  0  0
 16 17  2  0  0  0
 16 18  1  0  0  0
 18 19  1  0  0  0
 18 20  1  0  0  0
 12  3  1  0  0  0
 12  7  1  0  0  0
 29 21  1  0  0  0
 28 24  1  0  0  0
 37 31  1  0  0  0
  1  2  1  0  0  0
M  END
> <minimizedAffinity>
-9.42367

> <CNNscore>
0.7009443641

> <CNNaffinity>
7.3488645554

> <CNN_VS>
5.1511449814

> <CNNaffinity_variance>
0.0779298693

$$$$
[H]c1nc(N([H])c2c([H])c([H])c3c(c([H])nn3C([H])([H])c3c([H])c([H])c([H])c(F)c3[H])c2[H])c2c(O[C@@]([H])(C(=O)N(C([H])([H])[H])C([H])([H])[H])C([H])([H])[H])c([H])c([H])c([H])c2n1


 37 41  0  0  0  0  0  0  0  0999 V2000
    0.3018  -52.9546  -18.8512 N   0  0  0  0  0  0  0  0  0  0  0  0
    1.2316  -53.2943  -18.6608 H   0  0  0  0  0  0  0  0  0  0  0  0
    0.6497  -50.6827  -17.0864 C   0  0  0  0  0  0  0  0  0  0  0  0
    0.7005  -49.5833  -16.2207 C   0  0  0  0  0  0  0  0  0  0  0  0
   -0.3436  -49.2484  -15.3779 C   0  0  0  0  0  0  0  0  0  0  0  0
   -1.4836  -50.0142  -15.3768 C   0  0  0  0  0  0  0  0  0  0  0  0
   -1.5602  -51.0993  -16.2173 C   0  0  0  0  0  0  0  0  0  0  0  0
   -2.6736  -51.8468  -16.1956 N   0  0  0  0  0  0  0  0  0  0  0  0
   -2.8137  -52.9341  -16.9833 C   0  0  0  0  0  0  0  0  0  0  0  0
   -1.8170  -53.2296  -17.7717 N   0  0  0  0  0  0  0  0  0  0  0  0
   -0.6347  -52.5505  -17.8873 C   0  0  0  0  0  0  0  0  0  0  0  0
   -0.5094  -51.4302  -17.0619 C   0  0  0  0  0  0  0  0  0  0  0  0
    1.7019  -50.9695  -17.8875 O   0  0  0  0  0  0  0  0  0  0  0  0
    1.5508  -49.1052  -19.3688 C   0  0  0  0  0  0  0  0  0  0  0  0
    2.4493  -50.1181  -18.7123 C   0  0  0  0  0  0  0  0  0  0  0  0
    3.3762  -50.7964  -19.6097 C   0  0  0  0  0  0  0  0  0  0  0  0
    3.2529  -52.0313  -19.8073 O   0  0  0  0  0  0  0  0  0  0  0  0
    4.4265  -50.1211  -20.2810 N   0  0  0  0  0  0  0  0  0  0  0  0
    5.3313  -50.8502  -21.1789 C   0  0  0  0  0  0  0  0  0  0  0  0
    4.6969  -48.7055  -20.1475 C   0  0  0  0  0  0  0  0  0  0  0  0
   -0.0234  -52.8722  -20.2348 C   0  0  0  0  0  0  0  0  0  0  0  0
   -0.0853  -51.7212  -20.9662 C   0  0  0  0  0  0  0  0  0  0  0  0
   -0.3762  -51.7018  -22.3173 C   0  0  0  0  0  0  0  0  0  0  0  0
   -0.6166  -52.8869  -22.9648 C   0  0  0  0  0  0  0  0  0  0  0  0
   -0.9192  -53.1425  -24.2522 N   0  0  0  0  0  0  0  0  0  0  0  0
   -1.0567  -54.4630  -24.3615 N   0  0  0  0  0  0  0  0  0  0  0  0
   -0.8504  -55.0661  -23.1788 C   0  0  0  0  0  0  0  0  0  0  0  0
   -0.5667  -54.0697  -22.2709 C   0  0  0  0  0  0  0  0  0  0  0  0
   -0.2750  -54.0612  -20.9291 C   0  0  0  0  0  0  0  0  0  0  0  0
   -1.0479  -52.1380  -25.2707 C   0  0  0  0  0  0  0  0  0  0  0  0
   -0.5159  -52.5017  -26.5807 C   0  0  0  0  0  0  0  0  0  0  0  0
   -1.3624  -52.5557  -27.6658 C   0  0  0  0  0  0  0  0  0  0  0  0
   -0.8850  -52.8951  -28.9261 C   0  0  0  0  0  0  0  0  0  0  0  0
    0.4370  -53.1855  -29.1281 C   0  0  0  0  0  0  0  0  0  0  0  0
    1.2939  -53.1353  -28.0533 C   0  0  0  0  0  0  0  0  0  0  0  0
    2.6008  -53.4250  -28.2666 F   0  0  0  0  0  0  0  0  0  0  0  0
    0.8113  -52.7937  -26.7869 C   0  0  0  0  0  0  0  0  0  0  0  0
 14 15  1  0  0  0
 15 13  1  0  0  0
 13  3  1  0  0  0
  3  4  2  0  0  0
  4  5  1  0  0  0
  5  6  2  0  0  0
  6  7  1  0  0  0
  7  8  2  0  0  0
  8  9  1  0  0  0
  9 10  2  0  0  0
 10 11  1  0  0  0
 11  1  1  0  0  0
  1 21  1  0  0  0
 21 22  2  0  0  0
 22 23  1  0  0  0
 23 24  2  0  0  0
 24 25  1  0  0  0
 25 30  1  0  0  0
 30 31  1  0  0  0
 31 32  2  0  0  0
 32 33  1  0  0  0
 33 34  2  0  0  0
 34 35  1  0  0  0
 35 36  1  0  0  0
 35 37  2  0  0  0
 25 26  1  0  0  0
 26 27  2  0  0  0
 27 28  1  0  0  0
 28 29  2  0  0  0
 11 12  2  0  0  0
 15 16  1  0  0  0
 16 17  2  0  0  0
 16 18  1  0  0  0
 18 19  1  0  0  0
 18 20  1  0  0  0
 12  3  1  0  0  0
 12  7  1  0  0  0
 29 21  1  0  0  0
 28 24  1  0  0  0
 37 31  1  0  0  0
  1  2  1  0  0  0
M  END
> <minimizedAffinity>
-9.36706

> <CNNscore>
0.6690400243

> <CNNaffinity>
7.3839440346

> <CNN_VS>
4.9401540756

> <CNNaffinity_variance>
0.1254079640

$$$$
[H]c1nc(N([H])c2c([H])c([H])c3c(c([H])nn3C([H])([H])c3c([H])c([H])c([H])c(F)c3[H])c2[H])c2c(O[C@@]([H])(C(=O)N(C([H])([H])[H])C([H])([H])[H])C([H])([H])[H])c([H])c([H])c([H])c2n1


 37 41  0  0  0  0  0  0  0  0999 V2000
    0.3089  -51.2798  -22.7294 N   0  0  0  0  0  0  0  0  0  0  0  0
    0.3215  -50.6522  -23.5182 H   0  0  0  0  0  0  0  0  0  0  0  0
    0.3444  -53.1664  -24.9286 C   0  0  0  0  0  0  0  0  0  0  0  0
    0.3397  -54.1630  -25.9122 C   0  0  0  0  0  0  0  0  0  0  0  0
   -0.2301  -55.4070  -25.7113 C   0  0  0  0  0  0  0  0  0  0  0  0
   -0.8196  -55.6935  -24.5044 C   0  0  0  0  0  0  0  0  0  0  0  0
   -0.8289  -54.7332  -23.5209 C   0  0  0  0  0  0  0  0  0  0  0  0
   -1.4206  -55.0213  -22.3523 N   0  0  0  0  0  0  0  0  0  0  0  0
   -1.4795  -54.1231  -21.3463 C   0  0  0  0  0  0  0  0  0  0  0  0
   -0.9335  -52.9571  -21.5575 N   0  0  0  0  0  0  0  0  0  0  0  0
   -0.3023  -52.5427  -22.6986 C   0  0  0  0  0  0  0  0  0  0  0  0
   -0.2545  -53.4864  -23.7278 C   0  0  0  0  0  0  0  0  0  0  0  0
    0.9115  -51.9636  -25.1787 O   0  0  0  0  0  0  0  0  0  0  0  0
    2.2301  -52.1564  -27.1578 C   0  0  0  0  0  0  0  0  0  0  0  0
    2.1634  -51.6695  -25.7356 C   0  0  0  0  0  0  0  0  0  0  0  0
    3.3028  -52.0341  -24.9029 C   0  0  0  0  0  0  0  0  0  0  0  0
    3.3658  -53.1898  -24.4136 O   0  0  0  0  0  0  0  0  0  0  0  0
    4.3599  -51.1350  -24.6132 N   0  0  0  0  0  0  0  0  0  0  0  0
    5.4884  -51.5532  -23.7717 C   0  0  0  0  0  0  0  0  0  0  0  0
    4.4223  -49.7727  -25.0981 C   0  0  0  0  0  0  0  0  0  0  0  0
    1.0117  -50.8036  -21.5864 C   0  0  0  0  0  0  0  0  0  0  0  0
    0.4352  -50.3160  -20.4491 C   0  0  0  0  0  0  0  0  0  0  0  0
    1.1668  -49.8951  -19.3545 C   0  0  0  0  0  0  0  0  0  0  0  0
    2.5359  -49.9645  -19.4007 C   0  0  0  0  0  0  0  0  0  0  0  0
    3.4672  -49.6234  -18.4892 N   0  0  0  0  0  0  0  0  0  0  0  0
    4.6543  -49.8875  -19.0330 N   0  0  0  0  0  0  0  0  0  0  0  0
    4.5135  -50.3902  -20.2709 C   0  0  0  0  0  0  0  0  0  0  0  0
    3.1605  -50.4466  -20.5234 C   0  0  0  0  0  0  0  0  0  0  0  0
    2.4102  -50.8588  -21.5971 C   0  0  0  0  0  0  0  0  0  0  0  0
    3.1729  -49.0879  -17.1894 C   0  0  0  0  0  0  0  0  0  0  0  0
    2.9042  -50.0772  -16.1499 C   0  0  0  0  0  0  0  0  0  0  0  0
    1.7006  -50.0490  -15.4811 C   0  0  0  0  0  0  0  0  0  0  0  0
    1.4142  -50.9795  -14.4892 C   0  0  0  0  0  0  0  0  0  0  0  0
    2.3163  -51.9500  -14.1470 C   0  0  0  0  0  0  0  0  0  0  0  0
    3.5224  -51.9901  -14.8069 C   0  0  0  0  0  0  0  0  0  0  0  0
    4.4072  -52.9563  -14.4587 F   0  0  0  0  0  0  0  0  0  0  0  0
    3.8080  -51.0532  -15.8040 C   0  0  0  0  0  0  0  0  0  0  0  0
 14 15  1  0  0  0
 15 13  1  0  0  0
 13  3  1  0  0  0
  3  4  2  0  0  0
  4  5  1  0  0  0
  5  6  2  0  0  0
  6  7  1  0  0  0
  7  8  2  0  0  0
  8  9  1  0  0  0
  9 10  2  0  0  0
 10 11  1  0  0  0
 11  1  1  0  0  0
  1 21  1  0  0  0
 21 22  2  0  0  0
 22 23  1  0  0  0
 23 24  2  0  0  0
 24 25  1  0  0  0
 25 30  1  0  0  0
 30 31  1  0  0  0
 31 32  2  0  0  0
 32 33  1  0  0  0
 33 34  2  0  0  0
 34 35  1  0  0  0
 35 36  1  0  0  0
 35 37  2  0  0  0
 25 26  1  0  0  0
 26 27  2  0  0  0
 27 28  1  0  0  0
 28 29  2  0  0  0
 11 12  2  0  0  0
 15 16  1  0  0  0
 16 17  2  0  0  0
 16 18  1  0  0  0
 18 19  1  0  0  0
 18 20  1  0  0  0
 12  3  1  0  0  0
 12  7  1  0  0  0
 29 21  1  0  0  0
 28 24  1  0  0  0
 37 31  1  0  0  0
  1  2  1  0  0  0
M  END
> <minimizedAffinity>
-7.94543

> <CNNscore>
0.5948404670

> <CNNaffinity>
7.3407897949

> <CNN_VS>
4.3665986061

> <CNNaffinity_variance>
0.0612264872

$$$$
[H]c1nc(N([H])c2c([H])c([H])c3c(c([H])nn3C([H])([H])c3c([H])c([H])c([H])c(F)c3[H])c2[H])c2c(O[C@@]([H])(C(=O)N(C([H])([H])[H])C([H])([H])[H])C([H])([H])[H])c([H])c([H])c([H])c2n1


 37 41  0  0  0  0  0  0  0  0999 V2000
    1.3626  -52.4741  -21.7980 N   0  0  0  0  0  0  0  0  0  0  0  0
    2.3326  -52.3006  -22.0106 H   0  0  0  0  0  0  0  0  0  0  0  0
    0.8343  -51.5889  -24.5062 C   0  0  0  0  0  0  0  0  0  0  0  0
    0.5367  -51.2691  -25.8366 C   0  0  0  0  0  0  0  0  0  0  0  0
   -0.3460  -52.0089  -26.6023 C   0  0  0  0  0  0  0  0  0  0  0  0
   -0.9647  -53.1044  -26.0514 C   0  0  0  0  0  0  0  0  0  0  0  0
   -0.6903  -53.4410  -24.7472 C   0  0  0  0  0  0  0  0  0  0  0  0
   -1.3123  -54.5046  -24.2175 N   0  0  0  0  0  0  0  0  0  0  0  0
   -1.1021  -54.8860  -22.9398 C   0  0  0  0  0  0  0  0  0  0  0  0
   -0.2638  -54.1747  -22.2372 N   0  0  0  0  0  0  0  0  0  0  0  0
    0.4312  -53.0742  -22.6593 C   0  0  0  0  0  0  0  0  0  0  0  0
    0.1974  -52.6953  -23.9836 C   0  0  0  0  0  0  0  0  0  0  0  0
    1.7022  -50.8283  -23.7995 O   0  0  0  0  0  0  0  0  0  0  0  0
    3.6963  -51.8720  -24.5913 C   0  0  0  0  0  0  0  0  0  0  0  0
    3.0776  -50.6392  -23.9898 C   0  0  0  0  0  0  0  0  0  0  0  0
    3.7837  -50.0919  -22.8381 C   0  0  0  0  0  0  0  0  0  0  0  0
    4.1976  -50.8683  -21.9409 O   0  0  0  0  0  0  0  0  0  0  0  0
    4.0301  -48.7051  -22.6776 N   0  0  0  0  0  0  0  0  0  0  0  0
    4.7505  -48.2045  -21.4999 C   0  0  0  0  0  0  0  0  0  0  0  0
    3.6087  -47.6915  -23.6210 C   0  0  0  0  0  0  0  0  0  0  0  0
    0.9675  -52.0824  -20.4875 C   0  0  0  0  0  0  0  0  0  0  0  0
    0.3061  -52.8715  -19.5911 C   0  0  0  0  0  0  0  0  0  0  0  0
   -0.0262  -52.4495  -18.3175 C   0  0  0  0  0  0  0  0  0  0  0  0
    0.3178  -51.1813  -17.9242 C   0  0  0  0  0  0  0  0  0  0  0  0
    0.1146  -50.5335  -16.7608 N   0  0  0  0  0  0  0  0  0  0  0  0
    0.6430  -49.3184  -16.8983 N   0  0  0  0  0  0  0  0  0  0  0  0
    1.1821  -49.1652  -18.1194 C   0  0  0  0  0  0  0  0  0  0  0  0
    0.9825  -50.3511  -18.7913 C   0  0  0  0  0  0  0  0  0  0  0  0
    1.3014  -50.7951  -20.0510 C   0  0  0  0  0  0  0  0  0  0  0  0
   -0.5472  -51.1021  -15.6200 C   0  0  0  0  0  0  0  0  0  0  0  0
   -1.9953  -50.9204  -15.5800 C   0  0  0  0  0  0  0  0  0  0  0  0
   -2.5190  -49.7534  -15.0697 C   0  0  0  0  0  0  0  0  0  0  0  0
   -3.8930  -49.5497  -15.0218 C   0  0  0  0  0  0  0  0  0  0  0  0
   -4.7660  -50.4994  -15.4787 C   0  0  0  0  0  0  0  0  0  0  0  0
   -4.2568  -51.6699  -15.9911 C   0  0  0  0  0  0  0  0  0  0  0  0
   -5.1320  -52.6025  -16.4404 F   0  0  0  0  0  0  0  0  0  0  0  0
   -2.8747  -51.8722  -16.0382 C   0  0  0  0  0  0  0  0  0  0  0  0
 14 15  1  0  0  0
 15 13  1  0  0  0
 13  3  1  0  0  0
  3  4  2  0  0  0
  4  5  1  0  0  0
  5  6  2  0  0  0
  6  7  1  0  0  0
  7  8  2  0  0  0
  8  9  1  0  0  0
  9 10  2  0  0  0
 10 11  1  0  0  0
 11  1  1  0  0  0
  1 21  1  0  0  0
 21 22  2  0  0  0
 22 23  1  0  0  0
 23 24  2  0  0  0
 24 25  1  0  0  0
 25 30  1  0  0  0
 30 31  1  0  0  0
 31 32  2  0  0  0
 32 33  1  0  0  0
 33 34  2  0  0  0
 34 35  1  0  0  0
 35 36  1  0  0  0
 35 37  2  0  0  0
 25 26  1  0  0  0
 26 27  2  0  0  0
 27 28  1  0  0  0
 28 29  2  0  0  0
 11 12  2  0  0  0
 15 16  1  0  0  0
 16 17  2  0  0  0
 16 18  1  0  0  0
 18 19  1  0  0  0
 18 20  1  0  0  0
 12  3  1  0  0  0
 12  7  1  0  0  0
 29 21  1  0  0  0
 28 24  1  0  0  0
 37 31  1  0  0  0
  1  2  1  0  0  0
M  END
> <minimizedAffinity>
-8.79432

> <CNNscore>
0.5364742279

> <CNNaffinity>
7.3109712601

> <CNN_VS>
3.9221477509

> <CNNaffinity_variance>
0.2603860497

$$$$
[H]c1nc(N([H])c2c([H])c([H])c3c(c([H])nn3C([H])([H])c3c([H])c([H])c([H])c(F)c3[H])c2[H])c2c(O[C@@]([H])(C(=O)N(C([H])([H])[H])C([H])([H])[H])C([H])([H])[H])c([H])c([H])c([H])c2n1


 37 41  0  0  0  0  0  0  0  0999 V2000
    0.6865  -51.9578  -22.9737 N   0  0  0  0  0  0  0  0  0  0  0  0
    1.2748  -51.2228  -23.3341 H   0  0  0  0  0  0  0  0  0  0  0  0
    1.1399  -52.3499  -25.8088 C   0  0  0  0  0  0  0  0  0  0  0  0
    1.3320  -52.6531  -27.1622 C   0  0  0  0  0  0  0  0  0  0  0  0
    0.8179  -53.7938  -27.7516 C   0  0  0  0  0  0  0  0  0  0  0  0
    0.0872  -54.6756  -26.9935 C   0  0  0  0  0  0  0  0  0  0  0  0
   -0.1163  -54.4025  -25.6617 C   0  0  0  0  0  0  0  0  0  0  0  0
   -0.8438  -55.2649  -24.9367 N   0  0  0  0  0  0  0  0  0  0  0  0
   -1.0956  -55.0550  -23.6272 C   0  0  0  0  0  0  0  0  0  0  0  0
   -0.5989  -53.9737  -23.0921 N   0  0  0  0  0  0  0  0  0  0  0  0
    0.1561  -53.0211  -23.7203 C   0  0  0  0  0  0  0  0  0  0  0  0
    0.4029  -53.2563  -25.0753 C   0  0  0  0  0  0  0  0  0  0  0  0
    1.6606  -51.2170  -25.2829 O   0  0  0  0  0  0  0  0  0  0  0  0
    3.9002  -51.7823  -24.6848 C   0  0  0  0  0  0  0  0  0  0  0  0
    2.9843  -50.7571  -25.2966 C   0  0  0  0  0  0  0  0  0  0  0  0
    3.1629  -49.3965  -24.8053 C   0  0  0  0  0  0  0  0  0  0  0  0
    3.0010  -49.1548  -23.5828 O   0  0  0  0  0  0  0  0  0  0  0  0
    3.5157  -48.3155  -25.6519 N   0  0  0  0  0  0  0  0  0  0  0  0
    3.6880  -46.9631  -25.1062 C   0  0  0  0  0  0  0  0  0  0  0  0
    3.7278  -48.4378  -27.0785 C   0  0  0  0  0  0  0  0  0  0  0  0
    0.4291  -51.8744  -21.5759 C   0  0  0  0  0  0  0  0  0  0  0  0
   -0.2047  -52.8258  -20.8297 C   0  0  0  0  0  0  0  0  0  0  0  0
   -0.4008  -52.7069  -19.4666 C   0  0  0  0  0  0  0  0  0  0  0  0
    0.0567  -51.5858  -18.8222 C   0  0  0  0  0  0  0  0  0  0  0  0
   -0.0057  -51.2271  -17.5254 N   0  0  0  0  0  0  0  0  0  0  0  0
    0.5873  -50.0385  -17.4248 N   0  0  0  0  0  0  0  0  0  0  0  0
    1.0308  -49.6209  -18.6223 C   0  0  0  0  0  0  0  0  0  0  0  0
    0.6988  -50.6017  -19.5309 C   0  0  0  0  0  0  0  0  0  0  0  0
    0.8813  -50.7448  -20.8843 C   0  0  0  0  0  0  0  0  0  0  0  0
   -0.6049  -52.0232  -16.4909 C   0  0  0  0  0  0  0  0  0  0  0  0
   -1.9789  -51.6708  -16.1452 C   0  0  0  0  0  0  0  0  0  0  0  0
   -3.0107  -52.4917  -16.5432 C   0  0  0  0  0  0  0  0  0  0  0  0
   -4.3286  -52.1849  -16.2262 C   0  0  0  0  0  0  0  0  0  0  0  0
   -4.6417  -51.0612  -15.5107 C   0  0  0  0  0  0  0  0  0  0  0  0
   -3.6211  -50.2323  -15.1066 C   0  0  0  0  0  0  0  0  0  0  0  0
   -3.9445  -49.1224  -14.3986 F   0  0  0  0  0  0  0  0  0  0  0  0
   -2.2966  -50.5430  -15.4267 C   0  0  0  0  0  0  0  0  0  0  0  0
 14 15  1  0  0  0
 15 13  1  0  0  0
 13  3  1  0  0  0
  3  4  2  0  0  0
  4  5  1  0  0  0
  5  6  2  0  0  0
  6  7  1  0  0  0
  7  8  2  0  0  0
  8  9  1  0  0  0
  9 10  2  0  0  0
 10 11  1  0  0  0
 11  1  1  0  0  0
  1 21  1  0  0  0
 21 22  2  0  0  0
 22 23  1  0  0  0
 23 24  2  0  0  0
 24 25  1  0  0  0
 25 30  1  0  0  0
 30 31  1  0  0  0
 31 32  2  0  0  0
 32 33  1  0  0  0
 33 34  2  0  0  0
 34 35  1  0  0  0
 35 36  1  0  0  0
 35 37  2  0  0  0
 25 26  1  0  0  0
 26 27  2  0  0  0
 27 28  1  0  0  0
 28 29  2  0  0  0
 11 12  2  0  0  0
 15 16  1  0  0  0
 16 17  2  0  0  0
 16 18  1  0  0  0
 18 19  1  0  0  0
 18 20  1  0  0  0
 12  3  1  0  0  0
 12  7  1  0  0  0
 29 21  1  0  0  0
 28 24  1  0  0  0
 37 31  1  0  0  0
  1  2  1  0  0  0
M  END
> <minimizedAffinity>
-9.37287

> <CNNscore>
0.5278035402

> <CNNaffinity>
7.3630170822

> <CNN_VS>
3.8862264156

> <CNNaffinity_variance>
0.1431363225

$$$$
[H]c1nc(N([H])c2c([H])c([H])c3c(c([H])nn3C([H])([H])c3c([H])c([H])c([H])c(F)c3[H])c2[H])c2c(O[C@@]([H])(C(=O)N(C([H])([H])[H])C([H])([H])[H])C([H])([H])[H])c([H])c([H])c([H])c2n1


 37 41  0  0  0  0  0  0  0  0999 V2000
    1.4464  -52.7413  -21.8970 N   0  0  0  0  0  0  0  0  0  0  0  0
    2.4418  -52.7899  -22.0481 H   0  0  0  0  0  0  0  0  0  0  0  0
    0.8948  -51.7039  -24.5459 C   0  0  0  0  0  0  0  0  0  0  0  0
    0.5798  -51.3071  -25.8513 C   0  0  0  0  0  0  0  0  0  0  0  0
   -0.3602  -51.9638  -26.6244 C   0  0  0  0  0  0  0  0  0  0  0  0
   -1.0210  -53.0508  -26.1067 C   0  0  0  0  0  0  0  0  0  0  0  0
   -0.7307  -53.4620  -24.8275 C   0  0  0  0  0  0  0  0  0  0  0  0
   -1.3938  -54.5160  -24.3293 N   0  0  0  0  0  0  0  0  0  0  0  0
   -1.1707  -54.9673  -23.0768 C   0  0  0  0  0  0  0  0  0  0  0  0
   -0.2781  -54.3338  -22.3667 N   0  0  0  0  0  0  0  0  0  0  0  0
    0.4626  -53.2517  -22.7578 C   0  0  0  0  0  0  0  0  0  0  0  0
    0.2145  -52.7994  -24.0563 C   0  0  0  0  0  0  0  0  0  0  0  0
    1.8196  -51.0229  -23.8302 O   0  0  0  0  0  0  0  0  0  0  0  0
    4.1452  -51.5306  -23.6666 C   0  0  0  0  0  0  0  0  0  0  0  0
    3.0990  -50.5951  -24.2096 C   0  0  0  0  0  0  0  0  0  0  0  0
    3.3602  -49.1786  -23.9864 C   0  0  0  0  0  0  0  0  0  0  0  0
    3.4946  -48.7526  -22.8118 O   0  0  0  0  0  0  0  0  0  0  0  0
    3.4718  -48.2431  -25.0457 N   0  0  0  0  0  0  0  0  0  0  0  0
    3.7403  -46.8264  -24.7677 C   0  0  0  0  0  0  0  0  0  0  0  0
    3.3339  -48.5825  -26.4460 C   0  0  0  0  0  0  0  0  0  0  0  0
    1.0656  -52.1163  -20.6758 C   0  0  0  0  0  0  0  0  0  0  0  0
    0.2309  -52.6532  -19.7385 C   0  0  0  0  0  0  0  0  0  0  0  0
   -0.0809  -52.0143  -18.5530 C   0  0  0  0  0  0  0  0  0  0  0  0
    0.4662  -50.7833  -18.2949 C   0  0  0  0  0  0  0  0  0  0  0  0
    0.3272  -49.9610  -17.2371 N   0  0  0  0  0  0  0  0  0  0  0  0
    1.0715  -48.8844  -17.4848 N   0  0  0  0  0  0  0  0  0  0  0  0
    1.6873  -48.9904  -18.6742 C   0  0  0  0  0  0  0  0  0  0  0  0
    1.3102  -50.2030  -19.2081 C   0  0  0  0  0  0  0  0  0  0  0  0
    1.6042  -50.8592  -20.3779 C   0  0  0  0  0  0  0  0  0  0  0  0
   -0.4800  -50.2501  -16.0849 C   0  0  0  0  0  0  0  0  0  0  0  0
    0.2369  -50.8038  -14.9399 C   0  0  0  0  0  0  0  0  0  0  0  0
    1.2534  -50.0777  -14.3599 C   0  0  0  0  0  0  0  0  0  0  0  0
    1.9518  -50.5766  -13.2667 C   0  0  0  0  0  0  0  0  0  0  0  0
    1.6524  -51.8010  -12.7339 C   0  0  0  0  0  0  0  0  0  0  0  0
    0.6394  -52.5370  -13.3031 C   0  0  0  0  0  0  0  0  0  0  0  0
    0.3527  -53.7481  -12.7660 F   0  0  0  0  0  0  0  0  0  0  0  0
   -0.0614  -52.0331  -14.4024 C   0  0  0  0  0  0  0  0  0  0  0  0
 14 15  1  0  0  0
 15 13  1  0  0  0
 13  3  1  0  0  0
  3  4  2  0  0  0
  4  5  1  0  0  0
  5  6  2  0  0  0
  6  7  1  0  0  0
  7  8  2  0  0  0
  8  9  1  0  0  0
  9 10  2  0  0  0
 10 11  1  0  0  0
 11  1  1  0  0  0
  1 21  1  0  0  0
 21 22  2  0  0  0
 22 23  1  0  0  0
 23 24  2  0  0  0
 24 25  1  0  0  0
 25 30  1  0  0  0
 30 31  1  0  0  0
 31 32  2  0  0  0
 32 33  1  0  0  0
 33 34  2  0  0  0
 34 35  1  0  0  0
 35 36  1  0  0  0
 35 37  2  0  0  0
 25 26  1  0  0  0
 26 27  2  0  0  0
 27 28  1  0  0  0
 28 29  2  0  0  0
 11 12  2  0  0  0
 15 16  1  0  0  0
 16 17  2  0  0  0
 16 18  1  0  0  0
 18 19  1  0  0  0
 18 20  1  0  0  0
 12  3  1  0  0  0
 12  7  1  0  0  0
 29 21  1  0  0  0
 28 24  1  0  0  0
 37 31  1  0  0  0
  1  2  1  0  0  0
M  END
> <minimizedAffinity>
-7.67979

> <CNNscore>
0.3694272339

> <CNNaffinity>
7.1537084579

> <CNN_VS>
2.6427748203

> <CNNaffinity_variance>
0.2583668828

$$$$
[H]c1nc(N([H])c2c([H])c([H])c3c(c([H])nn3C([H])([H])c3c([H])c([H])c([H])c(F)c3[H])c2[H])c2c(O[C@@]([H])(C(=O)N(C([H])([H])[H])C([H])([H])[H])C([H])([H])[H])c([H])c([H])c([H])c2n1


 37 41  0  0  0  0  0  0  0  0999 V2000
    1.0555  -50.1282  -19.8489 N   0  0  0  0  0  0  0  0  0  0  0  0
    0.7401  -50.2546  -18.8998 H   0  0  0  0  0  0  0  0  0  0  0  0
    3.4046  -49.0836  -18.5120 C   0  0  0  0  0  0  0  0  0  0  0  0
    4.5726  -48.5334  -17.9699 C   0  0  0  0  0  0  0  0  0  0  0  0
    5.2801  -47.5218  -18.5935 C   0  0  0  0  0  0  0  0  0  0  0  0
    4.8333  -47.0249  -19.7933 C   0  0  0  0  0  0  0  0  0  0  0  0
    3.6892  -47.5473  -20.3482 C   0  0  0  0  0  0  0  0  0  0  0  0
    3.2563  -47.0429  -21.5130 N   0  0  0  0  0  0  0  0  0  0  0  0
    2.1339  -47.4973  -22.1097 C   0  0  0  0  0  0  0  0  0  0  0  0
    1.4841  -48.4532  -21.5044 N   0  0  0  0  0  0  0  0  0  0  0  0
    1.8203  -49.0499  -20.3199 C   0  0  0  0  0  0  0  0  0  0  0  0
    2.9836  -48.5633  -19.7182 C   0  0  0  0  0  0  0  0  0  0  0  0
    2.7474  -50.0691  -17.8579 O   0  0  0  0  0  0  0  0  0  0  0  0
    1.5843  -48.5704  -16.4107 C   0  0  0  0  0  0  0  0  0  0  0  0
    1.9647  -49.9978  -16.6976 C   0  0  0  0  0  0  0  0  0  0  0  0
    2.4929  -50.7381  -15.5585 C   0  0  0  0  0  0  0  0  0  0  0  0
    3.7163  -50.6574  -15.2827 O   0  0  0  0  0  0  0  0  0  0  0  0
    1.6819  -51.5575  -14.7336 N   0  0  0  0  0  0  0  0  0  0  0  0
    2.2625  -52.2797  -13.5944 C   0  0  0  0  0  0  0  0  0  0  0  0
    0.2615  -51.7541  -14.9308 C   0  0  0  0  0  0  0  0  0  0  0  0
    0.6884  -51.1791  -20.7365 C   0  0  0  0  0  0  0  0  0  0  0  0
    1.3279  -51.4906  -21.9017 C   0  0  0  0  0  0  0  0  0  0  0  0
    0.9471  -52.5439  -22.7118 C   0  0  0  0  0  0  0  0  0  0  0  0
   -0.1216  -53.3189  -22.3395 C   0  0  0  0  0  0  0  0  0  0  0  0
   -0.6895  -54.3836  -22.9382 N   0  0  0  0  0  0  0  0  0  0  0  0
   -1.7028  -54.7672  -22.1631 N   0  0  0  0  0  0  0  0  0  0  0  0
   -1.8035  -53.9784  -21.0802 C   0  0  0  0  0  0  0  0  0  0  0  0
   -0.7965  -53.0433  -21.1770 C   0  0  0  0  0  0  0  0  0  0  0  0
   -0.3974  -51.9913  -20.3898 C   0  0  0  0  0  0  0  0  0  0  0  0
   -0.2372  -54.9562  -24.1752 C   0  0  0  0  0  0  0  0  0  0  0  0
   -0.3731  -54.0995  -25.3495 C   0  0  0  0  0  0  0  0  0  0  0  0
   -1.1502  -52.9649  -25.2756 C   0  0  0  0  0  0  0  0  0  0  0  0
   -1.2960  -52.1277  -26.3754 C   0  0  0  0  0  0  0  0  0  0  0  0
   -0.6738  -52.4035  -27.5626 C   0  0  0  0  0  0  0  0  0  0  0  0
    0.1055  -53.5334  -27.6508 C   0  0  0  0  0  0  0  0  0  0  0  0
    0.7164  -53.7953  -28.8322 F   0  0  0  0  0  0  0  0  0  0  0  0
    0.2505  -54.3737  -26.5433 C   0  0  0  0  0  0  0  0  0  0  0  0
 14 15  1  0  0  0
 15 13  1  0  0  0
 13  3  1  0  0  0
  3  4  2  0  0  0
  4  5  1  0  0  0
  5  6  2  0  0  0
  6  7  1  0  0  0
  7  8  2  0  0  0
  8  9  1  0  0  0
  9 10  2  0  0  0
 10 11  1  0  0  0
 11  1  1  0  0  0
  1 21  1  0  0  0
 21 22  2  0  0  0
 22 23  1  0  0  0
 23 24  2  0  0  0
 24 25  1  0  0  0
 25 30  1  0  0  0
 30 31  1  0  0  0
 31 32  2  0  0  0
 32 33  1  0  0  0
 33 34  2  0  0  0
 34 35  1  0  0  0
 35 36  1  0  0  0
 35 37  2  0  0  0
 25 26  1  0  0  0
 26 27  2  0  0  0
 27 28  1  0  0  0
 28 29  2  0  0  0
 11 12  2  0  0  0
 15 16  1  0  0  0
 16 17  2  0  0  0
 16 18  1  0  0  0
 18 19  1  0  0  0
 18 20  1  0  0  0
 12  3  1  0  0  0
 12  7  1  0  0  0
 29 21  1  0  0  0
 28 24  1  0  0  0
 37 31  1  0  0  0
  1  2  1  0  0  0
M  END
> <minimizedAffinity>
-7.69179

> <CNNscore>
0.3586549461

> <CNNaffinity>
7.1063489914

> <CNN_VS>
2.5487272739

> <CNNaffinity_variance>
0.1456142962

$$$$
[H]c1nc(N([H])c2c([H])c([H])c3c(c([H])nn3C([H])([H])c3c([H])c([H])c([H])c(F)c3[H])c2[H])c2c(O[C@@]([H])(C(=O)N(C([H])([H])[H])C([H])([H])[H])C([H])([H])[H])c([H])c([H])c([H])c2n1


 37 41  0  0  0  0  0  0  0  0999 V2000
    0.0374  -52.6600  -18.0842 N   0  0  0  0  0  0  0  0  0  0  0  0
    0.9322  -52.9755  -17.7436 H   0  0  0  0  0  0  0  0  0  0  0  0
   -0.0871  -50.2713  -16.4484 C   0  0  0  0  0  0  0  0  0  0  0  0
   -0.2648  -49.1270  -15.6613 C   0  0  0  0  0  0  0  0  0  0  0  0
   -1.4457  -48.8562  -14.9942 C   0  0  0  0  0  0  0  0  0  0  0  0
   -2.4965  -49.7345  -15.0967 C   0  0  0  0  0  0  0  0  0  0  0  0
   -2.3492  -50.8659  -15.8634 C   0  0  0  0  0  0  0  0  0  0  0  0
   -3.3784  -51.7221  -15.9431 N   0  0  0  0  0  0  0  0  0  0  0  0
   -3.3009  -52.8594  -16.6661 C   0  0  0  0  0  0  0  0  0  0  0  0
   -2.1783  -53.0930  -17.2886 N   0  0  0  0  0  0  0  0  0  0  0  0
   -1.0612  -52.3028  -17.2875 C   0  0  0  0  0  0  0  0  0  0  0  0
   -1.1618  -51.1321  -16.5316 C   0  0  0  0  0  0  0  0  0  0  0  0
    1.0913  -50.4912  -17.0763 O   0  0  0  0  0  0  0  0  0  0  0  0
    2.3434  -51.0484  -15.1233 C   0  0  0  0  0  0  0  0  0  0  0  0
    2.3856  -50.5504  -16.5426 C   0  0  0  0  0  0  0  0  0  0  0  0
    3.1886  -49.3525  -16.7541 C   0  0  0  0  0  0  0  0  0  0  0  0
    3.2313  -48.4713  -15.8592 O   0  0  0  0  0  0  0  0  0  0  0  0
    3.9352  -49.1288  -17.9382 N   0  0  0  0  0  0  0  0  0  0  0  0
    4.7324  -47.9062  -18.1005 C   0  0  0  0  0  0  0  0  0  0  0  0
    3.9780  -50.0471  -19.0562 C   0  0  0  0  0  0  0  0  0  0  0  0
   -0.0516  -52.5602  -19.5017 C   0  0  0  0  0  0  0  0  0  0  0  0
    0.2664  -51.4562  -20.2390 C   0  0  0  0  0  0  0  0  0  0  0  0
    0.1909  -51.4245  -21.6188 C   0  0  0  0  0  0  0  0  0  0  0  0
   -0.2221  -52.5470  -22.2901 C   0  0  0  0  0  0  0  0  0  0  0  0
   -0.3828  -52.7773  -23.6075 N   0  0  0  0  0  0  0  0  0  0  0  0
   -0.8080  -54.0337  -23.7306 N   0  0  0  0  0  0  0  0  0  0  0  0
   -0.9256  -54.6203  -22.5277 C   0  0  0  0  0  0  0  0  0  0  0  0
   -0.5536  -53.6806  -21.5915 C   0  0  0  0  0  0  0  0  0  0  0  0
   -0.4693  -53.6859  -20.2209 C   0  0  0  0  0  0  0  0  0  0  0  0
   -0.1209  -51.8119  -24.6381 C   0  0  0  0  0  0  0  0  0  0  0  0
   -0.2745  -52.2979  -26.0062 C   0  0  0  0  0  0  0  0  0  0  0  0
   -1.4844  -52.1493  -26.6474 C   0  0  0  0  0  0  0  0  0  0  0  0
   -1.6603  -52.5985  -27.9508 C   0  0  0  0  0  0  0  0  0  0  0  0
   -0.6401  -53.2006  -28.6361 C   0  0  0  0  0  0  0  0  0  0  0  0
    0.5737  -53.3555  -28.0080 C   0  0  0  0  0  0  0  0  0  0  0  0
    1.5760  -53.9534  -28.6976 F   0  0  0  0  0  0  0  0  0  0  0  0
    0.7480  -52.9029  -26.6972 C   0  0  0  0  0  0  0  0  0  0  0  0
 14 15  1  0  0  0
 15 13  1  0  0  0
 13  3  1  0  0  0
  3  4  2  0  0  0
  4  5  1  0  0  0
  5  6  2  0  0  0
  6  7  1  0  0  0
  7  8  2  0  0  0
  8  9  1  0  0  0
  9 10  2  0  0  0
 10 11  1  0  0  0
 11  1  1  0  0  0
  1 21  1  0  0  0
 21 22  2  0  0  0
 22 23  1  0  0  0
 23 24  2  0  0  0
 24 25  1  0  0  0
 25 30  1  0  0  0
 30 31  1  0  0  0
 31 32  2  0  0  0
 32 33  1  0  0  0
 33 34  2  0  0  0
 34 35  1  0  0  0
 35 36  1  0  0  0
 35 37  2  0  0  0
 25 26  1  0  0  0
 26 27  2  0  0  0
 27 28  1  0  0  0
 28 29  2  0  0  0
 11 12  2  0  0  0
 15 16  1  0  0  0
 16 17  2  0  0  0
 16 18  1  0  0  0
 18 19  1  0  0  0
 18 20  1  0  0  0
 12  3  1  0  0  0
 12  7  1  0  0  0
 29 21  1  0  0  0
 28 24  1  0  0  0
 37 31  1  0  0  0
  1  2  1  0  0  0
M  END
> <minimizedAffinity>
-8.78479

> <CNNscore>
0.3480454385

> <CNNaffinity>
7.0542116165

> <CNN_VS>
2.4551861286

> <CNNaffinity_variance>
0.0938003287

$$$$
[H]c1nc(N([H])c2c([H])c([H])c3c(c([H])nn3C([H])([H])c3c([H])c([H])c([H])c(F)c3[H])c2[H])c2c(O[C@@]([H])(C(=O)N(C([H])([H])[H])C([H])([H])[H])C([H])([H])[H])c([H])c([H])c([H])c2n1


 37 41  0  0  0  0  0  0  0  0999 V2000
    0.9012  -51.0711  -21.5804 N   0  0  0  0  0  0  0  0  0  0  0  0
    1.2449  -50.3811  -22.2301 H   0  0  0  0  0  0  0  0  0  0  0  0
    0.6107  -52.0578  -24.2895 C   0  0  0  0  0  0  0  0  0  0  0  0
    0.4525  -52.6417  -25.5523 C   0  0  0  0  0  0  0  0  0  0  0  0
   -0.1573  -53.8695  -25.7355 C   0  0  0  0  0  0  0  0  0  0  0  0
   -0.6328  -54.5573  -24.6460 C   0  0  0  0  0  0  0  0  0  0  0  0
   -0.4902  -54.0071  -23.3944 C   0  0  0  0  0  0  0  0  0  0  0  0
   -0.9719  -54.6829  -22.3409 N   0  0  0  0  0  0  0  0  0  0  0  0
   -0.8796  -54.1981  -21.0844 C   0  0  0  0  0  0  0  0  0  0  0  0
   -0.2986  -53.0395  -20.9353 N   0  0  0  0  0  0  0  0  0  0  0  0
    0.2317  -52.2557  -21.9237 C   0  0  0  0  0  0  0  0  0  0  0  0
    0.1236  -52.7747  -23.2164 C   0  0  0  0  0  0  0  0  0  0  0  0
    1.2106  -50.8512  -24.1661 O   0  0  0  0  0  0  0  0  0  0  0  0
    2.6471  -50.4643  -26.0315 C   0  0  0  0  0  0  0  0  0  0  0  0
    2.5053  -50.4603  -24.5334 C   0  0  0  0  0  0  0  0  0  0  0  0
    3.5753  -51.1347  -23.8090 C   0  0  0  0  0  0  0  0  0  0  0  0
    3.8230  -52.3418  -24.0555 O   0  0  0  0  0  0  0  0  0  0  0  0
    4.3625  -50.4859  -22.8246 N   0  0  0  0  0  0  0  0  0  0  0  0
    5.4324  -51.2094  -22.1259 C   0  0  0  0  0  0  0  0  0  0  0  0
    4.1904  -49.1043  -22.4290 C   0  0  0  0  0  0  0  0  0  0  0  0
    1.1723  -50.7798  -20.2134 C   0  0  0  0  0  0  0  0  0  0  0  0
    0.2616  -50.3194  -19.3066 C   0  0  0  0  0  0  0  0  0  0  0  0
    0.5724  -50.0824  -17.9807 C   0  0  0  0  0  0  0  0  0  0  0  0
    1.8514  -50.3155  -17.5436 C   0  0  0  0  0  0  0  0  0  0  0  0
    2.4077  -50.1671  -16.3258 N   0  0  0  0  0  0  0  0  0  0  0  0
    3.6846  -50.5299  -16.4380 N   0  0  0  0  0  0  0  0  0  0  0  0
    3.9667  -50.9088  -17.6958 C   0  0  0  0  0  0  0  0  0  0  0  0
    2.8017  -50.7776  -18.4191 C   0  0  0  0  0  0  0  0  0  0  0  0
    2.4667  -51.0054  -19.7311 C   0  0  0  0  0  0  0  0  0  0  0  0
    1.7028  -49.7074  -15.1620 C   0  0  0  0  0  0  0  0  0  0  0  0
    1.1020  -50.7530  -14.3391 C   0  0  0  0  0  0  0  0  0  0  0  0
    1.9150  -51.6259  -13.6507 C   0  0  0  0  0  0  0  0  0  0  0  0
    1.3728  -52.6292  -12.8563 C   0  0  0  0  0  0  0  0  0  0  0  0
    0.0183  -52.7809  -12.7335 C   0  0  0  0  0  0  0  0  0  0  0  0
   -0.8057  -51.9161  -13.4154 C   0  0  0  0  0  0  0  0  0  0  0  0
   -2.1454  -52.0769  -13.2853 F   0  0  0  0  0  0  0  0  0  0  0  0
   -0.2579  -50.9079  -14.2135 C   0  0  0  0  0  0  0  0  0  0  0  0
 14 15  1  0  0  0
 15 13  1  0  0  0
 13  3  1  0  0  0
  3  4  2  0  0  0
  4  5  1  0  0  0
  5  6  2  0  0  0
  6  7  1  0  0  0
  7  8  2  0  0  0
  8  9  1  0  0  0
  9 10  2  0  0  0
 10 11  1  0  0  0
 11  1  1  0  0  0
  1 21  1  0  0  0
 21 22  2  0  0  0
 22 23  1  0  0  0
 23 24  2  0  0  0
 24 25  1  0  0  0
 25 30  1  0  0  0
 30 31  1  0  0  0
 31 32  2  0  0  0
 32 33  1  0  0  0
 33 34  2  0  0  0
 34 35  1  0  0  0
 35 36  1  0  0  0
 35 37  2  0  0  0
 25 26  1  0  0  0
 26 27  2  0  0  0
 27 28  1  0  0  0
 28 29  2  0  0  0
 11 12  2  0  0  0
 15 16  1  0  0  0
 16 17  2  0  0  0
 16 18  1  0  0  0
 18 19  1  0  0  0
 18 20  1  0  0  0
 12  3  1  0  0  0
 12  7  1  0  0  0
 29 21  1  0  0  0
 28 24  1  0  0  0
 37 31  1  0  0  0
  1  2  1  0  0  0
M  END
> <minimizedAffinity>
-7.09171

> <CNNscore>
0.3301644623

> <CNNaffinity>
7.0489377975

> <CNN_VS>
2.3273086548

> <CNNaffinity_variance>
0.2546676993

$$$$
[H]/C(C(=O)N([H])c1c(OC([H])([H])C([H])([H])[H])c([H])c2nc([H])c(C#N)c(N([H])c3c([H])c([H])c(OC([H])([H])c4c([H])c([H])c([H])c([H])c4[H])c(Cl)c3[H])c2c1[H])=C(/[H])C([H])([H])N1C([H])([H])C([H])([H])OC([H])([H])C1([H])[H]


 45 49  0  0  0  0  0  0  0  0999 V2000
   -0.3239  -52.8795  -19.5311 C   0  0  0  0  0  0  0  0  0  0  0  0
   -0.7739  -53.9234  -20.2996 C   0  0  0  0  0  0  0  0  0  0  0  0
   -0.7310  -53.9599  -21.6653 C   0  0  0  0  0  0  0  0  0  0  0  0
   -1.1854  -55.0058  -22.4046 N   0  0  0  0  0  0  0  0  0  0  0  0
   -1.1211  -54.9898  -23.7542 C   0  0  0  0  0  0  0  0  0  0  0  0
   -0.5948  -53.9190  -24.4507 C   0  0  0  0  0  0  0  0  0  0  0  0
   -0.1331  -52.8539  -23.6815 C   0  0  0  0  0  0  0  0  0  0  0  0
   -0.1940  -52.8604  -22.2983 C   0  0  0  0  0  0  0  0  0  0  0  0
    0.2793  -51.7687  -21.5555 C   0  0  0  0  0  0  0  0  0  0  0  0
    0.2227  -51.7620  -20.1860 C   0  0  0  0  0  0  0  0  0  0  0  0
    0.6490  -50.7009  -19.3523 N   0  0  0  0  0  0  0  0  0  0  0  0
    1.9263  -50.6284  -18.7590 C   0  0  0  0  0  0  0  0  0  0  0  0
    2.8326  -51.4936  -18.8883 O   0  0  0  0  0  0  0  0  0  0  0  0
   -0.0101  -49.8932  -19.1469 H   0  0  0  0  0  0  0  0  0  0  0  0
    2.3025  -49.4906  -17.9157 C   0  0  0  0  0  0  0  0  0  0  0  0
    3.2572  -49.4962  -17.0104 C   0  0  0  0  0  0  0  0  0  0  0  0
    3.5456  -48.2523  -16.2068 C   0  0  0  0  0  0  0  0  0  0  0  0
    3.1708  -48.5062  -14.8540 N   0  0  0  0  0  0  0  0  0  0  0  0
    1.8591  -48.1544  -14.4742 C   0  0  0  0  0  0  0  0  0  0  0  0
    0.9889  -49.2239  -13.9219 C   0  0  0  0  0  0  0  0  0  0  0  0
    1.6489  -50.4358  -13.7406 O   0  0  0  0  0  0  0  0  0  0  0  0
    2.9216  -50.2477  -13.2064 C   0  0  0  0  0  0  0  0  0  0  0  0
    3.7921  -49.6146  -14.2356 C   0  0  0  0  0  0  0  0  0  0  0  0
   -0.5140  -53.8745  -25.8838 C   0  0  0  0  0  0  0  0  0  0  0  0
   -0.4413  -53.8227  -27.0367 N   0  0  0  0  0  0  0  0  0  0  0  0
    0.4016  -51.7265  -24.3147 N   0  0  0  0  0  0  0  0  0  0  0  0
   -0.2711  -51.0602  -24.7736 H   0  0  0  0  0  0  0  0  0  0  0  0
    1.8049  -51.4950  -24.3327 C   0  0  0  0  0  0  0  0  0  0  0  0
    2.7013  -52.5675  -24.3760 C   0  0  0  0  0  0  0  0  0  0  0  0
    4.0637  -52.3851  -24.3870 C   0  0  0  0  0  0  0  0  0  0  0  0
    4.6004  -51.1066  -24.3548 C   0  0  0  0  0  0  0  0  0  0  0  0
    3.7280  -50.0401  -24.3123 C   0  0  0  0  0  0  0  0  0  0  0  0
    4.4017  -48.4280  -24.2717 Cl  0  0  0  0  0  0  0  0  0  0  0  0
    2.3519  -50.2347  -24.3013 C   0  0  0  0  0  0  0  0  0  0  0  0
    5.9817  -50.9357  -24.3660 O   0  0  0  0  0  0  0  0  0  0  0  0
    6.7037  -51.2660  -23.2096 C   0  0  0  0  0  0  0  0  0  0  0  0
    6.5946  -50.2984  -22.1154 C   0  0  0  0  0  0  0  0  0  0  0  0
    5.6226  -50.4174  -21.1454 C   0  0  0  0  0  0  0  0  0  0  0  0
    5.4979  -49.5221  -20.1163 C   0  0  0  0  0  0  0  0  0  0  0  0
    6.3686  -48.4647  -20.0420 C   0  0  0  0  0  0  0  0  0  0  0  0
    7.3497  -48.3210  -20.9991 C   0  0  0  0  0  0  0  0  0  0  0  0
    7.4626  -49.2313  -22.0282 C   0  0  0  0  0  0  0  0  0  0  0  0
   -0.3741  -52.8598  -18.1606 O   0  0  0  0  0  0  0  0  0  0  0  0
   -1.4094  -51.5634  -16.3665 C   0  0  0  0  0  0  0  0  0  0  0  0
   -1.4776  -52.6914  -17.3401 C   0  0  0  0  0  0  0  0  0  0  0  0
 44 45  1  0  0  0
 45 43  1  0  0  0
 43  1  1  0  0  0
  1  2  2  0  0  0
  2  3  1  0  0  0
  3  4  2  0  0  0
  4  5  1  0  0  0
  5  6  2  0  0  0
  6 24  1  0  0  0
 24 25  3  0  0  0
  6  7  1  0  0  0
  7 26  1  0  0  0
 26 28  1  0  0  0
 28 29  2  0  0  0
 29 30  1  0  0  0
 30 31  2  0  0  0
 31 35  1  0  0  0
 35 36  1  0  0  0
 36 37  1  0  0  0
 37 38  2  0  0  0
 38 39  1  0  0  0
 39 40  2  0  0  0
 40 41  1  0  0  0
 41 42  2  0  0  0
 31 32  1  0  0  0
 32 33  1  0  0  0
 32 34  2  0  0  0
  7  8  2  0  0  0
  8  9  1  0  0  0
  9 10  2  0  0  0
 10 11  1  0  0  0
 11 12  1  0  0  0
 12 13  2  0  0  0
 12 15  1  0  0  0
 15 16  2  0  0  0
 16 17  1  0  0  0
 17 18  1  0  0  0
 18 19  1  0  0  0
 19 20  1  0  0  0
 20 21  1  0  0  0
 21 22  1  0  0  0
 22 23  1  0  0  0
 10  1  1  0  0  0
 23 18  1  0  0  0
  8  3  1  0  0  0
 34 28  1  0  0  0
 42 37  1  0  0  0
 26 27  1  0  0  0
 11 14  1  0  0  0
M  END
> <minimizedAffinity>
-7.69992

> <CNNscore>
0.4800072014

> <CNNaffinity>
7.5564985275

> <CNN_VS>
3.6271736622

> <CNNaffinity_variance>
0.1950474828

$$$$
[H]/C(C(=O)N([H])c1c(OC([H])([H])C([H])([H])[H])c([H])c2nc([H])c(C#N)c(N([H])c3c([H])c([H])c(OC([H])([H])c4c([H])c([H])c([H])c([H])c4[H])c(Cl)c3[H])c2c1[H])=C(/[H])C([H])([H])N1C([H])([H])C([H])([H])OC([H])([H])C1([H])[H]


 45 49  0  0  0  0  0  0  0  0999 V2000
   -0.2419  -53.0356  -19.4585 C   0  0  0  0  0  0  0  0  0  0  0  0
   -0.6826  -54.0285  -20.2969 C   0  0  0  0  0  0  0  0  0  0  0  0
   -0.6336  -53.9736  -21.6617 C   0  0  0  0  0  0  0  0  0  0  0  0
   -1.0787  -54.9704  -22.4711 N   0  0  0  0  0  0  0  0  0  0  0  0
   -1.0088  -54.8641  -23.8164 C   0  0  0  0  0  0  0  0  0  0  0  0
   -0.4858  -53.7464  -24.4376 C   0  0  0  0  0  0  0  0  0  0  0  0
   -0.0336  -52.7323  -23.5970 C   0  0  0  0  0  0  0  0  0  0  0  0
   -0.1004  -52.8314  -22.2176 C   0  0  0  0  0  0  0  0  0  0  0  0
    0.3634  -51.7890  -21.4015 C   0  0  0  0  0  0  0  0  0  0  0  0
    0.3009  -51.8739  -20.0349 C   0  0  0  0  0  0  0  0  0  0  0  0
    0.7174  -50.8684  -19.1304 N   0  0  0  0  0  0  0  0  0  0  0  0
    2.0289  -50.7573  -18.6240 C   0  0  0  0  0  0  0  0  0  0  0  0
    2.9791  -51.5356  -18.9033 O   0  0  0  0  0  0  0  0  0  0  0  0
    0.0230  -50.1358  -18.7987 H   0  0  0  0  0  0  0  0  0  0  0  0
    2.3912  -49.6803  -17.6987 C   0  0  0  0  0  0  0  0  0  0  0  0
    3.1677  -49.8107  -16.6445 C   0  0  0  0  0  0  0  0  0  0  0  0
    3.4640  -48.6172  -15.7705 C   0  0  0  0  0  0  0  0  0  0  0  0
    3.1413  -48.9664  -14.4255 N   0  0  0  0  0  0  0  0  0  0  0  0
    1.8081  -48.7656  -14.0121 C   0  0  0  0  0  0  0  0  0  0  0  0
    1.0596  -49.9404  -13.4969 C   0  0  0  0  0  0  0  0  0  0  0  0
    1.8409  -51.0864  -13.3797 O   0  0  0  0  0  0  0  0  0  0  0  0
    3.0979  -50.7944  -12.8552 C   0  0  0  0  0  0  0  0  0  0  0  0
    3.8816  -50.0324  -13.8666 C   0  0  0  0  0  0  0  0  0  0  0  0
   -0.3992  -53.6061  -25.8642 C   0  0  0  0  0  0  0  0  0  0  0  0
   -0.3279  -53.4755  -27.0109 N   0  0  0  0  0  0  0  0  0  0  0  0
    0.4971  -51.5623  -24.1512 N   0  0  0  0  0  0  0  0  0  0  0  0
   -0.1501  -50.9517  -24.7126 H   0  0  0  0  0  0  0  0  0  0  0  0
    1.8632  -51.2163  -23.9577 C   0  0  0  0  0  0  0  0  0  0  0  0
    2.2140  -49.9546  -23.4672 C   0  0  0  0  0  0  0  0  0  0  0  0
    3.5223  -49.5802  -23.2739 C   0  0  0  0  0  0  0  0  0  0  0  0
    4.5540  -50.4602  -23.5654 C   0  0  0  0  0  0  0  0  0  0  0  0
    4.2223  -51.7076  -24.0494 C   0  0  0  0  0  0  0  0  0  0  0  0
    5.5205  -52.8184  -24.4174 Cl  0  0  0  0  0  0  0  0  0  0  0  0
    2.8963  -52.0769  -24.2417 C   0  0  0  0  0  0  0  0  0  0  0  0
    5.8746  -50.0685  -23.3654 O   0  0  0  0  0  0  0  0  0  0  0  0
    6.2462  -48.7661  -23.7305 C   0  0  0  0  0  0  0  0  0  0  0  0
    6.5155  -48.5774  -25.1578 C   0  0  0  0  0  0  0  0  0  0  0  0
    7.7271  -48.9289  -25.7130 C   0  0  0  0  0  0  0  0  0  0  0  0
    8.0034  -48.7568  -27.0435 C   0  0  0  0  0  0  0  0  0  0  0  0
    7.0438  -48.2144  -27.8600 C   0  0  0  0  0  0  0  0  0  0  0  0
    5.8235  -47.8533  -27.3312 C   0  0  0  0  0  0  0  0  0  0  0  0
    5.5606  -48.0338  -25.9899 C   0  0  0  0  0  0  0  0  0  0  0  0
   -0.2981  -53.1076  -18.0899 O   0  0  0  0  0  0  0  0  0  0  0  0
   -2.5900  -53.0376  -17.2454 C   0  0  0  0  0  0  0  0  0  0  0  0
   -1.1987  -52.5001  -17.2303 C   0  0  0  0  0  0  0  0  0  0  0  0
 44 45  1  0  0  0
 45 43  1  0  0  0
 43  1  1  0  0  0
  1  2  2  0  0  0
  2  3  1  0  0  0
  3  4  2  0  0  0
  4  5  1  0  0  0
  5  6  2  0  0  0
  6 24  1  0  0  0
 24 25  3  0  0  0
  6  7  1  0  0  0
  7 26  1  0  0  0
 26 28  1  0  0  0
 28 29  2  0  0  0
 29 30  1  0  0  0
 30 31  2  0  0  0
 31 35  1  0  0  0
 35 36  1  0  0  0
 36 37  1  0  0  0
 37 38  2  0  0  0
 38 39  1  0  0  0
 39 40  2  0  0  0
 40 41  1  0  0  0
 41 42  2  0  0  0
 31 32  1  0  0  0
 32 33  1  0  0  0
 32 34  2  0  0  0
  7  8  2  0  0  0
  8  9  1  0  0  0
  9 10  2  0  0  0
 10 11  1  0  0  0
 11 12  1  0  0  0
 12 13  2  0  0  0
 12 15  1  0  0  0
 15 16  2  0  0  0
 16 17  1  0  0  0
 17 18  1  0  0  0
 18 19  1  0  0  0
 19 20  1  0  0  0
 20 21  1  0  0  0
 21 22  1  0  0  0
 22 23  1  0  0  0
 10  1  1  0  0  0
 23 18  1  0  0  0
  8  3  1  0  0  0
 34 28  1  0  0  0
 42 37  1  0  0  0
 26 27  1  0  0  0
 11 14  1  0  0  0
M  END
> <minimizedAffinity>
-7.32158

> <CNNscore>
0.4407083988

> <CNNaffinity>
7.5138726234

> <CNN_VS>
3.3114268780

> <CNNaffinity_variance>
0.1533108950

$$$$
[H]/C(C(=O)N([H])c1c(OC([H])([H])C([H])([H])[H])c([H])c2nc([H])c(C#N)c(N([H])c3c([H])c([H])c(OC([H])([H])c4c([H])c([H])c([H])c([H])c4[H])c(Cl)c3[H])c2c1[H])=C(/[H])C([H])([H])N1C([H])([H])C([H])([H])OC([H])([H])C1([H])[H]


 45 49  0  0  0  0  0  0  0  0999 V2000
    0.8050  -53.0054  -26.6232 C   0  0  0  0  0  0  0  0  0  0  0  0
    0.1755  -54.0734  -26.0350 C   0  0  0  0  0  0  0  0  0  0  0  0
   -0.3066  -54.0850  -24.7560 C   0  0  0  0  0  0  0  0  0  0  0  0
   -0.9253  -55.1571  -24.1950 N   0  0  0  0  0  0  0  0  0  0  0  0
   -1.3820  -55.1161  -22.9240 C   0  0  0  0  0  0  0  0  0  0  0  0
   -1.2463  -53.9924  -22.1317 C   0  0  0  0  0  0  0  0  0  0  0  0
   -0.6104  -52.9012  -22.7184 C   0  0  0  0  0  0  0  0  0  0  0  0
   -0.1392  -52.9326  -24.0199 C   0  0  0  0  0  0  0  0  0  0  0  0
    0.4982  -51.8145  -24.5778 C   0  0  0  0  0  0  0  0  0  0  0  0
    0.9710  -51.8337  -25.8643 C   0  0  0  0  0  0  0  0  0  0  0  0
    1.6486  -50.7694  -26.5054 N   0  0  0  0  0  0  0  0  0  0  0  0
    2.9847  -50.4085  -26.2349 C   0  0  0  0  0  0  0  0  0  0  0  0
    3.7294  -50.9759  -25.3921 O   0  0  0  0  0  0  0  0  0  0  0  0
    1.1471  -50.1926  -27.2435 H   0  0  0  0  0  0  0  0  0  0  0  0
    3.6257  -49.3007  -26.9484 C   0  0  0  0  0  0  0  0  0  0  0  0
    3.4005  -48.0227  -26.7311 C   0  0  0  0  0  0  0  0  0  0  0  0
    4.1306  -46.9776  -27.5379 C   0  0  0  0  0  0  0  0  0  0  0  0
    3.6147  -47.0091  -28.8675 N   0  0  0  0  0  0  0  0  0  0  0  0
    2.5924  -46.0900  -29.1817 C   0  0  0  0  0  0  0  0  0  0  0  0
    2.8293  -45.1504  -30.3072 C   0  0  0  0  0  0  0  0  0  0  0  0
    4.0163  -45.3950  -30.9918 O   0  0  0  0  0  0  0  0  0  0  0  0
    4.2197  -46.7592  -31.1872 C   0  0  0  0  0  0  0  0  0  0  0  0
    4.5242  -47.3979  -29.8768 C   0  0  0  0  0  0  0  0  0  0  0  0
   -1.7215  -53.9206  -20.7784 C   0  0  0  0  0  0  0  0  0  0  0  0
   -2.1101  -53.8464  -19.6919 N   0  0  0  0  0  0  0  0  0  0  0  0
   -0.4230  -51.7306  -21.9751 N   0  0  0  0  0  0  0  0  0  0  0  0
   -1.1031  -50.9424  -22.1272 H   0  0  0  0  0  0  0  0  0  0  0  0
    0.6499  -51.6173  -21.0482 C   0  0  0  0  0  0  0  0  0  0  0  0
    0.3962  -51.5130  -19.6769 C   0  0  0  0  0  0  0  0  0  0  0  0
    1.4050  -51.3945  -18.7509 C   0  0  0  0  0  0  0  0  0  0  0  0
    2.7310  -51.3742  -19.1571 C   0  0  0  0  0  0  0  0  0  0  0  0
    2.9955  -51.4764  -20.5061 C   0  0  0  0  0  0  0  0  0  0  0  0
    4.6656  -51.4513  -21.0205 Cl  0  0  0  0  0  0  0  0  0  0  0  0
    1.9685  -51.5958  -21.4349 C   0  0  0  0  0  0  0  0  0  0  0  0
    3.7431  -51.2533  -18.2092 O   0  0  0  0  0  0  0  0  0  0  0  0
    3.6277  -50.2507  -17.2349 C   0  0  0  0  0  0  0  0  0  0  0  0
    3.2853  -50.7290  -15.8936 C   0  0  0  0  0  0  0  0  0  0  0  0
    2.2533  -50.1680  -15.1724 C   0  0  0  0  0  0  0  0  0  0  0  0
    1.9185  -50.5948  -13.9147 C   0  0  0  0  0  0  0  0  0  0  0  0
    2.6328  -51.6179  -13.3446 C   0  0  0  0  0  0  0  0  0  0  0  0
    3.6703  -52.1966  -14.0430 C   0  0  0  0  0  0  0  0  0  0  0  0
    3.9943  -51.7561  -15.3085 C   0  0  0  0  0  0  0  0  0  0  0  0
    1.2825  -53.0108  -27.9091 O   0  0  0  0  0  0  0  0  0  0  0  0
   -0.6912  -52.6056  -29.2917 C   0  0  0  0  0  0  0  0  0  0  0  0
    0.6052  -53.3120  -29.0795 C   0  0  0  0  0  0  0  0  0  0  0  0
 44 45  1  0  0  0
 45 43  1  0  0  0
 43  1  1  0  0  0
  1  2  2  0  0  0
  2  3  1  0  0  0
  3  4  2  0  0  0
  4  5  1  0  0  0
  5  6  2  0  0  0
  6 24  1  0  0  0
 24 25  3  0  0  0
  6  7  1  0  0  0
  7 26  1  0  0  0
 26 28  1  0  0  0
 28 29  2  0  0  0
 29 30  1  0  0  0
 30 31  2  0  0  0
 31 35  1  0  0  0
 35 36  1  0  0  0
 36 37  1  0  0  0
 37 38  2  0  0  0
 38 39  1  0  0  0
 39 40  2  0  0  0
 40 41  1  0  0  0
 41 42  2  0  0  0
 31 32  1  0  0  0
 32 33  1  0  0  0
 32 34  2  0  0  0
  7  8  2  0  0  0
  8  9  1  0  0  0
  9 10  2  0  0  0
 10 11  1  0  0  0
 11 12  1  0  0  0
 12 13  2  0  0  0
 12 15  1  0  0  0
 15 16  2  0  0  0
 16 17  1  0  0  0
 17 18  1  0  0  0
 18 19  1  0  0  0
 19 20  1  0  0  0
 20 21  1  0  0  0
 21 22  1  0  0  0
 22 23  1  0  0  0
 10  1  1  0  0  0
 23 18  1  0  0  0
  8  3  1  0  0  0
 34 28  1  0  0  0
 42 37  1  0  0  0
 26 27  1  0  0  0
 11 14  1  0  0  0
M  END
> <minimizedAffinity>
-8.35152

> <CNNscore>
0.4069108069

> <CNNaffinity>
7.5516862869

> <CNN_VS>
3.0728628635

> <CNNaffinity_variance>
0.1166281849

$$$$
[H]/C(C(=O)N([H])c1c(OC([H])([H])C([H])([H])[H])c([H])c2nc([H])c(C#N)c(N([H])c3c([H])c([H])c(OC([H])([H])c4c([H])c([H])c([H])c([H])c4[H])c(Cl)c3[H])c2c1[H])=C(/[H])C([H])([H])N1C([H])([H])C([H])([H])OC([H])([H])C1([H])[H]


 45 49  0  0  0  0  0  0  0  0999 V2000
   -0.3442  -52.7048  -19.4284 C   0  0  0  0  0  0  0  0  0  0  0  0
   -0.7519  -53.7930  -20.1581 C   0  0  0  0  0  0  0  0  0  0  0  0
   -0.6926  -53.8833  -21.5206 C   0  0  0  0  0  0  0  0  0  0  0  0
   -1.1049  -54.9724  -22.2210 N   0  0  0  0  0  0  0  0  0  0  0  0
   -1.0261  -55.0090  -23.5694 C   0  0  0  0  0  0  0  0  0  0  0  0
   -0.5267  -53.9507  -24.3039 C   0  0  0  0  0  0  0  0  0  0  0  0
   -0.1080  -52.8409  -23.5743 C   0  0  0  0  0  0  0  0  0  0  0  0
   -0.1840  -52.7935  -22.1926 C   0  0  0  0  0  0  0  0  0  0  0  0
    0.2457  -51.6577  -21.4904 C   0  0  0  0  0  0  0  0  0  0  0  0
    0.1736  -51.5975  -20.1229 C   0  0  0  0  0  0  0  0  0  0  0  0
    0.5563  -50.4902  -19.3290 N   0  0  0  0  0  0  0  0  0  0  0  0
    1.8673  -50.2742  -18.8564 C   0  0  0  0  0  0  0  0  0  0  0  0
    2.8472  -51.0360  -19.0719 O   0  0  0  0  0  0  0  0  0  0  0  0
   -0.1655  -49.7580  -19.0609 H   0  0  0  0  0  0  0  0  0  0  0  0
    2.1930  -49.0962  -18.0481 C   0  0  0  0  0  0  0  0  0  0  0  0
    3.2270  -48.3048  -18.2371 C   0  0  0  0  0  0  0  0  0  0  0  0
    3.4486  -47.1195  -17.3304 C   0  0  0  0  0  0  0  0  0  0  0  0
    4.1709  -46.1329  -18.0652 N   0  0  0  0  0  0  0  0  0  0  0  0
    5.0950  -46.5955  -19.0247 C   0  0  0  0  0  0  0  0  0  0  0  0
    4.9159  -46.1476  -20.4294 C   0  0  0  0  0  0  0  0  0  0  0  0
    3.8992  -45.2098  -20.5858 O   0  0  0  0  0  0  0  0  0  0  0  0
    3.9183  -44.2627  -19.5645 C   0  0  0  0  0  0  0  0  0  0  0  0
    3.4974  -44.9115  -18.2918 C   0  0  0  0  0  0  0  0  0  0  0  0
   -0.4314  -53.9617  -25.7368 C   0  0  0  0  0  0  0  0  0  0  0  0
   -0.3625  -53.9546  -26.8910 N   0  0  0  0  0  0  0  0  0  0  0  0
    0.3973  -51.7233  -24.2477 N   0  0  0  0  0  0  0  0  0  0  0  0
   -0.2958  -51.0580  -24.6765 H   0  0  0  0  0  0  0  0  0  0  0  0
    1.7988  -51.5001  -24.3442 C   0  0  0  0  0  0  0  0  0  0  0  0
    2.6982  -52.5628  -24.2127 C   0  0  0  0  0  0  0  0  0  0  0  0
    4.0591  -52.3864  -24.2924 C   0  0  0  0  0  0  0  0  0  0  0  0
    4.5911  -51.1242  -24.5096 C   0  0  0  0  0  0  0  0  0  0  0  0
    3.7158  -50.0675  -24.6414 C   0  0  0  0  0  0  0  0  0  0  0  0
    4.3837  -48.4759  -24.9154 Cl  0  0  0  0  0  0  0  0  0  0  0  0
    2.3412  -50.2558  -24.5592 C   0  0  0  0  0  0  0  0  0  0  0  0
    5.9711  -50.9592  -24.5879 O   0  0  0  0  0  0  0  0  0  0  0  0
    6.7487  -51.3113  -23.4747 C   0  0  0  0  0  0  0  0  0  0  0  0
    7.1787  -50.1868  -22.6406 C   0  0  0  0  0  0  0  0  0  0  0  0
    7.1648  -50.2663  -21.2646 C   0  0  0  0  0  0  0  0  0  0  0  0
    7.5570  -49.2262  -20.4643 C   0  0  0  0  0  0  0  0  0  0  0  0
    7.9801  -48.0584  -21.0467 C   0  0  0  0  0  0  0  0  0  0  0  0
    8.0035  -47.9512  -22.4204 C   0  0  0  0  0  0  0  0  0  0  0  0
    7.6063  -49.0077  -23.2121 C   0  0  0  0  0  0  0  0  0  0  0  0
   -0.4103  -52.6313  -18.0604 O   0  0  0  0  0  0  0  0  0  0  0  0
   -1.6260  -51.5429  -16.2413 C   0  0  0  0  0  0  0  0  0  0  0  0
   -1.5334  -52.6385  -17.2493 C   0  0  0  0  0  0  0  0  0  0  0  0
 44 45  1  0  0  0
 45 43  1  0  0  0
 43  1  1  0  0  0
  1  2  2  0  0  0
  2  3  1  0  0  0
  3  4  2  0  0  0
  4  5  1  0  0  0
  5  6  2  0  0  0
  6 24  1  0  0  0
 24 25  3  0  0  0
  6  7  1  0  0  0
  7 26  1  0  0  0
 26 28  1  0  0  0
 28 29  2  0  0  0
 29 30  1  0  0  0
 30 31  2  0  0  0
 31 35  1  0  0  0
 35 36  1  0  0  0
 36 37  1  0  0  0
 37 38  2  0  0  0
 38 39  1  0  0  0
 39 40  2  0  0  0
 40 41  1  0  0  0
 41 42  2  0  0  0
 31 32  1  0  0  0
 32 33  1  0  0  0
 32 34  2  0  0  0
  7  8  2  0  0  0
  8  9  1  0  0  0
  9 10  2  0  0  0
 10 11  1  0  0  0
 11 12  1  0  0  0
 12 13  2  0  0  0
 12 15  1  0  0  0
 15 16  2  0  0  0
 16 17  1  0  0  0
 17 18  1  0  0  0
 18 19  1  0  0  0
 19 20  1  0  0  0
 20 21  1  0  0  0
 21 22  1  0  0  0
 22 23  1  0  0  0
 10  1  1  0  0  0
 23 18  1  0  0  0
  8  3  1  0  0  0
 34 28  1  0  0  0
 42 37  1  0  0  0
 26 27  1  0  0  0
 11 14  1  0  0  0
M  END
> <minimizedAffinity>
-7.50441

> <CNNscore>
0.3234745264

> <CNNaffinity>
7.3937821388

> <CNN_VS>
2.3917002678

> <CNNaffinity_variance>
0.1157800183

$$$$
[H]/C(C(=O)N([H])c1c(OC([H])([H])C([H])([H])[H])c([H])c2nc([H])c(C#N)c(N([H])c3c([H])c([H])c(OC([H])([H])c4c([H])c([H])c([H])c([H])c4[H])c(Cl)c3[H])c2c1[H])=C(/[H])C([H])([H])N1C([H])([H])C([H])([H])OC([H])([H])C1([H])[H]


 45 49  0  0  0  0  0  0  0  0999 V2000
    0.2942  -52.2066  -26.1417 C   0  0  0  0  0  0  0  0  0  0  0  0
   -0.6259  -52.7975  -25.3127 C   0  0  0  0  0  0  0  0  0  0  0  0
   -0.4729  -52.9504  -23.9632 C   0  0  0  0  0  0  0  0  0  0  0  0
   -1.3989  -53.5416  -23.1633 N   0  0  0  0  0  0  0  0  0  0  0  0
   -1.1965  -53.6692  -21.8334 C   0  0  0  0  0  0  0  0  0  0  0  0
   -0.0473  -53.2100  -21.2190 C   0  0  0  0  0  0  0  0  0  0  0  0
    0.8935  -52.6067  -22.0498 C   0  0  0  0  0  0  0  0  0  0  0  0
    0.6956  -52.4706  -23.4134 C   0  0  0  0  0  0  0  0  0  0  0  0
    1.6663  -51.8586  -24.2202 C   0  0  0  0  0  0  0  0  0  0  0  0
    1.4834  -51.7197  -25.5716 C   0  0  0  0  0  0  0  0  0  0  0  0
    2.4119  -51.1424  -26.4702 N   0  0  0  0  0  0  0  0  0  0  0  0
    2.9014  -49.8245  -26.3596 C   0  0  0  0  0  0  0  0  0  0  0  0
    2.5699  -49.0039  -25.4632 O   0  0  0  0  0  0  0  0  0  0  0  0
    2.7842  -51.7143  -27.2846 H   0  0  0  0  0  0  0  0  0  0  0  0
    3.8727  -49.2977  -27.3220 C   0  0  0  0  0  0  0  0  0  0  0  0
    3.9833  -48.0364  -27.6800 C   0  0  0  0  0  0  0  0  0  0  0  0
    5.0308  -47.6237  -28.6842 C   0  0  0  0  0  0  0  0  0  0  0  0
    4.4353  -47.6587  -29.9801 N   0  0  0  0  0  0  0  0  0  0  0  0
    3.4431  -46.6956  -30.2570 C   0  0  0  0  0  0  0  0  0  0  0  0
    3.6587  -45.7950  -31.4182 C   0  0  0  0  0  0  0  0  0  0  0  0
    4.7889  -46.1156  -32.1648 O   0  0  0  0  0  0  0  0  0  0  0  0
    4.9119  -47.4924  -32.3369 C   0  0  0  0  0  0  0  0  0  0  0  0
    5.2622  -48.1162  -31.0307 C   0  0  0  0  0  0  0  0  0  0  0  0
    0.1946  -53.3322  -19.8088 C   0  0  0  0  0  0  0  0  0  0  0  0
    0.3766  -53.4187  -18.6701 N   0  0  0  0  0  0  0  0  0  0  0  0
    2.0897  -52.1282  -21.5040 N   0  0  0  0  0  0  0  0  0  0  0  0
    2.9901  -52.4936  -21.9073 H   0  0  0  0  0  0  0  0  0  0  0  0
    2.0816  -51.1811  -20.4428 C   0  0  0  0  0  0  0  0  0  0  0  0
    1.2450  -50.0618  -20.4959 C   0  0  0  0  0  0  0  0  0  0  0  0
    1.2139  -49.1208  -19.4944 C   0  0  0  0  0  0  0  0  0  0  0  0
    2.0275  -49.2562  -18.3794 C   0  0  0  0  0  0  0  0  0  0  0  0
    2.8570  -50.3552  -18.3139 C   0  0  0  0  0  0  0  0  0  0  0  0
    3.8832  -50.5282  -16.9098 Cl  0  0  0  0  0  0  0  0  0  0  0  0
    2.8815  -51.3013  -19.3318 C   0  0  0  0  0  0  0  0  0  0  0  0
    1.9867  -48.2960  -17.3724 O   0  0  0  0  0  0  0  0  0  0  0  0
    1.7001  -48.7137  -16.0643 C   0  0  0  0  0  0  0  0  0  0  0  0
    0.2947  -49.0418  -15.8143 C   0  0  0  0  0  0  0  0  0  0  0  0
   -0.6152  -48.0730  -15.4490 C   0  0  0  0  0  0  0  0  0  0  0  0
   -1.9328  -48.3569  -15.2048 C   0  0  0  0  0  0  0  0  0  0  0  0
   -2.3703  -49.6515  -15.3255 C   0  0  0  0  0  0  0  0  0  0  0  0
   -1.4817  -50.6403  -15.6887 C   0  0  0  0  0  0  0  0  0  0  0  0
   -0.1588  -50.3380  -15.9319 C   0  0  0  0  0  0  0  0  0  0  0  0
    0.1240  -52.0608  -27.4948 O   0  0  0  0  0  0  0  0  0  0  0  0
   -0.4214  -52.9867  -29.6895 C   0  0  0  0  0  0  0  0  0  0  0  0
   -0.8477  -52.6217  -28.3075 C   0  0  0  0  0  0  0  0  0  0  0  0
 44 45  1  0  0  0
 45 43  1  0  0  0
 43  1  1  0  0  0
  1  2  2  0  0  0
  2  3  1  0  0  0
  3  4  2  0  0  0
  4  5  1  0  0  0
  5  6  2  0  0  0
  6 24  1  0  0  0
 24 25  3  0  0  0
  6  7  1  0  0  0
  7 26  1  0  0  0
 26 28  1  0  0  0
 28 29  2  0  0  0
 29 30  1  0  0  0
 30 31  2  0  0  0
 31 35  1  0  0  0
 35 36  1  0  0  0
 36 37  1  0  0  0
 37 38  2  0  0  0
 38 39  1  0  0  0
 39 40  2  0  0  0
 40 41  1  0  0  0
 41 42  2  0  0  0
 31 32  1  0  0  0
 32 33  1  0  0  0
 32 34  2  0  0  0
  7  8  2  0  0  0
  8  9  1  0  0  0
  9 10  2  0  0  0
 10 11  1  0  0  0
 11 12  1  0  0  0
 12 13  2  0  0  0
 12 15  1  0  0  0
 15 16  2  0  0  0
 16 17  1  0  0  0
 17 18  1  0  0  0
 18 19  1  0  0  0
 19 20  1  0  0  0
 20 21  1  0  0  0
 21 22  1  0  0  0
 22 23  1  0  0  0
 10  1  1  0  0  0
 23 18  1  0  0  0
  8  3  1  0  0  0
 34 28  1  0  0  0
 42 37  1  0  0  0
 26 27  1  0  0  0
 11 14  1  0  0  0
M  END
> <minimizedAffinity>
-6.94362

> <CNNscore>
0.3019819558

> <CNNaffinity>
7.3336877823

> <CNN_VS>
2.2146413326

> <CNNaffinity_variance>
0.1426892281

$$$$
[H]/C(C(=O)N([H])c1c(OC([H])([H])C([H])([H])[H])c([H])c2nc([H])c(C#N)c(N([H])c3c([H])c([H])c(OC([H])([H])c4c([H])c([H])c([H])c([H])c4[H])c(Cl)c3[H])c2c1[H])=C(/[H])C([H])([H])N1C([H])([H])C([H])([H])OC([H])([H])C1([H])[H]


 45 49  0  0  0  0  0  0  0  0999 V2000
    0.0097  -52.1144  -21.1733 C   0  0  0  0  0  0  0  0  0  0  0  0
   -0.4659  -52.8206  -22.2494 C   0  0  0  0  0  0  0  0  0  0  0  0
    0.1760  -52.9350  -23.4507 C   0  0  0  0  0  0  0  0  0  0  0  0
   -0.3172  -53.6393  -24.5031 N   0  0  0  0  0  0  0  0  0  0  0  0
    0.3580  -53.7186  -25.6708 C   0  0  0  0  0  0  0  0  0  0  0  0
    1.5759  -53.0936  -25.8578 C   0  0  0  0  0  0  0  0  0  0  0  0
    2.0699  -52.3750  -24.7719 C   0  0  0  0  0  0  0  0  0  0  0  0
    1.3862  -52.2878  -23.5711 C   0  0  0  0  0  0  0  0  0  0  0  0
    1.9136  -51.5534  -22.4986 C   0  0  0  0  0  0  0  0  0  0  0  0
    1.2456  -51.4576  -21.3054 C   0  0  0  0  0  0  0  0  0  0  0  0
    1.6814  -50.7217  -20.1779 N   0  0  0  0  0  0  0  0  0  0  0  0
    2.7555  -51.1092  -19.3503 C   0  0  0  0  0  0  0  0  0  0  0  0
    3.4464  -52.1511  -19.5045 O   0  0  0  0  0  0  0  0  0  0  0  0
    1.1918  -49.8154  -19.9174 H   0  0  0  0  0  0  0  0  0  0  0  0
    3.1590  -50.2890  -18.2051 C   0  0  0  0  0  0  0  0  0  0  0  0
    2.4466  -50.0990  -17.1153 C   0  0  0  0  0  0  0  0  0  0  0  0
    2.9799  -49.2284  -16.0046 C   0  0  0  0  0  0  0  0  0  0  0  0
    2.8536  -49.9505  -14.7809 N   0  0  0  0  0  0  0  0  0  0  0  0
    1.5867  -49.9479  -14.1614 C   0  0  0  0  0  0  0  0  0  0  0  0
    0.9404  -51.2600  -13.9035 C   0  0  0  0  0  0  0  0  0  0  0  0
    1.7532  -52.3472  -14.2114 O   0  0  0  0  0  0  0  0  0  0  0  0
    3.0647  -52.1379  -13.7909 C   0  0  0  0  0  0  0  0  0  0  0  0
    3.6854  -51.0843  -14.6408 C   0  0  0  0  0  0  0  0  0  0  0  0
    2.3151  -53.1604  -27.0871 C   0  0  0  0  0  0  0  0  0  0  0  0
    2.8992  -53.2024  -28.0842 N   0  0  0  0  0  0  0  0  0  0  0  0
    3.2915  -51.7027  -24.8879 N   0  0  0  0  0  0  0  0  0  0  0  0
    4.1715  -52.2658  -24.7641 H   0  0  0  0  0  0  0  0  0  0  0  0
    3.3348  -50.3081  -25.1645 C   0  0  0  0  0  0  0  0  0  0  0  0
    3.2479  -49.8416  -26.4800 C   0  0  0  0  0  0  0  0  0  0  0  0
    3.2935  -48.5029  -26.7883 C   0  0  0  0  0  0  0  0  0  0  0  0
    3.4300  -47.5561  -25.7840 C   0  0  0  0  0  0  0  0  0  0  0  0
    3.5165  -48.0022  -24.4825 C   0  0  0  0  0  0  0  0  0  0  0  0
    3.6883  -46.8112  -23.2150 Cl  0  0  0  0  0  0  0  0  0  0  0  0
    3.4695  -49.3580  -24.1807 C   0  0  0  0  0  0  0  0  0  0  0  0
    3.4752  -46.2036  -26.1097 O   0  0  0  0  0  0  0  0  0  0  0  0
    4.6295  -45.4771  -25.7815 C   0  0  0  0  0  0  0  0  0  0  0  0
    5.3948  -44.9820  -26.9279 C   0  0  0  0  0  0  0  0  0  0  0  0
    4.7760  -44.6382  -28.1105 C   0  0  0  0  0  0  0  0  0  0  0  0
    5.4713  -44.1783  -29.1973 C   0  0  0  0  0  0  0  0  0  0  0  0
    6.8348  -44.0530  -29.1134 C   0  0  0  0  0  0  0  0  0  0  0  0
    7.4796  -44.3903  -27.9430 C   0  0  0  0  0  0  0  0  0  0  0  0
    6.7651  -44.8510  -26.8577 C   0  0  0  0  0  0  0  0  0  0  0  0
   -0.6477  -52.0106  -19.9740 O   0  0  0  0  0  0  0  0  0  0  0  0
   -0.8611  -52.4511  -17.5799 C   0  0  0  0  0  0  0  0  0  0  0  0
   -0.7816  -52.9644  -18.9781 C   0  0  0  0  0  0  0  0  0  0  0  0
 44 45  1  0  0  0
 45 43  1  0  0  0
 43  1  1  0  0  0
  1  2  2  0  0  0
  2  3  1  0  0  0
  3  4  2  0  0  0
  4  5  1  0  0  0
  5  6  2  0  0  0
  6 24  1  0  0  0
 24 25  3  0  0  0
  6  7  1  0  0  0
  7 26  1  0  0  0
 26 28  1  0  0  0
 28 29  2  0  0  0
 29 30  1  0  0  0
 30 31  2  0  0  0
 31 35  1  0  0  0
 35 36  1  0  0  0
 36 37  1  0  0  0
 37 38  2  0  0  0
 38 39  1  0  0  0
 39 40  2  0  0  0
 40 41  1  0  0  0
 41 42  2  0  0  0
 31 32  1  0  0  0
 32 33  1  0  0  0
 32 34  2  0  0  0
  7  8  2  0  0  0
  8  9  1  0  0  0
  9 10  2  0  0  0
 10 11  1  0  0  0
 11 12  1  0  0  0
 12 13  2  0  0  0
 12 15  1  0  0  0
 15 16  2  0  0  0
 16 17  1  0  0  0
 17 18  1  0  0  0
 18 19  1  0  0  0
 19 20  1  0  0  0
 20 21  1  0  0  0
 21 22  1  0  0  0
 22 23  1  0  0  0
 10  1  1  0  0  0
 23 18  1  0  0  0
  8  3  1  0  0  0
 34 28  1  0  0  0
 42 37  1  0  0  0
 26 27  1  0  0  0
 11 14  1  0  0  0
M  END
> <minimizedAffinity>
-6.63728

> <CNNscore>
0.2327406257

> <CNNaffinity>
7.3590569496

> <CNN_VS>
1.7127515078

> <CNNaffinity_variance>
0.0362365693

$$$$
[H]/C(C(=O)N([H])c1c(OC([H])([H])C([H])([H])[H])c([H])c2nc([H])c(C#N)c(N([H])c3c([H])c([H])c(OC([H])([H])c4c([H])c([H])c([H])c([H])c4[H])c(Cl)c3[H])c2c1[H])=C(/[H])C([H])([H])N1C([H])([H])C([H])([H])OC([H])([H])C1([H])[H]


 45 49  0  0  0  0  0  0  0  0999 V2000
    0.1974  -52.0879  -19.4010 C   0  0  0  0  0  0  0  0  0  0  0  0
   -0.5840  -52.6722  -20.3659 C   0  0  0  0  0  0  0  0  0  0  0  0
   -0.1976  -52.8795  -21.6604 C   0  0  0  0  0  0  0  0  0  0  0  0
   -0.9914  -53.4592  -22.5988 N   0  0  0  0  0  0  0  0  0  0  0  0
   -0.5603  -53.6388  -23.8668 C   0  0  0  0  0  0  0  0  0  0  0  0
    0.6997  -53.2463  -24.2756 C   0  0  0  0  0  0  0  0  0  0  0  0
    1.5028  -52.6534  -23.3047 C   0  0  0  0  0  0  0  0  0  0  0  0
    1.0710  -52.4652  -22.0028 C   0  0  0  0  0  0  0  0  0  0  0  0
    1.9069  -51.8625  -21.0511 C   0  0  0  0  0  0  0  0  0  0  0  0
    1.4904  -51.6686  -19.7596 C   0  0  0  0  0  0  0  0  0  0  0  0
    2.2479  -51.0486  -18.7375 N   0  0  0  0  0  0  0  0  0  0  0  0
    2.2686  -49.6579  -18.5045 C   0  0  0  0  0  0  0  0  0  0  0  0
    1.6301  -48.8039  -19.1752 O   0  0  0  0  0  0  0  0  0  0  0  0
    2.8431  -51.6420  -18.0875 H   0  0  0  0  0  0  0  0  0  0  0  0
    3.0686  -49.0873  -17.4174 C   0  0  0  0  0  0  0  0  0  0  0  0
    2.8983  -47.8932  -16.8921 C   0  0  0  0  0  0  0  0  0  0  0  0
    3.7935  -47.4245  -15.7718 C   0  0  0  0  0  0  0  0  0  0  0  0
    4.3636  -46.1752  -16.1580 N   0  0  0  0  0  0  0  0  0  0  0  0
    5.6626  -46.2040  -16.7062 C   0  0  0  0  0  0  0  0  0  0  0  0
    5.8527  -45.6344  -18.0645 C   0  0  0  0  0  0  0  0  0  0  0  0
    4.7094  -45.0256  -18.5742 O   0  0  0  0  0  0  0  0  0  0  0  0
    4.0584  -44.2696  -17.6020 C   0  0  0  0  0  0  0  0  0  0  0  0
    3.4536  -45.1872  -16.5970 C   0  0  0  0  0  0  0  0  0  0  0  0
    1.1840  -53.4243  -25.6158 C   0  0  0  0  0  0  0  0  0  0  0  0
    1.5868  -53.5556  -26.6918 N   0  0  0  0  0  0  0  0  0  0  0  0
    2.7878  -52.2165  -23.6450 N   0  0  0  0  0  0  0  0  0  0  0  0
    3.5886  -52.8771  -23.4737 H   0  0  0  0  0  0  0  0  0  0  0  0
    2.9967  -50.9250  -24.2032 C   0  0  0  0  0  0  0  0  0  0  0  0
    3.3372  -50.7805  -25.5518 C   0  0  0  0  0  0  0  0  0  0  0  0
    3.5545  -49.5507  -26.1261 C   0  0  0  0  0  0  0  0  0  0  0  0
    3.4403  -48.3936  -25.3699 C   0  0  0  0  0  0  0  0  0  0  0  0
    3.1049  -48.5216  -24.0390 C   0  0  0  0  0  0  0  0  0  0  0  0
    2.9603  -47.0650  -23.0840 Cl  0  0  0  0  0  0  0  0  0  0  0  0
    2.8873  -49.7696  -23.4673 C   0  0  0  0  0  0  0  0  0  0  0  0
    3.6633  -47.1545  -25.9635 O   0  0  0  0  0  0  0  0  0  0  0  0
    4.4504  -47.1030  -27.1235 C   0  0  0  0  0  0  0  0  0  0  0  0
    3.7255  -46.7528  -28.3471 C   0  0  0  0  0  0  0  0  0  0  0  0
    4.1889  -47.1295  -29.5894 C   0  0  0  0  0  0  0  0  0  0  0  0
    3.5312  -46.8089  -30.7473 C   0  0  0  0  0  0  0  0  0  0  0  0
    2.3677  -46.0856  -30.6761 C   0  0  0  0  0  0  0  0  0  0  0  0
    1.8820  -45.6952  -29.4469 C   0  0  0  0  0  0  0  0  0  0  0  0
    2.5554  -46.0266  -28.2905 C   0  0  0  0  0  0  0  0  0  0  0  0
   -0.2064  -51.8881  -18.1055 O   0  0  0  0  0  0  0  0  0  0  0  0
   -1.9895  -51.9712  -16.4367 C   0  0  0  0  0  0  0  0  0  0  0  0
   -1.0276  -52.6855  -17.3251 C   0  0  0  0  0  0  0  0  0  0  0  0
 44 45  1  0  0  0
 45 43  1  0  0  0
 43  1  1  0  0  0
  1  2  2  0  0  0
  2  3  1  0  0  0
  3  4  2  0  0  0
  4  5  1  0  0  0
  5  6  2  0  0  0
  6 24  1  0  0  0
 24 25  3  0  0  0
  6  7  1  0  0  0
  7 26  1  0  0  0
 26 28  1  0  0  0
 28 29  2  0  0  0
 29 30  1  0  0  0
 30 31  2  0  0  0
 31 35  1  0  0  0
 35 36  1  0  0  0
 36 37  1  0  0  0
 37 38  2  0  0  0
 38 39  1  0  0  0
 39 40  2  0  0  0
 40 41  1  0  0  0
 41 42  2  0  0  0
 31 32  1  0  0  0
 32 33  1  0  0  0
 32 34  2  0  0  0
  7  8  2  0  0  0
  8  9  1  0  0  0
  9 10  2  0  0  0
 10 11  1  0  0  0
 11 12  1  0  0  0
 12 13  2  0  0  0
 12 15  1  0  0  0
 15 16  2  0  0  0
 16 17  1  0  0  0
 17 18  1  0  0  0
 18 19  1  0  0  0
 19 20  1  0  0  0
 20 21  1  0  0  0
 21 22  1  0  0  0
 22 23  1  0  0  0
 10  1  1  0  0  0
 23 18  1  0  0  0
  8  3  1  0  0  0
 34 28  1  0  0  0
 42 37  1  0  0  0
 26 27  1  0  0  0
 11 14  1  0  0  0
M  END
> <minimizedAffinity>
-6.94320

> <CNNscore>
0.2034674585

> <CNNaffinity>
7.3342919350

> <CNN_VS>
1.4922897816

> <CNNaffinity_variance>
0.0734616071

$$$$
[H]/C(C(=O)N([H])c1c(OC([H])([H])C([H])([H])[H])c([H])c2nc([H])c(C#N)c(N([H])c3c([H])c([H])c(OC([H])([H])c4c([H])c([H])c([H])c([H])c4[H])c(Cl)c3[H])c2c1[H])=C(/[H])C([H])([H])N1C([H])([H])C([H])([H])OC([H])([H])C1([H])[H]


 45 49  0  0  0  0  0  0  0  0999 V2000
    0.1062  -51.9637  -20.9716 C   0  0  0  0  0  0  0  0  0  0  0  0
   -0.3373  -52.7194  -22.0276 C   0  0  0  0  0  0  0  0  0  0  0  0
    0.3198  -52.8546  -23.2185 C   0  0  0  0  0  0  0  0  0  0  0  0
   -0.1416  -53.6082  -24.2509 N   0  0  0  0  0  0  0  0  0  0  0  0
    0.5474  -53.7062  -25.4091 C   0  0  0  0  0  0  0  0  0  0  0  0
    1.7480  -53.0515  -25.6059 C   0  0  0  0  0  0  0  0  0  0  0  0
    2.2095  -52.2825  -24.5405 C   0  0  0  0  0  0  0  0  0  0  0  0
    1.5114  -52.1758  -23.3496 C   0  0  0  0  0  0  0  0  0  0  0  0
    2.0059  -51.3904  -22.2977 C   0  0  0  0  0  0  0  0  0  0  0  0
    1.3233  -51.2749  -21.1146 C   0  0  0  0  0  0  0  0  0  0  0  0
    1.7256  -50.4889  -20.0086 N   0  0  0  0  0  0  0  0  0  0  0  0
    2.7366  -50.8648  -19.1002 C   0  0  0  0  0  0  0  0  0  0  0  0
    3.3932  -51.9385  -19.1542 O   0  0  0  0  0  0  0  0  0  0  0  0
    1.2588  -49.5514  -19.8293 H   0  0  0  0  0  0  0  0  0  0  0  0
    3.1091  -49.9925  -17.9832 C   0  0  0  0  0  0  0  0  0  0  0  0
    2.2973  -49.5848  -17.0315 C   0  0  0  0  0  0  0  0  0  0  0  0
    2.8093  -48.6854  -15.9337 C   0  0  0  0  0  0  0  0  0  0  0  0
    2.7112  -49.3966  -14.7011 N   0  0  0  0  0  0  0  0  0  0  0  0
    1.5827  -50.2238  -14.5249 C   0  0  0  0  0  0  0  0  0  0  0  0
    1.8176  -51.6636  -14.2461 C   0  0  0  0  0  0  0  0  0  0  0  0
    3.1617  -51.9820  -14.0749 O   0  0  0  0  0  0  0  0  0  0  0  0
    3.8189  -51.0223  -13.3083 C   0  0  0  0  0  0  0  0  0  0  0  0
    3.9351  -49.7652  -14.0983 C   0  0  0  0  0  0  0  0  0  0  0  0
    2.5014  -53.1372  -26.8256 C   0  0  0  0  0  0  0  0  0  0  0  0
    3.1121  -53.1890  -27.8061 N   0  0  0  0  0  0  0  0  0  0  0  0
    3.4117  -51.5781  -24.6680 N   0  0  0  0  0  0  0  0  0  0  0  0
    4.3058  -52.1037  -24.4911 H   0  0  0  0  0  0  0  0  0  0  0  0
    3.4177  -50.2013  -25.0252 C   0  0  0  0  0  0  0  0  0  0  0  0
    3.0975  -49.8036  -26.3271 C   0  0  0  0  0  0  0  0  0  0  0  0
    3.0994  -48.4844  -26.7129 C   0  0  0  0  0  0  0  0  0  0  0  0
    3.4256  -47.4885  -25.8043 C   0  0  0  0  0  0  0  0  0  0  0  0
    3.7431  -47.8664  -24.5172 C   0  0  0  0  0  0  0  0  0  0  0  0
    4.1543  -46.6135  -23.3703 Cl  0  0  0  0  0  0  0  0  0  0  0  0
    3.7385  -49.2032  -24.1367 C   0  0  0  0  0  0  0  0  0  0  0  0
    3.4241  -46.1563  -26.2078 O   0  0  0  0  0  0  0  0  0  0  0  0
    4.2744  -45.7767  -27.2569 C   0  0  0  0  0  0  0  0  0  0  0  0
    3.7224  -45.9686  -28.6000 C   0  0  0  0  0  0  0  0  0  0  0  0
    2.4233  -45.6187  -28.8996 C   0  0  0  0  0  0  0  0  0  0  0  0
    1.8839  -45.7938  -30.1464 C   0  0  0  0  0  0  0  0  0  0  0  0
    2.6592  -46.3377  -31.1389 C   0  0  0  0  0  0  0  0  0  0  0  0
    3.9614  -46.6973  -30.8668 C   0  0  0  0  0  0  0  0  0  0  0  0
    4.4898  -46.5138  -29.6067 C   0  0  0  0  0  0  0  0  0  0  0  0
   -0.5662  -51.8396  -19.7826 O   0  0  0  0  0  0  0  0  0  0  0  0
   -0.5741  -52.0740  -17.3502 C   0  0  0  0  0  0  0  0  0  0  0  0
   -0.5739  -52.7058  -18.7014 C   0  0  0  0  0  0  0  0  0  0  0  0
 44 45  1  0  0  0
 45 43  1  0  0  0
 43  1  1  0  0  0
  1  2  2  0  0  0
  2  3  1  0  0  0
  3  4  2  0  0  0
  4  5  1  0  0  0
  5  6  2  0  0  0
  6 24  1  0  0  0
 24 25  3  0  0  0
  6  7  1  0  0  0
  7 26  1  0  0  0
 26 28  1  0  0  0
 28 29  2  0  0  0
 29 30  1  0  0  0
 30 31  2  0  0  0
 31 35  1  0  0  0
 35 36  1  0  0  0
 36 37  1  0  0  0
 37 38  2  0  0  0
 38 39  1  0  0  0
 39 40  2  0  0  0
 40 41  1  0  0  0
 41 42  2  0  0  0
 31 32  1  0  0  0
 32 33  1  0  0  0
 32 34  2  0  0  0
  7  8  2  0  0  0
  8  9  1  0  0  0
  9 10  2  0  0  0
 10 11  1  0  0  0
 11 12  1  0  0  0
 12 13  2  0  0  0
 12 15  1  0  0  0
 15 16  2  0  0  0
 16 17  1  0  0  0
 17 18  1  0  0  0
 18 19  1  0  0  0
 19 20  1  0  0  0
 20 21  1  0  0  0
 21 22  1  0  0  0
 22 23  1  0  0  0
 10  1  1  0  0  0
 23 18  1  0  0  0
  8  3  1  0  0  0
 34 28  1  0  0  0
 42 37  1  0  0  0
 26 27  1  0  0  0
 11 14  1  0  0  0
M  END
> <minimizedAffinity>
-7.39749

> <CNNscore>
0.2031537592

> <CNNaffinity>
7.2729849815

> <CNN_VS>
1.4775342941

> <CNNaffinity_variance>
0.0645064265

$$$$
[H]/C(C(=O)N([H])c1c(OC([H])([H])C([H])([H])[H])c([H])c2nc([H])c(C#N)c(N([H])c3c([H])c([H])c(OC([H])([H])c4c([H])c([H])c([H])c([H])c4[H])c(Cl)c3[H])c2c1[H])=C(/[H])C([H])([H])N1C([H])([H])C([H])([H])OC([H])([H])C1([H])[H]


 45 49  0  0  0  0  0  0  0  0999 V2000
    0.0729  -52.3226  -21.4659 C   0  0  0  0  0  0  0  0  0  0  0  0
   -0.5742  -52.9121  -22.5226 C   0  0  0  0  0  0  0  0  0  0  0  0
   -0.0200  -53.1259  -23.7536 C   0  0  0  0  0  0  0  0  0  0  0  0
   -0.6830  -53.7107  -24.7857 N   0  0  0  0  0  0  0  0  0  0  0  0
   -0.0880  -53.8967  -25.9846 C   0  0  0  0  0  0  0  0  0  0  0  0
    1.2151  -53.5060  -26.2252 C   0  0  0  0  0  0  0  0  0  0  0  0
    1.8830  -52.9079  -25.1596 C   0  0  0  0  0  0  0  0  0  0  0  0
    1.2828  -52.7131  -23.9272 C   0  0  0  0  0  0  0  0  0  0  0  0
    1.9858  -52.1053  -22.8764 C   0  0  0  0  0  0  0  0  0  0  0  0
    1.4022  -51.9048  -21.6524 C   0  0  0  0  0  0  0  0  0  0  0  0
    2.0181  -51.2794  -20.5423 N   0  0  0  0  0  0  0  0  0  0  0  0
    1.9933  -49.8893  -20.3064 C   0  0  0  0  0  0  0  0  0  0  0  0
    1.4343  -49.0405  -21.0506 O   0  0  0  0  0  0  0  0  0  0  0  0
    2.5338  -51.8680  -19.8236 H   0  0  0  0  0  0  0  0  0  0  0  0
    2.6437  -49.3130  -19.1265 C   0  0  0  0  0  0  0  0  0  0  0  0
    3.8389  -48.7632  -19.1079 C   0  0  0  0  0  0  0  0  0  0  0  0
    4.3947  -48.2037  -17.8217 C   0  0  0  0  0  0  0  0  0  0  0  0
    5.4088  -47.2577  -18.1558 N   0  0  0  0  0  0  0  0  0  0  0  0
    5.7006  -46.2640  -17.1987 C   0  0  0  0  0  0  0  0  0  0  0  0
    7.0986  -46.1674  -16.7066 C   0  0  0  0  0  0  0  0  0  0  0  0
    7.9781  -47.0204  -17.3672 O   0  0  0  0  0  0  0  0  0  0  0  0
    7.7371  -47.0375  -18.7391 C   0  0  0  0  0  0  0  0  0  0  0  0
    6.4428  -47.7276  -18.9968 C   0  0  0  0  0  0  0  0  0  0  0  0
    1.8725  -53.6907  -27.4886 C   0  0  0  0  0  0  0  0  0  0  0  0
    2.4114  -53.8249  -28.5028 N   0  0  0  0  0  0  0  0  0  0  0  0
    3.2019  -52.4724  -25.3292 N   0  0  0  0  0  0  0  0  0  0  0  0
    3.9520  -53.2065  -25.4030 H   0  0  0  0  0  0  0  0  0  0  0  0
    3.5104  -51.0857  -25.3996 C   0  0  0  0  0  0  0  0  0  0  0  0
    2.7388  -50.2252  -26.1869 C   0  0  0  0  0  0  0  0  0  0  0  0
    3.0094  -48.8813  -26.2868 C   0  0  0  0  0  0  0  0  0  0  0  0
    4.0771  -48.3277  -25.5959 C   0  0  0  0  0  0  0  0  0  0  0  0
    4.8459  -49.1645  -24.8157 C   0  0  0  0  0  0  0  0  0  0  0  0
    6.1918  -48.4693  -23.9440 Cl  0  0  0  0  0  0  0  0  0  0  0  0
    4.5645  -50.5223  -24.7212 C   0  0  0  0  0  0  0  0  0  0  0  0
    4.3405  -46.9653  -25.7059 O   0  0  0  0  0  0  0  0  0  0  0  0
    3.4413  -46.0630  -25.1184 C   0  0  0  0  0  0  0  0  0  0  0  0
    3.7545  -45.6892  -23.7374 C   0  0  0  0  0  0  0  0  0  0  0  0
    3.3109  -46.4417  -22.6711 C   0  0  0  0  0  0  0  0  0  0  0  0
    3.5866  -46.1088  -21.3714 C   0  0  0  0  0  0  0  0  0  0  0  0
    4.3310  -44.9857  -21.1133 C   0  0  0  0  0  0  0  0  0  0  0  0
    4.7868  -44.2146  -22.1605 C   0  0  0  0  0  0  0  0  0  0  0  0
    4.5014  -44.5636  -23.4633 C   0  0  0  0  0  0  0  0  0  0  0  0
   -0.4986  -52.1163  -20.2362 O   0  0  0  0  0  0  0  0  0  0  0  0
   -0.7899  -52.5449  -17.8482 C   0  0  0  0  0  0  0  0  0  0  0  0
   -0.7887  -53.0476  -19.2525 C   0  0  0  0  0  0  0  0  0  0  0  0
 44 45  1  0  0  0
 45 43  1  0  0  0
 43  1  1  0  0  0
  1  2  2  0  0  0
  2  3  1  0  0  0
  3  4  2  0  0  0
  4  5  1  0  0  0
  5  6  2  0  0  0
  6 24  1  0  0  0
 24 25  3  0  0  0
  6  7  1  0  0  0
  7 26  1  0  0  0
 26 28  1  0  0  0
 28 29  2  0  0  0
 29 30  1  0  0  0
 30 31  2  0  0  0
 31 35  1  0  0  0
 35 36  1  0  0  0
 36 37  1  0  0  0
 37 38  2  0  0  0
 38 39  1  0  0  0
 39 40  2  0  0  0
 40 41  1  0  0  0
 41 42  2  0  0  0
 31 32  1  0  0  0
 32 33  1  0  0  0
 32 34  2  0  0  0
  7  8  2  0  0  0
  8  9  1  0  0  0
  9 10  2  0  0  0
 10 11  1  0  0  0
 11 12  1  0  0  0
 12 13  2  0  0  0
 12 15  1  0  0  0
 15 16  2  0  0  0
 16 17  1  0  0  0
 17 18  1  0  0  0
 18 19  1  0  0  0
 19 20  1  0  0  0
 20 21  1  0  0  0
 21 22  1  0  0  0
 22 23  1  0  0  0
 10  1  1  0  0  0
 23 18  1  0  0  0
  8  3  1  0  0  0
 34 28  1  0  0  0
 42 37  1  0  0  0
 26 27  1  0  0  0
 11 14  1  0  0  0
M  END
> <minimizedAffinity>
-6.37924

> <CNNscore>
0.1715356112

> <CNNaffinity>
7.2729477882

> <CNN_VS>
1.2475695610

> <CNNaffinity_variance>
0.1155348644

$$$$
[H]/C(C(=O)N([H])c1c(OC([H])([H])C([H])([H])[H])c([H])c2nc([H])c(C#N)c(N([H])c3c([H])c([H])c(OC([H])([H])c4nc([H])c([H])c([H])c4[H])c(Cl)c3[H])c2c1[H])=C(/[H])C([H])([H])N1C([H])([H])C([H])([H])C([H])([H])C1([H])[H]


 44 48  0  0  0  0  0  0  0  0999 V2000
   -0.6182  -53.0224  -19.2704 C   0  0  0  0  0  0  0  0  0  0  0  0
   -1.0927  -53.9825  -20.1260 C   0  0  0  0  0  0  0  0  0  0  0  0
   -0.8893  -53.9514  -21.5046 C   0  0  0  0  0  0  0  0  0  0  0  0
   -1.3618  -54.9031  -22.3271 N   0  0  0  0  0  0  0  0  0  0  0  0
   -1.1538  -54.8572  -23.6667 C   0  0  0  0  0  0  0  0  0  0  0  0
   -0.4448  -53.8269  -24.2476 C   0  0  0  0  0  0  0  0  0  0  0  0
    0.0517  -52.8336  -23.4141 C   0  0  0  0  0  0  0  0  0  0  0  0
   -0.1798  -52.9143  -22.0574 C   0  0  0  0  0  0  0  0  0  0  0  0
    0.3114  -51.9260  -21.2005 C   0  0  0  0  0  0  0  0  0  0  0  0
    0.1109  -51.9563  -19.8381 C   0  0  0  0  0  0  0  0  0  0  0  0
    0.5916  -50.9786  -18.9624 N   0  0  0  0  0  0  0  0  0  0  0  0
    1.8735  -50.8177  -18.4296 C   0  0  0  0  0  0  0  0  0  0  0  0
    2.7916  -51.6259  -18.7275 O   0  0  0  0  0  0  0  0  0  0  0  0
   -0.1119  -50.2252  -18.6352 H   0  0  0  0  0  0  0  0  0  0  0  0
    2.2333  -49.7198  -17.5056 C   0  0  0  0  0  0  0  0  0  0  0  0
    1.4181  -49.1028  -16.7236 C   0  0  0  0  0  0  0  0  0  0  0  0
    1.7131  -48.0026  -15.7821 C   0  0  0  0  0  0  0  0  0  0  0  0
    1.5750  -48.3005  -14.3997 N   0  0  0  0  0  0  0  0  0  0  0  0
    0.8619  -49.5683  -14.3046 C   0  0  0  0  0  0  0  0  0  0  0  0
   -0.2309  -49.4056  -13.3016 C   0  0  0  0  0  0  0  0  0  0  0  0
   -0.5764  -47.9479  -13.4028 C   0  0  0  0  0  0  0  0  0  0  0  0
    0.7182  -47.3174  -13.7632 C   0  0  0  0  0  0  0  0  0  0  0  0
   -0.1924  -53.7230  -25.6535 C   0  0  0  0  0  0  0  0  0  0  0  0
   -0.0056  -53.6282  -26.7895 N   0  0  0  0  0  0  0  0  0  0  0  0
    0.7801  -51.7644  -23.9604 N   0  0  0  0  0  0  0  0  0  0  0  0
    0.2435  -51.0110  -24.4359 H   0  0  0  0  0  0  0  0  0  0  0  0
    2.2043  -51.7416  -23.8503 C   0  0  0  0  0  0  0  0  0  0  0  0
    2.9812  -52.1590  -24.9203 C   0  0  0  0  0  0  0  0  0  0  0  0
    4.3556  -52.1586  -24.8752 C   0  0  0  0  0  0  0  0  0  0  0  0
    4.9830  -51.7286  -23.7279 C   0  0  0  0  0  0  0  0  0  0  0  0
    4.2343  -51.3051  -22.6416 C   0  0  0  0  0  0  0  0  0  0  0  0
    4.9966  -50.7584  -21.1846 Cl  0  0  0  0  0  0  0  0  0  0  0  0
    2.8627  -51.3198  -22.7236 C   0  0  0  0  0  0  0  0  0  0  0  0
    6.3703  -51.7359  -23.7030 O   0  0  0  0  0  0  0  0  0  0  0  0
    7.1282  -50.5965  -23.3678 C   0  0  0  0  0  0  0  0  0  0  0  0
    6.8831  -49.4657  -24.2786 C   0  0  0  0  0  0  0  0  0  0  0  0
    6.1014  -48.3892  -23.8766 C   0  0  0  0  0  0  0  0  0  0  0  0
    5.8846  -47.3385  -24.7457 C   0  0  0  0  0  0  0  0  0  0  0  0
    6.4756  -47.4221  -26.0018 C   0  0  0  0  0  0  0  0  0  0  0  0
    7.2497  -48.4992  -26.3858 C   0  0  0  0  0  0  0  0  0  0  0  0
    7.4410  -49.5080  -25.5122 N   0  0  0  0  0  0  0  0  0  0  0  0
   -0.8152  -53.0456  -17.9069 O   0  0  0  0  0  0  0  0  0  0  0  0
   -1.9448  -51.7243  -16.1856 C   0  0  0  0  0  0  0  0  0  0  0  0
   -2.0167  -52.7932  -17.2309 C   0  0  0  0  0  0  0  0  0  0  0  0
 43 44  1  0  0  0
 44 42  1  0  0  0
 42  1  1  0  0  0
  1  2  2  0  0  0
  2  3  1  0  0  0
  3  4  2  0  0  0
  4  5  1  0  0  0
  5  6  2  0  0  0
  6 23  1  0  0  0
 23 24  3  0  0  0
  6  7  1  0  0  0
  7 25  1  0  0  0
 25 27  1  0  0  0
 27 28  2  0  0  0
 28 29  1  0  0  0
 29 30  2  0  0  0
 30 34  1  0  0  0
 34 35  1  0  0  0
 35 36  1  0  0  0
 36 37  2  0  0  0
 37 38  1  0  0  0
 38 39  2  0  0  0
 39 40  1  0  0  0
 40 41  2  0  0  0
 30 31  1  0  0  0
 31 32  1  0  0  0
 31 33  2  0  0  0
  7  8  2  0  0  0
  8  9  1  0  0  0
  9 10  2  0  0  0
 10 11  1  0  0  0
 11 12  1  0  0  0
 12 13  2  0  0  0
 12 15  1  0  0  0
 15 16  2  0  0  0
 16 17  1  0  0  0
 17 18  1  0  0  0
 18 19  1  0  0  0
 19 20  1  0  0  0
 20 21  1  0  0  0
 21 22  1  0  0  0
 10  1  1  0  0  0
 22 18  1  0  0  0
  8  3  1  0  0  0
 33 27  1  0  0  0
 41 36  1  0  0  0
 25 26  1  0  0  0
 11 14  1  0  0  0
M  END
> <minimizedAffinity>
-7.32114

> <CNNscore>
0.5436248183

> <CNNaffinity>
7.8071074486

> <CNN_VS>
4.2441372871

> <CNNaffinity_variance>
0.0772804022

$$$$
[H]/C(C(=O)N([H])c1c(OC([H])([H])C([H])([H])[H])c([H])c2nc([H])c(C#N)c(N([H])c3c([H])c([H])c(OC([H])([H])c4nc([H])c([H])c([H])c4[H])c(Cl)c3[H])c2c1[H])=C(/[H])C([H])([H])N1C([H])([H])C([H])([H])C([H])([H])C1([H])[H]


 44 48  0  0  0  0  0  0  0  0999 V2000
   -0.6722  -52.9662  -19.3344 C   0  0  0  0  0  0  0  0  0  0  0  0
   -1.1321  -53.9407  -20.1815 C   0  0  0  0  0  0  0  0  0  0  0  0
   -0.9470  -53.9082  -21.5626 C   0  0  0  0  0  0  0  0  0  0  0  0
   -1.4048  -54.8742  -22.3768 N   0  0  0  0  0  0  0  0  0  0  0  0
   -1.2149  -54.8266  -23.7191 C   0  0  0  0  0  0  0  0  0  0  0  0
   -0.5403  -53.7798  -24.3113 C   0  0  0  0  0  0  0  0  0  0  0  0
   -0.0595  -52.7716  -23.4866 C   0  0  0  0  0  0  0  0  0  0  0  0
   -0.2718  -52.8544  -22.1269 C   0  0  0  0  0  0  0  0  0  0  0  0
    0.2042  -51.8513  -21.2787 C   0  0  0  0  0  0  0  0  0  0  0  0
    0.0217  -51.8830  -19.9138 C   0  0  0  0  0  0  0  0  0  0  0  0
    0.4876  -50.8907  -19.0467 N   0  0  0  0  0  0  0  0  0  0  0  0
    1.7621  -50.7170  -18.5002 C   0  0  0  0  0  0  0  0  0  0  0  0
    2.6868  -51.5259  -18.7745 O   0  0  0  0  0  0  0  0  0  0  0  0
   -0.2228  -50.1352  -18.7395 H   0  0  0  0  0  0  0  0  0  0  0  0
    2.1060  -49.6042  -17.5880 C   0  0  0  0  0  0  0  0  0  0  0  0
    1.2799  -48.9829  -16.8211 C   0  0  0  0  0  0  0  0  0  0  0  0
    1.5589  -47.8681  -15.8920 C   0  0  0  0  0  0  0  0  0  0  0  0
    0.9732  -47.9606  -14.6009 N   0  0  0  0  0  0  0  0  0  0  0  0
   -0.3606  -47.3799  -14.6938 C   0  0  0  0  0  0  0  0  0  0  0  0
   -0.5307  -46.4365  -13.5501 C   0  0  0  0  0  0  0  0  0  0  0  0
    0.8679  -45.9570  -13.2889 C   0  0  0  0  0  0  0  0  0  0  0  0
    1.7023  -47.1261  -13.6639 C   0  0  0  0  0  0  0  0  0  0  0  0
   -0.3084  -53.6732  -25.7206 C   0  0  0  0  0  0  0  0  0  0  0  0
   -0.1218  -53.6073  -26.8587 N   0  0  0  0  0  0  0  0  0  0  0  0
    0.6337  -51.6852  -24.0448 N   0  0  0  0  0  0  0  0  0  0  0  0
    0.1217  -51.0863  -24.7234 H   0  0  0  0  0  0  0  0  0  0  0  0
    1.9910  -51.4385  -23.6733 C   0  0  0  0  0  0  0  0  0  0  0  0
    2.3395  -50.2142  -23.1236 C   0  0  0  0  0  0  0  0  0  0  0  0
    3.6279  -49.9182  -22.7451 C   0  0  0  0  0  0  0  0  0  0  0  0
    4.6069  -50.8705  -22.9175 C   0  0  0  0  0  0  0  0  0  0  0  0
    4.2901  -52.1038  -23.4640 C   0  0  0  0  0  0  0  0  0  0  0  0
    5.5014  -53.3218  -23.6926 Cl  0  0  0  0  0  0  0  0  0  0  0  0
    2.9915  -52.3634  -23.8305 C   0  0  0  0  0  0  0  0  0  0  0  0
    5.9003  -50.5521  -22.5290 O   0  0  0  0  0  0  0  0  0  0  0  0
    6.6397  -49.5163  -23.1334 C   0  0  0  0  0  0  0  0  0  0  0  0
    6.8729  -48.3821  -22.2237 C   0  0  0  0  0  0  0  0  0  0  0  0
    7.1346  -48.5975  -20.8758 C   0  0  0  0  0  0  0  0  0  0  0  0
    7.3512  -47.5201  -20.0401 C   0  0  0  0  0  0  0  0  0  0  0  0
    7.2933  -46.2531  -20.6105 C   0  0  0  0  0  0  0  0  0  0  0  0
    7.0319  -46.0562  -21.9521 C   0  0  0  0  0  0  0  0  0  0  0  0
    6.8251  -47.1306  -22.7397 N   0  0  0  0  0  0  0  0  0  0  0  0
   -0.8514  -52.9907  -17.9684 O   0  0  0  0  0  0  0  0  0  0  0  0
   -2.0668  -51.9640  -16.1101 C   0  0  0  0  0  0  0  0  0  0  0  0
   -2.0699  -52.8942  -17.2827 C   0  0  0  0  0  0  0  0  0  0  0  0
 43 44  1  0  0  0
 44 42  1  0  0  0
 42  1  1  0  0  0
  1  2  2  0  0  0
  2  3  1  0  0  0
  3  4  2  0  0  0
  4  5  1  0  0  0
  5  6  2  0  0  0
  6 23  1  0  0  0
 23 24  3  0  0  0
  6  7  1  0  0  0
  7 25  1  0  0  0
 25 27  1  0  0  0
 27 28  2  0  0  0
 28 29  1  0  0  0
 29 30  2  0  0  0
 30 34  1  0  0  0
 34 35  1  0  0  0
 35 36  1  0  0  0
 36 37  2  0  0  0
 37 38  1  0  0  0
 38 39  2  0  0  0
 39 40  1  0  0  0
 40 41  2  0  0  0
 30 31  1  0  0  0
 31 32  1  0  0  0
 31 33  2  0  0  0
  7  8  2  0  0  0
  8  9  1  0  0  0
  9 10  2  0  0  0
 10 11  1  0  0  0
 11 12  1  0  0  0
 12 13  2  0  0  0
 12 15  1  0  0  0
 15 16  2  0  0  0
 16 17  1  0  0  0
 17 18  1  0  0  0
 18 19  1  0  0  0
 19 20  1  0  0  0
 20 21  1  0  0  0
 21 22  1  0  0  0
 10  1  1  0  0  0
 22 18  1  0  0  0
  8  3  1  0  0  0
 33 27  1  0  0  0
 41 36  1  0  0  0
 25 26  1  0  0  0
 11 14  1  0  0  0
M  END
> <minimizedAffinity>
-6.79692

> <CNNscore>
0.5111706853

> <CNNaffinity>
7.6432547569

> <CNN_VS>
3.9070076942

> <CNNaffinity_variance>
0.0874442309

$$$$
[H]/C(C(=O)N([H])c1c(OC([H])([H])C([H])([H])[H])c([H])c2nc([H])c(C#N)c(N([H])c3c([H])c([H])c(OC([H])([H])c4nc([H])c([H])c([H])c4[H])c(Cl)c3[H])c2c1[H])=C(/[H])C([H])([H])N1C([H])([H])C([H])([H])C([H])([H])C1([H])[H]


 44 48  0  0  0  0  0  0  0  0999 V2000
    0.8132  -52.8592  -26.4514 C   0  0  0  0  0  0  0  0  0  0  0  0
    0.1970  -53.9588  -25.9127 C   0  0  0  0  0  0  0  0  0  0  0  0
   -0.3068  -53.9978  -24.6137 C   0  0  0  0  0  0  0  0  0  0  0  0
   -0.9088  -55.0855  -24.1037 N   0  0  0  0  0  0  0  0  0  0  0  0
   -1.3940  -55.1056  -22.8371 C   0  0  0  0  0  0  0  0  0  0  0  0
   -1.2908  -54.0056  -22.0120 C   0  0  0  0  0  0  0  0  0  0  0  0
   -0.6718  -52.8717  -22.5209 C   0  0  0  0  0  0  0  0  0  0  0  0
   -0.1910  -52.8888  -23.8129 C   0  0  0  0  0  0  0  0  0  0  0  0
    0.4345  -51.7585  -24.3451 C   0  0  0  0  0  0  0  0  0  0  0  0
    0.9324  -51.7192  -25.6288 C   0  0  0  0  0  0  0  0  0  0  0  0
    1.5627  -50.6007  -26.1814 N   0  0  0  0  0  0  0  0  0  0  0  0
    2.8968  -50.1959  -26.0845 C   0  0  0  0  0  0  0  0  0  0  0  0
    3.7215  -50.8784  -25.4220 O   0  0  0  0  0  0  0  0  0  0  0  0
    0.9498  -49.9363  -26.7752 H   0  0  0  0  0  0  0  0  0  0  0  0
    3.4203  -48.9739  -26.7336 C   0  0  0  0  0  0  0  0  0  0  0  0
    3.9482  -47.9707  -26.1241 C   0  0  0  0  0  0  0  0  0  0  0  0
    4.4866  -46.7261  -26.7117 C   0  0  0  0  0  0  0  0  0  0  0  0
    4.4250  -45.5646  -25.8959 N   0  0  0  0  0  0  0  0  0  0  0  0
    4.3423  -46.0173  -24.5128 C   0  0  0  0  0  0  0  0  0  0  0  0
    3.2412  -45.2610  -23.8477 C   0  0  0  0  0  0  0  0  0  0  0  0
    2.2922  -44.9726  -24.9751 C   0  0  0  0  0  0  0  0  0  0  0  0
    3.1909  -44.8445  -26.1496 C   0  0  0  0  0  0  0  0  0  0  0  0
   -1.7827  -53.9656  -20.6675 C   0  0  0  0  0  0  0  0  0  0  0  0
   -2.1810  -53.9133  -19.5844 N   0  0  0  0  0  0  0  0  0  0  0  0
   -0.5437  -51.7270  -21.7174 N   0  0  0  0  0  0  0  0  0  0  0  0
   -1.2785  -50.9960  -21.8022 H   0  0  0  0  0  0  0  0  0  0  0  0
    0.5661  -51.6017  -20.8264 C   0  0  0  0  0  0  0  0  0  0  0  0
    0.3394  -51.4292  -19.4694 C   0  0  0  0  0  0  0  0  0  0  0  0
    1.3657  -51.3042  -18.5627 C   0  0  0  0  0  0  0  0  0  0  0  0
    2.6641  -51.3520  -19.0175 C   0  0  0  0  0  0  0  0  0  0  0  0
    2.9231  -51.5235  -20.3678 C   0  0  0  0  0  0  0  0  0  0  0  0
    4.5472  -51.5875  -20.9690 Cl  0  0  0  0  0  0  0  0  0  0  0  0
    1.8717  -51.6446  -21.2441 C   0  0  0  0  0  0  0  0  0  0  0  0
    3.6849  -51.2240  -18.0865 O   0  0  0  0  0  0  0  0  0  0  0  0
    3.7017  -50.2031  -17.1158 C   0  0  0  0  0  0  0  0  0  0  0  0
    3.6884  -50.7294  -15.7405 C   0  0  0  0  0  0  0  0  0  0  0  0
    3.2832  -49.9282  -14.6796 C   0  0  0  0  0  0  0  0  0  0  0  0
    3.2773  -50.4414  -13.3979 C   0  0  0  0  0  0  0  0  0  0  0  0
    3.6870  -51.7611  -13.2411 C   0  0  0  0  0  0  0  0  0  0  0  0
    4.0869  -52.5438  -14.3061 C   0  0  0  0  0  0  0  0  0  0  0  0
    4.0804  -52.0110  -15.5445 N   0  0  0  0  0  0  0  0  0  0  0  0
    1.3142  -52.8127  -27.7342 O   0  0  0  0  0  0  0  0  0  0  0  0
   -0.6118  -52.5952  -29.2267 C   0  0  0  0  0  0  0  0  0  0  0  0
    0.6811  -53.2732  -28.8967 C   0  0  0  0  0  0  0  0  0  0  0  0
 43 44  1  0  0  0
 44 42  1  0  0  0
 42  1  1  0  0  0
  1  2  2  0  0  0
  2  3  1  0  0  0
  3  4  2  0  0  0
  4  5  1  0  0  0
  5  6  2  0  0  0
  6 23  1  0  0  0
 23 24  3  0  0  0
  6  7  1  0  0  0
  7 25  1  0  0  0
 25 27  1  0  0  0
 27 28  2  0  0  0
 28 29  1  0  0  0
 29 30  2  0  0  0
 30 34  1  0  0  0
 34 35  1  0  0  0
 35 36  1  0  0  0
 36 37  2  0  0  0
 37 38  1  0  0  0
 38 39  2  0  0  0
 39 40  1  0  0  0
 40 41  2  0  0  0
 30 31  1  0  0  0
 31 32  1  0  0  0
 31 33  2  0  0  0
  7  8  2  0  0  0
  8  9  1  0  0  0
  9 10  2  0  0  0
 10 11  1  0  0  0
 11 12  1  0  0  0
 12 13  2  0  0  0
 12 15  1  0  0  0
 15 16  2  0  0  0
 16 17  1  0  0  0
 17 18  1  0  0  0
 18 19  1  0  0  0
 19 20  1  0  0  0
 20 21  1  0  0  0
 21 22  1  0  0  0
 10  1  1  0  0  0
 22 18  1  0  0  0
  8  3  1  0  0  0
 33 27  1  0  0  0
 41 36  1  0  0  0
 25 26  1  0  0  0
 11 14  1  0  0  0
M  END
> <minimizedAffinity>
-8.14972

> <CNNscore>
0.4713023305

> <CNNaffinity>
7.7140779495

> <CNN_VS>
3.6356630325

> <CNNaffinity_variance>
0.1144801155

$$$$
[H]/C(C(=O)N([H])c1c(OC([H])([H])C([H])([H])[H])c([H])c2nc([H])c(C#N)c(N([H])c3c([H])c([H])c(OC([H])([H])c4nc([H])c([H])c([H])c4[H])c(Cl)c3[H])c2c1[H])=C(/[H])C([H])([H])N1C([H])([H])C([H])([H])C([H])([H])C1([H])[H]


 44 48  0  0  0  0  0  0  0  0999 V2000
    0.9062  -52.8498  -26.4892 C   0  0  0  0  0  0  0  0  0  0  0  0
    0.2882  -53.9478  -25.9495 C   0  0  0  0  0  0  0  0  0  0  0  0
   -0.2245  -53.9815  -24.6537 C   0  0  0  0  0  0  0  0  0  0  0  0
   -0.8282  -55.0677  -24.1427 N   0  0  0  0  0  0  0  0  0  0  0  0
   -1.3221  -55.0826  -22.8794 C   0  0  0  0  0  0  0  0  0  0  0  0
   -1.2263  -53.9784  -22.0588 C   0  0  0  0  0  0  0  0  0  0  0  0
   -0.6057  -52.8459  -22.5689 C   0  0  0  0  0  0  0  0  0  0  0  0
   -0.1160  -52.8684  -23.8575 C   0  0  0  0  0  0  0  0  0  0  0  0
    0.5113  -51.7396  -24.3908 C   0  0  0  0  0  0  0  0  0  0  0  0
    1.0180  -51.7057  -25.6713 C   0  0  0  0  0  0  0  0  0  0  0  0
    1.6502  -50.5887  -26.2249 N   0  0  0  0  0  0  0  0  0  0  0  0
    2.8980  -50.0358  -25.9243 C   0  0  0  0  0  0  0  0  0  0  0  0
    3.6262  -50.5546  -25.0381 O   0  0  0  0  0  0  0  0  0  0  0  0
    1.1162  -50.0581  -27.0014 H   0  0  0  0  0  0  0  0  0  0  0  0
    3.4368  -48.8379  -26.6049 C   0  0  0  0  0  0  0  0  0  0  0  0
    3.9046  -48.8055  -27.8036 C   0  0  0  0  0  0  0  0  0  0  0  0
    4.4557  -47.6471  -28.5372 C   0  0  0  0  0  0  0  0  0  0  0  0
    3.7672  -47.2625  -29.7190 N   0  0  0  0  0  0  0  0  0  0  0  0
    4.7773  -46.8688  -30.6935 C   0  0  0  0  0  0  0  0  0  0  0  0
    4.3595  -45.5643  -31.2855 C   0  0  0  0  0  0  0  0  0  0  0  0
    3.5818  -44.9166  -30.1763 C   0  0  0  0  0  0  0  0  0  0  0  0
    2.9764  -46.0720  -29.4678 C   0  0  0  0  0  0  0  0  0  0  0  0
   -1.7275  -53.9328  -20.7180 C   0  0  0  0  0  0  0  0  0  0  0  0
   -2.1310  -53.8759  -19.6371 N   0  0  0  0  0  0  0  0  0  0  0  0
   -0.4850  -51.6972  -21.7700 N   0  0  0  0  0  0  0  0  0  0  0  0
   -1.2147  -50.9632  -21.8708 H   0  0  0  0  0  0  0  0  0  0  0  0
    0.6109  -51.5720  -20.8621 C   0  0  0  0  0  0  0  0  0  0  0  0
    0.3635  -51.4085  -19.5076 C   0  0  0  0  0  0  0  0  0  0  0  0
    1.3757  -51.2840  -18.5851 C   0  0  0  0  0  0  0  0  0  0  0  0
    2.6809  -51.3231  -19.0209 C   0  0  0  0  0  0  0  0  0  0  0  0
    2.9606  -51.4856  -20.3683 C   0  0  0  0  0  0  0  0  0  0  0  0
    4.5936  -51.5387  -20.9457 Cl  0  0  0  0  0  0  0  0  0  0  0  0
    1.9228  -51.6065  -21.2607 C   0  0  0  0  0  0  0  0  0  0  0  0
    3.6873  -51.1959  -18.0742 O   0  0  0  0  0  0  0  0  0  0  0  0
    3.6581  -50.2138  -17.0646 C   0  0  0  0  0  0  0  0  0  0  0  0
    3.6201  -50.7940  -15.7116 C   0  0  0  0  0  0  0  0  0  0  0  0
    3.0636  -50.0860  -14.6530 C   0  0  0  0  0  0  0  0  0  0  0  0
    3.0371  -50.6485  -13.3924 C   0  0  0  0  0  0  0  0  0  0  0  0
    3.5821  -51.9205  -13.2537 C   0  0  0  0  0  0  0  0  0  0  0  0
    4.1315  -52.6105  -14.3162 C   0  0  0  0  0  0  0  0  0  0  0  0
    4.1408  -52.0316  -15.5337 N   0  0  0  0  0  0  0  0  0  0  0  0
    1.4159  -52.8086  -27.7687 O   0  0  0  0  0  0  0  0  0  0  0  0
   -0.4981  -52.6431  -29.2831 C   0  0  0  0  0  0  0  0  0  0  0  0
    0.8014  -53.2964  -28.9300 C   0  0  0  0  0  0  0  0  0  0  0  0
 43 44  1  0  0  0
 44 42  1  0  0  0
 42  1  1  0  0  0
  1  2  2  0  0  0
  2  3  1  0  0  0
  3  4  2  0  0  0
  4  5  1  0  0  0
  5  6  2  0  0  0
  6 23  1  0  0  0
 23 24  3  0  0  0
  6  7  1  0  0  0
  7 25  1  0  0  0
 25 27  1  0  0  0
 27 28  2  0  0  0
 28 29  1  0  0  0
 29 30  2  0  0  0
 30 34  1  0  0  0
 34 35  1  0  0  0
 35 36  1  0  0  0
 36 37  2  0  0  0
 37 38  1  0  0  0
 38 39  2  0  0  0
 39 40  1  0  0  0
 40 41  2  0  0  0
 30 31  1  0  0  0
 31 32  1  0  0  0
 31 33  2  0  0  0
  7  8  2  0  0  0
  8  9  1  0  0  0
  9 10  2  0  0  0
 10 11  1  0  0  0
 11 12  1  0  0  0
 12 13  2  0  0  0
 12 15  1  0  0  0
 15 16  2  0  0  0
 16 17  1  0  0  0
 17 18  1  0  0  0
 18 19  1  0  0  0
 19 20  1  0  0  0
 20 21  1  0  0  0
 21 22  1  0  0  0
 10  1  1  0  0  0
 22 18  1  0  0  0
  8  3  1  0  0  0
 33 27  1  0  0  0
 41 36  1  0  0  0
 25 26  1  0  0  0
 11 14  1  0  0  0
M  END
> <minimizedAffinity>
-8.31248

> <CNNscore>
0.4509728849

> <CNNaffinity>
7.6573114395

> <CNN_VS>
3.4532399178

> <CNNaffinity_variance>
0.0875461623

$$$$
[H]/C(C(=O)N([H])c1c(OC([H])([H])C([H])([H])[H])c([H])c2nc([H])c(C#N)c(N([H])c3c([H])c([H])c(OC([H])([H])c4nc([H])c([H])c([H])c4[H])c(Cl)c3[H])c2c1[H])=C(/[H])C([H])([H])N1C([H])([H])C([H])([H])C([H])([H])C1([H])[H]


 44 48  0  0  0  0  0  0  0  0999 V2000
   -0.3437  -52.7619  -19.3347 C   0  0  0  0  0  0  0  0  0  0  0  0
   -0.7245  -53.8331  -20.1004 C   0  0  0  0  0  0  0  0  0  0  0  0
   -0.7049  -53.8270  -21.4941 C   0  0  0  0  0  0  0  0  0  0  0  0
   -1.0814  -54.8881  -22.2274 N   0  0  0  0  0  0  0  0  0  0  0  0
   -1.0553  -54.8648  -23.5835 C   0  0  0  0  0  0  0  0  0  0  0  0
   -0.6393  -53.7458  -24.2737 C   0  0  0  0  0  0  0  0  0  0  0  0
   -0.2463  -52.6388  -23.5334 C   0  0  0  0  0  0  0  0  0  0  0  0
   -0.2863  -52.6999  -22.1567 C   0  0  0  0  0  0  0  0  0  0  0  0
    0.1055  -51.5978  -21.3925 C   0  0  0  0  0  0  0  0  0  0  0  0
    0.0865  -51.6033  -20.0152 C   0  0  0  0  0  0  0  0  0  0  0  0
    0.4725  -50.5126  -19.2308 N   0  0  0  0  0  0  0  0  0  0  0  0
    1.7260  -50.2045  -18.6952 C   0  0  0  0  0  0  0  0  0  0  0  0
    2.7083  -50.9652  -18.8982 O   0  0  0  0  0  0  0  0  0  0  0  0
   -0.2926  -49.7872  -18.9898 H   0  0  0  0  0  0  0  0  0  0  0  0
    1.9813  -48.9992  -17.8763 C   0  0  0  0  0  0  0  0  0  0  0  0
    3.1296  -48.4458  -17.6974 C   0  0  0  0  0  0  0  0  0  0  0  0
    3.4498  -47.2471  -16.8945 C   0  0  0  0  0  0  0  0  0  0  0  0
    4.4759  -47.3938  -15.9227 N   0  0  0  0  0  0  0  0  0  0  0  0
    3.9039  -48.1349  -14.8054 C   0  0  0  0  0  0  0  0  0  0  0  0
    4.2656  -47.4190  -13.5471 C   0  0  0  0  0  0  0  0  0  0  0  0
    4.3718  -45.9866  -13.9847 C   0  0  0  0  0  0  0  0  0  0  0  0
    4.8427  -46.0955  -15.3882 C   0  0  0  0  0  0  0  0  0  0  0  0
   -0.5897  -53.6601  -25.7025 C   0  0  0  0  0  0  0  0  0  0  0  0
   -0.5434  -53.6102  -26.8556 N   0  0  0  0  0  0  0  0  0  0  0  0
    0.1852  -51.4763  -24.1929 N   0  0  0  0  0  0  0  0  0  0  0  0
   -0.5446  -50.8474  -24.5846 H   0  0  0  0  0  0  0  0  0  0  0  0
    1.5817  -51.1963  -24.3044 C   0  0  0  0  0  0  0  0  0  0  0  0
    2.0170  -50.2246  -25.1927 C   0  0  0  0  0  0  0  0  0  0  0  0
    3.3469  -49.9093  -25.3435 C   0  0  0  0  0  0  0  0  0  0  0  0
    4.2796  -50.5816  -24.5864 C   0  0  0  0  0  0  0  0  0  0  0  0
    3.8760  -51.5579  -23.6899 C   0  0  0  0  0  0  0  0  0  0  0  0
    5.0274  -52.4201  -22.7236 Cl  0  0  0  0  0  0  0  0  0  0  0  0
    2.5381  -51.8458  -23.5665 C   0  0  0  0  0  0  0  0  0  0  0  0
    5.6161  -50.2484  -24.7537 O   0  0  0  0  0  0  0  0  0  0  0  0
    6.0273  -49.0213  -25.3104 C   0  0  0  0  0  0  0  0  0  0  0  0
    6.2607  -47.9864  -24.2891 C   0  0  0  0  0  0  0  0  0  0  0  0
    6.9681  -48.2822  -23.1300 C   0  0  0  0  0  0  0  0  0  0  0  0
    7.1766  -47.2970  -22.1854 C   0  0  0  0  0  0  0  0  0  0  0  0
    6.6537  -46.0372  -22.4566 C   0  0  0  0  0  0  0  0  0  0  0  0
    5.9528  -45.7598  -23.6136 C   0  0  0  0  0  0  0  0  0  0  0  0
    5.7676  -46.7451  -24.5149 N   0  0  0  0  0  0  0  0  0  0  0  0
   -0.3605  -52.7596  -17.9569 O   0  0  0  0  0  0  0  0  0  0  0  0
   -0.9435  -51.3597  -16.0373 C   0  0  0  0  0  0  0  0  0  0  0  0
   -1.3870  -52.2771  -17.1337 C   0  0  0  0  0  0  0  0  0  0  0  0
 43 44  1  0  0  0
 44 42  1  0  0  0
 42  1  1  0  0  0
  1  2  2  0  0  0
  2  3  1  0  0  0
  3  4  2  0  0  0
  4  5  1  0  0  0
  5  6  2  0  0  0
  6 23  1  0  0  0
 23 24  3  0  0  0
  6  7  1  0  0  0
  7 25  1  0  0  0
 25 27  1  0  0  0
 27 28  2  0  0  0
 28 29  1  0  0  0
 29 30  2  0  0  0
 30 34  1  0  0  0
 34 35  1  0  0  0
 35 36  1  0  0  0
 36 37  2  0  0  0
 37 38  1  0  0  0
 38 39  2  0  0  0
 39 40  1  0  0  0
 40 41  2  0  0  0
 30 31  1  0  0  0
 31 32  1  0  0  0
 31 33  2  0  0  0
  7  8  2  0  0  0
  8  9  1  0  0  0
  9 10  2  0  0  0
 10 11  1  0  0  0
 11 12  1  0  0  0
 12 13  2  0  0  0
 12 15  1  0  0  0
 15 16  2  0  0  0
 16 17  1  0  0  0
 17 18  1  0  0  0
 18 19  1  0  0  0
 19 20  1  0  0  0
 20 21  1  0  0  0
 21 22  1  0  0  0
 10  1  1  0  0  0
 22 18  1  0  0  0
  8  3  1  0  0  0
 33 27  1  0  0  0
 41 36  1  0  0  0
 25 26  1  0  0  0
 11 14  1  0  0  0
M  END
> <minimizedAffinity>
-6.50979

> <CNNscore>
0.3485892415

> <CNNaffinity>
7.5311074257

> <CNN_VS>
2.6252629757

> <CNNaffinity_variance>
0.0696880370

$$$$
[H]/C(C(=O)N([H])c1c(OC([H])([H])C([H])([H])[H])c([H])c2nc([H])c(C#N)c(N([H])c3c([H])c([H])c(OC([H])([H])c4nc([H])c([H])c([H])c4[H])c(Cl)c3[H])c2c1[H])=C(/[H])C([H])([H])N1C([H])([H])C([H])([H])C([H])([H])C1([H])[H]


 44 48  0  0  0  0  0  0  0  0999 V2000
   -0.5706  -52.8644  -19.4192 C   0  0  0  0  0  0  0  0  0  0  0  0
   -0.9520  -53.9301  -20.1922 C   0  0  0  0  0  0  0  0  0  0  0  0
   -0.8497  -53.9467  -21.5822 C   0  0  0  0  0  0  0  0  0  0  0  0
   -1.2283  -55.0021  -22.3228 N   0  0  0  0  0  0  0  0  0  0  0  0
   -1.1210  -55.0011  -23.6751 C   0  0  0  0  0  0  0  0  0  0  0  0
   -0.6163  -53.9120  -24.3538 C   0  0  0  0  0  0  0  0  0  0  0  0
   -0.2196  -52.8115  -23.6059 C   0  0  0  0  0  0  0  0  0  0  0  0
   -0.3437  -52.8492  -22.2334 C   0  0  0  0  0  0  0  0  0  0  0  0
    0.0501  -51.7531  -21.4616 C   0  0  0  0  0  0  0  0  0  0  0  0
   -0.0506  -51.7361  -20.0880 C   0  0  0  0  0  0  0  0  0  0  0  0
    0.3358  -50.6509  -19.2962 N   0  0  0  0  0  0  0  0  0  0  0  0
    1.6134  -50.2663  -18.8805 C   0  0  0  0  0  0  0  0  0  0  0  0
    2.6219  -50.9380  -19.2220 O   0  0  0  0  0  0  0  0  0  0  0  0
   -0.4506  -49.9987  -18.9414 H   0  0  0  0  0  0  0  0  0  0  0  0
    1.8654  -49.0786  -18.0352 C   0  0  0  0  0  0  0  0  0  0  0  0
    2.9667  -48.4141  -17.9880 C   0  0  0  0  0  0  0  0  0  0  0  0
    3.2808  -47.2254  -17.1682 C   0  0  0  0  0  0  0  0  0  0  0  0
    3.4530  -46.0020  -17.8699 N   0  0  0  0  0  0  0  0  0  0  0  0
    3.5076  -46.3275  -19.2897 C   0  0  0  0  0  0  0  0  0  0  0  0
    4.6777  -45.6132  -19.8792 C   0  0  0  0  0  0  0  0  0  0  0  0
    5.6383  -45.5189  -18.7291 C   0  0  0  0  0  0  0  0  0  0  0  0
    4.7440  -45.4225  -17.5482 C   0  0  0  0  0  0  0  0  0  0  0  0
   -0.4786  -53.8510  -25.7780 C   0  0  0  0  0  0  0  0  0  0  0  0
   -0.3858  -53.7936  -26.9280 N   0  0  0  0  0  0  0  0  0  0  0  0
    0.3006  -51.6791  -24.2535 N   0  0  0  0  0  0  0  0  0  0  0  0
   -0.3512  -51.1188  -24.8390 H   0  0  0  0  0  0  0  0  0  0  0  0
    1.6782  -51.3360  -24.0936 C   0  0  0  0  0  0  0  0  0  0  0  0
    2.6266  -51.8984  -24.9344 C   0  0  0  0  0  0  0  0  0  0  0  0
    3.9663  -51.6064  -24.8309 C   0  0  0  0  0  0  0  0  0  0  0  0
    4.3814  -50.7246  -23.8587 C   0  0  0  0  0  0  0  0  0  0  0  0
    3.4577  -50.1458  -23.0033 C   0  0  0  0  0  0  0  0  0  0  0  0
    3.9510  -49.0324  -21.7705 Cl  0  0  0  0  0  0  0  0  0  0  0  0
    2.1272  -50.4619  -23.1369 C   0  0  0  0  0  0  0  0  0  0  0  0
    5.7373  -50.4433  -23.7712 O   0  0  0  0  0  0  0  0  0  0  0  0
    6.2431  -49.1292  -23.8173 C   0  0  0  0  0  0  0  0  0  0  0  0
    5.9997  -48.4743  -25.1136 C   0  0  0  0  0  0  0  0  0  0  0  0
    4.9163  -47.6204  -25.2831 C   0  0  0  0  0  0  0  0  0  0  0  0
    4.7065  -47.0157  -26.5064 C   0  0  0  0  0  0  0  0  0  0  0  0
    5.6136  -47.3039  -27.5204 C   0  0  0  0  0  0  0  0  0  0  0  0
    6.6853  -48.1549  -27.3354 C   0  0  0  0  0  0  0  0  0  0  0  0
    6.8605  -48.7285  -26.1280 N   0  0  0  0  0  0  0  0  0  0  0  0
   -0.6688  -52.8398  -18.0450 O   0  0  0  0  0  0  0  0  0  0  0  0
   -1.9063  -51.7690  -16.2268 C   0  0  0  0  0  0  0  0  0  0  0  0
   -1.8500  -52.8199  -17.2911 C   0  0  0  0  0  0  0  0  0  0  0  0
 43 44  1  0  0  0
 44 42  1  0  0  0
 42  1  1  0  0  0
  1  2  2  0  0  0
  2  3  1  0  0  0
  3  4  2  0  0  0
  4  5  1  0  0  0
  5  6  2  0  0  0
  6 23  1  0  0  0
 23 24  3  0  0  0
  6  7  1  0  0  0
  7 25  1  0  0  0
 25 27  1  0  0  0
 27 28  2  0  0  0
 28 29  1  0  0  0
 29 30  2  0  0  0
 30 34  1  0  0  0
 34 35  1  0  0  0
 35 36  1  0  0  0
 36 37  2  0  0  0
 37 38  1  0  0  0
 38 39  2  0  0  0
 39 40  1  0  0  0
 40 41  2  0  0  0
 30 31  1  0  0  0
 31 32  1  0  0  0
 31 33  2  0  0  0
  7  8  2  0  0  0
  8  9  1  0  0  0
  9 10  2  0  0  0
 10 11  1  0  0  0
 11 12  1  0  0  0
 12 13  2  0  0  0
 12 15  1  0  0  0
 15 16  2  0  0  0
 16 17  1  0  0  0
 17 18  1  0  0  0
 18 19  1  0  0  0
 19 20  1  0  0  0
 20 21  1  0  0  0
 21 22  1  0  0  0
 10  1  1  0  0  0
 22 18  1  0  0  0
  8  3  1  0  0  0
 33 27  1  0  0  0
 41 36  1  0  0  0
 25 26  1  0  0  0
 11 14  1  0  0  0
M  END
> <minimizedAffinity>
-6.99819

> <CNNscore>
0.3479261100

> <CNNaffinity>
7.6333608627

> <CNN_VS>
2.6558456421

> <CNNaffinity_variance>
0.1219951063

$$$$
[H]/C(C(=O)N([H])c1c(OC([H])([H])C([H])([H])[H])c([H])c2nc([H])c(C#N)c(N([H])c3c([H])c([H])c(OC([H])([H])c4nc([H])c([H])c([H])c4[H])c(Cl)c3[H])c2c1[H])=C(/[H])C([H])([H])N1C([H])([H])C([H])([H])C([H])([H])C1([H])[H]


 44 48  0  0  0  0  0  0  0  0999 V2000
   -0.5149  -52.9062  -19.6249 C   0  0  0  0  0  0  0  0  0  0  0  0
   -0.8971  -53.9878  -20.3752 C   0  0  0  0  0  0  0  0  0  0  0  0
   -0.8053  -54.0296  -21.7654 C   0  0  0  0  0  0  0  0  0  0  0  0
   -1.1845  -55.1002  -22.4835 N   0  0  0  0  0  0  0  0  0  0  0  0
   -1.0876  -55.1237  -23.8363 C   0  0  0  0  0  0  0  0  0  0  0  0
   -0.5933  -54.0450  -24.5388 C   0  0  0  0  0  0  0  0  0  0  0  0
   -0.1961  -52.9290  -23.8144 C   0  0  0  0  0  0  0  0  0  0  0  0
   -0.3095  -52.9419  -22.4405 C   0  0  0  0  0  0  0  0  0  0  0  0
    0.0849  -51.8300  -21.6921 C   0  0  0  0  0  0  0  0  0  0  0  0
   -0.0053  -51.7882  -20.3183 C   0  0  0  0  0  0  0  0  0  0  0  0
    0.3818  -50.6867  -19.5496 N   0  0  0  0  0  0  0  0  0  0  0  0
    1.5759  -50.4625  -18.8591 C   0  0  0  0  0  0  0  0  0  0  0  0
    2.4920  -51.3258  -18.8768 O   0  0  0  0  0  0  0  0  0  0  0  0
   -0.3291  -49.8765  -19.4615 H   0  0  0  0  0  0  0  0  0  0  0  0
    1.8416  -49.2323  -18.0815 C   0  0  0  0  0  0  0  0  0  0  0  0
    2.2579  -49.1920  -16.8642 C   0  0  0  0  0  0  0  0  0  0  0  0
    2.5402  -48.0017  -16.0352 C   0  0  0  0  0  0  0  0  0  0  0  0
    1.8428  -47.9123  -14.8006 N   0  0  0  0  0  0  0  0  0  0  0  0
    1.4566  -49.2678  -14.4284 C   0  0  0  0  0  0  0  0  0  0  0  0
    0.0167  -49.2434  -14.0376 C   0  0  0  0  0  0  0  0  0  0  0  0
   -0.5446  -48.1211  -14.8622 C   0  0  0  0  0  0  0  0  0  0  0  0
    0.6007  -47.1846  -14.9835 C   0  0  0  0  0  0  0  0  0  0  0  0
   -0.4667  -54.0096  -25.9650 C   0  0  0  0  0  0  0  0  0  0  0  0
   -0.3543  -53.9637  -27.1138 N   0  0  0  0  0  0  0  0  0  0  0  0
    0.3137  -51.8063  -24.4868 N   0  0  0  0  0  0  0  0  0  0  0  0
   -0.3600  -51.2160  -25.0152 H   0  0  0  0  0  0  0  0  0  0  0  0
    1.7106  -51.5129  -24.4273 C   0  0  0  0  0  0  0  0  0  0  0  0
    2.6296  -52.5513  -24.4265 C   0  0  0  0  0  0  0  0  0  0  0  0
    3.9861  -52.3325  -24.3724 C   0  0  0  0  0  0  0  0  0  0  0  0
    4.4489  -51.0372  -24.3172 C   0  0  0  0  0  0  0  0  0  0  0  0
    3.5556  -49.9780  -24.3167 C   0  0  0  0  0  0  0  0  0  0  0  0
    4.1092  -48.3373  -24.2482 Cl  0  0  0  0  0  0  0  0  0  0  0  0
    2.2070  -50.2356  -24.3716 C   0  0  0  0  0  0  0  0  0  0  0  0
    5.8210  -50.8381  -24.2633 O   0  0  0  0  0  0  0  0  0  0  0  0
    6.5751  -51.0696  -23.0960 C   0  0  0  0  0  0  0  0  0  0  0  0
    6.2946  -50.0860  -22.0367 C   0  0  0  0  0  0  0  0  0  0  0  0
    5.4432  -50.4018  -20.9845 C   0  0  0  0  0  0  0  0  0  0  0  0
    5.1943  -49.4654  -20.0010 C   0  0  0  0  0  0  0  0  0  0  0  0
    5.8254  -48.2323  -20.1248 C   0  0  0  0  0  0  0  0  0  0  0  0
    6.6686  -47.9343  -21.1769 C   0  0  0  0  0  0  0  0  0  0  0  0
    6.8897  -48.8721  -22.1199 N   0  0  0  0  0  0  0  0  0  0  0  0
   -0.6027  -52.8568  -18.2507 O   0  0  0  0  0  0  0  0  0  0  0  0
   -1.8103  -51.8620  -16.3702 C   0  0  0  0  0  0  0  0  0  0  0  0
   -1.7779  -52.8579  -17.4871 C   0  0  0  0  0  0  0  0  0  0  0  0
 43 44  1  0  0  0
 44 42  1  0  0  0
 42  1  1  0  0  0
  1  2  2  0  0  0
  2  3  1  0  0  0
  3  4  2  0  0  0
  4  5  1  0  0  0
  5  6  2  0  0  0
  6 23  1  0  0  0
 23 24  3  0  0  0
  6  7  1  0  0  0
  7 25  1  0  0  0
 25 27  1  0  0  0
 27 28  2  0  0  0
 28 29  1  0  0  0
 29 30  2  0  0  0
 30 34  1  0  0  0
 34 35  1  0  0  0
 35 36  1  0  0  0
 36 37  2  0  0  0
 37 38  1  0  0  0
 38 39  2  0  0  0
 39 40  1  0  0  0
 40 41  2  0  0  0
 30 31  1  0  0  0
 31 32  1  0  0  0
 31 33  2  0  0  0
  7  8  2  0  0  0
  8  9  1  0  0  0
  9 10  2  0  0  0
 10 11  1  0  0  0
 11 12  1  0  0  0
 12 13  2  0  0  0
 12 15  1  0  0  0
 15 16  2  0  0  0
 16 17  1  0  0  0
 17 18  1  0  0  0
 18 19  1  0  0  0
 19 20  1  0  0  0
 20 21  1  0  0  0
 21 22  1  0  0  0
 10  1  1  0  0  0
 22 18  1  0  0  0
  8  3  1  0  0  0
 33 27  1  0  0  0
 41 36  1  0  0  0
 25 26  1  0  0  0
 11 14  1  0  0  0
M  END
> <minimizedAffinity>
-7.41302

> <CNNscore>
0.3401659429

> <CNNaffinity>
7.5352416039

> <CNN_VS>
2.5632326603

> <CNNaffinity_variance>
0.2185607404

$$$$
[H]/C(C(=O)N([H])c1c(OC([H])([H])C([H])([H])[H])c([H])c2nc([H])c(C#N)c(N([H])c3c([H])c([H])c(OC([H])([H])c4nc([H])c([H])c([H])c4[H])c(Cl)c3[H])c2c1[H])=C(/[H])C([H])([H])N1C([H])([H])C([H])([H])C([H])([H])C1([H])[H]


 44 48  0  0  0  0  0  0  0  0999 V2000
   -0.4351  -52.9112  -19.4929 C   0  0  0  0  0  0  0  0  0  0  0  0
   -0.8317  -53.9760  -20.2597 C   0  0  0  0  0  0  0  0  0  0  0  0
   -0.7597  -53.9896  -21.6516 C   0  0  0  0  0  0  0  0  0  0  0  0
   -1.1528  -55.0440  -22.3859 N   0  0  0  0  0  0  0  0  0  0  0  0
   -1.0750  -55.0402  -23.7402 C   0  0  0  0  0  0  0  0  0  0  0  0
   -0.5867  -53.9489  -24.4275 C   0  0  0  0  0  0  0  0  0  0  0  0
   -0.1754  -52.8493  -23.6861 C   0  0  0  0  0  0  0  0  0  0  0  0
   -0.2696  -52.8900  -22.3113 C   0  0  0  0  0  0  0  0  0  0  0  0
    0.1394  -51.7948  -21.5461 C   0  0  0  0  0  0  0  0  0  0  0  0
    0.0686  -51.7809  -20.1705 C   0  0  0  0  0  0  0  0  0  0  0  0
    0.4705  -50.6967  -19.3851 N   0  0  0  0  0  0  0  0  0  0  0  0
    1.7584  -50.2916  -19.0244 C   0  0  0  0  0  0  0  0  0  0  0  0
    2.7626  -50.9398  -19.4197 O   0  0  0  0  0  0  0  0  0  0  0  0
   -0.3109  -50.0637  -18.9870 H   0  0  0  0  0  0  0  0  0  0  0  0
    2.0267  -49.1081  -18.1782 C   0  0  0  0  0  0  0  0  0  0  0  0
    2.9583  -48.2424  -18.3765 C   0  0  0  0  0  0  0  0  0  0  0  0
    3.2775  -47.0448  -17.5717 C   0  0  0  0  0  0  0  0  0  0  0  0
    3.3800  -45.8172  -18.2796 N   0  0  0  0  0  0  0  0  0  0  0  0
    3.7456  -46.1444  -19.6523 C   0  0  0  0  0  0  0  0  0  0  0  0
    4.8761  -45.2553  -20.0501 C   0  0  0  0  0  0  0  0  0  0  0  0
    5.5815  -44.9936  -18.7508 C   0  0  0  0  0  0  0  0  0  0  0  0
    4.4816  -45.0318  -17.7547 C   0  0  0  0  0  0  0  0  0  0  0  0
   -0.4801  -53.8848  -25.8542 C   0  0  0  0  0  0  0  0  0  0  0  0
   -0.3918  -53.8131  -27.0038 N   0  0  0  0  0  0  0  0  0  0  0  0
    0.3289  -51.7148  -24.3426 N   0  0  0  0  0  0  0  0  0  0  0  0
   -0.3576  -51.0711  -24.7850 H   0  0  0  0  0  0  0  0  0  0  0  0
    1.7379  -51.4818  -24.3832 C   0  0  0  0  0  0  0  0  0  0  0  0
    2.6099  -52.5592  -24.4215 C   0  0  0  0  0  0  0  0  0  0  0  0
    3.9750  -52.3990  -24.4631 C   0  0  0  0  0  0  0  0  0  0  0  0
    4.4950  -51.1244  -24.4670 C   0  0  0  0  0  0  0  0  0  0  0  0
    3.6495  -50.0273  -24.4294 C   0  0  0  0  0  0  0  0  0  0  0  0
    4.2755  -48.4114  -24.4334 Cl  0  0  0  0  0  0  0  0  0  0  0  0
    2.2906  -50.2266  -24.3883 C   0  0  0  0  0  0  0  0  0  0  0  0
    5.8748  -50.9845  -24.5094 O   0  0  0  0  0  0  0  0  0  0  0  0
    6.7027  -51.3027  -23.4148 C   0  0  0  0  0  0  0  0  0  0  0  0
    6.6731  -50.2714  -22.3641 C   0  0  0  0  0  0  0  0  0  0  0  0
    7.4410  -49.1189  -22.4813 C   0  0  0  0  0  0  0  0  0  0  0  0
    7.3981  -48.1638  -21.4852 C   0  0  0  0  0  0  0  0  0  0  0  0
    6.5692  -48.4181  -20.3979 C   0  0  0  0  0  0  0  0  0  0  0  0
    5.8125  -49.5687  -20.2967 C   0  0  0  0  0  0  0  0  0  0  0  0
    5.8781  -50.4805  -21.2876 N   0  0  0  0  0  0  0  0  0  0  0  0
   -0.5034  -52.8896  -18.1169 O   0  0  0  0  0  0  0  0  0  0  0  0
   -1.2870  -51.6391  -16.1658 C   0  0  0  0  0  0  0  0  0  0  0  0
   -1.6066  -52.5106  -17.3400 C   0  0  0  0  0  0  0  0  0  0  0  0
 43 44  1  0  0  0
 44 42  1  0  0  0
 42  1  1  0  0  0
  1  2  2  0  0  0
  2  3  1  0  0  0
  3  4  2  0  0  0
  4  5  1  0  0  0
  5  6  2  0  0  0
  6 23  1  0  0  0
 23 24  3  0  0  0
  6  7  1  0  0  0
  7 25  1  0  0  0
 25 27  1  0  0  0
 27 28  2  0  0  0
 28 29  1  0  0  0
 29 30  2  0  0  0
 30 34  1  0  0  0
 34 35  1  0  0  0
 35 36  1  0  0  0
 36 37  2  0  0  0
 37 38  1  0  0  0
 38 39  2  0  0  0
 39 40  1  0  0  0
 40 41  2  0  0  0
 30 31  1  0  0  0
 31 32  1  0  0  0
 31 33  2  0  0  0
  7  8  2  0  0  0
  8  9  1  0  0  0
  9 10  2  0  0  0
 10 11  1  0  0  0
 11 12  1  0  0  0
 12 13  2  0  0  0
 12 15  1  0  0  0
 15 16  2  0  0  0
 16 17  1  0  0  0
 17 18  1  0  0  0
 18 19  1  0  0  0
 19 20  1  0  0  0
 20 21  1  0  0  0
 21 22  1  0  0  0
 10  1  1  0  0  0
 22 18  1  0  0  0
  8  3  1  0  0  0
 33 27  1  0  0  0
 41 36  1  0  0  0
 25 26  1  0  0  0
 11 14  1  0  0  0
M  END
> <minimizedAffinity>
-7.17359

> <CNNscore>
0.3324205875

> <CNNaffinity>
7.4961562157

> <CNN_VS>
2.4918766022

> <CNNaffinity_variance>
0.1700649559

$$$$
[H]/C(C(=O)N([H])c1c(OC([H])([H])C([H])([H])[H])c([H])c2nc([H])c(C#N)c(N([H])c3c([H])c([H])c(OC([H])([H])c4nc([H])c([H])c([H])c4[H])c(Cl)c3[H])c2c1[H])=C(/[H])C([H])([H])N1C([H])([H])C([H])([H])C([H])([H])C1([H])[H]


 44 48  0  0  0  0  0  0  0  0999 V2000
    2.7771  -49.7346  -24.6005 C   0  0  0  0  0  0  0  0  0  0  0  0
    1.7089  -50.3104  -25.2379 C   0  0  0  0  0  0  0  0  0  0  0  0
    0.9795  -51.3733  -24.7076 C   0  0  0  0  0  0  0  0  0  0  0  0
   -0.0658  -51.9239  -25.3476 N   0  0  0  0  0  0  0  0  0  0  0  0
   -0.7650  -52.9577  -24.8162 C   0  0  0  0  0  0  0  0  0  0  0  0
   -0.4329  -53.4927  -23.5894 C   0  0  0  0  0  0  0  0  0  0  0  0
    0.6446  -52.9372  -22.9123 C   0  0  0  0  0  0  0  0  0  0  0  0
    1.3312  -51.8873  -23.4842 C   0  0  0  0  0  0  0  0  0  0  0  0
    2.4178  -51.3130  -22.8198 C   0  0  0  0  0  0  0  0  0  0  0  0
    3.1389  -50.2626  -23.3432 C   0  0  0  0  0  0  0  0  0  0  0  0
    4.2297  -49.6736  -22.6973 N   0  0  0  0  0  0  0  0  0  0  0  0
    5.5384  -50.1437  -22.5590 C   0  0  0  0  0  0  0  0  0  0  0  0
    5.8721  -51.2507  -23.0570 O   0  0  0  0  0  0  0  0  0  0  0  0
    4.0617  -48.7134  -22.2288 H   0  0  0  0  0  0  0  0  0  0  0  0
    6.5939  -49.3973  -21.8396 C   0  0  0  0  0  0  0  0  0  0  0  0
    6.4317  -48.2789  -21.2235 C   0  0  0  0  0  0  0  0  0  0  0  0
    7.4407  -47.4862  -20.4903 C   0  0  0  0  0  0  0  0  0  0  0  0
    6.9443  -46.4465  -19.6588 N   0  0  0  0  0  0  0  0  0  0  0  0
    7.3736  -46.7453  -18.2982 C   0  0  0  0  0  0  0  0  0  0  0  0
    6.1908  -46.5955  -17.4008 C   0  0  0  0  0  0  0  0  0  0  0  0
    5.0347  -46.9382  -18.2956 C   0  0  0  0  0  0  0  0  0  0  0  0
    5.4939  -46.4823  -19.6316 C   0  0  0  0  0  0  0  0  0  0  0  0
   -1.1315  -54.5825  -22.9767 C   0  0  0  0  0  0  0  0  0  0  0  0
   -1.7105  -55.4585  -22.4951 N   0  0  0  0  0  0  0  0  0  0  0  0
    1.0200  -53.4491  -21.6595 N   0  0  0  0  0  0  0  0  0  0  0  0
    1.5913  -54.3180  -21.6473 H   0  0  0  0  0  0  0  0  0  0  0  0
    0.6164  -52.7777  -20.4648 C   0  0  0  0  0  0  0  0  0  0  0  0
    1.2973  -51.6420  -20.0535 C   0  0  0  0  0  0  0  0  0  0  0  0
    0.9552  -50.9519  -18.9144 C   0  0  0  0  0  0  0  0  0  0  0  0
   -0.1004  -51.4037  -18.1551 C   0  0  0  0  0  0  0  0  0  0  0  0
   -0.8008  -52.5357  -18.5399 C   0  0  0  0  0  0  0  0  0  0  0  0
   -2.1338  -53.1275  -17.6041 Cl  0  0  0  0  0  0  0  0  0  0  0  0
   -0.4297  -53.1992  -19.6845 C   0  0  0  0  0  0  0  0  0  0  0  0
   -0.4294  -50.6931  -17.0096 O   0  0  0  0  0  0  0  0  0  0  0  0
    0.4690  -49.8069  -16.3834 C   0  0  0  0  0  0  0  0  0  0  0  0
    1.4170  -50.4975  -15.4930 C   0  0  0  0  0  0  0  0  0  0  0  0
    2.7676  -50.1698  -15.5057 C   0  0  0  0  0  0  0  0  0  0  0  0
    3.6396  -50.8288  -14.6621 C   0  0  0  0  0  0  0  0  0  0  0  0
    3.1016  -51.8047  -13.8301 C   0  0  0  0  0  0  0  0  0  0  0  0
    1.7568  -52.1184  -13.8298 C   0  0  0  0  0  0  0  0  0  0  0  0
    0.9333  -51.4552  -14.6663 N   0  0  0  0  0  0  0  0  0  0  0  0
    3.5034  -48.6842  -25.1180 O   0  0  0  0  0  0  0  0  0  0  0  0
    5.8335  -48.4657  -25.8302 C   0  0  0  0  0  0  0  0  0  0  0  0
    4.4061  -48.7386  -26.1886 C   0  0  0  0  0  0  0  0  0  0  0  0
 43 44  1  0  0  0
 44 42  1  0  0  0
 42  1  1  0  0  0
  1  2  2  0  0  0
  2  3  1  0  0  0
  3  4  2  0  0  0
  4  5  1  0  0  0
  5  6  2  0  0  0
  6 23  1  0  0  0
 23 24  3  0  0  0
  6  7  1  0  0  0
  7 25  1  0  0  0
 25 27  1  0  0  0
 27 28  2  0  0  0
 28 29  1  0  0  0
 29 30  2  0  0  0
 30 34  1  0  0  0
 34 35  1  0  0  0
 35 36  1  0  0  0
 36 37  2  0  0  0
 37 38  1  0  0  0
 38 39  2  0  0  0
 39 40  1  0  0  0
 40 41  2  0  0  0
 30 31  1  0  0  0
 31 32  1  0  0  0
 31 33  2  0  0  0
  7  8  2  0  0  0
  8  9  1  0  0  0
  9 10  2  0  0  0
 10 11  1  0  0  0
 11 12  1  0  0  0
 12 13  2  0  0  0
 12 15  1  0  0  0
 15 16  2  0  0  0
 16 17  1  0  0  0
 17 18  1  0  0  0
 18 19  1  0  0  0
 19 20  1  0  0  0
 20 21  1  0  0  0
 21 22  1  0  0  0
 10  1  1  0  0  0
 22 18  1  0  0  0
  8  3  1  0  0  0
 33 27  1  0  0  0
 41 36  1  0  0  0
 25 26  1  0  0  0
 11 14  1  0  0  0
M  END
> <minimizedAffinity>
-6.35788

> <CNNscore>
0.2988949418

> <CNNaffinity>
7.4734220505

> <CNN_VS>
2.2337679863

> <CNNaffinity_variance>
0.1219879240

$$$$
[H]/C(C(=O)N([H])c1c(OC([H])([H])C([H])([H])[H])c([H])c2nc([H])c(C#N)c(N([H])c3c([H])c([H])c(OC([H])([H])c4c([H])c([H])c([H])c(F)c4[H])c(Cl)c3[H])c2c1[H])=C(/[H])C([H])([H])N1C([H])([H])C([H])([H])C([H])([H])C1([H])[H]


 45 49  0  0  0  0  0  0  0  0999 V2000
    0.5952  -52.2703  -25.7047 C   0  0  0  0  0  0  0  0  0  0  0  0
   -0.3547  -52.7958  -24.8729 C   0  0  0  0  0  0  0  0  0  0  0  0
   -0.2348  -52.7923  -23.4990 C   0  0  0  0  0  0  0  0  0  0  0  0
   -1.2491  -53.2674  -22.7343 N   0  0  0  0  0  0  0  0  0  0  0  0
   -1.2030  -53.2219  -21.3971 C   0  0  0  0  0  0  0  0  0  0  0  0
   -0.0804  -52.6770  -20.7614 C   0  0  0  0  0  0  0  0  0  0  0  0
    0.9343  -52.2077  -21.5496 C   0  0  0  0  0  0  0  0  0  0  0  0
    0.9137  -52.2332  -22.9225 C   0  0  0  0  0  0  0  0  0  0  0  0
    1.8823  -51.6987  -23.7462 C   0  0  0  0  0  0  0  0  0  0  0  0
    1.7617  -51.6912  -25.1270 C   0  0  0  0  0  0  0  0  0  0  0  0
    2.5780  -51.0330  -26.0415 N   0  0  0  0  0  0  0  0  0  0  0  0
    3.0593  -49.7338  -26.2307 C   0  0  0  0  0  0  0  0  0  0  0  0
    2.7702  -48.8056  -25.4901 O   0  0  0  0  0  0  0  0  0  0  0  0
    2.9030  -51.7599  -26.8591 H   0  0  0  0  0  0  0  0  0  0  0  0
    3.9388  -49.5660  -27.3926 C   0  0  0  0  0  0  0  0  0  0  0  0
    4.2889  -48.4455  -27.9819 C   0  0  0  0  0  0  0  0  0  0  0  0
    5.2135  -48.5690  -29.1594 C   0  0  0  0  0  0  0  0  0  0  0  0
    4.5282  -48.4177  -30.4326 N   0  0  0  0  0  0  0  0  0  0  0  0
    5.5633  -48.3080  -31.4973 C   0  0  0  0  0  0  0  0  0  0  0  0
    6.1319  -46.9374  -31.3255 C   0  0  0  0  0  0  0  0  0  0  0  0
    5.0188  -46.0935  -30.7732 C   0  0  0  0  0  0  0  0  0  0  0  0
    3.9208  -47.0655  -30.4644 C   0  0  0  0  0  0  0  0  0  0  0  0
   -0.0869  -52.5832  -19.3168 C   0  0  0  0  0  0  0  0  0  0  0  0
   -0.1397  -52.5399  -18.1679 N   0  0  0  0  0  0  0  0  0  0  0  0
    2.1002  -51.6823  -20.8854 N   0  0  0  0  0  0  0  0  0  0  0  0
    2.6973  -52.1687  -20.2202 H   0  0  0  0  0  0  0  0  0  0  0  0
    2.3930  -50.2990  -21.2397 C   0  0  0  0  0  0  0  0  0  0  0  0
    1.3681  -49.3767  -21.2277 C   0  0  0  0  0  0  0  0  0  0  0  0
    1.5493  -48.1260  -21.7630 C   0  0  0  0  0  0  0  0  0  0  0  0
    2.7690  -47.7070  -22.3489 C   0  0  0  0  0  0  0  0  0  0  0  0
    3.7840  -48.6799  -22.3267 C   0  0  0  0  0  0  0  0  0  0  0  0
    5.3110  -48.1715  -23.0678 Cl  0  0  0  0  0  0  0  0  0  0  0  0
    3.5889  -49.9394  -21.7837 C   0  0  0  0  0  0  0  0  0  0  0  0
    2.8534  -46.5376  -22.8429 O   0  0  0  0  0  0  0  0  0  0  0  0
    2.9509  -45.3364  -23.3476 C   0  0  0  0  0  0  0  0  0  0  0  0
    3.3462  -45.0244  -24.7185 C   0  0  0  0  0  0  0  0  0  0  0  0
    4.4439  -44.3196  -25.1032 C   0  0  0  0  0  0  0  0  0  0  0  0
    4.6999  -44.0605  -26.4192 C   0  0  0  0  0  0  0  0  0  0  0  0
    3.8590  -44.5017  -27.4635 C   0  0  0  0  0  0  0  0  0  0  0  0
    2.7438  -45.2182  -27.0344 C   0  0  0  0  0  0  0  0  0  0  0  0
    1.9262  -45.6602  -28.0428 F   0  0  0  0  0  0  0  0  0  0  0  0
    2.4744  -45.4794  -25.7302 C   0  0  0  0  0  0  0  0  0  0  0  0
    0.4649  -52.2881  -27.0880 O   0  0  0  0  0  0  0  0  0  0  0  0
   -0.8840  -52.7078  -29.0230 C   0  0  0  0  0  0  0  0  0  0  0  0
   -0.2668  -53.2690  -27.7444 C   0  0  0  0  0  0  0  0  0  0  0  0
 44 45  1  0  0  0
 45 43  1  0  0  0
 43  1  1  0  0  0
  1  2  2  0  0  0
  2  3  1  0  0  0
  3  4  2  0  0  0
  4  5  1  0  0  0
  5  6  2  0  0  0
  6 23  1  0  0  0
 23 24  3  0  0  0
  6  7  1  0  0  0
  7 25  1  0  0  0
 25 27  1  0  0  0
 27 28  2  0  0  0
 28 29  1  0  0  0
 29 30  2  0  0  0
 30 34  1  0  0  0
 34 35  1  0  0  0
 35 36  1  0  0  0
 36 37  2  0  0  0
 37 38  1  0  0  0
 38 39  2  0  0  0
 39 40  1  0  0  0
 40 41  1  0  0  0
 40 42  2  0  0  0
 30 31  1  0  0  0
 31 32  1  0  0  0
 31 33  2  0  0  0
  7  8  2  0  0  0
  8  9  1  0  0  0
  9 10  2  0  0  0
 10 11  1  0  0  0
 11 12  1  0  0  0
 12 13  2  0  0  0
 12 15  1  0  0  0
 15 16  2  0  0  0
 16 17  1  0  0  0
 17 18  1  0  0  0
 18 19  1  0  0  0
 19 20  1  0  0  0
 20 21  1  0  0  0
 21 22  1  0  0  0
 10  1  1  0  0  0
 22 18  1  0  0  0
  8  3  1  0  0  0
 33 27  1  0  0  0
 42 36  1  0  0  0
 25 26  1  0  0  0
 11 14  1  0  0  0
M  END
> <minimizedAffinity>
-7.37932

> <CNNscore>
0.4004467130

> <CNNaffinity>
7.6062965393

> <CNN_VS>
3.0459165573

> <CNNaffinity_variance>
0.1532591283

$$$$
[H]/C(C(=O)N([H])c1c(OC([H])([H])C([H])([H])[H])c([H])c2nc([H])c(C#N)c(N([H])c3c([H])c([H])c(OC([H])([H])c4c([H])c([H])c([H])c(F)c4[H])c(Cl)c3[H])c2c1[H])=C(/[H])C([H])([H])N1C([H])([H])C([H])([H])C([H])([H])C1([H])[H]


 45 49  0  0  0  0  0  0  0  0999 V2000
    0.0807  -51.8804  -18.9391 C   0  0  0  0  0  0  0  0  0  0  0  0
   -0.4059  -53.0506  -19.4529 C   0  0  0  0  0  0  0  0  0  0  0  0
   -0.4881  -53.2996  -20.8070 C   0  0  0  0  0  0  0  0  0  0  0  0
   -0.9153  -54.5106  -21.2433 N   0  0  0  0  0  0  0  0  0  0  0  0
   -0.9473  -54.8178  -22.5459 C   0  0  0  0  0  0  0  0  0  0  0  0
   -0.5368  -53.8695  -23.4911 C   0  0  0  0  0  0  0  0  0  0  0  0
   -0.1141  -52.6522  -23.0318 C   0  0  0  0  0  0  0  0  0  0  0  0
   -0.0624  -52.3096  -21.7029 C   0  0  0  0  0  0  0  0  0  0  0  0
    0.4310  -51.1229  -21.2024 C   0  0  0  0  0  0  0  0  0  0  0  0
    0.5246  -50.8720  -19.8425 C   0  0  0  0  0  0  0  0  0  0  0  0
    1.1593  -49.7992  -19.2242 N   0  0  0  0  0  0  0  0  0  0  0  0
    2.4741  -49.4108  -18.9495 C   0  0  0  0  0  0  0  0  0  0  0  0
    3.4434  -50.0887  -19.2571 O   0  0  0  0  0  0  0  0  0  0  0  0
    0.3782  -49.0740  -18.8161 H   0  0  0  0  0  0  0  0  0  0  0  0
    2.6044  -48.1238  -18.2576 C   0  0  0  0  0  0  0  0  0  0  0  0
    3.7047  -47.5471  -17.8311 C   0  0  0  0  0  0  0  0  0  0  0  0
    3.5435  -46.2159  -17.1539 C   0  0  0  0  0  0  0  0  0  0  0  0
    4.8102  -45.6420  -16.7301 N   0  0  0  0  0  0  0  0  0  0  0  0
    4.5627  -44.2252  -16.3446 C   0  0  0  0  0  0  0  0  0  0  0  0
    4.3587  -43.5152  -17.6430 C   0  0  0  0  0  0  0  0  0  0  0  0
    5.1822  -44.2589  -18.6554 C   0  0  0  0  0  0  0  0  0  0  0  0
    5.6618  -45.4811  -17.9331 C   0  0  0  0  0  0  0  0  0  0  0  0
   -0.5222  -54.2525  -24.8871 C   0  0  0  0  0  0  0  0  0  0  0  0
   -0.4567  -54.5383  -26.0000 N   0  0  0  0  0  0  0  0  0  0  0  0
    0.2717  -51.6712  -24.0141 N   0  0  0  0  0  0  0  0  0  0  0  0
   -0.3450  -51.1461  -24.6304 H   0  0  0  0  0  0  0  0  0  0  0  0
    1.7128  -51.4648  -24.0900 C   0  0  0  0  0  0  0  0  0  0  0  0
    2.5499  -52.5511  -23.9476 C   0  0  0  0  0  0  0  0  0  0  0  0
    3.9018  -52.3738  -23.7909 C   0  0  0  0  0  0  0  0  0  0  0  0
    4.5144  -51.0969  -23.7657 C   0  0  0  0  0  0  0  0  0  0  0  0
    3.6193  -50.0241  -23.9251 C   0  0  0  0  0  0  0  0  0  0  0  0
    4.3726  -48.4210  -23.8830 Cl  0  0  0  0  0  0  0  0  0  0  0  0
    2.2563  -50.2159  -24.0820 C   0  0  0  0  0  0  0  0  0  0  0  0
    5.7725  -51.0128  -23.5960 O   0  0  0  0  0  0  0  0  0  0  0  0
    7.0656  -50.9227  -23.4320 C   0  0  0  0  0  0  0  0  0  0  0  0
    7.7471  -49.9219  -22.6154 C   0  0  0  0  0  0  0  0  0  0  0  0
    8.5100  -48.8913  -23.0687 C   0  0  0  0  0  0  0  0  0  0  0  0
    9.1279  -48.0292  -22.2086 C   0  0  0  0  0  0  0  0  0  0  0  0
    9.0195  -48.1395  -20.8056 C   0  0  0  0  0  0  0  0  0  0  0  0
    8.2331  -49.2063  -20.3759 C   0  0  0  0  0  0  0  0  0  0  0  0
    8.1132  -49.3152  -19.0141 F   0  0  0  0  0  0  0  0  0  0  0  0
    7.6168  -50.0732  -21.2187 C   0  0  0  0  0  0  0  0  0  0  0  0
    0.1501  -51.6399  -17.5723 O   0  0  0  0  0  0  0  0  0  0  0  0
   -0.5489  -51.7448  -15.2831 C   0  0  0  0  0  0  0  0  0  0  0  0
   -0.9660  -51.7373  -16.7517 C   0  0  0  0  0  0  0  0  0  0  0  0
 44 45  1  0  0  0
 45 43  1  0  0  0
 43  1  1  0  0  0
  1  2  2  0  0  0
  2  3  1  0  0  0
  3  4  2  0  0  0
  4  5  1  0  0  0
  5  6  2  0  0  0
  6 23  1  0  0  0
 23 24  3  0  0  0
  6  7  1  0  0  0
  7 25  1  0  0  0
 25 27  1  0  0  0
 27 28  2  0  0  0
 28 29  1  0  0  0
 29 30  2  0  0  0
 30 34  1  0  0  0
 34 35  1  0  0  0
 35 36  1  0  0  0
 36 37  2  0  0  0
 37 38  1  0  0  0
 38 39  2  0  0  0
 39 40  1  0  0  0
 40 41  1  0  0  0
 40 42  2  0  0  0
 30 31  1  0  0  0
 31 32  1  0  0  0
 31 33  2  0  0  0
  7  8  2  0  0  0
  8  9  1  0  0  0
  9 10  2  0  0  0
 10 11  1  0  0  0
 11 12  1  0  0  0
 12 13  2  0  0  0
 12 15  1  0  0  0
 15 16  2  0  0  0
 16 17  1  0  0  0
 17 18  1  0  0  0
 18 19  1  0  0  0
 19 20  1  0  0  0
 20 21  1  0  0  0
 21 22  1  0  0  0
 10  1  1  0  0  0
 22 18  1  0  0  0
  8  3  1  0  0  0
 33 27  1  0  0  0
 42 36  1  0  0  0
 25 26  1  0  0  0
 11 14  1  0  0  0
M  END
> <minimizedAffinity>
-7.39045

> <CNNscore>
0.3240138292

> <CNNaffinity>
7.3756036758

> <CNN_VS>
2.3897976875

> <CNNaffinity_variance>
0.1443936676

$$$$
[H]/C(C(=O)N([H])c1c(OC([H])([H])C([H])([H])[H])c([H])c2nc([H])c(C#N)c(N([H])c3c([H])c([H])c(OC([H])([H])c4c([H])c([H])c([H])c(F)c4[H])c(Cl)c3[H])c2c1[H])=C(/[H])C([H])([H])N1C([H])([H])C([H])([H])C([H])([H])C1([H])[H]


 45 49  0  0  0  0  0  0  0  0999 V2000
   -0.4106  -52.9452  -19.6386 C   0  0  0  0  0  0  0  0  0  0  0  0
   -0.8167  -53.9901  -20.4219 C   0  0  0  0  0  0  0  0  0  0  0  0
   -0.7709  -53.9578  -21.7999 C   0  0  0  0  0  0  0  0  0  0  0  0
   -1.1236  -55.0578  -22.5105 N   0  0  0  0  0  0  0  0  0  0  0  0
   -1.0309  -55.0926  -23.8455 C   0  0  0  0  0  0  0  0  0  0  0  0
   -0.5642  -53.9674  -24.5365 C   0  0  0  0  0  0  0  0  0  0  0  0
   -0.2182  -52.8660  -23.8027 C   0  0  0  0  0  0  0  0  0  0  0  0
   -0.2948  -52.8018  -22.4330 C   0  0  0  0  0  0  0  0  0  0  0  0
    0.1189  -51.7380  -21.6587 C   0  0  0  0  0  0  0  0  0  0  0  0
    0.0839  -51.7696  -20.2735 C   0  0  0  0  0  0  0  0  0  0  0  0
    0.6308  -50.8401  -19.3944 N   0  0  0  0  0  0  0  0  0  0  0  0
    1.2215  -49.5757  -19.4822 C   0  0  0  0  0  0  0  0  0  0  0  0
    1.3890  -48.9949  -20.5444 O   0  0  0  0  0  0  0  0  0  0  0  0
    0.6062  -51.2556  -18.3317 H   0  0  0  0  0  0  0  0  0  0  0  0
    1.6306  -48.9965  -18.1981 C   0  0  0  0  0  0  0  0  0  0  0  0
    1.0807  -49.1820  -17.0198 C   0  0  0  0  0  0  0  0  0  0  0  0
    1.7145  -48.4611  -15.8643 C   0  0  0  0  0  0  0  0  0  0  0  0
    1.5961  -49.1898  -14.6119 N   0  0  0  0  0  0  0  0  0  0  0  0
    2.6265  -48.6597  -13.6768 C   0  0  0  0  0  0  0  0  0  0  0  0
    3.9167  -49.2071  -14.1937 C   0  0  0  0  0  0  0  0  0  0  0  0
    3.5799  -50.5205  -14.8401 C   0  0  0  0  0  0  0  0  0  0  0  0
    2.0823  -50.5715  -14.8419 C   0  0  0  0  0  0  0  0  0  0  0  0
   -0.4145  -54.0569  -25.9736 C   0  0  0  0  0  0  0  0  0  0  0  0
   -0.2394  -54.1344  -27.1085 N   0  0  0  0  0  0  0  0  0  0  0  0
    0.2263  -51.7014  -24.5256 N   0  0  0  0  0  0  0  0  0  0  0  0
   -0.3520  -51.0486  -25.0502 H   0  0  0  0  0  0  0  0  0  0  0  0
    1.6691  -51.5013  -24.4684 C   0  0  0  0  0  0  0  0  0  0  0  0
    2.4953  -52.6051  -24.4651 C   0  0  0  0  0  0  0  0  0  0  0  0
    3.8335  -52.4735  -24.1905 C   0  0  0  0  0  0  0  0  0  0  0  0
    4.4425  -51.2280  -23.8997 C   0  0  0  0  0  0  0  0  0  0  0  0
    3.5595  -50.1339  -23.9258 C   0  0  0  0  0  0  0  0  0  0  0  0
    4.3074  -48.5719  -23.5515 Cl  0  0  0  0  0  0  0  0  0  0  0  0
    2.2102  -50.2796  -24.2039 C   0  0  0  0  0  0  0  0  0  0  0  0
    5.6863  -51.1894  -23.6349 O   0  0  0  0  0  0  0  0  0  0  0  0
    6.9625  -51.1394  -23.3594 C   0  0  0  0  0  0  0  0  0  0  0  0
    7.6237  -50.0794  -22.6031 C   0  0  0  0  0  0  0  0  0  0  0  0
    8.3864  -49.0761  -23.1144 C   0  0  0  0  0  0  0  0  0  0  0  0
    8.9844  -48.1520  -22.3062 C   0  0  0  0  0  0  0  0  0  0  0  0
    8.8543  -48.1666  -20.9008 C   0  0  0  0  0  0  0  0  0  0  0  0
    8.0688  -49.2078  -20.4109 C   0  0  0  0  0  0  0  0  0  0  0  0
    7.9280  -49.2239  -19.0468 F   0  0  0  0  0  0  0  0  0  0  0  0
    7.4722  -50.1355  -21.2016 C   0  0  0  0  0  0  0  0  0  0  0  0
   -0.4701  -52.9887  -18.2510 O   0  0  0  0  0  0  0  0  0  0  0  0
   -1.5437  -51.8241  -16.4535 C   0  0  0  0  0  0  0  0  0  0  0  0
   -1.6700  -52.8652  -17.5629 C   0  0  0  0  0  0  0  0  0  0  0  0
 44 45  1  0  0  0
 45 43  1  0  0  0
 43  1  1  0  0  0
  1  2  2  0  0  0
  2  3  1  0  0  0
  3  4  2  0  0  0
  4  5  1  0  0  0
  5  6  2  0  0  0
  6 23  1  0  0  0
 23 24  3  0  0  0
  6  7  1  0  0  0
  7 25  1  0  0  0
 25 27  1  0  0  0
 27 28  2  0  0  0
 28 29  1  0  0  0
 29 30  2  0  0  0
 30 34  1  0  0  0
 34 35  1  0  0  0
 35 36  1  0  0  0
 36 37  2  0  0  0
 37 38  1  0  0  0
 38 39  2  0  0  0
 39 40  1  0  0  0
 40 41  1  0  0  0
 40 42  2  0  0  0
 30 31  1  0  0  0
 31 32  1  0  0  0
 31 33  2  0  0  0
  7  8  2  0  0  0
  8  9  1  0  0  0
  9 10  2  0  0  0
 10 11  1  0  0  0
 11 12  1  0  0  0
 12 13  2  0  0  0
 12 15  1  0  0  0
 15 16  2  0  0  0
 16 17  1  0  0  0
 17 18  1  0  0  0
 18 19  1  0  0  0
 19 20  1  0  0  0
 20 21  1  0  0  0
 21 22  1  0  0  0
 10  1  1  0  0  0
 22 18  1  0  0  0
  8  3  1  0  0  0
 33 27  1  0  0  0
 42 36  1  0  0  0
 25 26  1  0  0  0
 11 14  1  0  0  0
M  END
> <minimizedAffinity>
-8.06084

> <CNNscore>
0.3234302402

> <CNNaffinity>
7.5176095963

> <CNN_VS>
2.4314222336

> <CNNaffinity_variance>
0.1607366055

$$$$
[H]/C(C(=O)N([H])c1c(OC([H])([H])C([H])([H])[H])c([H])c2nc([H])c(C#N)c(N([H])c3c([H])c([H])c(OC([H])([H])c4c([H])c([H])c([H])c(F)c4[H])c(Cl)c3[H])c2c1[H])=C(/[H])C([H])([H])N1C([H])([H])C([H])([H])C([H])([H])C1([H])[H]


 45 49  0  0  0  0  0  0  0  0999 V2000
    3.0989  -49.8776  -25.2138 C   0  0  0  0  0  0  0  0  0  0  0  0
    1.9620  -50.4662  -25.6946 C   0  0  0  0  0  0  0  0  0  0  0  0
    1.2677  -51.4359  -25.0019 C   0  0  0  0  0  0  0  0  0  0  0  0
    0.1085  -51.9245  -25.5087 N   0  0  0  0  0  0  0  0  0  0  0  0
   -0.6312  -52.8170  -24.8391 C   0  0  0  0  0  0  0  0  0  0  0  0
   -0.2031  -53.2688  -23.5846 C   0  0  0  0  0  0  0  0  0  0  0  0
    0.9710  -52.7683  -23.0926 C   0  0  0  0  0  0  0  0  0  0  0  0
    1.7479  -51.8470  -23.7512 C   0  0  0  0  0  0  0  0  0  0  0  0
    2.8935  -51.2643  -23.2507 C   0  0  0  0  0  0  0  0  0  0  0  0
    3.5890  -50.2825  -23.9388 C   0  0  0  0  0  0  0  0  0  0  0  0
    4.6423  -49.5061  -23.4657 N   0  0  0  0  0  0  0  0  0  0  0  0
    5.8821  -49.7278  -22.8584 C   0  0  0  0  0  0  0  0  0  0  0  0
    6.2982  -50.8452  -22.5901 O   0  0  0  0  0  0  0  0  0  0  0  0
    4.3904  -48.4000  -23.5903 H   0  0  0  0  0  0  0  0  0  0  0  0
    6.6490  -48.5129  -22.5624 C   0  0  0  0  0  0  0  0  0  0  0  0
    7.9124  -48.4234  -22.2146 C   0  0  0  0  0  0  0  0  0  0  0  0
    8.4442  -47.0391  -21.9746 C   0  0  0  0  0  0  0  0  0  0  0  0
    7.7677  -46.3566  -20.8837 N   0  0  0  0  0  0  0  0  0  0  0  0
    7.5771  -44.9350  -21.2836 C   0  0  0  0  0  0  0  0  0  0  0  0
    8.9404  -44.3328  -21.1826 C   0  0  0  0  0  0  0  0  0  0  0  0
    9.6488  -45.0915  -20.0969 C   0  0  0  0  0  0  0  0  0  0  0  0
    8.7292  -46.2265  -19.7626 C   0  0  0  0  0  0  0  0  0  0  0  0
   -1.0555  -54.1850  -22.8566 C   0  0  0  0  0  0  0  0  0  0  0  0
   -1.7604  -54.9245  -22.3267 N   0  0  0  0  0  0  0  0  0  0  0  0
    1.4210  -53.2667  -21.8176 N   0  0  0  0  0  0  0  0  0  0  0  0
    2.0856  -54.0200  -21.6544 H   0  0  0  0  0  0  0  0  0  0  0  0
    0.8124  -52.5839  -20.6825 C   0  0  0  0  0  0  0  0  0  0  0  0
    1.3926  -51.4245  -20.2131 C   0  0  0  0  0  0  0  0  0  0  0  0
    0.9886  -50.8754  -19.0219 C   0  0  0  0  0  0  0  0  0  0  0  0
   -0.0254  -51.4461  -18.2140 C   0  0  0  0  0  0  0  0  0  0  0  0
   -0.5913  -52.6203  -18.7419 C   0  0  0  0  0  0  0  0  0  0  0  0
   -1.8526  -53.3502  -17.7341 Cl  0  0  0  0  0  0  0  0  0  0  0  0
   -0.1746  -53.1652  -19.9454 C   0  0  0  0  0  0  0  0  0  0  0  0
   -0.3309  -50.8891  -17.1117 O   0  0  0  0  0  0  0  0  0  0  0  0
   -0.6484  -50.3268  -15.9760 C   0  0  0  0  0  0  0  0  0  0  0  0
   -2.0055  -50.0104  -15.5389 C   0  0  0  0  0  0  0  0  0  0  0  0
   -2.4557  -48.8010  -15.1095 C   0  0  0  0  0  0  0  0  0  0  0  0
   -3.7446  -48.6263  -14.6937 C   0  0  0  0  0  0  0  0  0  0  0  0
   -4.6930  -49.6716  -14.6822 C   0  0  0  0  0  0  0  0  0  0  0  0
   -4.1984  -50.8961  -15.1259 C   0  0  0  0  0  0  0  0  0  0  0  0
   -5.1158  -51.9156  -15.1284 F   0  0  0  0  0  0  0  0  0  0  0  0
   -2.9192  -51.0854  -15.5378 C   0  0  0  0  0  0  0  0  0  0  0  0
    3.7928  -48.9074  -25.9266 O   0  0  0  0  0  0  0  0  0  0  0  0
    3.8117  -47.3262  -27.7264 C   0  0  0  0  0  0  0  0  0  0  0  0
    3.1686  -47.7666  -26.4137 C   0  0  0  0  0  0  0  0  0  0  0  0
 44 45  1  0  0  0
 45 43  1  0  0  0
 43  1  1  0  0  0
  1  2  2  0  0  0
  2  3  1  0  0  0
  3  4  2  0  0  0
  4  5  1  0  0  0
  5  6  2  0  0  0
  6 23  1  0  0  0
 23 24  3  0  0  0
  6  7  1  0  0  0
  7 25  1  0  0  0
 25 27  1  0  0  0
 27 28  2  0  0  0
 28 29  1  0  0  0
 29 30  2  0  0  0
 30 34  1  0  0  0
 34 35  1  0  0  0
 35 36  1  0  0  0
 36 37  2  0  0  0
 37 38  1  0  0  0
 38 39  2  0  0  0
 39 40  1  0  0  0
 40 41  1  0  0  0
 40 42  2  0  0  0
 30 31  1  0  0  0
 31 32  1  0  0  0
 31 33  2  0  0  0
  7  8  2  0  0  0
  8  9  1  0  0  0
  9 10  2  0  0  0
 10 11  1  0  0  0
 11 12  1  0  0  0
 12 13  2  0  0  0
 12 15  1  0  0  0
 15 16  2  0  0  0
 16 17  1  0  0  0
 17 18  1  0  0  0
 18 19  1  0  0  0
 19 20  1  0  0  0
 20 21  1  0  0  0
 21 22  1  0  0  0
 10  1  1  0  0  0
 22 18  1  0  0  0
  8  3  1  0  0  0
 33 27  1  0  0  0
 42 36  1  0  0  0
 25 26  1  0  0  0
 11 14  1  0  0  0
M  END
> <minimizedAffinity>
-6.81396

> <CNNscore>
0.2795876563

> <CNNaffinity>
7.3919625282

> <CNN_VS>
2.0667014122

> <CNNaffinity_variance>
0.2815170288

$$$$
[H]/C(C(=O)N([H])c1c(OC([H])([H])C([H])([H])[H])c([H])c2nc([H])c(C#N)c(N([H])c3c([H])c([H])c(OC([H])([H])c4c([H])c([H])c([H])c(F)c4[H])c(Cl)c3[H])c2c1[H])=C(/[H])C([H])([H])N1C([H])([H])C([H])([H])C([H])([H])C1([H])[H]


 45 49  0  0  0  0  0  0  0  0999 V2000
    0.2685  -51.5437  -18.7414 C   0  0  0  0  0  0  0  0  0  0  0  0
   -0.2486  -52.7352  -19.1692 C   0  0  0  0  0  0  0  0  0  0  0  0
   -0.3838  -53.0597  -20.5028 C   0  0  0  0  0  0  0  0  0  0  0  0
   -0.8390  -54.2883  -20.8532 N   0  0  0  0  0  0  0  0  0  0  0  0
   -0.9228  -54.6686  -22.1340 C   0  0  0  0  0  0  0  0  0  0  0  0
   -0.5384  -53.7805  -23.1463 C   0  0  0  0  0  0  0  0  0  0  0  0
   -0.0868  -52.5444  -22.7732 C   0  0  0  0  0  0  0  0  0  0  0  0
    0.0180  -52.1275  -21.4689 C   0  0  0  0  0  0  0  0  0  0  0  0
    0.5416  -50.9203  -21.0556 C   0  0  0  0  0  0  0  0  0  0  0  0
    0.6884  -50.5937  -19.7166 C   0  0  0  0  0  0  0  0  0  0  0  0
    1.3565  -49.4952  -19.1845 N   0  0  0  0  0  0  0  0  0  0  0  0
    2.6066  -48.8879  -19.3373 C   0  0  0  0  0  0  0  0  0  0  0  0
    3.4652  -49.3193  -20.0926 O   0  0  0  0  0  0  0  0  0  0  0  0
    0.7017  -48.9921  -18.3966 H   0  0  0  0  0  0  0  0  0  0  0  0
    2.8137  -47.6898  -18.5165 C   0  0  0  0  0  0  0  0  0  0  0  0
    3.6950  -47.5128  -17.5588 C   0  0  0  0  0  0  0  0  0  0  0  0
    3.6878  -46.1716  -16.8820 C   0  0  0  0  0  0  0  0  0  0  0  0
    3.6557  -46.2721  -15.4321 N   0  0  0  0  0  0  0  0  0  0  0  0
    2.2417  -46.4937  -15.0216 C   0  0  0  0  0  0  0  0  0  0  0  0
    1.5828  -45.1679  -15.2210 C   0  0  0  0  0  0  0  0  0  0  0  0
    2.6516  -44.1365  -14.9967 C   0  0  0  0  0  0  0  0  0  0  0  0
    3.9213  -44.9232  -14.8767 C   0  0  0  0  0  0  0  0  0  0  0  0
   -0.5798  -54.2424  -24.5177 C   0  0  0  0  0  0  0  0  0  0  0  0
   -0.6458  -54.6527  -25.5910 N   0  0  0  0  0  0  0  0  0  0  0  0
    0.2719  -51.6254  -23.8236 N   0  0  0  0  0  0  0  0  0  0  0  0
   -0.3600  -51.1547  -24.4677 H   0  0  0  0  0  0  0  0  0  0  0  0
    1.7081  -51.3988  -23.9280 C   0  0  0  0  0  0  0  0  0  0  0  0
    2.5522  -52.4875  -23.9837 C   0  0  0  0  0  0  0  0  0  0  0  0
    3.9093  -52.3248  -23.8589 C   0  0  0  0  0  0  0  0  0  0  0  0
    4.5204  -51.0610  -23.6696 C   0  0  0  0  0  0  0  0  0  0  0  0
    3.6176  -49.9836  -23.6301 C   0  0  0  0  0  0  0  0  0  0  0  0
    4.3694  -48.3986  -23.3814 Cl  0  0  0  0  0  0  0  0  0  0  0  0
    2.2495  -50.1607  -23.7569 C   0  0  0  0  0  0  0  0  0  0  0  0
    5.7844  -50.9931  -23.5418 O   0  0  0  0  0  0  0  0  0  0  0  0
    7.0835  -50.9227  -23.4215 C   0  0  0  0  0  0  0  0  0  0  0  0
    7.8063  -49.9464  -22.6108 C   0  0  0  0  0  0  0  0  0  0  0  0
    7.8936  -49.9282  -21.2536 C   0  0  0  0  0  0  0  0  0  0  0  0
    8.5752  -48.9446  -20.5960 C   0  0  0  0  0  0  0  0  0  0  0  0
    9.2336  -47.8909  -21.2658 C   0  0  0  0  0  0  0  0  0  0  0  0
    9.1224  -47.9390  -22.6537 C   0  0  0  0  0  0  0  0  0  0  0  0
    9.7680  -46.9249  -23.3138 F   0  0  0  0  0  0  0  0  0  0  0  0
    8.4448  -48.9076  -23.3204 C   0  0  0  0  0  0  0  0  0  0  0  0
    0.3913  -51.2268  -17.3940 O   0  0  0  0  0  0  0  0  0  0  0  0
   -1.4579  -51.5777  -15.9117 C   0  0  0  0  0  0  0  0  0  0  0  0
   -0.6177  -50.5744  -16.6978 C   0  0  0  0  0  0  0  0  0  0  0  0
 44 45  1  0  0  0
 45 43  1  0  0  0
 43  1  1  0  0  0
  1  2  2  0  0  0
  2  3  1  0  0  0
  3  4  2  0  0  0
  4  5  1  0  0  0
  5  6  2  0  0  0
  6 23  1  0  0  0
 23 24  3  0  0  0
  6  7  1  0  0  0
  7 25  1  0  0  0
 25 27  1  0  0  0
 27 28  2  0  0  0
 28 29  1  0  0  0
 29 30  2  0  0  0
 30 34  1  0  0  0
 34 35  1  0  0  0
 35 36  1  0  0  0
 36 37  2  0  0  0
 37 38  1  0  0  0
 38 39  2  0  0  0
 39 40  1  0  0  0
 40 41  1  0  0  0
 40 42  2  0  0  0
 30 31  1  0  0  0
 31 32  1  0  0  0
 31 33  2  0  0  0
  7  8  2  0  0  0
  8  9  1  0  0  0
  9 10  2  0  0  0
 10 11  1  0  0  0
 11 12  1  0  0  0
 12 13  2  0  0  0
 12 15  1  0  0  0
 15 16  2  0  0  0
 16 17  1  0  0  0
 17 18  1  0  0  0
 18 19  1  0  0  0
 19 20  1  0  0  0
 20 21  1  0  0  0
 21 22  1  0  0  0
 10  1  1  0  0  0
 22 18  1  0  0  0
  8  3  1  0  0  0
 33 27  1  0  0  0
 42 36  1  0  0  0
 25 26  1  0  0  0
 11 14  1  0  0  0
M  END
> <minimizedAffinity>
-7.14922

> <CNNscore>
0.2422119677

> <CNNaffinity>
7.1978173256

> <CNN_VS>
1.7433974743

> <CNNaffinity_variance>
0.1674594134

$$$$
[H]/C(C(=O)N([H])c1c(OC([H])([H])C([H])([H])[H])c([H])c2nc([H])c(C#N)c(N([H])c3c([H])c([H])c(OC([H])([H])c4c([H])c([H])c([H])c(F)c4[H])c(Cl)c3[H])c2c1[H])=C(/[H])C([H])([H])N1C([H])([H])C([H])([H])C([H])([H])C1([H])[H]


 45 49  0  0  0  0  0  0  0  0999 V2000
   -0.3586  -52.3488  -21.8338 C   0  0  0  0  0  0  0  0  0  0  0  0
   -0.7373  -53.3282  -22.7100 C   0  0  0  0  0  0  0  0  0  0  0  0
   -0.3279  -53.3573  -24.0267 C   0  0  0  0  0  0  0  0  0  0  0  0
   -0.6856  -54.3980  -24.8193 N   0  0  0  0  0  0  0  0  0  0  0  0
   -0.2558  -54.5001  -26.0830 C   0  0  0  0  0  0  0  0  0  0  0  0
    0.5805  -53.5091  -26.6119 C   0  0  0  0  0  0  0  0  0  0  0  0
    0.9260  -52.4649  -25.7987 C   0  0  0  0  0  0  0  0  0  0  0  0
    0.5081  -52.3356  -24.4969 C   0  0  0  0  0  0  0  0  0  0  0  0
    0.9000  -51.3394  -23.6272 C   0  0  0  0  0  0  0  0  0  0  0  0
    0.4991  -51.3113  -22.3007 C   0  0  0  0  0  0  0  0  0  0  0  0
    0.9641  -50.4679  -21.2965 N   0  0  0  0  0  0  0  0  0  0  0  0
    2.1990  -50.1407  -20.7280 C   0  0  0  0  0  0  0  0  0  0  0  0
    3.2497  -50.6520  -21.0861 O   0  0  0  0  0  0  0  0  0  0  0  0
    0.0830  -49.9370  -20.8020 H   0  0  0  0  0  0  0  0  0  0  0  0
    2.1390  -49.1353  -19.6615 C   0  0  0  0  0  0  0  0  0  0  0  0
    3.1213  -48.4005  -19.1920 C   0  0  0  0  0  0  0  0  0  0  0  0
    2.7716  -47.4396  -18.0915 C   0  0  0  0  0  0  0  0  0  0  0  0
    3.9024  -47.1320  -17.2313 N   0  0  0  0  0  0  0  0  0  0  0  0
    3.4599  -46.1078  -16.2453 C   0  0  0  0  0  0  0  0  0  0  0  0
    3.3636  -44.8445  -17.0368 C   0  0  0  0  0  0  0  0  0  0  0  0
    4.3901  -44.9599  -18.1273 C   0  0  0  0  0  0  0  0  0  0  0  0
    4.8896  -46.3696  -18.0330 C   0  0  0  0  0  0  0  0  0  0  0  0
    1.0804  -53.6794  -27.9598 C   0  0  0  0  0  0  0  0  0  0  0  0
    1.5294  -53.7994  -29.0127 N   0  0  0  0  0  0  0  0  0  0  0  0
    1.7572  -51.4322  -26.3636 N   0  0  0  0  0  0  0  0  0  0  0  0
    1.5947  -50.9197  -27.2278 H   0  0  0  0  0  0  0  0  0  0  0  0
    2.9462  -51.1482  -25.5697 C   0  0  0  0  0  0  0  0  0  0  0  0
    3.4117  -49.8518  -25.5070 C   0  0  0  0  0  0  0  0  0  0  0  0
    4.6404  -49.5778  -24.9605 C   0  0  0  0  0  0  0  0  0  0  0  0
    5.4926  -50.5807  -24.4366 C   0  0  0  0  0  0  0  0  0  0  0  0
    4.9676  -51.8829  -24.5152 C   0  0  0  0  0  0  0  0  0  0  0  0
    6.0300  -53.1477  -23.8740 Cl  0  0  0  0  0  0  0  0  0  0  0  0
    3.7259  -52.1469  -25.0697 C   0  0  0  0  0  0  0  0  0  0  0  0
    6.6269  -50.2502  -23.9645 O   0  0  0  0  0  0  0  0  0  0  0  0
    7.7932  -49.9212  -23.4763 C   0  0  0  0  0  0  0  0  0  0  0  0
    8.0206  -49.3006  -22.1739 C   0  0  0  0  0  0  0  0  0  0  0  0
    9.0958  -48.5504  -21.8122 C   0  0  0  0  0  0  0  0  0  0  0  0
    9.2190  -48.0424  -20.5506 C   0  0  0  0  0  0  0  0  0  0  0  0
    8.2521  -48.2517  -19.5438 C   0  0  0  0  0  0  0  0  0  0  0  0
    7.1660  -49.0253  -19.9474 C   0  0  0  0  0  0  0  0  0  0  0  0
    6.2159  -49.2252  -18.9788 F   0  0  0  0  0  0  0  0  0  0  0  0
    7.0324  -49.5402  -21.1959 C   0  0  0  0  0  0  0  0  0  0  0  0
   -0.7855  -52.3277  -20.5117 O   0  0  0  0  0  0  0  0  0  0  0  0
    0.6451  -54.1981  -20.0698 C   0  0  0  0  0  0  0  0  0  0  0  0
   -0.0915  -52.9861  -19.5050 C   0  0  0  0  0  0  0  0  0  0  0  0
 44 45  1  0  0  0
 45 43  1  0  0  0
 43  1  1  0  0  0
  1  2  2  0  0  0
  2  3  1  0  0  0
  3  4  2  0  0  0
  4  5  1  0  0  0
  5  6  2  0  0  0
  6 23  1  0  0  0
 23 24  3  0  0  0
  6  7  1  0  0  0
  7 25  1  0  0  0
 25 27  1  0  0  0
 27 28  2  0  0  0
 28 29  1  0  0  0
 29 30  2  0  0  0
 30 34  1  0  0  0
 34 35  1  0  0  0
 35 36  1  0  0  0
 36 37  2  0  0  0
 37 38  1  0  0  0
 38 39  2  0  0  0
 39 40  1  0  0  0
 40 41  1  0  0  0
 40 42  2  0  0  0
 30 31  1  0  0  0
 31 32  1  0  0  0
 31 33  2  0  0  0
  7  8  2  0  0  0
  8  9  1  0  0  0
  9 10  2  0  0  0
 10 11  1  0  0  0
 11 12  1  0  0  0
 12 13  2  0  0  0
 12 15  1  0  0  0
 15 16  2  0  0  0
 16 17  1  0  0  0
 17 18  1  0  0  0
 18 19  1  0  0  0
 19 20  1  0  0  0
 20 21  1  0  0  0
 21 22  1  0  0  0
 10  1  1  0  0  0
 22 18  1  0  0  0
  8  3  1  0  0  0
 33 27  1  0  0  0
 42 36  1  0  0  0
 25 26  1  0  0  0
 11 14  1  0  0  0
M  END
> <minimizedAffinity>
-6.45008

> <CNNscore>
0.2154282033

> <CNNaffinity>
7.5651755333

> <CNN_VS>
1.6297521591

> <CNNaffinity_variance>
0.2106430829

$$$$
[H]/C(C(=O)N([H])c1c(OC([H])([H])C([H])([H])[H])c([H])c2nc([H])c(C#N)c(N([H])c3c([H])c([H])c(OC([H])([H])c4c([H])c([H])c([H])c(F)c4[H])c(Cl)c3[H])c2c1[H])=C(/[H])C([H])([H])N1C([H])([H])C([H])([H])C([H])([H])C1([H])[H]


 45 49  0  0  0  0  0  0  0  0999 V2000
   -0.1212  -52.1427  -21.8014 C   0  0  0  0  0  0  0  0  0  0  0  0
   -0.5379  -52.6656  -22.9944 C   0  0  0  0  0  0  0  0  0  0  0  0
    0.2216  -52.6115  -24.1444 C   0  0  0  0  0  0  0  0  0  0  0  0
   -0.2253  -53.2139  -25.2743 N   0  0  0  0  0  0  0  0  0  0  0  0
    0.5089  -53.2432  -26.3934 C   0  0  0  0  0  0  0  0  0  0  0  0
    1.7698  -52.6341  -26.4102 C   0  0  0  0  0  0  0  0  0  0  0  0
    2.2008  -52.0274  -25.2624 C   0  0  0  0  0  0  0  0  0  0  0  0
    1.4752  -51.9869  -24.0972 C   0  0  0  0  0  0  0  0  0  0  0  0
    1.9116  -51.4537  -22.9023 C   0  0  0  0  0  0  0  0  0  0  0  0
    1.1561  -51.5143  -21.7419 C   0  0  0  0  0  0  0  0  0  0  0  0
    1.5587  -51.1736  -20.4543 N   0  0  0  0  0  0  0  0  0  0  0  0
    2.6432  -51.4509  -19.6164 C   0  0  0  0  0  0  0  0  0  0  0  0
    3.5658  -52.1814  -19.9463 O   0  0  0  0  0  0  0  0  0  0  0  0
    0.7628  -50.5192  -19.9635 H   0  0  0  0  0  0  0  0  0  0  0  0
    2.5892  -50.7993  -18.3033 C   0  0  0  0  0  0  0  0  0  0  0  0
    3.5862  -50.5586  -17.4827 C   0  0  0  0  0  0  0  0  0  0  0  0
    3.2410  -49.8669  -16.1946 C   0  0  0  0  0  0  0  0  0  0  0  0
    3.1074  -48.4272  -16.3462 N   0  0  0  0  0  0  0  0  0  0  0  0
    4.0241  -47.7788  -15.3683 C   0  0  0  0  0  0  0  0  0  0  0  0
    3.3610  -47.9796  -14.0449 C   0  0  0  0  0  0  0  0  0  0  0  0
    1.8852  -48.0157  -14.3225 C   0  0  0  0  0  0  0  0  0  0  0  0
    1.7788  -48.0355  -15.8171 C   0  0  0  0  0  0  0  0  0  0  0  0
    2.5668  -52.7374  -27.6144 C   0  0  0  0  0  0  0  0  0  0  0  0
    3.2464  -52.8270  -28.5389 N   0  0  0  0  0  0  0  0  0  0  0  0
    3.4838  -51.3725  -25.3010 N   0  0  0  0  0  0  0  0  0  0  0  0
    4.3911  -51.7911  -25.1080 H   0  0  0  0  0  0  0  0  0  0  0  0
    3.4011  -49.9592  -25.6485 C   0  0  0  0  0  0  0  0  0  0  0  0
    3.5736  -49.5854  -26.9644 C   0  0  0  0  0  0  0  0  0  0  0  0
    3.7243  -48.2630  -27.2996 C   0  0  0  0  0  0  0  0  0  0  0  0
    3.7131  -47.2186  -26.3427 C   0  0  0  0  0  0  0  0  0  0  0  0
    3.5242  -47.6515  -25.0182 C   0  0  0  0  0  0  0  0  0  0  0  0
    3.5206  -46.3549  -23.8106 Cl  0  0  0  0  0  0  0  0  0  0  0  0
    3.3737  -48.9895  -24.6923 C   0  0  0  0  0  0  0  0  0  0  0  0
    3.8796  -46.0180  -26.7291 O   0  0  0  0  0  0  0  0  0  0  0  0
    4.0443  -44.7814  -27.1175 C   0  0  0  0  0  0  0  0  0  0  0  0
    4.2922  -44.3521  -28.4912 C   0  0  0  0  0  0  0  0  0  0  0  0
    3.7244  -44.8674  -29.6145 C   0  0  0  0  0  0  0  0  0  0  0  0
    4.0551  -44.4064  -30.8566 C   0  0  0  0  0  0  0  0  0  0  0  0
    4.9941  -43.3732  -31.0642 C   0  0  0  0  0  0  0  0  0  0  0  0
    5.5573  -42.8700  -29.8935 C   0  0  0  0  0  0  0  0  0  0  0  0
    6.4633  -41.8582  -30.0846 F   0  0  0  0  0  0  0  0  0  0  0  0
    5.2417  -43.3212  -28.6531 C   0  0  0  0  0  0  0  0  0  0  0  0
   -0.9007  -52.1973  -20.6524 O   0  0  0  0  0  0  0  0  0  0  0  0
    0.1040  -54.2654  -19.9789 C   0  0  0  0  0  0  0  0  0  0  0  0
   -1.1478  -53.3915  -19.9883 C   0  0  0  0  0  0  0  0  0  0  0  0
 44 45  1  0  0  0
 45 43  1  0  0  0
 43  1  1  0  0  0
  1  2  2  0  0  0
  2  3  1  0  0  0
  3  4  2  0  0  0
  4  5  1  0  0  0
  5  6  2  0  0  0
  6 23  1  0  0  0
 23 24  3  0  0  0
  6  7  1  0  0  0
  7 25  1  0  0  0
 25 27  1  0  0  0
 27 28  2  0  0  0
 28 29  1  0  0  0
 29 30  2  0  0  0
 30 34  1  0  0  0
 34 35  1  0  0  0
 35 36  1  0  0  0
 36 37  2  0  0  0
 37 38  1  0  0  0
 38 39  2  0  0  0
 39 40  1  0  0  0
 40 41  1  0  0  0
 40 42  2  0  0  0
 30 31  1  0  0  0
 31 32  1  0  0  0
 31 33  2  0  0  0
  7  8  2  0  0  0
  8  9  1  0  0  0
  9 10  2  0  0  0
 10 11  1  0  0  0
 11 12  1  0  0  0
 12 13  2  0  0  0
 12 15  1  0  0  0
 15 16  2  0  0  0
 16 17  1  0  0  0
 17 18  1  0  0  0
 18 19  1  0  0  0
 19 20  1  0  0  0
 20 21  1  0  0  0
 21 22  1  0  0  0
 10  1  1  0  0  0
 22 18  1  0  0  0
  8  3  1  0  0  0
 33 27  1  0  0  0
 42 36  1  0  0  0
 25 26  1  0  0  0
 11 14  1  0  0  0
M  END
> <minimizedAffinity>
-6.34691

> <CNNscore>
0.1708496809

> <CNNaffinity>
7.1088738441

> <CNN_VS>
1.2145488262

> <CNNaffinity_variance>
0.0489595309

$$$$
[H]/C(C(=O)N([H])c1c(OC([H])([H])C([H])([H])[H])c([H])c2nc([H])c(C#N)c(N([H])c3c([H])c([H])c(OC([H])([H])c4c([H])c([H])c([H])c(F)c4[H])c(Cl)c3[H])c2c1[H])=C(/[H])C([H])([H])N1C([H])([H])C([H])([H])C([H])([H])C1([H])[H]


 45 49  0  0  0  0  0  0  0  0999 V2000
    4.9201  -51.6721  -22.9812 C   0  0  0  0  0  0  0  0  0  0  0  0
    4.7676  -52.3073  -24.1827 C   0  0  0  0  0  0  0  0  0  0  0  0
    3.5373  -52.5218  -24.7680 C   0  0  0  0  0  0  0  0  0  0  0  0
    3.4672  -53.0956  -25.9948 N   0  0  0  0  0  0  0  0  0  0  0  0
    2.2995  -53.2617  -26.6281 C   0  0  0  0  0  0  0  0  0  0  0  0
    1.1132  -52.8409  -26.0143 C   0  0  0  0  0  0  0  0  0  0  0  0
    1.2040  -52.2691  -24.7749 C   0  0  0  0  0  0  0  0  0  0  0  0
    2.3864  -52.0780  -24.1031 C   0  0  0  0  0  0  0  0  0  0  0  0
    2.5212  -51.4355  -22.8901 C   0  0  0  0  0  0  0  0  0  0  0  0
    3.7560  -51.2090  -22.3027 C   0  0  0  0  0  0  0  0  0  0  0  0
    4.0274  -50.4277  -21.1838 N   0  0  0  0  0  0  0  0  0  0  0  0
    3.9411  -50.5674  -19.7952 C   0  0  0  0  0  0  0  0  0  0  0  0
    3.5238  -51.5817  -19.2559 O   0  0  0  0  0  0  0  0  0  0  0  0
    4.3849  -49.3953  -21.5137 H   0  0  0  0  0  0  0  0  0  0  0  0
    4.3876  -49.3986  -19.0296 C   0  0  0  0  0  0  0  0  0  0  0  0
    3.7087  -48.3076  -18.7572 C   0  0  0  0  0  0  0  0  0  0  0  0
    4.4181  -47.2637  -17.9425 C   0  0  0  0  0  0  0  0  0  0  0  0
    3.5228  -46.5318  -17.0614 N   0  0  0  0  0  0  0  0  0  0  0  0
    4.3561  -45.6694  -16.1788 C   0  0  0  0  0  0  0  0  0  0  0  0
    4.9808  -46.6196  -15.2101 C   0  0  0  0  0  0  0  0  0  0  0  0
    4.0045  -47.7499  -15.0507 C   0  0  0  0  0  0  0  0  0  0  0  0
    2.9539  -47.4954  -16.0886 C   0  0  0  0  0  0  0  0  0  0  0  0
   -0.1263  -52.9754  -26.7500 C   0  0  0  0  0  0  0  0  0  0  0  0
   -1.1088  -53.1386  -27.3268 N   0  0  0  0  0  0  0  0  0  0  0  0
   -0.0256  -51.8726  -24.1367 N   0  0  0  0  0  0  0  0  0  0  0  0
   -0.8306  -51.4332  -24.5779 H   0  0  0  0  0  0  0  0  0  0  0  0
   -0.0489  -52.1478  -22.7054 C   0  0  0  0  0  0  0  0  0  0  0  0
   -0.6006  -53.3315  -22.2633 C   0  0  0  0  0  0  0  0  0  0  0  0
   -0.8433  -53.5316  -20.9274 C   0  0  0  0  0  0  0  0  0  0  0  0
   -0.5515  -52.5621  -19.9367 C   0  0  0  0  0  0  0  0  0  0  0  0
    0.0185  -51.3784  -20.4380 C   0  0  0  0  0  0  0  0  0  0  0  0
    0.3768  -50.1530  -19.2093 Cl  0  0  0  0  0  0  0  0  0  0  0  0
    0.2583  -51.1880  -21.7890 C   0  0  0  0  0  0  0  0  0  0  0  0
   -0.8243  -52.8134  -18.7197 O   0  0  0  0  0  0  0  0  0  0  0  0
   -1.1151  -53.0692  -17.4719 C   0  0  0  0  0  0  0  0  0  0  0  0
   -2.1676  -52.4167  -16.6977 C   0  0  0  0  0  0  0  0  0  0  0  0
   -3.4808  -52.7690  -16.6604 C   0  0  0  0  0  0  0  0  0  0  0  0
   -4.3873  -52.0648  -15.9208 C   0  0  0  0  0  0  0  0  0  0  0  0
   -4.0338  -50.9376  -15.1482 C   0  0  0  0  0  0  0  0  0  0  0  0
   -2.6827  -50.6035  -15.2108 C   0  0  0  0  0  0  0  0  0  0  0  0
   -2.3277  -49.5158  -14.4548 F   0  0  0  0  0  0  0  0  0  0  0  0
   -1.7716  -51.2913  -15.9447 C   0  0  0  0  0  0  0  0  0  0  0  0
    6.1656  -51.4701  -22.3993 O   0  0  0  0  0  0  0  0  0  0  0  0
    7.8759  -50.3252  -23.6257 C   0  0  0  0  0  0  0  0  0  0  0  0
    6.8393  -50.2605  -22.5068 C   0  0  0  0  0  0  0  0  0  0  0  0
 44 45  1  0  0  0
 45 43  1  0  0  0
 43  1  1  0  0  0
  1  2  2  0  0  0
  2  3  1  0  0  0
  3  4  2  0  0  0
  4  5  1  0  0  0
  5  6  2  0  0  0
  6 23  1  0  0  0
 23 24  3  0  0  0
  6  7  1  0  0  0
  7 25  1  0  0  0
 25 27  1  0  0  0
 27 28  2  0  0  0
 28 29  1  0  0  0
 29 30  2  0  0  0
 30 34  1  0  0  0
 34 35  1  0  0  0
 35 36  1  0  0  0
 36 37  2  0  0  0
 37 38  1  0  0  0
 38 39  2  0  0  0
 39 40  1  0  0  0
 40 41  1  0  0  0
 40 42  2  0  0  0
 30 31  1  0  0  0
 31 32  1  0  0  0
 31 33  2  0  0  0
  7  8  2  0  0  0
  8  9  1  0  0  0
  9 10  2  0  0  0
 10 11  1  0  0  0
 11 12  1  0  0  0
 12 13  2  0  0  0
 12 15  1  0  0  0
 15 16  2  0  0  0
 16 17  1  0  0  0
 17 18  1  0  0  0
 18 19  1  0  0  0
 19 20  1  0  0  0
 20 21  1  0  0  0
 21 22  1  0  0  0
 10  1  1  0  0  0
 22 18  1  0  0  0
  8  3  1  0  0  0
 33 27  1  0  0  0
 42 36  1  0  0  0
 25 26  1  0  0  0
 11 14  1  0  0  0
M  END
> <minimizedAffinity>
-7.80626

> <CNNscore>
0.1596107930

> <CNNaffinity>
7.1378722191

> <CNN_VS>
1.1392813921

> <CNNaffinity_variance>
0.4706305563

$$$$
[H]/C(C(=O)N([H])c1c(OC([H])([H])C([H])([H])[H])c([H])c2nc([H])c(C#N)c(N([H])c3c([H])c([H])c(OC([H])([H])c4c([H])c([H])c([H])c(F)c4[H])c(Cl)c3[H])c2c1[H])=C(/[H])C([H])([H])N1C([H])([H])C([H])([H])C([H])([H])C1([H])[H]


 45 49  0  0  0  0  0  0  0  0999 V2000
   -0.0478  -52.0052  -21.1084 C   0  0  0  0  0  0  0  0  0  0  0  0
   -0.4344  -52.6888  -22.2281 C   0  0  0  0  0  0  0  0  0  0  0  0
    0.3039  -52.7009  -23.3929 C   0  0  0  0  0  0  0  0  0  0  0  0
   -0.1053  -53.4586  -24.4406 N   0  0  0  0  0  0  0  0  0  0  0  0
    0.6150  -53.5520  -25.5651 C   0  0  0  0  0  0  0  0  0  0  0  0
    1.8210  -52.8486  -25.6751 C   0  0  0  0  0  0  0  0  0  0  0  0
    2.2143  -52.0860  -24.6098 C   0  0  0  0  0  0  0  0  0  0  0  0
    1.5021  -51.9757  -23.4408 C   0  0  0  0  0  0  0  0  0  0  0  0
    1.9075  -51.2801  -22.3209 C   0  0  0  0  0  0  0  0  0  0  0  0
    1.1738  -51.2729  -21.1450 C   0  0  0  0  0  0  0  0  0  0  0  0
    1.5626  -50.7605  -19.9112 N   0  0  0  0  0  0  0  0  0  0  0  0
    2.5907  -50.9845  -18.9904 C   0  0  0  0  0  0  0  0  0  0  0  0
    3.4562  -51.8313  -19.1564 O   0  0  0  0  0  0  0  0  0  0  0  0
    0.8114  -49.9726  -19.5685 H   0  0  0  0  0  0  0  0  0  0  0  0
    2.5513  -50.1252  -17.8021 C   0  0  0  0  0  0  0  0  0  0  0  0
    2.3680  -48.8254  -17.7545 C   0  0  0  0  0  0  0  0  0  0  0  0
    2.3697  -48.1987  -16.3893 C   0  0  0  0  0  0  0  0  0  0  0  0
    1.5060  -48.8939  -15.4489 N   0  0  0  0  0  0  0  0  0  0  0  0
    0.2878  -48.0617  -15.2477 C   0  0  0  0  0  0  0  0  0  0  0  0
    0.7511  -46.9192  -14.4042 C   0  0  0  0  0  0  0  0  0  0  0  0
    1.8771  -47.4534  -13.5658 C   0  0  0  0  0  0  0  0  0  0  0  0
    2.1411  -48.8241  -14.1109 C   0  0  0  0  0  0  0  0  0  0  0  0
    2.6090  -53.0196  -26.8774 C   0  0  0  0  0  0  0  0  0  0  0  0
    3.2738  -53.1842  -27.8024 N   0  0  0  0  0  0  0  0  0  0  0  0
    3.4382  -51.3377  -24.7469 N   0  0  0  0  0  0  0  0  0  0  0  0
    4.3822  -51.6680  -24.5586 H   0  0  0  0  0  0  0  0  0  0  0  0
    3.2302  -49.9664  -25.1953 C   0  0  0  0  0  0  0  0  0  0  0  0
    3.2699  -49.6939  -26.5464 C   0  0  0  0  0  0  0  0  0  0  0  0
    3.3013  -48.3974  -26.9955 C   0  0  0  0  0  0  0  0  0  0  0  0
    3.2949  -47.2794  -26.1257 C   0  0  0  0  0  0  0  0  0  0  0  0
    3.2436  -47.6109  -24.7601 C   0  0  0  0  0  0  0  0  0  0  0  0
    3.2475  -46.2207  -23.6617 Cl  0  0  0  0  0  0  0  0  0  0  0  0
    3.2127  -48.9238  -24.3190 C   0  0  0  0  0  0  0  0  0  0  0  0
    3.3463  -46.1071  -26.6176 O   0  0  0  0  0  0  0  0  0  0  0  0
    3.3933  -44.8995  -27.1140 C   0  0  0  0  0  0  0  0  0  0  0  0
    4.5094  -43.9687  -26.9704 C   0  0  0  0  0  0  0  0  0  0  0  0
    5.2306  -43.4090  -27.9785 C   0  0  0  0  0  0  0  0  0  0  0  0
    6.2787  -42.5709  -27.7256 C   0  0  0  0  0  0  0  0  0  0  0  0
    6.6834  -42.2250  -26.4183 C   0  0  0  0  0  0  0  0  0  0  0  0
    5.9251  -42.8169  -25.4105 C   0  0  0  0  0  0  0  0  0  0  0  0
    6.3042  -42.4782  -24.1368 F   0  0  0  0  0  0  0  0  0  0  0  0
    4.8840  -43.6549  -25.6469 C   0  0  0  0  0  0  0  0  0  0  0  0
   -0.8060  -51.9953  -19.9441 O   0  0  0  0  0  0  0  0  0  0  0  0
   -0.8495  -52.4720  -17.5965 C   0  0  0  0  0  0  0  0  0  0  0  0
   -0.7394  -53.0253  -19.0151 C   0  0  0  0  0  0  0  0  0  0  0  0
 44 45  1  0  0  0
 45 43  1  0  0  0
 43  1  1  0  0  0
  1  2  2  0  0  0
  2  3  1  0  0  0
  3  4  2  0  0  0
  4  5  1  0  0  0
  5  6  2  0  0  0
  6 23  1  0  0  0
 23 24  3  0  0  0
  6  7  1  0  0  0
  7 25  1  0  0  0
 25 27  1  0  0  0
 27 28  2  0  0  0
 28 29  1  0  0  0
 29 30  2  0  0  0
 30 34  1  0  0  0
 34 35  1  0  0  0
 35 36  1  0  0  0
 36 37  2  0  0  0
 37 38  1  0  0  0
 38 39  2  0  0  0
 39 40  1  0  0  0
 40 41  1  0  0  0
 40 42  2  0  0  0
 30 31  1  0  0  0
 31 32  1  0  0  0
 31 33  2  0  0  0
  7  8  2  0  0  0
  8  9  1  0  0  0
  9 10  2  0  0  0
 10 11  1  0  0  0
 11 12  1  0  0  0
 12 13  2  0  0  0
 12 15  1  0  0  0
 15 16  2  0  0  0
 16 17  1  0  0  0
 17 18  1  0  0  0
 18 19  1  0  0  0
 19 20  1  0  0  0
 20 21  1  0  0  0
 21 22  1  0  0  0
 10  1  1  0  0  0
 22 18  1  0  0  0
  8  3  1  0  0  0
 33 27  1  0  0  0
 42 36  1  0  0  0
 25 26  1  0  0  0
 11 14  1  0  0  0
M  END
> <minimizedAffinity>
-6.29655

> <CNNscore>
0.1543652713

> <CNNaffinity>
7.1467757225

> <CNN_VS>
1.1032140255

> <CNNaffinity_variance>
0.0793550909

$$$$
[H]/C(C(=O)N([H])c1nc([H])c2nc([H])nc(N([H])c3c([H])c([H])c(F)c(Cl)c3[H])c2c1[H])=C(/[H])C([H])([H])N(C([H])([H])[H])C([H])([H])[H]


 30 32  0  0  0  0  0  0  0  0999 V2000
    0.6144  -51.6795  -20.3928 C   0  0  0  0  0  0  0  0  0  0  0  0
    0.6515  -52.0356  -21.7373 C   0  0  0  0  0  0  0  0  0  0  0  0
   -0.1067  -53.0750  -22.1649 C   0  0  0  0  0  0  0  0  0  0  0  0
   -0.1010  -53.4742  -23.5060 C   0  0  0  0  0  0  0  0  0  0  0  0
   -0.8966  -54.5167  -23.7757 N   0  0  0  0  0  0  0  0  0  0  0  0
   -1.6603  -55.1735  -22.8989 C   0  0  0  0  0  0  0  0  0  0  0  0
   -1.6443  -54.7670  -21.6192 N   0  0  0  0  0  0  0  0  0  0  0  0
   -0.8801  -53.7238  -21.2227 C   0  0  0  0  0  0  0  0  0  0  0  0
   -0.9141  -53.3664  -19.8892 C   0  0  0  0  0  0  0  0  0  0  0  0
   -0.1500  -52.3339  -19.5079 N   0  0  0  0  0  0  0  0  0  0  0  0
    2.7300  -50.7591  -19.4728 C   0  0  0  0  0  0  0  0  0  0  0  0
    3.1458  -51.9502  -19.3657 O   0  0  0  0  0  0  0  0  0  0  0  0
    1.4398  -50.5745  -19.9904 N   0  0  0  0  0  0  0  0  0  0  0  0
    1.0693  -49.6115  -20.0908 H   0  0  0  0  0  0  0  0  0  0  0  0
    3.2876  -48.8099  -18.0871 C   0  0  0  0  0  0  0  0  0  0  0  0
    3.5484  -49.6324  -19.0785 C   0  0  0  0  0  0  0  0  0  0  0  0
    4.1742  -47.6645  -17.7314 C   0  0  0  0  0  0  0  0  0  0  0  0
    5.1136  -46.5910  -15.8215 C   0  0  0  0  0  0  0  0  0  0  0  0
    3.9416  -47.2258  -16.3525 N   0  0  0  0  0  0  0  0  0  0  0  0
    3.6221  -48.4021  -15.5471 C   0  0  0  0  0  0  0  0  0  0  0  0
    0.6892  -52.8183  -24.4669 N   0  0  0  0  0  0  0  0  0  0  0  0
    1.5005  -52.2193  -24.0988 H   0  0  0  0  0  0  0  0  0  0  0  0
    0.5569  -52.8337  -25.8667 C   0  0  0  0  0  0  0  0  0  0  0  0
    1.5491  -52.9625  -26.7919 C   0  0  0  0  0  0  0  0  0  0  0  0
    1.3532  -52.9582  -28.1738 C   0  0  0  0  0  0  0  0  0  0  0  0
    0.0640  -52.8138  -28.6166 C   0  0  0  0  0  0  0  0  0  0  0  0
   -0.1951  -52.8017  -29.9558 F   0  0  0  0  0  0  0  0  0  0  0  0
   -0.9830  -52.6801  -27.7637 C   0  0  0  0  0  0  0  0  0  0  0  0
   -2.6362  -52.4993  -28.3629 Cl  0  0  0  0  0  0  0  0  0  0  0  0
   -0.7354  -52.6906  -26.4086 C   0  0  0  0  0  0  0  0  0  0  0  0
 18 19  1  0  0  0
 19 20  1  0  0  0
 19 17  1  0  0  0
 17 15  1  0  0  0
 15 16  2  0  0  0
 16 11  1  0  0  0
 11 12  2  0  0  0
 11 13  1  0  0  0
 13  1  1  0  0  0
  1  2  2  0  0  0
  2  3  1  0  0  0
  3  4  2  0  0  0
  4 21  1  0  0  0
 21 23  1  0  0  0
 23 24  2  0  0  0
 24 25  1  0  0  0
 25 26  2  0  0  0
 26 27  1  0  0  0
 26 28  1  0  0  0
 28 29  1  0  0  0
 28 30  2  0  0  0
  4  5  1  0  0  0
  5  6  2  0  0  0
  6  7  1  0  0  0
  7  8  2  0  0  0
  8  9  1  0  0  0
  9 10  2  0  0  0
 10  1  1  0  0  0
  8  3  1  0  0  0
 30 23  1  0  0  0
 13 14  1  0  0  0
 21 22  1  0  0  0
M  END
> <minimizedAffinity>
-7.91360

> <CNNscore>
0.9533947706

> <CNNaffinity>
7.2992448807

> <CNN_VS>
6.9590620995

> <CNNaffinity_variance>
0.1230972782

$$$$
[H]/C(C(=O)N([H])c1nc([H])c2nc([H])nc(N([H])c3c([H])c([H])c(F)c(Cl)c3[H])c2c1[H])=C(/[H])C([H])([H])N(C([H])([H])[H])C([H])([H])[H]


 30 32  0  0  0  0  0  0  0  0999 V2000
    0.8862  -51.4893  -20.4167 C   0  0  0  0  0  0  0  0  0  0  0  0
    0.8266  -51.8452  -21.7605 C   0  0  0  0  0  0  0  0  0  0  0  0
    0.0634  -52.9036  -22.1288 C   0  0  0  0  0  0  0  0  0  0  0  0
   -0.0261  -53.3033  -23.4667 C   0  0  0  0  0  0  0  0  0  0  0  0
   -0.8141  -54.3655  -23.6746 N   0  0  0  0  0  0  0  0  0  0  0  0
   -1.4900  -55.0407  -22.7416 C   0  0  0  0  0  0  0  0  0  0  0  0
   -1.3839  -54.6332  -21.4665 N   0  0  0  0  0  0  0  0  0  0  0  0
   -0.6172  -53.5709  -21.1297 C   0  0  0  0  0  0  0  0  0  0  0  0
   -0.5554  -53.2137  -19.7972 C   0  0  0  0  0  0  0  0  0  0  0  0
    0.2101  -52.1622  -19.4756 N   0  0  0  0  0  0  0  0  0  0  0  0
    3.0044  -50.5195  -19.5555 C   0  0  0  0  0  0  0  0  0  0  0  0
    3.4205  -51.7029  -19.3835 O   0  0  0  0  0  0  0  0  0  0  0  0
    1.7127  -50.3638  -20.0789 N   0  0  0  0  0  0  0  0  0  0  0  0
    1.3419  -49.4079  -20.2316 H   0  0  0  0  0  0  0  0  0  0  0  0
    5.1214  -49.2828  -19.4160 C   0  0  0  0  0  0  0  0  0  0  0  0
    3.8239  -49.3727  -19.2268 C   0  0  0  0  0  0  0  0  0  0  0  0
    5.9097  -48.0695  -19.0541 C   0  0  0  0  0  0  0  0  0  0  0  0
    5.6065  -46.5692  -20.8817 C   0  0  0  0  0  0  0  0  0  0  0  0
    6.5241  -47.4665  -20.2402 N   0  0  0  0  0  0  0  0  0  0  0  0
    6.8780  -48.5395  -21.1663 C   0  0  0  0  0  0  0  0  0  0  0  0
    0.6696  -52.6285  -24.4857 N   0  0  0  0  0  0  0  0  0  0  0  0
    1.4449  -51.9530  -24.1768 H   0  0  0  0  0  0  0  0  0  0  0  0
    0.4824  -52.7126  -25.8768 C   0  0  0  0  0  0  0  0  0  0  0  0
    1.4370  -52.8921  -26.8326 C   0  0  0  0  0  0  0  0  0  0  0  0
    1.1870  -52.9554  -28.2043 C   0  0  0  0  0  0  0  0  0  0  0  0
   -0.1182  -52.8266  -28.6029 C   0  0  0  0  0  0  0  0  0  0  0  0
   -0.4296  -52.8796  -29.9299 F   0  0  0  0  0  0  0  0  0  0  0  0
   -1.1303  -52.6454  -27.7174 C   0  0  0  0  0  0  0  0  0  0  0  0
   -2.8053  -52.4862  -28.2597 Cl  0  0  0  0  0  0  0  0  0  0  0  0
   -0.8297  -52.5900  -26.3742 C   0  0  0  0  0  0  0  0  0  0  0  0
 18 19  1  0  0  0
 19 20  1  0  0  0
 19 17  1  0  0  0
 17 15  1  0  0  0
 15 16  2  0  0  0
 16 11  1  0  0  0
 11 12  2  0  0  0
 11 13  1  0  0  0
 13  1  1  0  0  0
  1  2  2  0  0  0
  2  3  1  0  0  0
  3  4  2  0  0  0
  4 21  1  0  0  0
 21 23  1  0  0  0
 23 24  2  0  0  0
 24 25  1  0  0  0
 25 26  2  0  0  0
 26 27  1  0  0  0
 26 28  1  0  0  0
 28 29  1  0  0  0
 28 30  2  0  0  0
  4  5  1  0  0  0
  5  6  2  0  0  0
  6  7  1  0  0  0
  7  8  2  0  0  0
  8  9  1  0  0  0
  9 10  2  0  0  0
 10  1  1  0  0  0
  8  3  1  0  0  0
 30 23  1  0  0  0
 13 14  1  0  0  0
 21 22  1  0  0  0
M  END
> <minimizedAffinity>
-7.88683

> <CNNscore>
0.9424794316

> <CNNaffinity>
7.3197083473

> <CNN_VS>
6.8986744881

> <CNNaffinity_variance>
0.1286299825

$$$$
[H]/C(C(=O)N([H])c1nc([H])c2nc([H])nc(N([H])c3c([H])c([H])c(F)c(Cl)c3[H])c2c1[H])=C(/[H])C([H])([H])N(C([H])([H])[H])C([H])([H])[H]


 30 32  0  0  0  0  0  0  0  0999 V2000
   -1.1934  -53.8180  -21.6430 C   0  0  0  0  0  0  0  0  0  0  0  0
   -0.4706  -52.9376  -22.4420 C   0  0  0  0  0  0  0  0  0  0  0  0
   -0.2054  -53.2797  -23.7268 C   0  0  0  0  0  0  0  0  0  0  0  0
    0.5208  -52.4306  -24.5690 C   0  0  0  0  0  0  0  0  0  0  0  0
    0.7059  -52.9058  -25.8069 N   0  0  0  0  0  0  0  0  0  0  0  0
    0.2681  -54.0772  -26.2755 C   0  0  0  0  0  0  0  0  0  0  0  0
   -0.4258  -54.8704  -25.4433 N   0  0  0  0  0  0  0  0  0  0  0  0
   -0.6780  -54.5002  -24.1670 C   0  0  0  0  0  0  0  0  0  0  0  0
   -1.3955  -55.3707  -23.3704 C   0  0  0  0  0  0  0  0  0  0  0  0
   -1.6359  -54.9946  -22.1071 N   0  0  0  0  0  0  0  0  0  0  0  0
   -0.4090  -53.0172  -19.4266 C   0  0  0  0  0  0  0  0  0  0  0  0
    0.7697  -53.0402  -19.8887 O   0  0  0  0  0  0  0  0  0  0  0  0
   -1.4432  -53.4101  -20.2883 N   0  0  0  0  0  0  0  0  0  0  0  0
   -2.4198  -53.4029  -19.9407 H   0  0  0  0  0  0  0  0  0  0  0  0
   -0.1501  -51.5640  -17.4640 C   0  0  0  0  0  0  0  0  0  0  0  0
   -0.6818  -52.6040  -18.0667 C   0  0  0  0  0  0  0  0  0  0  0  0
   -0.4739  -51.1913  -16.0566 C   0  0  0  0  0  0  0  0  0  0  0  0
    0.4428  -52.2849  -14.1470 C   0  0  0  0  0  0  0  0  0  0  0  0
    0.6994  -51.3336  -15.1901 N   0  0  0  0  0  0  0  0  0  0  0  0
    0.9885  -50.0308  -14.5956 C   0  0  0  0  0  0  0  0  0  0  0  0
    1.0074  -51.1891  -24.1221 N   0  0  0  0  0  0  0  0  0  0  0  0
    0.6488  -50.3162  -24.6341 H   0  0  0  0  0  0  0  0  0  0  0  0
    1.9197  -50.9292  -23.0841 C   0  0  0  0  0  0  0  0  0  0  0  0
    3.0730  -51.6000  -22.8064 C   0  0  0  0  0  0  0  0  0  0  0  0
    3.9331  -51.2991  -21.7493 C   0  0  0  0  0  0  0  0  0  0  0  0
    3.5789  -50.2499  -20.9414 C   0  0  0  0  0  0  0  0  0  0  0  0
    4.3770  -49.9044  -19.8906 F   0  0  0  0  0  0  0  0  0  0  0  0
    2.4480  -49.5285  -21.1470 C   0  0  0  0  0  0  0  0  0  0  0  0
    2.0178  -48.1777  -20.0911 Cl  0  0  0  0  0  0  0  0  0  0  0  0
    1.6329  -49.8669  -22.2047 C   0  0  0  0  0  0  0  0  0  0  0  0
 18 19  1  0  0  0
 19 20  1  0  0  0
 19 17  1  0  0  0
 17 15  1  0  0  0
 15 16  2  0  0  0
 16 11  1  0  0  0
 11 12  2  0  0  0
 11 13  1  0  0  0
 13  1  1  0  0  0
  1  2  2  0  0  0
  2  3  1  0  0  0
  3  4  2  0  0  0
  4 21  1  0  0  0
 21 23  1  0  0  0
 23 24  2  0  0  0
 24 25  1  0  0  0
 25 26  2  0  0  0
 26 27  1  0  0  0
 26 28  1  0  0  0
 28 29  1  0  0  0
 28 30  2  0  0  0
  4  5  1  0  0  0
  5  6  2  0  0  0
  6  7  1  0  0  0
  7  8  2  0  0  0
  8  9  1  0  0  0
  9 10  2  0  0  0
 10  1  1  0  0  0
  8  3  1  0  0  0
 30 23  1  0  0  0
 13 14  1  0  0  0
 21 22  1  0  0  0
M  END
> <minimizedAffinity>
-7.65335

> <CNNscore>
0.8305535913

> <CNNaffinity>
7.0118393898

> <CNN_VS>
5.8237085342

> <CNNaffinity_variance>
0.0329927579

$$$$
[H]/C(C(=O)N([H])c1nc([H])c2nc([H])nc(N([H])c3c([H])c([H])c(F)c(Cl)c3[H])c2c1[H])=C(/[H])C([H])([H])N(C([H])([H])[H])C([H])([H])[H]


 30 32  0  0  0  0  0  0  0  0999 V2000
   -0.4729  -53.8276  -20.9978 C   0  0  0  0  0  0  0  0  0  0  0  0
    0.5016  -53.3085  -21.8444 C   0  0  0  0  0  0  0  0  0  0  0  0
    0.4018  -53.5303  -23.1783 C   0  0  0  0  0  0  0  0  0  0  0  0
    1.3581  -53.0329  -24.0704 C   0  0  0  0  0  0  0  0  0  0  0  0
    1.1271  -53.3359  -25.3538 N   0  0  0  0  0  0  0  0  0  0  0  0
    0.0981  -54.0456  -25.8237 C   0  0  0  0  0  0  0  0  0  0  0  0
   -0.8031  -54.5096  -24.9430 N   0  0  0  0  0  0  0  0  0  0  0  0
   -0.6789  -54.2690  -23.6177 C   0  0  0  0  0  0  0  0  0  0  0  0
   -1.6440  -54.7818  -22.7735 C   0  0  0  0  0  0  0  0  0  0  0  0
   -1.5082  -54.5400  -21.4627 N   0  0  0  0  0  0  0  0  0  0  0  0
   -0.1842  -52.2673  -19.0868 C   0  0  0  0  0  0  0  0  0  0  0  0
   -0.1991  -51.3165  -19.9228 O   0  0  0  0  0  0  0  0  0  0  0  0
   -0.3180  -53.5682  -19.5931 N   0  0  0  0  0  0  0  0  0  0  0  0
   -0.3094  -54.3693  -18.9352 H   0  0  0  0  0  0  0  0  0  0  0  0
   -1.0187  -51.9477  -16.7995 C   0  0  0  0  0  0  0  0  0  0  0  0
   -0.0350  -52.0264  -17.6676 C   0  0  0  0  0  0  0  0  0  0  0  0
   -0.7972  -51.6962  -15.3461 C   0  0  0  0  0  0  0  0  0  0  0  0
   -1.2421  -49.9687  -13.7649 C   0  0  0  0  0  0  0  0  0  0  0  0
   -1.8032  -50.7745  -14.8111 N   0  0  0  0  0  0  0  0  0  0  0  0
   -2.9067  -51.5660  -14.2725 C   0  0  0  0  0  0  0  0  0  0  0  0
    2.4623  -52.2842  -23.6253 N   0  0  0  0  0  0  0  0  0  0  0  0
    3.3213  -52.8379  -23.2962 H   0  0  0  0  0  0  0  0  0  0  0  0
    2.5964  -50.8869  -23.5440 C   0  0  0  0  0  0  0  0  0  0  0  0
    3.1544  -50.0524  -24.4656 C   0  0  0  0  0  0  0  0  0  0  0  0
    3.2688  -48.6691  -24.3198 C   0  0  0  0  0  0  0  0  0  0  0  0
    2.7793  -48.1255  -23.1605 C   0  0  0  0  0  0  0  0  0  0  0  0
    2.8602  -46.7793  -22.9564 F   0  0  0  0  0  0  0  0  0  0  0  0
    2.2078  -48.8839  -22.1911 C   0  0  0  0  0  0  0  0  0  0  0  0
    1.5813  -48.1553  -20.7073 Cl  0  0  0  0  0  0  0  0  0  0  0  0
    2.1197  -50.2450  -22.3844 C   0  0  0  0  0  0  0  0  0  0  0  0
 18 19  1  0  0  0
 19 20  1  0  0  0
 19 17  1  0  0  0
 17 15  1  0  0  0
 15 16  2  0  0  0
 16 11  1  0  0  0
 11 12  2  0  0  0
 11 13  1  0  0  0
 13  1  1  0  0  0
  1  2  2  0  0  0
  2  3  1  0  0  0
  3  4  2  0  0  0
  4 21  1  0  0  0
 21 23  1  0  0  0
 23 24  2  0  0  0
 24 25  1  0  0  0
 25 26  2  0  0  0
 26 27  1  0  0  0
 26 28  1  0  0  0
 28 29  1  0  0  0
 28 30  2  0  0  0
  4  5  1  0  0  0
  5  6  2  0  0  0
  6  7  1  0  0  0
  7  8  2  0  0  0
  8  9  1  0  0  0
  9 10  2  0  0  0
 10  1  1  0  0  0
  8  3  1  0  0  0
 30 23  1  0  0  0
 13 14  1  0  0  0
 21 22  1  0  0  0
M  END
> <minimizedAffinity>
-6.98536

> <CNNscore>
0.8069221377

> <CNNaffinity>
7.1589698792

> <CNN_VS>
5.7767314911

> <CNNaffinity_variance>
0.1212708727

$$$$
[H]/C(C(=O)N([H])c1nc([H])c2nc([H])nc(N([H])c3c([H])c([H])c(F)c(Cl)c3[H])c2c1[H])=C(/[H])C([H])([H])N(C([H])([H])[H])C([H])([H])[H]


 30 32  0  0  0  0  0  0  0  0999 V2000
   -0.5930  -53.7305  -20.6216 C   0  0  0  0  0  0  0  0  0  0  0  0
    0.3845  -53.1198  -21.4009 C   0  0  0  0  0  0  0  0  0  0  0  0
    0.3590  -53.2930  -22.7454 C   0  0  0  0  0  0  0  0  0  0  0  0
    1.3218  -52.7031  -23.5716 C   0  0  0  0  0  0  0  0  0  0  0  0
    1.1683  -52.9673  -24.8751 N   0  0  0  0  0  0  0  0  0  0  0  0
    0.2075  -53.7181  -25.4198 C   0  0  0  0  0  0  0  0  0  0  0  0
   -0.7020  -54.2709  -24.6009 N   0  0  0  0  0  0  0  0  0  0  0  0
   -0.6529  -54.0771  -23.2632 C   0  0  0  0  0  0  0  0  0  0  0  0
   -1.6214  -54.6809  -22.4857 C   0  0  0  0  0  0  0  0  0  0  0  0
   -1.5601  -54.4846  -21.1617 N   0  0  0  0  0  0  0  0  0  0  0  0
   -0.3231  -52.2459  -18.6488 C   0  0  0  0  0  0  0  0  0  0  0  0
   -0.2081  -51.2758  -19.4544 O   0  0  0  0  0  0  0  0  0  0  0  0
   -0.5181  -53.5194  -19.2025 N   0  0  0  0  0  0  0  0  0  0  0  0
   -0.6157  -54.3351  -18.5702 H   0  0  0  0  0  0  0  0  0  0  0  0
   -1.2571  -51.6835  -16.4483 C   0  0  0  0  0  0  0  0  0  0  0  0
   -0.2563  -52.0530  -17.2160 C   0  0  0  0  0  0  0  0  0  0  0  0
   -1.1219  -51.5017  -14.9741 C   0  0  0  0  0  0  0  0  0  0  0  0
    0.4684  -52.5273  -13.5243 C   0  0  0  0  0  0  0  0  0  0  0  0
    0.2837  -51.5547  -14.5628 N   0  0  0  0  0  0  0  0  0  0  0  0
    0.6629  -50.2355  -14.0625 C   0  0  0  0  0  0  0  0  0  0  0  0
    2.3562  -51.9079  -23.0467 N   0  0  0  0  0  0  0  0  0  0  0  0
    3.2514  -52.4171  -22.7433 H   0  0  0  0  0  0  0  0  0  0  0  0
    2.3777  -50.5151  -22.8549 C   0  0  0  0  0  0  0  0  0  0  0  0
    1.7246  -49.8001  -21.8960 C   0  0  0  0  0  0  0  0  0  0  0  0
    1.7773  -48.4115  -21.7655 C   0  0  0  0  0  0  0  0  0  0  0  0
    2.5461  -47.7322  -22.6746 C   0  0  0  0  0  0  0  0  0  0  0  0
    2.6397  -46.3733  -22.6017 F   0  0  0  0  0  0  0  0  0  0  0  0
    3.2295  -48.3662  -23.6608 C   0  0  0  0  0  0  0  0  0  0  0  0
    4.2168  -47.4648  -24.8174 Cl  0  0  0  0  0  0  0  0  0  0  0  0
    3.1437  -49.7384  -23.7459 C   0  0  0  0  0  0  0  0  0  0  0  0
 18 19  1  0  0  0
 19 20  1  0  0  0
 19 17  1  0  0  0
 17 15  1  0  0  0
 15 16  2  0  0  0
 16 11  1  0  0  0
 11 12  2  0  0  0
 11 13  1  0  0  0
 13  1  1  0  0  0
  1  2  2  0  0  0
  2  3  1  0  0  0
  3  4  2  0  0  0
  4 21  1  0  0  0
 21 23  1  0  0  0
 23 24  2  0  0  0
 24 25  1  0  0  0
 25 26  2  0  0  0
 26 27  1  0  0  0
 26 28  1  0  0  0
 28 29  1  0  0  0
 28 30  2  0  0  0
  4  5  1  0  0  0
  5  6  2  0  0  0
  6  7  1  0  0  0
  7  8  2  0  0  0
  8  9  1  0  0  0
  9 10  2  0  0  0
 10  1  1  0  0  0
  8  3  1  0  0  0
 30 23  1  0  0  0
 13 14  1  0  0  0
 21 22  1  0  0  0
M  END
> <minimizedAffinity>
-7.22668

> <CNNscore>
0.7531998754

> <CNNaffinity>
7.0496559143

> <CNN_VS>
5.3098001480

> <CNNaffinity_variance>
0.2130841017

$$$$
[H]/C(C(=O)N([H])c1nc([H])c2nc([H])nc(N([H])c3c([H])c([H])c(F)c(Cl)c3[H])c2c1[H])=C(/[H])C([H])([H])N(C([H])([H])[H])C([H])([H])[H]


 30 32  0  0  0  0  0  0  0  0999 V2000
    1.5573  -52.0573  -20.7617 C   0  0  0  0  0  0  0  0  0  0  0  0
    1.1865  -52.1969  -22.0955 C   0  0  0  0  0  0  0  0  0  0  0  0
    0.2817  -53.1491  -22.4318 C   0  0  0  0  0  0  0  0  0  0  0  0
   -0.1205  -53.3316  -23.7594 C   0  0  0  0  0  0  0  0  0  0  0  0
   -1.0156  -54.3114  -23.9360 N   0  0  0  0  0  0  0  0  0  0  0  0
   -1.5294  -55.0916  -22.9817 C   0  0  0  0  0  0  0  0  0  0  0  0
   -1.1237  -54.8924  -21.7173 N   0  0  0  0  0  0  0  0  0  0  0  0
   -0.2220  -53.9317  -21.4116 C   0  0  0  0  0  0  0  0  0  0  0  0
    0.1487  -53.7890  -20.0890 C   0  0  0  0  0  0  0  0  0  0  0  0
    1.0453  -52.8364  -19.7993 N   0  0  0  0  0  0  0  0  0  0  0  0
    2.1430  -49.7296  -20.1227 C   0  0  0  0  0  0  0  0  0  0  0  0
    0.9029  -49.4747  -20.0998 O   0  0  0  0  0  0  0  0  0  0  0  0
    2.5225  -51.0370  -20.4593 N   0  0  0  0  0  0  0  0  0  0  0  0
    3.5303  -51.2785  -20.4875 H   0  0  0  0  0  0  0  0  0  0  0  0
    2.9266  -47.4191  -19.8436 C   0  0  0  0  0  0  0  0  0  0  0  0
    3.1305  -48.7172  -19.8156 C   0  0  0  0  0  0  0  0  0  0  0  0
    3.9898  -46.4258  -19.5156 C   0  0  0  0  0  0  0  0  0  0  0  0
    3.7033  -46.1587  -21.8671 C   0  0  0  0  0  0  0  0  0  0  0  0
    4.3995  -45.6787  -20.7080 N   0  0  0  0  0  0  0  0  0  0  0  0
    5.8361  -45.8682  -20.8941 C   0  0  0  0  0  0  0  0  0  0  0  0
    0.3943  -52.5393  -24.8011 N   0  0  0  0  0  0  0  0  0  0  0  0
    1.0560  -51.7416  -24.5205 H   0  0  0  0  0  0  0  0  0  0  0  0
    0.1527  -52.6451  -26.1822 C   0  0  0  0  0  0  0  0  0  0  0  0
   -0.9432  -52.2134  -26.8677 C   0  0  0  0  0  0  0  0  0  0  0  0
   -1.1293  -52.3597  -28.2432 C   0  0  0  0  0  0  0  0  0  0  0  0
   -0.1283  -52.9842  -28.9411 C   0  0  0  0  0  0  0  0  0  0  0  0
   -0.2488  -53.1584  -30.2886 F   0  0  0  0  0  0  0  0  0  0  0  0
    0.9964  -53.4440  -28.3370 C   0  0  0  0  0  0  0  0  0  0  0  0
    2.2733  -54.2423  -29.2629 Cl  0  0  0  0  0  0  0  0  0  0  0  0
    1.1308  -53.2746  -26.9765 C   0  0  0  0  0  0  0  0  0  0  0  0
 18 19  1  0  0  0
 19 20  1  0  0  0
 19 17  1  0  0  0
 17 15  1  0  0  0
 15 16  2  0  0  0
 16 11  1  0  0  0
 11 12  2  0  0  0
 11 13  1  0  0  0
 13  1  1  0  0  0
  1  2  2  0  0  0
  2  3  1  0  0  0
  3  4  2  0  0  0
  4 21  1  0  0  0
 21 23  1  0  0  0
 23 24  2  0  0  0
 24 25  1  0  0  0
 25 26  2  0  0  0
 26 27  1  0  0  0
 26 28  1  0  0  0
 28 29  1  0  0  0
 28 30  2  0  0  0
  4  5  1  0  0  0
  5  6  2  0  0  0
  6  7  1  0  0  0
  7  8  2  0  0  0
  8  9  1  0  0  0
  9 10  2  0  0  0
 10  1  1  0  0  0
  8  3  1  0  0  0
 30 23  1  0  0  0
 13 14  1  0  0  0
 21 22  1  0  0  0
M  END
> <minimizedAffinity>
-7.03935

> <CNNscore>
0.6468297243

> <CNNaffinity>
6.9832139015

> <CNN_VS>
4.5169501305

> <CNNaffinity_variance>
0.3310089707

$$$$
[H]/C(C(=O)N([H])c1nc([H])c2nc([H])nc(N([H])c3c([H])c([H])c(F)c(Cl)c3[H])c2c1[H])=C(/[H])C([H])([H])N(C([H])([H])[H])C([H])([H])[H]


 30 32  0  0  0  0  0  0  0  0999 V2000
    1.9674  -50.7198  -23.0058 C   0  0  0  0  0  0  0  0  0  0  0  0
    1.2673  -51.8602  -23.3870 C   0  0  0  0  0  0  0  0  0  0  0  0
    0.3786  -52.4079  -22.5219 C   0  0  0  0  0  0  0  0  0  0  0  0
   -0.3469  -53.5565  -22.8569 C   0  0  0  0  0  0  0  0  0  0  0  0
   -1.1820  -53.9812  -21.9004 N   0  0  0  0  0  0  0  0  0  0  0  0
   -1.3650  -53.4149  -20.7049 C   0  0  0  0  0  0  0  0  0  0  0  0
   -0.6542  -52.3139  -20.4126 N   0  0  0  0  0  0  0  0  0  0  0  0
    0.2228  -51.7880  -21.2979 C   0  0  0  0  0  0  0  0  0  0  0  0
    0.9196  -50.6558  -20.9241 C   0  0  0  0  0  0  0  0  0  0  0  0
    1.7881  -50.1464  -21.8080 N   0  0  0  0  0  0  0  0  0  0  0  0
    2.6286  -50.1551  -25.3324 C   0  0  0  0  0  0  0  0  0  0  0  0
    1.5195  -50.6331  -25.7128 O   0  0  0  0  0  0  0  0  0  0  0  0
    2.9003  -50.1820  -23.9569 N   0  0  0  0  0  0  0  0  0  0  0  0
    3.7999  -49.7987  -23.6126 H   0  0  0  0  0  0  0  0  0  0  0  0
    3.5173  -48.4035  -26.8063 C   0  0  0  0  0  0  0  0  0  0  0  0
    3.5791  -49.6037  -26.2743 C   0  0  0  0  0  0  0  0  0  0  0  0
    4.5316  -47.8941  -27.7739 C   0  0  0  0  0  0  0  0  0  0  0  0
    6.3068  -47.0480  -26.4264 C   0  0  0  0  0  0  0  0  0  0  0  0
    5.8926  -48.1235  -27.2810 N   0  0  0  0  0  0  0  0  0  0  0  0
    6.7885  -48.1982  -28.4326 C   0  0  0  0  0  0  0  0  0  0  0  0
   -0.1869  -54.1927  -24.1008 N   0  0  0  0  0  0  0  0  0  0  0  0
    0.0933  -55.2290  -24.0817 H   0  0  0  0  0  0  0  0  0  0  0  0
   -0.3391  -53.6479  -25.3882 C   0  0  0  0  0  0  0  0  0  0  0  0
   -1.3113  -52.7951  -25.8180 C   0  0  0  0  0  0  0  0  0  0  0  0
   -1.4148  -52.2974  -27.1178 C   0  0  0  0  0  0  0  0  0  0  0  0
   -0.4618  -52.7046  -28.0151 C   0  0  0  0  0  0  0  0  0  0  0  0
   -0.5063  -52.2541  -29.3018 F   0  0  0  0  0  0  0  0  0  0  0  0
    0.5409  -53.5516  -27.6706 C   0  0  0  0  0  0  0  0  0  0  0  0
    1.7589  -54.0570  -28.8478 Cl  0  0  0  0  0  0  0  0  0  0  0  0
    0.5976  -54.0141  -26.3742 C   0  0  0  0  0  0  0  0  0  0  0  0
 18 19  1  0  0  0
 19 20  1  0  0  0
 19 17  1  0  0  0
 17 15  1  0  0  0
 15 16  2  0  0  0
 16 11  1  0  0  0
 11 12  2  0  0  0
 11 13  1  0  0  0
 13  1  1  0  0  0
  1  2  2  0  0  0
  2  3  1  0  0  0
  3  4  2  0  0  0
  4 21  1  0  0  0
 21 23  1  0  0  0
 23 24  2  0  0  0
 24 25  1  0  0  0
 25 26  2  0  0  0
 26 27  1  0  0  0
 26 28  1  0  0  0
 28 29  1  0  0  0
 28 30  2  0  0  0
  4  5  1  0  0  0
  5  6  2  0  0  0
  6  7  1  0  0  0
  7  8  2  0  0  0
  8  9  1  0  0  0
  9 10  2  0  0  0
 10  1  1  0  0  0
  8  3  1  0  0  0
 30 23  1  0  0  0
 13 14  1  0  0  0
 21 22  1  0  0  0
M  END
> <minimizedAffinity>
-7.03237

> <CNNscore>
0.6015359163

> <CNNaffinity>
6.9630904198

> <CNN_VS>
4.1885490417

> <CNNaffinity_variance>
0.2744989991

$$$$
[H]/C(C(=O)N([H])c1nc([H])c2nc([H])nc(N([H])c3c([H])c([H])c(F)c(Cl)c3[H])c2c1[H])=C(/[H])C([H])([H])N(C([H])([H])[H])C([H])([H])[H]


 30 32  0  0  0  0  0  0  0  0999 V2000
   -1.0379  -53.5150  -21.8084 C   0  0  0  0  0  0  0  0  0  0  0  0
   -0.3858  -52.7830  -22.7957 C   0  0  0  0  0  0  0  0  0  0  0  0
   -0.2140  -53.3366  -24.0214 C   0  0  0  0  0  0  0  0  0  0  0  0
    0.4386  -52.6426  -25.0462 C   0  0  0  0  0  0  0  0  0  0  0  0
    0.5353  -53.3193  -26.1974 N   0  0  0  0  0  0  0  0  0  0  0  0
    0.0756  -54.5516  -26.4288 C   0  0  0  0  0  0  0  0  0  0  0  0
   -0.5461  -55.1920  -25.4256 N   0  0  0  0  0  0  0  0  0  0  0  0
   -0.7059  -54.6124  -24.2140 C   0  0  0  0  0  0  0  0  0  0  0  0
   -1.3530  -55.3350  -23.2310 C   0  0  0  0  0  0  0  0  0  0  0  0
   -1.5020  -54.7517  -22.0341 N   0  0  0  0  0  0  0  0  0  0  0  0
   -0.1785  -52.9197  -19.5553 C   0  0  0  0  0  0  0  0  0  0  0  0
    0.8858  -53.5393  -19.8500 O   0  0  0  0  0  0  0  0  0  0  0  0
   -1.1898  -52.8849  -20.5261 N   0  0  0  0  0  0  0  0  0  0  0  0
   -2.0740  -52.3861  -20.3162 H   0  0  0  0  0  0  0  0  0  0  0  0
   -1.2461  -52.5971  -17.3675 C   0  0  0  0  0  0  0  0  0  0  0  0
   -0.3485  -52.2737  -18.2714 C   0  0  0  0  0  0  0  0  0  0  0  0
   -1.3696  -51.8894  -16.0604 C   0  0  0  0  0  0  0  0  0  0  0  0
   -2.9946  -51.5749  -14.3448 C   0  0  0  0  0  0  0  0  0  0  0  0
   -2.7693  -51.5737  -15.7618 N   0  0  0  0  0  0  0  0  0  0  0  0
   -3.6101  -52.5925  -16.3858 C   0  0  0  0  0  0  0  0  0  0  0  0
    0.9447  -51.3450  -24.8516 N   0  0  0  0  0  0  0  0  0  0  0  0
    0.3615  -50.5341  -25.2454 H   0  0  0  0  0  0  0  0  0  0  0  0
    2.1328  -50.9568  -24.2074 C   0  0  0  0  0  0  0  0  0  0  0  0
    2.3077  -49.9125  -23.3496 C   0  0  0  0  0  0  0  0  0  0  0  0
    3.5208  -49.5706  -22.7499 C   0  0  0  0  0  0  0  0  0  0  0  0
    4.6050  -50.3517  -23.0553 C   0  0  0  0  0  0  0  0  0  0  0  0
    5.8198  -50.0708  -22.5021 F   0  0  0  0  0  0  0  0  0  0  0  0
    4.5186  -51.4107  -23.8995 C   0  0  0  0  0  0  0  0  0  0  0  0
    5.9330  -52.4034  -24.2724 Cl  0  0  0  0  0  0  0  0  0  0  0  0
    3.2977  -51.7055  -24.4652 C   0  0  0  0  0  0  0  0  0  0  0  0
 18 19  1  0  0  0
 19 20  1  0  0  0
 19 17  1  0  0  0
 17 15  1  0  0  0
 15 16  2  0  0  0
 16 11  1  0  0  0
 11 12  2  0  0  0
 11 13  1  0  0  0
 13  1  1  0  0  0
  1  2  2  0  0  0
  2  3  1  0  0  0
  3  4  2  0  0  0
  4 21  1  0  0  0
 21 23  1  0  0  0
 23 24  2  0  0  0
 24 25  1  0  0  0
 25 26  2  0  0  0
 26 27  1  0  0  0
 26 28  1  0  0  0
 28 29  1  0  0  0
 28 30  2  0  0  0
  4  5  1  0  0  0
  5  6  2  0  0  0
  6  7  1  0  0  0
  7  8  2  0  0  0
  8  9  1  0  0  0
  9 10  2  0  0  0
 10  1  1  0  0  0
  8  3  1  0  0  0
 30 23  1  0  0  0
 13 14  1  0  0  0
 21 22  1  0  0  0
M  END
> <minimizedAffinity>
-7.73878

> <CNNscore>
0.5464272499

> <CNNaffinity>
6.8987722397

> <CNN_VS>
3.7696771622

> <CNNaffinity_variance>
0.0451668277

$$$$
[H]/C(C(=O)N([H])c1nc([H])c2nc([H])nc(N([H])c3c([H])c([H])c(F)c(Cl)c3[H])c2c1[H])=C(/[H])C([H])([H])N(C([H])([H])[H])C([H])([H])[H]


 30 32  0  0  0  0  0  0  0  0999 V2000
    1.1890  -51.1259  -23.8533 C   0  0  0  0  0  0  0  0  0  0  0  0
    1.0190  -51.8556  -22.6810 C   0  0  0  0  0  0  0  0  0  0  0  0
    0.2263  -52.9554  -22.6982 C   0  0  0  0  0  0  0  0  0  0  0  0
    0.0206  -53.7201  -21.5447 C   0  0  0  0  0  0  0  0  0  0  0  0
   -0.7889  -54.7726  -21.7164 N   0  0  0  0  0  0  0  0  0  0  0  0
   -1.3871  -55.1298  -22.8557 C   0  0  0  0  0  0  0  0  0  0  0  0
   -1.1705  -54.3760  -23.9456 N   0  0  0  0  0  0  0  0  0  0  0  0
   -0.3710  -53.2859  -23.8986 C   0  0  0  0  0  0  0  0  0  0  0  0
   -0.1990  -52.5588  -25.0599 C   0  0  0  0  0  0  0  0  0  0  0  0
    0.5921  -51.4791  -24.9999 N   0  0  0  0  0  0  0  0  0  0  0  0
    3.3596  -49.9821  -24.2401 C   0  0  0  0  0  0  0  0  0  0  0  0
    3.7920  -51.0695  -24.7236 O   0  0  0  0  0  0  0  0  0  0  0  0
    2.0349  -49.9669  -23.7802 N   0  0  0  0  0  0  0  0  0  0  0  0
    1.6502  -49.0922  -23.3782 H   0  0  0  0  0  0  0  0  0  0  0  0
    3.7685  -47.5806  -23.9306 C   0  0  0  0  0  0  0  0  0  0  0  0
    4.1941  -48.8022  -24.1630 C   0  0  0  0  0  0  0  0  0  0  0  0
    4.6829  -46.4041  -23.8637 C   0  0  0  0  0  0  0  0  0  0  0  0
    3.8844  -45.2332  -21.9470 C   0  0  0  0  0  0  0  0  0  0  0  0
    3.9775  -45.2147  -23.3786 N   0  0  0  0  0  0  0  0  0  0  0  0
    2.6331  -45.2165  -23.9504 C   0  0  0  0  0  0  0  0  0  0  0  0
    0.6238  -53.3832  -20.3198 N   0  0  0  0  0  0  0  0  0  0  0  0
    1.6669  -53.6145  -20.2144 H   0  0  0  0  0  0  0  0  0  0  0  0
    0.0378  -52.7812  -19.1923 C   0  0  0  0  0  0  0  0  0  0  0  0
   -0.9977  -53.2549  -18.4435 C   0  0  0  0  0  0  0  0  0  0  0  0
   -1.5441  -52.6009  -17.3381 C   0  0  0  0  0  0  0  0  0  0  0  0
   -0.9877  -51.3967  -16.9929 C   0  0  0  0  0  0  0  0  0  0  0  0
   -1.4758  -50.7070  -15.9221 F   0  0  0  0  0  0  0  0  0  0  0  0
    0.0460  -50.8530  -17.6839 C   0  0  0  0  0  0  0  0  0  0  0  0
    0.7467  -49.2997  -17.2136 Cl  0  0  0  0  0  0  0  0  0  0  0  0
    0.5485  -51.5392  -18.7675 C   0  0  0  0  0  0  0  0  0  0  0  0
 18 19  1  0  0  0
 19 20  1  0  0  0
 19 17  1  0  0  0
 17 15  1  0  0  0
 15 16  2  0  0  0
 16 11  1  0  0  0
 11 12  2  0  0  0
 11 13  1  0  0  0
 13  1  1  0  0  0
  1  2  2  0  0  0
  2  3  1  0  0  0
  3  4  2  0  0  0
  4 21  1  0  0  0
 21 23  1  0  0  0
 23 24  2  0  0  0
 24 25  1  0  0  0
 25 26  2  0  0  0
 26 27  1  0  0  0
 26 28  1  0  0  0
 28 29  1  0  0  0
 28 30  2  0  0  0
  4  5  1  0  0  0
  5  6  2  0  0  0
  6  7  1  0  0  0
  7  8  2  0  0  0
  8  9  1  0  0  0
  9 10  2  0  0  0
 10  1  1  0  0  0
  8  3  1  0  0  0
 30 23  1  0  0  0
 13 14  1  0  0  0
 21 22  1  0  0  0
M  END
> <minimizedAffinity>
-6.77337

> <CNNscore>
0.5025109053

> <CNNaffinity>
6.7725296021

> <CNN_VS>
3.4032700062

> <CNNaffinity_variance>
0.2678917944

$$$$
[H]c1nc(N([H])c2c([H])c([H])c(OC([H])([H])c3c([H])c([H])c([H])c(F)c3[H])c(Cl)c2[H])c2sc(C#C[C@@]3([H])N([H])C([H])([H])C([H])([H])C3([H])[H])c([H])c2n1


 35 39  0  0  0  0  0  0  0  0999 V2000
    0.6881  -53.8770  -20.4632 N   0  0  0  0  0  0  0  0  0  0  0  0
    1.5596  -54.4450  -20.2351 H   0  0  0  0  0  0  0  0  0  0  0  0
    0.0142  -54.0250  -21.6820 C   0  0  0  0  0  0  0  0  0  0  0  0
   -1.0156  -54.8532  -21.9222 N   0  0  0  0  0  0  0  0  0  0  0  0
   -1.5512  -54.8348  -23.1526 C   0  0  0  0  0  0  0  0  0  0  0  0
   -1.1172  -54.0456  -24.1348 N   0  0  0  0  0  0  0  0  0  0  0  0
   -0.0665  -53.1725  -23.9591 C   0  0  0  0  0  0  0  0  0  0  0  0
    0.4705  -52.3203  -24.8686 C   0  0  0  0  0  0  0  0  0  0  0  0
    1.5167  -51.5476  -24.4564 C   0  0  0  0  0  0  0  0  0  0  0  0
    1.7284  -52.0171  -22.8320 S   0  0  0  0  0  0  0  0  0  0  0  0
    0.4840  -53.1813  -22.7194 C   0  0  0  0  0  0  0  0  0  0  0  0
    2.2536  -50.5646  -25.2460 C   0  0  0  0  0  0  0  0  0  0  0  0
    2.8493  -49.7612  -25.9129 C   0  0  0  0  0  0  0  0  0  0  0  0
    3.5559  -48.7672  -26.7343 C   0  0  0  0  0  0  0  0  0  0  0  0
    4.9650  -48.5751  -26.2360 C   0  0  0  0  0  0  0  0  0  0  0  0
    4.9045  -47.3150  -25.4070 C   0  0  0  0  0  0  0  0  0  0  0  0
    3.5793  -46.6887  -25.6932 C   0  0  0  0  0  0  0  0  0  0  0  0
    2.9119  -47.4801  -26.6915 N   0  0  0  0  0  0  0  0  0  0  0  0
    1.8946  -47.5466  -26.5116 H   0  0  0  0  0  0  0  0  0  0  0  0
   -0.3590  -51.1755  -17.3934 C   0  0  0  0  0  0  0  0  0  0  0  0
    0.7664  -50.9944  -18.1670 C   0  0  0  0  0  0  0  0  0  0  0  0
    1.1013  -51.8603  -19.1654 C   0  0  0  0  0  0  0  0  0  0  0  0
    0.2921  -52.9898  -19.4437 C   0  0  0  0  0  0  0  0  0  0  0  0
   -0.8258  -53.1571  -18.6632 C   0  0  0  0  0  0  0  0  0  0  0  0
   -1.1562  -52.2568  -17.6406 C   0  0  0  0  0  0  0  0  0  0  0  0
   -2.6133  -52.5544  -16.6917 Cl  0  0  0  0  0  0  0  0  0  0  0  0
   -0.7237  -50.3163  -16.3768 O   0  0  0  0  0  0  0  0  0  0  0  0
   -0.4034  -50.6724  -15.0243 C   0  0  0  0  0  0  0  0  0  0  0  0
    3.8609  -52.7745  -13.8479 F   0  0  0  0  0  0  0  0  0  0  0  0
    3.1351  -51.6888  -14.1952 C   0  0  0  0  0  0  0  0  0  0  0  0
    3.7971  -50.4791  -14.3226 C   0  0  0  0  0  0  0  0  0  0  0  0
    3.0704  -49.3704  -14.6745 C   0  0  0  0  0  0  0  0  0  0  0  0
    1.7008  -49.4218  -14.9057 C   0  0  0  0  0  0  0  0  0  0  0  0
    1.0428  -50.6162  -14.7806 C   0  0  0  0  0  0  0  0  0  0  0  0
    1.7751  -51.7257  -14.4275 C   0  0  0  0  0  0  0  0  0  0  0  0
 29 30  1  0  0  0
 30 31  2  0  0  0
 31 32  1  0  0  0
 32 33  2  0  0  0
 33 34  1  0  0  0
 34 28  1  0  0  0
 28 27  1  0  0  0
 27 20  1  0  0  0
 20 21  2  0  0  0
 21 22  1  0  0  0
 22 23  2  0  0  0
 23  1  1  0  0  0
  1  3  1  0  0  0
  3  4  2  0  0  0
  4  5  1  0  0  0
  5  6  2  0  0  0
  6  7  1  0  0  0
  7  8  1  0  0  0
  8  9  2  0  0  0
  9 10  1  0  0  0
 10 11  1  0  0  0
  9 12  1  0  0  0
 12 13  3  0  0  0
 13 14  1  0  0  0
 14 15  1  0  0  0
 15 16  1  0  0  0
 16 17  1  0  0  0
 17 18  1  0  0  0
 23 24  1  0  0  0
 24 25  2  0  0  0
 25 26  1  0  0  0
 34 35  2  0  0  0
 35 30  1  0  0  0
 25 20  1  0  0  0
 11  3  1  0  0  0
 18 14  1  0  0  0
 11  7  2  0  0  0
  1  2  1  0  0  0
 18 19  1  0  0  0
M  END
> <minimizedAffinity>
-6.91999

> <CNNscore>
0.5712259412

> <CNNaffinity>
7.3718996048

> <CNN_VS>
4.2110204697

> <CNNaffinity_variance>
0.2579625249

$$$$
[H]c1nc(N([H])c2c([H])c([H])c(OC([H])([H])c3c([H])c([H])c([H])c(F)c3[H])c(Cl)c2[H])c2sc(C#C[C@@]3([H])N([H])C([H])([H])C([H])([H])C3([H])[H])c([H])c2n1


 35 39  0  0  0  0  0  0  0  0999 V2000
   -0.3481  -53.1080  -18.3994 N   0  0  0  0  0  0  0  0  0  0  0  0
    0.5338  -53.5857  -18.0416 H   0  0  0  0  0  0  0  0  0  0  0  0
   -1.3380  -52.6442  -17.5238 C   0  0  0  0  0  0  0  0  0  0  0  0
   -2.5269  -53.2251  -17.2931 N   0  0  0  0  0  0  0  0  0  0  0  0
   -3.3361  -52.6441  -16.3938 C   0  0  0  0  0  0  0  0  0  0  0  0
   -3.0220  -51.5337  -15.7272 N   0  0  0  0  0  0  0  0  0  0  0  0
   -1.8210  -50.8856  -15.9136 C   0  0  0  0  0  0  0  0  0  0  0  0
   -1.3797  -49.7561  -15.3044 C   0  0  0  0  0  0  0  0  0  0  0  0
   -0.1431  -49.3004  -15.6574 C   0  0  0  0  0  0  0  0  0  0  0  0
    0.3733  -50.4392  -16.8152 S   0  0  0  0  0  0  0  0  0  0  0  0
   -0.9937  -51.4630  -16.8204 C   0  0  0  0  0  0  0  0  0  0  0  0
    0.5415  -48.1166  -15.1448 C   0  0  0  0  0  0  0  0  0  0  0  0
    1.0914  -47.1414  -14.7069 C   0  0  0  0  0  0  0  0  0  0  0  0
    1.7688  -45.9613  -14.1496 C   0  0  0  0  0  0  0  0  0  0  0  0
    1.4402  -44.7326  -14.9577 C   0  0  0  0  0  0  0  0  0  0  0  0
    2.6348  -44.5434  -15.8610 C   0  0  0  0  0  0  0  0  0  0  0  0
    3.6963  -45.4610  -15.3492 C   0  0  0  0  0  0  0  0  0  0  0  0
    3.2011  -46.1078  -14.1639 N   0  0  0  0  0  0  0  0  0  0  0  0
    3.5035  -47.0965  -14.1115 H   0  0  0  0  0  0  0  0  0  0  0  0
   -0.5645  -52.6115  -22.5857 C   0  0  0  0  0  0  0  0  0  0  0  0
   -0.1545  -51.5926  -21.7542 C   0  0  0  0  0  0  0  0  0  0  0  0
   -0.0745  -51.7537  -20.4026 C   0  0  0  0  0  0  0  0  0  0  0  0
   -0.4150  -52.9908  -19.8013 C   0  0  0  0  0  0  0  0  0  0  0  0
   -0.8228  -53.9964  -20.6434 C   0  0  0  0  0  0  0  0  0  0  0  0
   -0.8991  -53.8143  -22.0314 C   0  0  0  0  0  0  0  0  0  0  0  0
   -1.4328  -55.1654  -23.0323 Cl  0  0  0  0  0  0  0  0  0  0  0  0
   -0.6549  -52.4784  -23.9564 O   0  0  0  0  0  0  0  0  0  0  0  0
    0.5058  -52.7514  -24.7543 C   0  0  0  0  0  0  0  0  0  0  0  0
   -2.6681  -52.4083  -28.4685 F   0  0  0  0  0  0  0  0  0  0  0  0
   -1.4197  -52.6220  -27.9972 C   0  0  0  0  0  0  0  0  0  0  0  0
   -0.4182  -52.8966  -28.9135 C   0  0  0  0  0  0  0  0  0  0  0  0
    0.8527  -53.1154  -28.4464 C   0  0  0  0  0  0  0  0  0  0  0  0
    1.1652  -53.0705  -27.0928 C   0  0  0  0  0  0  0  0  0  0  0  0
    0.1776  -52.7993  -26.1839 C   0  0  0  0  0  0  0  0  0  0  0  0
   -1.0956  -52.5805  -26.6563 C   0  0  0  0  0  0  0  0  0  0  0  0
 29 30  1  0  0  0
 30 31  2  0  0  0
 31 32  1  0  0  0
 32 33  2  0  0  0
 33 34  1  0  0  0
 34 28  1  0  0  0
 28 27  1  0  0  0
 27 20  1  0  0  0
 20 21  2  0  0  0
 21 22  1  0  0  0
 22 23  2  0  0  0
 23  1  1  0  0  0
  1  3  1  0  0  0
  3  4  2  0  0  0
  4  5  1  0  0  0
  5  6  2  0  0  0
  6  7  1  0  0  0
  7  8  1  0  0  0
  8  9  2  0  0  0
  9 10  1  0  0  0
 10 11  1  0  0  0
  9 12  1  0  0  0
 12 13  3  0  0  0
 13 14  1  0  0  0
 14 15  1  0  0  0
 15 16  1  0  0  0
 16 17  1  0  0  0
 17 18  1  0  0  0
 23 24  1  0  0  0
 24 25  2  0  0  0
 25 26  1  0  0  0
 34 35  2  0  0  0
 35 30  1  0  0  0
 25 20  1  0  0  0
 11  3  1  0  0  0
 18 14  1  0  0  0
 11  7  2  0  0  0
  1  2  1  0  0  0
 18 19  1  0  0  0
M  END
> <minimizedAffinity>
-8.24057

> <CNNscore>
0.5551382899

> <CNNaffinity>
7.1286964417

> <CNN_VS>
3.9574122429

> <CNNaffinity_variance>
0.1022166163

$$$$
[H]c1nc(N([H])c2c([H])c([H])c(OC([H])([H])c3c([H])c([H])c([H])c(F)c3[H])c(Cl)c2[H])c2sc(C#C[C@@]3([H])N([H])C([H])([H])C([H])([H])C3([H])[H])c([H])c2n1


 35 39  0  0  0  0  0  0  0  0999 V2000
   -1.1465  -52.4886  -16.6569 N   0  0  0  0  0  0  0  0  0  0  0  0
   -0.3897  -52.8822  -16.0194 H   0  0  0  0  0  0  0  0  0  0  0  0
   -2.4074  -52.1296  -16.1640 C   0  0  0  0  0  0  0  0  0  0  0  0
   -3.4740  -52.9384  -16.0528 N   0  0  0  0  0  0  0  0  0  0  0  0
   -4.5944  -52.4174  -15.5290 C   0  0  0  0  0  0  0  0  0  0  0  0
   -4.6992  -51.1536  -15.1191 N   0  0  0  0  0  0  0  0  0  0  0  0
   -3.6465  -50.2695  -15.2033 C   0  0  0  0  0  0  0  0  0  0  0  0
   -3.6198  -48.9663  -14.8252 C   0  0  0  0  0  0  0  0  0  0  0  0
   -2.4504  -48.2881  -15.0091 C   0  0  0  0  0  0  0  0  0  0  0  0
   -1.4251  -49.4634  -15.6959 S   0  0  0  0  0  0  0  0  0  0  0  0
   -2.5078  -50.7838  -15.7312 C   0  0  0  0  0  0  0  0  0  0  0  0
   -2.1792  -46.8906  -14.6836 C   0  0  0  0  0  0  0  0  0  0  0  0
   -1.9733  -45.7397  -14.4038 C   0  0  0  0  0  0  0  0  0  0  0  0
   -1.7204  -44.3385  -14.0369 C   0  0  0  0  0  0  0  0  0  0  0  0
   -2.6949  -43.4252  -14.7347 C   0  0  0  0  0  0  0  0  0  0  0  0
   -1.9243  -42.8785  -15.9120 C   0  0  0  0  0  0  0  0  0  0  0  0
   -0.4957  -43.2514  -15.6870 C   0  0  0  0  0  0  0  0  0  0  0  0
   -0.3971  -43.9150  -14.4149 N   0  0  0  0  0  0  0  0  0  0  0  0
    0.2815  -44.6963  -14.4412 H   0  0  0  0  0  0  0  0  0  0  0  0
    0.0307  -51.9794  -20.6785 C   0  0  0  0  0  0  0  0  0  0  0  0
    0.4500  -51.1218  -19.6853 C   0  0  0  0  0  0  0  0  0  0  0  0
    0.0789  -51.2899  -18.3842 C   0  0  0  0  0  0  0  0  0  0  0  0
   -0.7612  -52.3665  -18.0060 C   0  0  0  0  0  0  0  0  0  0  0  0
   -1.1716  -53.2123  -19.0076 C   0  0  0  0  0  0  0  0  0  0  0  0
   -0.7804  -53.0253  -20.3408 C   0  0  0  0  0  0  0  0  0  0  0  0
   -1.3573  -54.1648  -21.5578 Cl  0  0  0  0  0  0  0  0  0  0  0  0
    0.3898  -51.8350  -22.0032 O   0  0  0  0  0  0  0  0  0  0  0  0
    1.6248  -52.4125  -22.4502 C   0  0  0  0  0  0  0  0  0  0  0  0
   -0.2944  -51.7140  -26.9017 F   0  0  0  0  0  0  0  0  0  0  0  0
    0.7392  -52.0564  -26.1012 C   0  0  0  0  0  0  0  0  0  0  0  0
    1.9329  -52.4196  -26.7021 C   0  0  0  0  0  0  0  0  0  0  0  0
    2.9886  -52.7691  -25.8995 C   0  0  0  0  0  0  0  0  0  0  0  0
    2.8995  -52.7703  -24.5124 C   0  0  0  0  0  0  0  0  0  0  0  0
    1.7208  -52.4118  -23.9147 C   0  0  0  0  0  0  0  0  0  0  0  0
    0.6643  -52.0620  -24.7231 C   0  0  0  0  0  0  0  0  0  0  0  0
 29 30  1  0  0  0
 30 31  2  0  0  0
 31 32  1  0  0  0
 32 33  2  0  0  0
 33 34  1  0  0  0
 34 28  1  0  0  0
 28 27  1  0  0  0
 27 20  1  0  0  0
 20 21  2  0  0  0
 21 22  1  0  0  0
 22 23  2  0  0  0
 23  1  1  0  0  0
  1  3  1  0  0  0
  3  4  2  0  0  0
  4  5  1  0  0  0
  5  6  2  0  0  0
  6  7  1  0  0  0
  7  8  1  0  0  0
  8  9  2  0  0  0
  9 10  1  0  0  0
 10 11  1  0  0  0
  9 12  1  0  0  0
 12 13  3  0  0  0
 13 14  1  0  0  0
 14 15  1  0  0  0
 15 16  1  0  0  0
 16 17  1  0  0  0
 17 18  1  0  0  0
 23 24  1  0  0  0
 24 25  2  0  0  0
 25 26  1  0  0  0
 34 35  2  0  0  0
 35 30  1  0  0  0
 25 20  1  0  0  0
 11  3  1  0  0  0
 18 14  1  0  0  0
 11  7  2  0  0  0
  1  2  1  0  0  0
 18 19  1  0  0  0
M  END
> <minimizedAffinity>
-7.44454

> <CNNscore>
0.4588886201

> <CNNaffinity>
6.7365708351

> <CNN_VS>
3.0913357735

> <CNNaffinity_variance>
0.0498619191

$$$$
[H]c1nc(N([H])c2c([H])c([H])c(OC([H])([H])c3c([H])c([H])c([H])c(F)c3[H])c(Cl)c2[H])c2sc(C#C[C@@]3([H])N([H])C([H])([H])C([H])([H])C3([H])[H])c([H])c2n1


 35 39  0  0  0  0  0  0  0  0999 V2000
    0.1212  -52.3402  -24.8514 N   0  0  0  0  0  0  0  0  0  0  0  0
   -0.4654  -51.8530  -25.5948 H   0  0  0  0  0  0  0  0  0  0  0  0
   -0.4183  -53.3358  -24.0273 C   0  0  0  0  0  0  0  0  0  0  0  0
   -0.9522  -54.4987  -24.4356 N   0  0  0  0  0  0  0  0  0  0  0  0
   -1.3956  -55.3424  -23.4907 C   0  0  0  0  0  0  0  0  0  0  0  0
   -1.3328  -55.0863  -22.1843 N   0  0  0  0  0  0  0  0  0  0  0  0
   -0.7986  -53.9149  -21.6952 C   0  0  0  0  0  0  0  0  0  0  0  0
   -0.6753  -53.5320  -20.3990 C   0  0  0  0  0  0  0  0  0  0  0  0
   -0.1079  -52.3143  -20.1604 C   0  0  0  0  0  0  0  0  0  0  0  0
    0.2379  -51.7349  -21.7253 S   0  0  0  0  0  0  0  0  0  0  0  0
   -0.3467  -53.0532  -22.6403 C   0  0  0  0  0  0  0  0  0  0  0  0
    0.1299  -51.6898  -18.8619 C   0  0  0  0  0  0  0  0  0  0  0  0
    0.3232  -51.1945  -17.7837 C   0  0  0  0  0  0  0  0  0  0  0  0
    0.5795  -50.6042  -16.4617 C   0  0  0  0  0  0  0  0  0  0  0  0
    0.5026  -49.1008  -16.5302 C   0  0  0  0  0  0  0  0  0  0  0  0
    1.9416  -48.6517  -16.6096 C   0  0  0  0  0  0  0  0  0  0  0  0
    2.7728  -49.8518  -16.2944 C   0  0  0  0  0  0  0  0  0  0  0  0
    1.8902  -50.9397  -15.9690 N   0  0  0  0  0  0  0  0  0  0  0  0
    2.2392  -51.8410  -16.3396 H   0  0  0  0  0  0  0  0  0  0  0  0
    4.1577  -51.1352  -24.5828 C   0  0  0  0  0  0  0  0  0  0  0  0
    3.7941  -52.4638  -24.5645 C   0  0  0  0  0  0  0  0  0  0  0  0
    2.4918  -52.8557  -24.6609 C   0  0  0  0  0  0  0  0  0  0  0  0
    1.4561  -51.8965  -24.7847 C   0  0  0  0  0  0  0  0  0  0  0  0
    1.8346  -50.5761  -24.8005 C   0  0  0  0  0  0  0  0  0  0  0  0
    3.1786  -50.1901  -24.7007 C   0  0  0  0  0  0  0  0  0  0  0  0
    3.5676  -48.4697  -24.7313 Cl  0  0  0  0  0  0  0  0  0  0  0  0
    5.4668  -50.7085  -24.4874 O   0  0  0  0  0  0  0  0  0  0  0  0
    6.1970  -50.9859  -23.2840 C   0  0  0  0  0  0  0  0  0  0  0  0
    3.4279  -51.4429  -19.2702 F   0  0  0  0  0  0  0  0  0  0  0  0
    4.1524  -50.6886  -20.1261 C   0  0  0  0  0  0  0  0  0  0  0  0
    4.2565  -49.3321  -19.8674 C   0  0  0  0  0  0  0  0  0  0  0  0
    4.9892  -48.5569  -20.7294 C   0  0  0  0  0  0  0  0  0  0  0  0
    5.6260  -49.0853  -21.8462 C   0  0  0  0  0  0  0  0  0  0  0  0
    5.5253  -50.4261  -22.1052 C   0  0  0  0  0  0  0  0  0  0  0  0
    4.7896  -51.2002  -21.2384 C   0  0  0  0  0  0  0  0  0  0  0  0
 29 30  1  0  0  0
 30 31  2  0  0  0
 31 32  1  0  0  0
 32 33  2  0  0  0
 33 34  1  0  0  0
 34 28  1  0  0  0
 28 27  1  0  0  0
 27 20  1  0  0  0
 20 21  2  0  0  0
 21 22  1  0  0  0
 22 23  2  0  0  0
 23  1  1  0  0  0
  1  3  1  0  0  0
  3  4  2  0  0  0
  4  5  1  0  0  0
  5  6  2  0  0  0
  6  7  1  0  0  0
  7  8  1  0  0  0
  8  9  2  0  0  0
  9 10  1  0  0  0
 10 11  1  0  0  0
  9 12  1  0  0  0
 12 13  3  0  0  0
 13 14  1  0  0  0
 14 15  1  0  0  0
 15 16  1  0  0  0
 16 17  1  0  0  0
 17 18  1  0  0  0
 23 24  1  0  0  0
 24 25  2  0  0  0
 25 26  1  0  0  0
 34 35  2  0  0  0
 35 30  1  0  0  0
 25 20  1  0  0  0
 11  3  1  0  0  0
 18 14  1  0  0  0
 11  7  2  0  0  0
  1  2  1  0  0  0
 18 19  1  0  0  0
M  END
> <minimizedAffinity>
-7.68538

> <CNNscore>
0.4378459454

> <CNNaffinity>
7.2354645729

> <CNN_VS>
3.1680188179

> <CNNaffinity_variance>
0.1820992976

$$$$
[H]c1nc(N([H])c2c([H])c([H])c(OC([H])([H])c3c([H])c([H])c([H])c(F)c3[H])c(Cl)c2[H])c2sc(C#C[C@@]3([H])N([H])C([H])([H])C([H])([H])C3([H])[H])c([H])c2n1


 35 39  0  0  0  0  0  0  0  0999 V2000
   -0.5476  -54.2290  -24.5156 N   0  0  0  0  0  0  0  0  0  0  0  0
   -0.9398  -55.2157  -24.5972 H   0  0  0  0  0  0  0  0  0  0  0  0
   -0.1101  -53.5182  -25.6403 C   0  0  0  0  0  0  0  0  0  0  0  0
   -0.8099  -53.3107  -26.7678 N   0  0  0  0  0  0  0  0  0  0  0  0
   -0.2299  -52.5778  -27.7309 C   0  0  0  0  0  0  0  0  0  0  0  0
    0.9904  -52.0527  -27.6248 N   0  0  0  0  0  0  0  0  0  0  0  0
    1.7636  -52.2251  -26.4981 C   0  0  0  0  0  0  0  0  0  0  0  0
    3.0122  -51.7483  -26.2627 C   0  0  0  0  0  0  0  0  0  0  0  0
    3.5795  -52.0543  -25.0602 C   0  0  0  0  0  0  0  0  0  0  0  0
    2.3784  -52.9875  -24.2917 S   0  0  0  0  0  0  0  0  0  0  0  0
    1.1886  -52.9644  -25.5168 C   0  0  0  0  0  0  0  0  0  0  0  0
    4.9013  -51.6594  -24.5811 C   0  0  0  0  0  0  0  0  0  0  0  0
    5.9808  -51.3282  -24.1686 C   0  0  0  0  0  0  0  0  0  0  0  0
    7.2985  -50.9393  -23.6447 C   0  0  0  0  0  0  0  0  0  0  0  0
    7.1468  -50.1051  -22.3990 C   0  0  0  0  0  0  0  0  0  0  0  0
    7.3172  -48.6823  -22.8736 C   0  0  0  0  0  0  0  0  0  0  0  0
    7.8378  -48.7664  -24.2709 C   0  0  0  0  0  0  0  0  0  0  0  0
    8.0428  -50.1529  -24.5937 N   0  0  0  0  0  0  0  0  0  0  0  0
    7.7863  -50.3603  -25.5749 H   0  0  0  0  0  0  0  0  0  0  0  0
   -0.5403  -52.8305  -20.5329 C   0  0  0  0  0  0  0  0  0  0  0  0
   -0.7578  -54.1566  -20.8362 C   0  0  0  0  0  0  0  0  0  0  0  0
   -0.7510  -54.6123  -22.1212 C   0  0  0  0  0  0  0  0  0  0  0  0
   -0.5168  -53.7250  -23.2009 C   0  0  0  0  0  0  0  0  0  0  0  0
   -0.3026  -52.4061  -22.8825 C   0  0  0  0  0  0  0  0  0  0  0  0
   -0.3126  -51.9540  -21.5555 C   0  0  0  0  0  0  0  0  0  0  0  0
   -0.0261  -50.2413  -21.2447 Cl  0  0  0  0  0  0  0  0  0  0  0  0
   -0.5410  -52.3403  -19.2428 O   0  0  0  0  0  0  0  0  0  0  0  0
   -1.0336  -53.1774  -18.1868 C   0  0  0  0  0  0  0  0  0  0  0  0
   -0.9960  -49.6258  -14.8146 F   0  0  0  0  0  0  0  0  0  0  0  0
   -1.6266  -50.6237  -15.4723 C   0  0  0  0  0  0  0  0  0  0  0  0
   -2.9380  -50.9027  -15.1252 C   0  0  0  0  0  0  0  0  0  0  0  0
   -3.5879  -51.9136  -15.7861 C   0  0  0  0  0  0  0  0  0  0  0  0
   -2.9769  -52.6615  -16.7857 C   0  0  0  0  0  0  0  0  0  0  0  0
   -1.6803  -52.3886  -17.1315 C   0  0  0  0  0  0  0  0  0  0  0  0
   -1.0320  -51.3741  -16.4664 C   0  0  0  0  0  0  0  0  0  0  0  0
 29 30  1  0  0  0
 30 31  2  0  0  0
 31 32  1  0  0  0
 32 33  2  0  0  0
 33 34  1  0  0  0
 34 28  1  0  0  0
 28 27  1  0  0  0
 27 20  1  0  0  0
 20 21  2  0  0  0
 21 22  1  0  0  0
 22 23  2  0  0  0
 23  1  1  0  0  0
  1  3  1  0  0  0
  3  4  2  0  0  0
  4  5  1  0  0  0
  5  6  2  0  0  0
  6  7  1  0  0  0
  7  8  1  0  0  0
  8  9  2  0  0  0
  9 10  1  0  0  0
 10 11  1  0  0  0
  9 12  1  0  0  0
 12 13  3  0  0  0
 13 14  1  0  0  0
 14 15  1  0  0  0
 15 16  1  0  0  0
 16 17  1  0  0  0
 17 18  1  0  0  0
 23 24  1  0  0  0
 24 25  2  0  0  0
 25 26  1  0  0  0
 34 35  2  0  0  0
 35 30  1  0  0  0
 25 20  1  0  0  0
 11  3  1  0  0  0
 18 14  1  0  0  0
 11  7  2  0  0  0
  1  2  1  0  0  0
 18 19  1  0  0  0
M  END
> <minimizedAffinity>
-8.38006

> <CNNscore>
0.4051048756

> <CNNaffinity>
7.2247648239

> <CNN_VS>
2.9267873764

> <CNNaffinity_variance>
0.0927801207

$$$$
[H]c1nc(N([H])c2c([H])c([H])c(OC([H])([H])c3c([H])c([H])c([H])c(F)c3[H])c(Cl)c2[H])c2sc(C#C[C@@]3([H])N([H])C([H])([H])C([H])([H])C3([H])[H])c([H])c2n1


 35 39  0  0  0  0  0  0  0  0999 V2000
    0.9453  -52.7440  -19.8555 N   0  0  0  0  0  0  0  0  0  0  0  0
    1.9871  -52.7280  -19.6357 H   0  0  0  0  0  0  0  0  0  0  0  0
    0.4698  -53.0675  -21.1325 C   0  0  0  0  0  0  0  0  0  0  0  0
   -0.4013  -54.0459  -21.4291 N   0  0  0  0  0  0  0  0  0  0  0  0
   -0.7609  -54.1865  -22.7145 C   0  0  0  0  0  0  0  0  0  0  0  0
   -0.3020  -53.4132  -23.6980 N   0  0  0  0  0  0  0  0  0  0  0  0
    0.5926  -52.3919  -23.4665 C   0  0  0  0  0  0  0  0  0  0  0  0
    1.1345  -51.5370  -24.3706 C   0  0  0  0  0  0  0  0  0  0  0  0
    2.0052  -50.5993  -23.8972 C   0  0  0  0  0  0  0  0  0  0  0  0
    2.0511  -50.9228  -22.2247 S   0  0  0  0  0  0  0  0  0  0  0  0
    0.9643  -52.2392  -22.1708 C   0  0  0  0  0  0  0  0  0  0  0  0
    2.7100  -49.5792  -24.6687 C   0  0  0  0  0  0  0  0  0  0  0  0
    3.2855  -48.7498  -25.3214 C   0  0  0  0  0  0  0  0  0  0  0  0
    3.9676  -47.7303  -26.1323 C   0  0  0  0  0  0  0  0  0  0  0  0
    4.0756  -46.4345  -25.3708 C   0  0  0  0  0  0  0  0  0  0  0  0
    2.9474  -45.5863  -25.9059 C   0  0  0  0  0  0  0  0  0  0  0  0
    2.4360  -46.2878  -27.1211 C   0  0  0  0  0  0  0  0  0  0  0  0
    3.2544  -47.4480  -27.3508 N   0  0  0  0  0  0  0  0  0  0  0  0
    2.6945  -48.2528  -27.6833 H   0  0  0  0  0  0  0  0  0  0  0  0
   -1.6431  -51.8452  -16.6445 C   0  0  0  0  0  0  0  0  0  0  0  0
   -1.8295  -52.9556  -17.4381 C   0  0  0  0  0  0  0  0  0  0  0  0
   -0.9892  -53.2532  -18.4697 C   0  0  0  0  0  0  0  0  0  0  0  0
    0.1180  -52.4190  -18.7630 C   0  0  0  0  0  0  0  0  0  0  0  0
    0.2900  -51.3153  -17.9635 C   0  0  0  0  0  0  0  0  0  0  0  0
   -0.5834  -51.0240  -16.9062 C   0  0  0  0  0  0  0  0  0  0  0  0
   -0.2806  -49.5840  -15.9332 Cl  0  0  0  0  0  0  0  0  0  0  0  0
   -2.4762  -51.5186  -15.5937 O   0  0  0  0  0  0  0  0  0  0  0  0
   -3.8893  -51.4445  -15.8309 C   0  0  0  0  0  0  0  0  0  0  0  0
   -6.5490  -55.5072  -15.1927 F   0  0  0  0  0  0  0  0  0  0  0  0
   -5.9416  -54.4038  -14.7031 C   0  0  0  0  0  0  0  0  0  0  0  0
   -6.0281  -54.1654  -13.3417 C   0  0  0  0  0  0  0  0  0  0  0  0
   -5.4155  -53.0484  -12.8337 C   0  0  0  0  0  0  0  0  0  0  0  0
   -4.7156  -52.1547  -13.6358 C   0  0  0  0  0  0  0  0  0  0  0  0
   -4.6279  -52.3871  -14.9824 C   0  0  0  0  0  0  0  0  0  0  0  0
   -5.2437  -53.5084  -15.4879 C   0  0  0  0  0  0  0  0  0  0  0  0
 29 30  1  0  0  0
 30 31  2  0  0  0
 31 32  1  0  0  0
 32 33  2  0  0  0
 33 34  1  0  0  0
 34 28  1  0  0  0
 28 27  1  0  0  0
 27 20  1  0  0  0
 20 21  2  0  0  0
 21 22  1  0  0  0
 22 23  2  0  0  0
 23  1  1  0  0  0
  1  3  1  0  0  0
  3  4  2  0  0  0
  4  5  1  0  0  0
  5  6  2  0  0  0
  6  7  1  0  0  0
  7  8  1  0  0  0
  8  9  2  0  0  0
  9 10  1  0  0  0
 10 11  1  0  0  0
  9 12  1  0  0  0
 12 13  3  0  0  0
 13 14  1  0  0  0
 14 15  1  0  0  0
 15 16  1  0  0  0
 16 17  1  0  0  0
 17 18  1  0  0  0
 23 24  1  0  0  0
 24 25  2  0  0  0
 25 26  1  0  0  0
 34 35  2  0  0  0
 35 30  1  0  0  0
 25 20  1  0  0  0
 11  3  1  0  0  0
 18 14  1  0  0  0
 11  7  2  0  0  0
  1  2  1  0  0  0
 18 19  1  0  0  0
M  END
> <minimizedAffinity>
-7.21413

> <CNNscore>
0.3967022300

> <CNNaffinity>
6.9503259659

> <CNN_VS>
2.7572097778

> <CNNaffinity_variance>
0.3462001681

$$$$
[H]c1nc(N([H])c2c([H])c([H])c(OC([H])([H])c3c([H])c([H])c([H])c(F)c3[H])c(Cl)c2[H])c2sc(C#C[C@@]3([H])N([H])C([H])([H])C([H])([H])C3([H])[H])c([H])c2n1


 35 39  0  0  0  0  0  0  0  0999 V2000
   -1.1509  -52.5029  -16.5790 N   0  0  0  0  0  0  0  0  0  0  0  0
   -0.3923  -52.8727  -15.9295 H   0  0  0  0  0  0  0  0  0  0  0  0
   -2.3891  -52.0693  -16.0887 C   0  0  0  0  0  0  0  0  0  0  0  0
   -3.4866  -52.8267  -15.9278 N   0  0  0  0  0  0  0  0  0  0  0  0
   -4.5774  -52.2358  -15.4158 C   0  0  0  0  0  0  0  0  0  0  0  0
   -4.6244  -50.9513  -15.0638 N   0  0  0  0  0  0  0  0  0  0  0  0
   -3.5373  -50.1168  -15.2010 C   0  0  0  0  0  0  0  0  0  0  0  0
   -3.4517  -48.8000  -14.8840 C   0  0  0  0  0  0  0  0  0  0  0  0
   -2.2578  -48.1805  -15.1127 C   0  0  0  0  0  0  0  0  0  0  0  0
   -1.2913  -49.4278  -15.7561 S   0  0  0  0  0  0  0  0  0  0  0  0
   -2.4280  -50.7020  -15.7177 C   0  0  0  0  0  0  0  0  0  0  0  0
   -1.9248  -46.7820  -14.8555 C   0  0  0  0  0  0  0  0  0  0  0  0
   -1.6480  -45.6354  -14.6235 C   0  0  0  0  0  0  0  0  0  0  0  0
   -1.2866  -44.2405  -14.3309 C   0  0  0  0  0  0  0  0  0  0  0  0
   -2.5157  -43.3688  -14.3129 C   0  0  0  0  0  0  0  0  0  0  0  0
   -2.5266  -42.7026  -15.6674 C   0  0  0  0  0  0  0  0  0  0  0  0
   -1.1921  -42.9763  -16.2796 C   0  0  0  0  0  0  0  0  0  0  0  0
   -0.3959  -43.6973  -15.3232 N   0  0  0  0  0  0  0  0  0  0  0  0
    0.1874  -44.4216  -15.7778 H   0  0  0  0  0  0  0  0  0  0  0  0
   -0.0330  -52.3304  -20.6457 C   0  0  0  0  0  0  0  0  0  0  0  0
    0.5324  -51.5015  -19.7018 C   0  0  0  0  0  0  0  0  0  0  0  0
    0.1799  -51.5621  -18.3861 C   0  0  0  0  0  0  0  0  0  0  0  0
   -0.7922  -52.4919  -17.9408 C   0  0  0  0  0  0  0  0  0  0  0  0
   -1.3473  -53.3106  -18.8940 C   0  0  0  0  0  0  0  0  0  0  0  0
   -0.9733  -53.2356  -20.2430 C   0  0  0  0  0  0  0  0  0  0  0  0
   -1.7410  -54.3299  -21.3942 Cl  0  0  0  0  0  0  0  0  0  0  0  0
    0.3037  -52.2925  -21.9837 O   0  0  0  0  0  0  0  0  0  0  0  0
    1.0968  -51.1980  -22.4649 C   0  0  0  0  0  0  0  0  0  0  0  0
    5.9603  -51.3776  -21.9168 F   0  0  0  0  0  0  0  0  0  0  0  0
    4.8336  -51.7110  -22.5843 C   0  0  0  0  0  0  0  0  0  0  0  0
    4.9580  -52.5067  -23.7109 C   0  0  0  0  0  0  0  0  0  0  0  0
    3.8210  -52.8512  -24.3963 C   0  0  0  0  0  0  0  0  0  0  0  0
    2.5573  -52.4303  -23.9992 C   0  0  0  0  0  0  0  0  0  0  0  0
    2.4304  -51.6434  -22.8857 C   0  0  0  0  0  0  0  0  0  0  0  0
    3.5729  -51.3001  -22.2011 C   0  0  0  0  0  0  0  0  0  0  0  0
 29 30  1  0  0  0
 30 31  2  0  0  0
 31 32  1  0  0  0
 32 33  2  0  0  0
 33 34  1  0  0  0
 34 28  1  0  0  0
 28 27  1  0  0  0
 27 20  1  0  0  0
 20 21  2  0  0  0
 21 22  1  0  0  0
 22 23  2  0  0  0
 23  1  1  0  0  0
  1  3  1  0  0  0
  3  4  2  0  0  0
  4  5  1  0  0  0
  5  6  2  0  0  0
  6  7  1  0  0  0
  7  8  1  0  0  0
  8  9  2  0  0  0
  9 10  1  0  0  0
 10 11  1  0  0  0
  9 12  1  0  0  0
 12 13  3  0  0  0
 13 14  1  0  0  0
 14 15  1  0  0  0
 15 16  1  0  0  0
 16 17  1  0  0  0
 17 18  1  0  0  0
 23 24  1  0  0  0
 24 25  2  0  0  0
 25 26  1  0  0  0
 34 35  2  0  0  0
 35 30  1  0  0  0
 25 20  1  0  0  0
 11  3  1  0  0  0
 18 14  1  0  0  0
 11  7  2  0  0  0
  1  2  1  0  0  0
 18 19  1  0  0  0
M  END
> <minimizedAffinity>
-7.27701

> <CNNscore>
0.3556957543

> <CNNaffinity>
6.4662065506

> <CNN_VS>
2.3000020981

> <CNNaffinity_variance>
0.1202933416

$$$$
[H]c1nc(N([H])c2c([H])c([H])c(OC([H])([H])c3c([H])c([H])c([H])c(F)c3[H])c(Cl)c2[H])c2sc(C#C[C@@]3([H])N([H])C([H])([H])C([H])([H])C3([H])[H])c([H])c2n1


 35 39  0  0  0  0  0  0  0  0999 V2000
   -0.2835  -54.3241  -24.3978 N   0  0  0  0  0  0  0  0  0  0  0  0
   -0.4829  -55.3701  -24.4103 H   0  0  0  0  0  0  0  0  0  0  0  0
   -0.0229  -53.6128  -25.5758 C   0  0  0  0  0  0  0  0  0  0  0  0
   -0.7994  -53.5829  -26.6713 N   0  0  0  0  0  0  0  0  0  0  0  0
   -0.3944  -52.8179  -27.6970 C   0  0  0  0  0  0  0  0  0  0  0  0
    0.7257  -52.0960  -27.6820 N   0  0  0  0  0  0  0  0  0  0  0  0
    1.5687  -52.0795  -26.5930 C   0  0  0  0  0  0  0  0  0  0  0  0
    2.7309  -51.3937  -26.4484 C   0  0  0  0  0  0  0  0  0  0  0  0
    3.3967  -51.5383  -25.2663 C   0  0  0  0  0  0  0  0  0  0  0  0
    2.4039  -52.6121  -24.3916 S   0  0  0  0  0  0  0  0  0  0  0  0
    1.1706  -52.8489  -25.5491 C   0  0  0  0  0  0  0  0  0  0  0  0
    4.6559  -50.9082  -24.8790 C   0  0  0  0  0  0  0  0  0  0  0  0
    5.6820  -50.3717  -24.5560 C   0  0  0  0  0  0  0  0  0  0  0  0
    6.9274  -49.7113  -24.1378 C   0  0  0  0  0  0  0  0  0  0  0  0
    7.7133  -50.6030  -23.2115 C   0  0  0  0  0  0  0  0  0  0  0  0
    7.3986  -50.0837  -21.8295 C   0  0  0  0  0  0  0  0  0  0  0  0
    6.7058  -48.7747  -22.0216 C   0  0  0  0  0  0  0  0  0  0  0  0
    6.6725  -48.4837  -23.4297 N   0  0  0  0  0  0  0  0  0  0  0  0
    5.7808  -48.0380  -23.7085 H   0  0  0  0  0  0  0  0  0  0  0  0
   -0.4271  -52.7105  -20.4999 C   0  0  0  0  0  0  0  0  0  0  0  0
   -0.4167  -54.0698  -20.7228 C   0  0  0  0  0  0  0  0  0  0  0  0
   -0.3605  -54.5933  -21.9805 C   0  0  0  0  0  0  0  0  0  0  0  0
   -0.3104  -53.7449  -23.1144 C   0  0  0  0  0  0  0  0  0  0  0  0
   -0.3224  -52.3922  -22.8758 C   0  0  0  0  0  0  0  0  0  0  0  0
   -0.3800  -51.8703  -21.5759 C   0  0  0  0  0  0  0  0  0  0  0  0
   -0.3899  -50.1184  -21.3690 Cl  0  0  0  0  0  0  0  0  0  0  0  0
   -0.4830  -52.1517  -19.2392 O   0  0  0  0  0  0  0  0  0  0  0  0
    0.6893  -52.1938  -18.4132 C   0  0  0  0  0  0  0  0  0  0  0  0
    2.6315  -47.7247  -18.9054 F   0  0  0  0  0  0  0  0  0  0  0  0
    2.6611  -49.0570  -19.1300 C   0  0  0  0  0  0  0  0  0  0  0  0
    3.7226  -49.5692  -19.8571 C   0  0  0  0  0  0  0  0  0  0  0  0
    3.7628  -50.9200  -20.0912 C   0  0  0  0  0  0  0  0  0  0  0  0
    2.7796  -51.7849  -19.6253 C   0  0  0  0  0  0  0  0  0  0  0  0
    1.7285  -51.2820  -18.9060 C   0  0  0  0  0  0  0  0  0  0  0  0
    1.6917  -49.9269  -18.6734 C   0  0  0  0  0  0  0  0  0  0  0  0
 29 30  1  0  0  0
 30 31  2  0  0  0
 31 32  1  0  0  0
 32 33  2  0  0  0
 33 34  1  0  0  0
 34 28  1  0  0  0
 28 27  1  0  0  0
 27 20  1  0  0  0
 20 21  2  0  0  0
 21 22  1  0  0  0
 22 23  2  0  0  0
 23  1  1  0  0  0
  1  3  1  0  0  0
  3  4  2  0  0  0
  4  5  1  0  0  0
  5  6  2  0  0  0
  6  7  1  0  0  0
  7  8  1  0  0  0
  8  9  2  0  0  0
  9 10  1  0  0  0
 10 11  1  0  0  0
  9 12  1  0  0  0
 12 13  3  0  0  0
 13 14  1  0  0  0
 14 15  1  0  0  0
 15 16  1  0  0  0
 16 17  1  0  0  0
 17 18  1  0  0  0
 23 24  1  0  0  0
 24 25  2  0  0  0
 25 26  1  0  0  0
 34 35  2  0  0  0
 35 30  1  0  0  0
 25 20  1  0  0  0
 11  3  1  0  0  0
 18 14  1  0  0  0
 11  7  2  0  0  0
  1  2  1  0  0  0
 18 19  1  0  0  0
M  END
> <minimizedAffinity>
-7.01816

> <CNNscore>
0.2783555686

> <CNNaffinity>
7.1918058395

> <CNN_VS>
2.0018792152

> <CNNaffinity_variance>
0.3310931325

$$$$
[H]c1nc(N([H])c2c([H])c([H])c(OC([H])([H])c3c([H])c([H])c([H])c(F)c3[H])c(Cl)c2[H])c2sc(C#C[C@@]3([H])N([H])C([H])([H])C([H])([H])C3([H])[H])c([H])c2n1


 35 39  0  0  0  0  0  0  0  0999 V2000
    0.6003  -51.9374  -24.1314 N   0  0  0  0  0  0  0  0  0  0  0  0
    0.1263  -51.1734  -24.7021 H   0  0  0  0  0  0  0  0  0  0  0  0
   -0.1017  -53.0664  -23.6908 C   0  0  0  0  0  0  0  0  0  0  0  0
   -0.4975  -54.0999  -24.4519 N   0  0  0  0  0  0  0  0  0  0  0  0
   -1.1385  -55.1088  -23.8416 C   0  0  0  0  0  0  0  0  0  0  0  0
   -1.3981  -55.1351  -22.5347 N   0  0  0  0  0  0  0  0  0  0  0  0
   -1.0217  -54.1103  -21.6952 C   0  0  0  0  0  0  0  0  0  0  0  0
   -1.2227  -54.0125  -20.3565 C   0  0  0  0  0  0  0  0  0  0  0  0
   -0.7546  -52.8908  -19.7366 C   0  0  0  0  0  0  0  0  0  0  0  0
   -0.0533  -52.0067  -21.0135 S   0  0  0  0  0  0  0  0  0  0  0  0
   -0.3728  -53.0839  -22.2998 C   0  0  0  0  0  0  0  0  0  0  0  0
   -0.8501  -52.5611  -18.3171 C   0  0  0  0  0  0  0  0  0  0  0  0
   -0.9304  -52.2694  -17.1537 C   0  0  0  0  0  0  0  0  0  0  0  0
   -1.0515  -51.9021  -15.7351 C   0  0  0  0  0  0  0  0  0  0  0  0
   -0.9477  -50.4084  -15.5651 C   0  0  0  0  0  0  0  0  0  0  0  0
    0.4790  -50.1754  -15.1308 C   0  0  0  0  0  0  0  0  0  0  0  0
    1.0379  -51.5181  -14.7909 C   0  0  0  0  0  0  0  0  0  0  0  0
   -0.0091  -52.4932  -14.9367 N   0  0  0  0  0  0  0  0  0  0  0  0
    0.3457  -53.3807  -15.3342 H   0  0  0  0  0  0  0  0  0  0  0  0
    4.7141  -51.3872  -23.3620 C   0  0  0  0  0  0  0  0  0  0  0  0
    4.2376  -52.5183  -23.9875 C   0  0  0  0  0  0  0  0  0  0  0  0
    2.9104  -52.6938  -24.2458 C   0  0  0  0  0  0  0  0  0  0  0  0
    1.9654  -51.7054  -23.8743 C   0  0  0  0  0  0  0  0  0  0  0  0
    2.4559  -50.5840  -23.2507 C   0  0  0  0  0  0  0  0  0  0  0  0
    3.8240  -50.4191  -22.9929 C   0  0  0  0  0  0  0  0  0  0  0  0
    4.3597  -48.9436  -22.1879 Cl  0  0  0  0  0  0  0  0  0  0  0  0
    6.0510  -51.1815  -23.0878 O   0  0  0  0  0  0  0  0  0  0  0  0
    6.8781  -50.5835  -24.0961 C   0  0  0  0  0  0  0  0  0  0  0  0
    9.2157  -48.5707  -20.2920 F   0  0  0  0  0  0  0  0  0  0  0  0
    8.9472  -48.6331  -21.6150 C   0  0  0  0  0  0  0  0  0  0  0  0
    9.5830  -47.7293  -22.4497 C   0  0  0  0  0  0  0  0  0  0  0  0
    9.3179  -47.7833  -23.7943 C   0  0  0  0  0  0  0  0  0  0  0  0
    8.4381  -48.7095  -24.3419 C   0  0  0  0  0  0  0  0  0  0  0  0
    7.8075  -49.6048  -23.5197 C   0  0  0  0  0  0  0  0  0  0  0  0
    8.0759  -49.5473  -22.1719 C   0  0  0  0  0  0  0  0  0  0  0  0
 29 30  1  0  0  0
 30 31  2  0  0  0
 31 32  1  0  0  0
 32 33  2  0  0  0
 33 34  1  0  0  0
 34 28  1  0  0  0
 28 27  1  0  0  0
 27 20  1  0  0  0
 20 21  2  0  0  0
 21 22  1  0  0  0
 22 23  2  0  0  0
 23  1  1  0  0  0
  1  3  1  0  0  0
  3  4  2  0  0  0
  4  5  1  0  0  0
  5  6  2  0  0  0
  6  7  1  0  0  0
  7  8  1  0  0  0
  8  9  2  0  0  0
  9 10  1  0  0  0
 10 11  1  0  0  0
  9 12  1  0  0  0
 12 13  3  0  0  0
 13 14  1  0  0  0
 14 15  1  0  0  0
 15 16  1  0  0  0
 16 17  1  0  0  0
 17 18  1  0  0  0
 23 24  1  0  0  0
 24 25  2  0  0  0
 25 26  1  0  0  0
 34 35  2  0  0  0
 35 30  1  0  0  0
 25 20  1  0  0  0
 11  3  1  0  0  0
 18 14  1  0  0  0
 11  7  2  0  0  0
  1  2  1  0  0  0
 18 19  1  0  0  0
M  END
> <minimizedAffinity>
-7.83354

> <CNNscore>
0.2644737363

> <CNNaffinity>
6.9173531532

> <CNN_VS>
1.8294582367

> <CNNaffinity_variance>
0.1425802112

$$$$
[H]c1nc(N([H])c2c([H])c([H])c(OC([H])([H])c3c([H])c([H])c([H])c(F)c3[H])c(Cl)c2[H])c2c(n1)c([H])c([H])n2[H]


 28 31  0  0  0  0  0  0  0  0999 V2000
   -0.5285  -52.7315  -22.8285 C   0  0  0  0  0  0  0  0  0  0  0  0
   -0.1946  -51.6932  -21.9920 C   0  0  0  0  0  0  0  0  0  0  0  0
   -0.1664  -51.8864  -20.6343 C   0  0  0  0  0  0  0  0  0  0  0  0
   -0.4645  -53.1104  -20.0198 C   0  0  0  0  0  0  0  0  0  0  0  0
   -0.7945  -54.1327  -20.8728 C   0  0  0  0  0  0  0  0  0  0  0  0
   -0.8272  -53.9469  -22.2667 C   0  0  0  0  0  0  0  0  0  0  0  0
   -1.2527  -55.2730  -23.3189 Cl  0  0  0  0  0  0  0  0  0  0  0  0
   -0.3964  -53.2241  -18.6325 N   0  0  0  0  0  0  0  0  0  0  0  0
   -0.1264  -54.2046  -18.2629 H   0  0  0  0  0  0  0  0  0  0  0  0
   -0.6276  -52.2752  -17.6398 C   0  0  0  0  0  0  0  0  0  0  0  0
    0.2168  -51.3003  -17.2802 N   0  0  0  0  0  0  0  0  0  0  0  0
   -0.0308  -50.4071  -16.3072 C   0  0  0  0  0  0  0  0  0  0  0  0
   -1.1849  -50.4381  -15.6086 N   0  0  0  0  0  0  0  0  0  0  0  0
   -2.0957  -51.3897  -15.9051 C   0  0  0  0  0  0  0  0  0  0  0  0
   -3.3518  -51.6632  -15.3641 C   0  0  0  0  0  0  0  0  0  0  0  0
   -3.8158  -52.7531  -16.0688 C   0  0  0  0  0  0  0  0  0  0  0  0
   -2.8771  -53.1143  -16.9903 N   0  0  0  0  0  0  0  0  0  0  0  0
   -1.8220  -52.2946  -16.9051 C   0  0  0  0  0  0  0  0  0  0  0  0
   -2.9374  -53.9034  -17.6741 H   0  0  0  0  0  0  0  0  0  0  0  0
   -0.5532  -52.5199  -24.2028 O   0  0  0  0  0  0  0  0  0  0  0  0
    0.5538  -52.7505  -25.0331 C   0  0  0  0  0  0  0  0  0  0  0  0
   -2.9836  -52.3383  -28.3578 F   0  0  0  0  0  0  0  0  0  0  0  0
   -1.6812  -52.5709  -28.0752 C   0  0  0  0  0  0  0  0  0  0  0  0
   -0.7597  -52.8394  -29.0861 C   0  0  0  0  0  0  0  0  0  0  0  0
    0.5617  -53.0734  -28.7767 C   0  0  0  0  0  0  0  0  0  0  0  0
    0.9740  -53.0419  -27.4621 C   0  0  0  0  0  0  0  0  0  0  0  0
    0.0878  -52.7793  -26.4384 C   0  0  0  0  0  0  0  0  0  0  0  0
   -1.2231  -52.5489  -26.7663 C   0  0  0  0  0  0  0  0  0  0  0  0
 22 23  1  0  0  0
 23 24  2  0  0  0
 24 25  1  0  0  0
 25 26  2  0  0  0
 26 27  1  0  0  0
 27 21  1  0  0  0
 21 20  1  0  0  0
 20  1  1  0  0  0
  1  2  2  0  0  0
  2  3  1  0  0  0
  3  4  2  0  0  0
  4  8  1  0  0  0
  8 10  1  0  0  0
 10 11  2  0  0  0
 11 12  1  0  0  0
 12 13  2  0  0  0
 13 14  1  0  0  0
 14 15  1  0  0  0
 15 16  2  0  0  0
 16 17  1  0  0  0
 17 18  1  0  0  0
  4  5  1  0  0  0
  5  6  2  0  0  0
  6  7  1  0  0  0
 27 28  2  0  0  0
 28 23  1  0  0  0
  6  1  1  0  0  0
 18 10  1  0  0  0
 18 14  2  0  0  0
  8  9  1  0  0  0
 17 19  1  0  0  0
M  END
> <minimizedAffinity>
-8.85313

> <CNNscore>
0.6898839474

> <CNNaffinity>
6.8823914528

> <CNN_VS>
4.7480511665

> <CNNaffinity_variance>
0.0257328451

$$$$
[H]c1nc(N([H])c2c([H])c([H])c(OC([H])([H])c3c([H])c([H])c([H])c(F)c3[H])c(Cl)c2[H])c2c(n1)c([H])c([H])n2[H]


 28 31  0  0  0  0  0  0  0  0999 V2000
   -0.4912  -52.6436  -22.7497 C   0  0  0  0  0  0  0  0  0  0  0  0
   -0.1384  -51.6393  -21.8801 C   0  0  0  0  0  0  0  0  0  0  0  0
   -0.1434  -51.8680  -20.5277 C   0  0  0  0  0  0  0  0  0  0  0  0
   -0.4951  -53.0963  -19.9513 C   0  0  0  0  0  0  0  0  0  0  0  0
   -0.8432  -54.0843  -20.8367 C   0  0  0  0  0  0  0  0  0  0  0  0
   -0.8423  -53.8619  -22.2257 C   0  0  0  0  0  0  0  0  0  0  0  0
   -1.2923  -55.1450  -23.3201 Cl  0  0  0  0  0  0  0  0  0  0  0  0
   -0.4580  -53.2477  -18.5664 N   0  0  0  0  0  0  0  0  0  0  0  0
    0.3002  -53.9255  -18.1968 H   0  0  0  0  0  0  0  0  0  0  0  0
   -1.2484  -52.6686  -17.5767 C   0  0  0  0  0  0  0  0  0  0  0  0
   -2.4778  -53.0676  -17.2270 N   0  0  0  0  0  0  0  0  0  0  0  0
   -3.2211  -52.4781  -16.2753 C   0  0  0  0  0  0  0  0  0  0  0  0
   -2.7592  -51.4116  -15.5896 N   0  0  0  0  0  0  0  0  0  0  0  0
   -1.5266  -50.9413  -15.8775 C   0  0  0  0  0  0  0  0  0  0  0  0
   -0.7994  -49.8767  -15.3457 C   0  0  0  0  0  0  0  0  0  0  0  0
    0.3950  -49.8797  -16.0334 C   0  0  0  0  0  0  0  0  0  0  0  0
    0.3810  -50.9019  -16.9366 N   0  0  0  0  0  0  0  0  0  0  0  0
   -0.7822  -51.5598  -16.8558 C   0  0  0  0  0  0  0  0  0  0  0  0
    1.1424  -51.1618  -17.6049 H   0  0  0  0  0  0  0  0  0  0  0  0
   -0.4818  -52.3962  -24.1183 O   0  0  0  0  0  0  0  0  0  0  0  0
    0.6328  -52.6430  -24.9334 C   0  0  0  0  0  0  0  0  0  0  0  0
   -2.8827  -52.3574  -28.2944 F   0  0  0  0  0  0  0  0  0  0  0  0
   -1.5816  -52.5759  -27.9950 C   0  0  0  0  0  0  0  0  0  0  0  0
   -0.6524  -52.8761  -28.9898 C   0  0  0  0  0  0  0  0  0  0  0  0
    0.6676  -53.0950  -28.6635 C   0  0  0  0  0  0  0  0  0  0  0  0
    1.0707  -53.0168  -27.3480 C   0  0  0  0  0  0  0  0  0  0  0  0
    0.1767  -52.7219  -26.3400 C   0  0  0  0  0  0  0  0  0  0  0  0
   -1.1327  -52.5072  -26.6846 C   0  0  0  0  0  0  0  0  0  0  0  0
 22 23  1  0  0  0
 23 24  2  0  0  0
 24 25  1  0  0  0
 25 26  2  0  0  0
 26 27  1  0  0  0
 27 21  1  0  0  0
 21 20  1  0  0  0
 20  1  1  0  0  0
  1  2  2  0  0  0
  2  3  1  0  0  0
  3  4  2  0  0  0
  4  8  1  0  0  0
  8 10  1  0  0  0
 10 11  2  0  0  0
 11 12  1  0  0  0
 12 13  2  0  0  0
 13 14  1  0  0  0
 14 15  1  0  0  0
 15 16  2  0  0  0
 16 17  1  0  0  0
 17 18  1  0  0  0
  4  5  1  0  0  0
  5  6  2  0  0  0
  6  7  1  0  0  0
 27 28  2  0  0  0
 28 23  1  0  0  0
  6  1  1  0  0  0
 18 10  1  0  0  0
 18 14  2  0  0  0
  8  9  1  0  0  0
 17 19  1  0  0  0
M  END
> <minimizedAffinity>
-8.64745

> <CNNscore>
0.6802693605

> <CNNaffinity>
6.7995376587

> <CNN_VS>
4.6255173683

> <CNNaffinity_variance>
0.0973419696

$$$$
[H]c1nc(N([H])c2c([H])c([H])c(OC([H])([H])c3c([H])c([H])c([H])c(F)c3[H])c(Cl)c2[H])c2c(n1)c([H])c([H])n2[H]


 28 31  0  0  0  0  0  0  0  0999 V2000
   -0.1947  -52.4159  -22.5652 C   0  0  0  0  0  0  0  0  0  0  0  0
   -0.8265  -53.5575  -22.1331 C   0  0  0  0  0  0  0  0  0  0  0  0
   -0.9461  -53.8105  -20.7903 C   0  0  0  0  0  0  0  0  0  0  0  0
   -0.4521  -52.9568  -19.7944 C   0  0  0  0  0  0  0  0  0  0  0  0
    0.1742  -51.8236  -20.2474 C   0  0  0  0  0  0  0  0  0  0  0  0
    0.3033  -51.5533  -21.6218 C   0  0  0  0  0  0  0  0  0  0  0  0
    1.1077  -50.1002  -22.1584 Cl  0  0  0  0  0  0  0  0  0  0  0  0
   -0.6305  -53.2828  -18.4512 N   0  0  0  0  0  0  0  0  0  0  0  0
   -0.0112  -54.0919  -18.0869 H   0  0  0  0  0  0  0  0  0  0  0  0
   -1.4870  -52.7359  -17.4989 C   0  0  0  0  0  0  0  0  0  0  0  0
   -2.7417  -53.1356  -17.2567 N   0  0  0  0  0  0  0  0  0  0  0  0
   -3.5484  -52.5773  -16.3384 C   0  0  0  0  0  0  0  0  0  0  0  0
   -3.1299  -51.5444  -15.5775 N   0  0  0  0  0  0  0  0  0  0  0  0
   -1.8760  -51.0760  -15.7549 C   0  0  0  0  0  0  0  0  0  0  0  0
   -1.1817  -50.0417  -15.1280 C   0  0  0  0  0  0  0  0  0  0  0  0
    0.0600  -50.0296  -15.7261 C   0  0  0  0  0  0  0  0  0  0  0  0
    0.1045  -51.0141  -16.6692 N   0  0  0  0  0  0  0  0  0  0  0  0
   -1.0664  -51.6622  -16.7008 C   0  0  0  0  0  0  0  0  0  0  0  0
    0.9110  -51.2548  -17.2902 H   0  0  0  0  0  0  0  0  0  0  0  0
   -0.0809  -52.1735  -23.9299 O   0  0  0  0  0  0  0  0  0  0  0  0
    0.6797  -52.9794  -24.7900 C   0  0  0  0  0  0  0  0  0  0  0  0
   -3.0612  -52.2042  -27.8134 F   0  0  0  0  0  0  0  0  0  0  0  0
   -1.7469  -52.4755  -27.6429 C   0  0  0  0  0  0  0  0  0  0  0  0
   -0.8979  -52.6493  -28.7349 C   0  0  0  0  0  0  0  0  0  0  0  0
    0.4372  -52.9248  -28.5393 C   0  0  0  0  0  0  0  0  0  0  0  0
    0.9352  -53.0291  -27.2586 C   0  0  0  0  0  0  0  0  0  0  0  0
    0.1222  -52.8628  -26.1569 C   0  0  0  0  0  0  0  0  0  0  0  0
   -1.2037  -52.5891  -26.3719 C   0  0  0  0  0  0  0  0  0  0  0  0
 22 23  1  0  0  0
 23 24  2  0  0  0
 24 25  1  0  0  0
 25 26  2  0  0  0
 26 27  1  0  0  0
 27 21  1  0  0  0
 21 20  1  0  0  0
 20  1  1  0  0  0
  1  2  2  0  0  0
  2  3  1  0  0  0
  3  4  2  0  0  0
  4  8  1  0  0  0
  8 10  1  0  0  0
 10 11  2  0  0  0
 11 12  1  0  0  0
 12 13  2  0  0  0
 13 14  1  0  0  0
 14 15  1  0  0  0
 15 16  2  0  0  0
 16 17  1  0  0  0
 17 18  1  0  0  0
  4  5  1  0  0  0
  5  6  2  0  0  0
  6  7  1  0  0  0
 27 28  2  0  0  0
 28 23  1  0  0  0
  6  1  1  0  0  0
 18 10  1  0  0  0
 18 14  2  0  0  0
  8  9  1  0  0  0
 17 19  1  0  0  0
M  END
> <minimizedAffinity>
-8.38469

> <CNNscore>
0.6284341812

> <CNNaffinity>
6.7681198120

> <CNN_VS>
4.2533178329

> <CNNaffinity_variance>
0.0465080515

$$$$
[H]c1nc(N([H])c2c([H])c([H])c(OC([H])([H])c3c([H])c([H])c([H])c(F)c3[H])c(Cl)c2[H])c2c(n1)c([H])c([H])n2[H]


 28 31  0  0  0  0  0  0  0  0999 V2000
    0.2041  -53.0668  -22.9049 C   0  0  0  0  0  0  0  0  0  0  0  0
    0.6892  -52.1468  -22.0063 C   0  0  0  0  0  0  0  0  0  0  0  0
    0.4025  -52.2733  -20.6709 C   0  0  0  0  0  0  0  0  0  0  0  0
   -0.3770  -53.3106  -20.1411 C   0  0  0  0  0  0  0  0  0  0  0  0
   -0.8504  -54.2175  -21.0548 C   0  0  0  0  0  0  0  0  0  0  0  0
   -0.5636  -54.0983  -22.4268 C   0  0  0  0  0  0  0  0  0  0  0  0
   -1.1853  -55.2729  -23.5584 Cl  0  0  0  0  0  0  0  0  0  0  0  0
   -0.6069  -53.3728  -18.7679 N   0  0  0  0  0  0  0  0  0  0  0  0
   -0.7223  -54.3702  -18.3644 H   0  0  0  0  0  0  0  0  0  0  0  0
   -0.7189  -52.3518  -17.8274 C   0  0  0  0  0  0  0  0  0  0  0  0
    0.1784  -51.3798  -17.6203 N   0  0  0  0  0  0  0  0  0  0  0  0
    0.0469  -50.4153  -16.6939 C   0  0  0  0  0  0  0  0  0  0  0  0
   -1.0341  -50.3645  -15.8878 N   0  0  0  0  0  0  0  0  0  0  0  0
   -1.9908  -51.3071  -16.0277 C   0  0  0  0  0  0  0  0  0  0  0  0
   -3.1940  -51.5060  -15.3511 C   0  0  0  0  0  0  0  0  0  0  0  0
   -3.7489  -52.6275  -15.9291 C   0  0  0  0  0  0  0  0  0  0  0  0
   -2.9128  -53.0782  -16.9082 N   0  0  0  0  0  0  0  0  0  0  0  0
   -1.8362  -52.2860  -16.9825 C   0  0  0  0  0  0  0  0  0  0  0  0
   -3.0572  -53.9102  -17.5253 H   0  0  0  0  0  0  0  0  0  0  0  0
    0.5030  -52.9248  -24.2558 O   0  0  0  0  0  0  0  0  0  0  0  0
    0.3110  -51.7274  -24.9608 C   0  0  0  0  0  0  0  0  0  0  0  0
    0.1194  -52.9116  -29.6828 F   0  0  0  0  0  0  0  0  0  0  0  0
   -0.5337  -52.6142  -28.5360 C   0  0  0  0  0  0  0  0  0  0  0  0
   -1.9263  -52.5820  -28.4856 C   0  0  0  0  0  0  0  0  0  0  0  0
   -2.5716  -52.2769  -27.3078 C   0  0  0  0  0  0  0  0  0  0  0  0
   -1.8367  -52.0023  -26.1747 C   0  0  0  0  0  0  0  0  0  0  0  0
   -0.4578  -52.0257  -26.1908 C   0  0  0  0  0  0  0  0  0  0  0  0
    0.1662  -52.3316  -27.3725 C   0  0  0  0  0  0  0  0  0  0  0  0
 22 23  1  0  0  0
 23 24  2  0  0  0
 24 25  1  0  0  0
 25 26  2  0  0  0
 26 27  1  0  0  0
 27 21  1  0  0  0
 21 20  1  0  0  0
 20  1  1  0  0  0
  1  2  2  0  0  0
  2  3  1  0  0  0
  3  4  2  0  0  0
  4  8  1  0  0  0
  8 10  1  0  0  0
 10 11  2  0  0  0
 11 12  1  0  0  0
 12 13  2  0  0  0
 13 14  1  0  0  0
 14 15  1  0  0  0
 15 16  2  0  0  0
 16 17  1  0  0  0
 17 18  1  0  0  0
  4  5  1  0  0  0
  5  6  2  0  0  0
  6  7  1  0  0  0
 27 28  2  0  0  0
 28 23  1  0  0  0
  6  1  1  0  0  0
 18 10  1  0  0  0
 18 14  2  0  0  0
  8  9  1  0  0  0
 17 19  1  0  0  0
M  END
> <minimizedAffinity>
-8.96728

> <CNNscore>
0.5952264071

> <CNNaffinity>
6.8130364418

> <CNN_VS>
4.0552992821

> <CNNaffinity_variance>
0.0757973045

$$$$
[H]c1nc(N([H])c2c([H])c([H])c(OC([H])([H])c3c([H])c([H])c([H])c(F)c3[H])c(Cl)c2[H])c2c(n1)c([H])c([H])n2[H]


 28 31  0  0  0  0  0  0  0  0999 V2000
   -0.3434  -52.4893  -22.5392 C   0  0  0  0  0  0  0  0  0  0  0  0
   -1.0308  -53.5546  -22.0083 C   0  0  0  0  0  0  0  0  0  0  0  0
   -1.0837  -53.7296  -20.6489 C   0  0  0  0  0  0  0  0  0  0  0  0
   -0.4647  -52.8685  -19.7325 C   0  0  0  0  0  0  0  0  0  0  0  0
    0.2152  -51.8122  -20.2834 C   0  0  0  0  0  0  0  0  0  0  0  0
    0.2770  -51.6222  -21.6759 C   0  0  0  0  0  0  0  0  0  0  0  0
    1.1530  -50.2656  -22.3383 Cl  0  0  0  0  0  0  0  0  0  0  0  0
   -0.5817  -53.1115  -18.3652 N   0  0  0  0  0  0  0  0  0  0  0  0
   -0.4465  -54.1428  -18.0670 H   0  0  0  0  0  0  0  0  0  0  0  0
   -0.8527  -52.2367  -17.3160 C   0  0  0  0  0  0  0  0  0  0  0  0
   -0.0153  -51.3072  -16.8390 N   0  0  0  0  0  0  0  0  0  0  0  0
   -0.3024  -50.4862  -15.8146 C   0  0  0  0  0  0  0  0  0  0  0  0
   -1.4925  -50.5495  -15.1817 N   0  0  0  0  0  0  0  0  0  0  0  0
   -2.3992  -51.4595  -15.5977 C   0  0  0  0  0  0  0  0  0  0  0  0
   -3.6860  -51.7510  -15.1457 C   0  0  0  0  0  0  0  0  0  0  0  0
   -4.1266  -52.7757  -15.9552 C   0  0  0  0  0  0  0  0  0  0  0  0
   -3.1450  -53.0826  -16.8514 N   0  0  0  0  0  0  0  0  0  0  0  0
   -2.0848  -52.2907  -16.6485 C   0  0  0  0  0  0  0  0  0  0  0  0
   -3.1795  -53.8163  -17.5959 H   0  0  0  0  0  0  0  0  0  0  0  0
   -0.2983  -52.3256  -23.9196 O   0  0  0  0  0  0  0  0  0  0  0  0
    0.6899  -52.9068  -24.7278 C   0  0  0  0  0  0  0  0  0  0  0  0
   -2.8350  -52.3129  -28.0382 F   0  0  0  0  0  0  0  0  0  0  0  0
   -1.5360  -52.5720  -27.7635 C   0  0  0  0  0  0  0  0  0  0  0  0
   -0.6152  -52.8073  -28.7833 C   0  0  0  0  0  0  0  0  0  0  0  0
    0.7028  -53.0691  -28.4818 C   0  0  0  0  0  0  0  0  0  0  0  0
    1.1124  -53.0986  -27.1664 C   0  0  0  0  0  0  0  0  0  0  0  0
    0.2269  -52.8702  -26.1340 C   0  0  0  0  0  0  0  0  0  0  0  0
   -1.0807  -52.6112  -26.4540 C   0  0  0  0  0  0  0  0  0  0  0  0
 22 23  1  0  0  0
 23 24  2  0  0  0
 24 25  1  0  0  0
 25 26  2  0  0  0
 26 27  1  0  0  0
 27 21  1  0  0  0
 21 20  1  0  0  0
 20  1  1  0  0  0
  1  2  2  0  0  0
  2  3  1  0  0  0
  3  4  2  0  0  0
  4  8  1  0  0  0
  8 10  1  0  0  0
 10 11  2  0  0  0
 11 12  1  0  0  0
 12 13  2  0  0  0
 13 14  1  0  0  0
 14 15  1  0  0  0
 15 16  2  0  0  0
 16 17  1  0  0  0
 17 18  1  0  0  0
  4  5  1  0  0  0
  5  6  2  0  0  0
  6  7  1  0  0  0
 27 28  2  0  0  0
 28 23  1  0  0  0
  6  1  1  0  0  0
 18 10  1  0  0  0
 18 14  2  0  0  0
  8  9  1  0  0  0
 17 19  1  0  0  0
M  END
> <minimizedAffinity>
-8.55147

> <CNNscore>
0.5262928009

> <CNNaffinity>
6.6486954689

> <CNN_VS>
3.4991605282

> <CNNaffinity_variance>
0.0360059775

$$$$
[H]c1nc(N([H])c2c([H])c([H])c(OC([H])([H])c3c([H])c([H])c([H])c(F)c3[H])c(Cl)c2[H])c2c(n1)c([H])c([H])n2[H]


 28 31  0  0  0  0  0  0  0  0999 V2000
    0.8185  -51.9592  -21.2285 C   0  0  0  0  0  0  0  0  0  0  0  0
    1.5118  -51.6644  -22.3781 C   0  0  0  0  0  0  0  0  0  0  0  0
    1.2105  -52.3138  -23.5480 C   0  0  0  0  0  0  0  0  0  0  0  0
    0.2108  -53.2902  -23.6565 C   0  0  0  0  0  0  0  0  0  0  0  0
   -0.4688  -53.5686  -22.4981 C   0  0  0  0  0  0  0  0  0  0  0  0
   -0.1688  -52.9097  -21.2920 C   0  0  0  0  0  0  0  0  0  0  0  0
   -1.0562  -53.2927  -19.8386 Cl  0  0  0  0  0  0  0  0  0  0  0  0
   -0.0410  -53.8902  -24.8890 N   0  0  0  0  0  0  0  0  0  0  0  0
   -0.7002  -54.7477  -24.8582 H   0  0  0  0  0  0  0  0  0  0  0  0
    0.4272  -53.5657  -26.1598 C   0  0  0  0  0  0  0  0  0  0  0  0
    1.7063  -53.6047  -26.5537 N   0  0  0  0  0  0  0  0  0  0  0  0
    2.1278  -53.2718  -27.7855 C   0  0  0  0  0  0  0  0  0  0  0  0
    1.2590  -52.8641  -28.7340 N   0  0  0  0  0  0  0  0  0  0  0  0
   -0.0532  -52.7949  -28.4233 C   0  0  0  0  0  0  0  0  0  0  0  0
   -1.1608  -52.4164  -29.1816 C   0  0  0  0  0  0  0  0  0  0  0  0
   -2.2381  -52.5462  -28.3318 C   0  0  0  0  0  0  0  0  0  0  0  0
   -1.7925  -52.9832  -27.1188 N   0  0  0  0  0  0  0  0  0  0  0  0
   -0.4635  -53.1402  -27.1559 C   0  0  0  0  0  0  0  0  0  0  0  0
   -2.3700  -53.1765  -26.2685 H   0  0  0  0  0  0  0  0  0  0  0  0
    1.1359  -51.2926  -20.0499 O   0  0  0  0  0  0  0  0  0  0  0  0
    0.7118  -49.9848  -19.7717 C   0  0  0  0  0  0  0  0  0  0  0  0
    2.2308  -46.5855  -22.9139 F   0  0  0  0  0  0  0  0  0  0  0  0
    2.4816  -47.3562  -21.8307 C   0  0  0  0  0  0  0  0  0  0  0  0
    3.7010  -47.2830  -21.1592 C   0  0  0  0  0  0  0  0  0  0  0  0
    3.9360  -48.0765  -20.0584 C   0  0  0  0  0  0  0  0  0  0  0  0
    2.9612  -48.9463  -19.6195 C   0  0  0  0  0  0  0  0  0  0  0  0
    1.7443  -49.0430  -20.2614 C   0  0  0  0  0  0  0  0  0  0  0  0
    1.5292  -48.2450  -21.3551 C   0  0  0  0  0  0  0  0  0  0  0  0
 22 23  1  0  0  0
 23 24  2  0  0  0
 24 25  1  0  0  0
 25 26  2  0  0  0
 26 27  1  0  0  0
 27 21  1  0  0  0
 21 20  1  0  0  0
 20  1  1  0  0  0
  1  2  2  0  0  0
  2  3  1  0  0  0
  3  4  2  0  0  0
  4  8  1  0  0  0
  8 10  1  0  0  0
 10 11  2  0  0  0
 11 12  1  0  0  0
 12 13  2  0  0  0
 13 14  1  0  0  0
 14 15  1  0  0  0
 15 16  2  0  0  0
 16 17  1  0  0  0
 17 18  1  0  0  0
  4  5  1  0  0  0
  5  6  2  0  0  0
  6  7  1  0  0  0
 27 28  2  0  0  0
 28 23  1  0  0  0
  6  1  1  0  0  0
 18 10  1  0  0  0
 18 14  2  0  0  0
  8  9  1  0  0  0
 17 19  1  0  0  0
M  END
> <minimizedAffinity>
-7.68714

> <CNNscore>
0.5143427253

> <CNNaffinity>
6.9588136673

> <CNN_VS>
3.5792152882

> <CNNaffinity_variance>
0.0332148299

$$$$
[H]c1nc(N([H])c2c([H])c([H])c(OC([H])([H])c3c([H])c([H])c([H])c(F)c3[H])c(Cl)c2[H])c2c(n1)c([H])c([H])n2[H]


 28 31  0  0  0  0  0  0  0  0999 V2000
   -0.0812  -52.9254  -20.5971 C   0  0  0  0  0  0  0  0  0  0  0  0
   -0.4057  -54.1932  -21.0175 C   0  0  0  0  0  0  0  0  0  0  0  0
   -0.5960  -54.4470  -22.3519 C   0  0  0  0  0  0  0  0  0  0  0  0
   -0.4786  -53.4705  -23.3505 C   0  0  0  0  0  0  0  0  0  0  0  0
   -0.1539  -52.2130  -22.9093 C   0  0  0  0  0  0  0  0  0  0  0  0
    0.0435  -51.9401  -21.5435 C   0  0  0  0  0  0  0  0  0  0  0  0
    0.4552  -50.3261  -21.0217 Cl  0  0  0  0  0  0  0  0  0  0  0  0
   -0.6737  -53.8181  -24.6859 N   0  0  0  0  0  0  0  0  0  0  0  0
   -1.5318  -54.4488  -24.8776 H   0  0  0  0  0  0  0  0  0  0  0  0
    0.0660  -53.4877  -25.8187 C   0  0  0  0  0  0  0  0  0  0  0  0
    1.4021  -53.4872  -25.9055 N   0  0  0  0  0  0  0  0  0  0  0  0
    2.0871  -53.1497  -27.0112 C   0  0  0  0  0  0  0  0  0  0  0  0
    1.4496  -52.7779  -28.1409 N   0  0  0  0  0  0  0  0  0  0  0  0
    0.0996  -52.7498  -28.1431 C   0  0  0  0  0  0  0  0  0  0  0  0
   -0.8132  -52.4138  -29.1425 C   0  0  0  0  0  0  0  0  0  0  0  0
   -2.0536  -52.5729  -28.5630 C   0  0  0  0  0  0  0  0  0  0  0  0
   -1.8879  -52.9859  -27.2735 N   0  0  0  0  0  0  0  0  0  0  0  0
   -0.5823  -53.0992  -27.0000 C   0  0  0  0  0  0  0  0  0  0  0  0
   -2.6405  -53.1920  -26.5771 H   0  0  0  0  0  0  0  0  0  0  0  0
    0.1081  -52.6835  -19.2407 O   0  0  0  0  0  0  0  0  0  0  0  0
   -0.8470  -53.0047  -18.2649 C   0  0  0  0  0  0  0  0  0  0  0  0
   -2.9846  -50.7765  -14.4963 F   0  0  0  0  0  0  0  0  0  0  0  0
   -2.0115  -50.7858  -15.4361 C   0  0  0  0  0  0  0  0  0  0  0  0
   -1.0837  -49.7493  -15.5251 C   0  0  0  0  0  0  0  0  0  0  0  0
   -0.1009  -49.7783  -16.4894 C   0  0  0  0  0  0  0  0  0  0  0  0
   -0.0350  -50.8366  -17.3696 C   0  0  0  0  0  0  0  0  0  0  0  0
   -0.9374  -51.8778  -17.3085 C   0  0  0  0  0  0  0  0  0  0  0  0
   -1.9083  -51.8310  -16.3418 C   0  0  0  0  0  0  0  0  0  0  0  0
 22 23  1  0  0  0
 23 24  2  0  0  0
 24 25  1  0  0  0
 25 26  2  0  0  0
 26 27  1  0  0  0
 27 21  1  0  0  0
 21 20  1  0  0  0
 20  1  1  0  0  0
  1  2  2  0  0  0
  2  3  1  0  0  0
  3  4  2  0  0  0
  4  8  1  0  0  0
  8 10  1  0  0  0
 10 11  2  0  0  0
 11 12  1  0  0  0
 12 13  2  0  0  0
 13 14  1  0  0  0
 14 15  1  0  0  0
 15 16  2  0  0  0
 16 17  1  0  0  0
 17 18  1  0  0  0
  4  5  1  0  0  0
  5  6  2  0  0  0
  6  7  1  0  0  0
 27 28  2  0  0  0
 28 23  1  0  0  0
  6  1  1  0  0  0
 18 10  1  0  0  0
 18 14  2  0  0  0
  8  9  1  0  0  0
 17 19  1  0  0  0
M  END
> <minimizedAffinity>
-8.60290

> <CNNscore>
0.5067270994

> <CNNaffinity>
6.7319517136

> <CNN_VS>
3.4112622738

> <CNNaffinity_variance>
0.0750117227

$$$$
[H]c1nc(N([H])c2c([H])c([H])c(OC([H])([H])c3c([H])c([H])c([H])c(F)c3[H])c(Cl)c2[H])c2c(n1)c([H])c([H])n2[H]


 28 31  0  0  0  0  0  0  0  0999 V2000
    0.5362  -51.4591  -21.5275 C   0  0  0  0  0  0  0  0  0  0  0  0
    1.0870  -51.0895  -22.7313 C   0  0  0  0  0  0  0  0  0  0  0  0
    0.9740  -51.9147  -23.8210 C   0  0  0  0  0  0  0  0  0  0  0  0
    0.3133  -53.1505  -23.7915 C   0  0  0  0  0  0  0  0  0  0  0  0
   -0.2292  -53.4996  -22.5810 C   0  0  0  0  0  0  0  0  0  0  0  0
   -0.1196  -52.6620  -21.4562 C   0  0  0  0  0  0  0  0  0  0  0  0
   -0.8233  -53.1423  -19.9327 Cl  0  0  0  0  0  0  0  0  0  0  0  0
    0.2315  -53.9204  -24.9503 N   0  0  0  0  0  0  0  0  0  0  0  0
   -0.1165  -54.9348  -24.8062 H   0  0  0  0  0  0  0  0  0  0  0  0
    0.5333  -53.5943  -26.2701 C   0  0  0  0  0  0  0  0  0  0  0  0
    1.7462  -53.6633  -26.8332 N   0  0  0  0  0  0  0  0  0  0  0  0
    2.0074  -53.3280  -28.1080 C   0  0  0  0  0  0  0  0  0  0  0  0
    1.0307  -52.8862  -28.9276 N   0  0  0  0  0  0  0  0  0  0  0  0
   -0.2253  -52.7852  -28.4423 C   0  0  0  0  0  0  0  0  0  0  0  0
   -1.4137  -52.3685  -29.0414 C   0  0  0  0  0  0  0  0  0  0  0  0
   -2.3701  -52.4788  -28.0551 C   0  0  0  0  0  0  0  0  0  0  0  0
   -1.7778  -52.9413  -26.9167 N   0  0  0  0  0  0  0  0  0  0  0  0
   -0.4709  -53.1337  -27.1338 C   0  0  0  0  0  0  0  0  0  0  0  0
   -2.2409  -53.1286  -25.9978 H   0  0  0  0  0  0  0  0  0  0  0  0
    0.6595  -50.6119  -20.4314 O   0  0  0  0  0  0  0  0  0  0  0  0
    1.8928  -50.1208  -19.9782 C   0  0  0  0  0  0  0  0  0  0  0  0
   -0.1952  -49.2435  -15.6645 F   0  0  0  0  0  0  0  0  0  0  0  0
    0.8528  -49.7339  -16.3656 C   0  0  0  0  0  0  0  0  0  0  0  0
    1.9532  -50.2962  -15.7207 C   0  0  0  0  0  0  0  0  0  0  0  0
    3.0098  -50.7898  -16.4534 C   0  0  0  0  0  0  0  0  0  0  0  0
    2.9783  -50.7272  -17.8297 C   0  0  0  0  0  0  0  0  0  0  0  0
    1.9047  -50.1772  -18.4984 C   0  0  0  0  0  0  0  0  0  0  0  0
    0.8627  -49.6913  -17.7518 C   0  0  0  0  0  0  0  0  0  0  0  0
 22 23  1  0  0  0
 23 24  2  0  0  0
 24 25  1  0  0  0
 25 26  2  0  0  0
 26 27  1  0  0  0
 27 21  1  0  0  0
 21 20  1  0  0  0
 20  1  1  0  0  0
  1  2  2  0  0  0
  2  3  1  0  0  0
  3  4  2  0  0  0
  4  8  1  0  0  0
  8 10  1  0  0  0
 10 11  2  0  0  0
 11 12  1  0  0  0
 12 13  2  0  0  0
 13 14  1  0  0  0
 14 15  1  0  0  0
 15 16  2  0  0  0
 16 17  1  0  0  0
 17 18  1  0  0  0
  4  5  1  0  0  0
  5  6  2  0  0  0
  6  7  1  0  0  0
 27 28  2  0  0  0
 28 23  1  0  0  0
  6  1  1  0  0  0
 18 10  1  0  0  0
 18 14  2  0  0  0
  8  9  1  0  0  0
 17 19  1  0  0  0
M  END
> <minimizedAffinity>
-7.57030

> <CNNscore>
0.3955309391

> <CNNaffinity>
6.6974525452

> <CNN_VS>
2.6490497589

> <CNNaffinity_variance>
0.0485304296

$$$$
[H]c1nc(N([H])c2c([H])c([H])c(OC([H])([H])c3c([H])c([H])c([H])c(F)c3[H])c(Cl)c2[H])c2c(n1)c([H])c([H])n2[H]


 28 31  0  0  0  0  0  0  0  0999 V2000
   -0.0739  -52.8752  -20.8126 C   0  0  0  0  0  0  0  0  0  0  0  0
   -0.4547  -54.1630  -21.1055 C   0  0  0  0  0  0  0  0  0  0  0  0
   -0.6123  -54.5529  -22.4111 C   0  0  0  0  0  0  0  0  0  0  0  0
   -0.4050  -53.7005  -23.5043 C   0  0  0  0  0  0  0  0  0  0  0  0
   -0.0253  -52.4206  -23.1895 C   0  0  0  0  0  0  0  0  0  0  0  0
    0.1393  -52.0087  -21.8546 C   0  0  0  0  0  0  0  0  0  0  0  0
    0.6231  -50.3707  -21.4950 Cl  0  0  0  0  0  0  0  0  0  0  0  0
   -0.5726  -54.1832  -24.8009 N   0  0  0  0  0  0  0  0  0  0  0  0
   -0.9877  -55.1800  -24.8717 H   0  0  0  0  0  0  0  0  0  0  0  0
   -0.2842  -53.5883  -26.0266 C   0  0  0  0  0  0  0  0  0  0  0  0
   -1.1800  -53.2700  -26.9695 N   0  0  0  0  0  0  0  0  0  0  0  0
   -0.8674  -52.7081  -28.1494 C   0  0  0  0  0  0  0  0  0  0  0  0
    0.4117  -52.4197  -28.4681 N   0  0  0  0  0  0  0  0  0  0  0  0
    1.3821  -52.7075  -27.5744 C   0  0  0  0  0  0  0  0  0  0  0  0
    2.7641  -52.5270  -27.6250 C   0  0  0  0  0  0  0  0  0  0  0  0
    3.2328  -53.0099  -26.4222 C   0  0  0  0  0  0  0  0  0  0  0  0
    2.1761  -53.4591  -25.6857 N   0  0  0  0  0  0  0  0  0  0  0  0
    1.0402  -53.2829  -26.3720 C   0  0  0  0  0  0  0  0  0  0  0  0
    2.2096  -53.8817  -24.7296 H   0  0  0  0  0  0  0  0  0  0  0  0
    0.0813  -52.4947  -19.4839 O   0  0  0  0  0  0  0  0  0  0  0  0
   -0.7858  -52.9095  -18.4622 C   0  0  0  0  0  0  0  0  0  0  0  0
    0.7903  -48.6909  -16.6033 F   0  0  0  0  0  0  0  0  0  0  0  0
   -0.0549  -49.7447  -16.5306 C   0  0  0  0  0  0  0  0  0  0  0  0
   -0.9938  -49.8479  -15.5054 C   0  0  0  0  0  0  0  0  0  0  0  0
   -1.8451  -50.9290  -15.4498 C   0  0  0  0  0  0  0  0  0  0  0  0
   -1.7679  -51.9126  -16.4120 C   0  0  0  0  0  0  0  0  0  0  0  0
   -0.8505  -51.8407  -17.4394 C   0  0  0  0  0  0  0  0  0  0  0  0
   -0.0118  -50.7570  -17.4777 C   0  0  0  0  0  0  0  0  0  0  0  0
 22 23  1  0  0  0
 23 24  2  0  0  0
 24 25  1  0  0  0
 25 26  2  0  0  0
 26 27  1  0  0  0
 27 21  1  0  0  0
 21 20  1  0  0  0
 20  1  1  0  0  0
  1  2  2  0  0  0
  2  3  1  0  0  0
  3  4  2  0  0  0
  4  8  1  0  0  0
  8 10  1  0  0  0
 10 11  2  0  0  0
 11 12  1  0  0  0
 12 13  2  0  0  0
 13 14  1  0  0  0
 14 15  1  0  0  0
 15 16  2  0  0  0
 16 17  1  0  0  0
 17 18  1  0  0  0
  4  5  1  0  0  0
  5  6  2  0  0  0
  6  7  1  0  0  0
 27 28  2  0  0  0
 28 23  1  0  0  0
  6  1  1  0  0  0
 18 10  1  0  0  0
 18 14  2  0  0  0
  8  9  1  0  0  0
 17 19  1  0  0  0
M  END
> <minimizedAffinity>
-8.57606

> <CNNscore>
0.3920297325

> <CNNaffinity>
6.5656065941

> <CNN_VS>
2.5739130974

> <CNNaffinity_variance>
0.0434584245

$$$$
[H]OC([H])([H])C([H])([H])N(C(=O)[C@]([H])(Oc1c([H])c([H])c([H])c2nc([H])nc(N([H])c3c([H])c([H])c(OC([H])([H])c4nc([H])c([H])c([H])c4[H])c(Cl)c3[H])c12)C([H])([H])[H])C([H])([H])[H]


 38 41  0  0  0  0  0  0  0  0999 V2000
    0.3320  -52.9862  -24.4922 C   0  0  0  0  0  0  0  0  0  0  0  0
    0.4199  -53.8711  -25.5761 C   0  0  0  0  0  0  0  0  0  0  0  0
   -0.1925  -55.0865  -25.5033 C   0  0  0  0  0  0  0  0  0  0  0  0
   -0.8996  -55.5114  -24.4232 C   0  0  0  0  0  0  0  0  0  0  0  0
   -1.0031  -54.6667  -23.3462 C   0  0  0  0  0  0  0  0  0  0  0  0
   -1.6927  -55.0833  -22.2559 N   0  0  0  0  0  0  0  0  0  0  0  0
   -1.7848  -54.2714  -21.2058 C   0  0  0  0  0  0  0  0  0  0  0  0
   -1.2401  -53.0716  -21.1642 N   0  0  0  0  0  0  0  0  0  0  0  0
   -0.5276  -52.6047  -22.2563 C   0  0  0  0  0  0  0  0  0  0  0  0
   -0.3985  -53.4049  -23.3626 C   0  0  0  0  0  0  0  0  0  0  0  0
   -0.1008  -51.2746  -22.2231 N   0  0  0  0  0  0  0  0  0  0  0  0
   -0.2940  -50.5255  -22.8526 H   0  0  0  0  0  0  0  0  0  0  0  0
    0.7067  -50.8507  -21.0939 C   0  0  0  0  0  0  0  0  0  0  0  0
    0.9381  -51.7341  -20.0551 C   0  0  0  0  0  0  0  0  0  0  0  0
    1.6496  -51.3734  -18.9513 C   0  0  0  0  0  0  0  0  0  0  0  0
    2.1851  -50.0773  -18.8159 C   0  0  0  0  0  0  0  0  0  0  0  0
    1.9390  -49.1953  -19.8810 C   0  0  0  0  0  0  0  0  0  0  0  0
    2.6003  -47.5791  -19.7258 Cl  0  0  0  0  0  0  0  0  0  0  0  0
    1.2202  -49.5843  -20.9788 C   0  0  0  0  0  0  0  0  0  0  0  0
    2.8650  -49.7295  -17.7614 O   0  0  0  0  0  0  0  0  0  0  0  0
    3.5540  -49.3902  -16.7436 C   0  0  0  0  0  0  0  0  0  0  0  0
    3.3083  -50.1995  -15.4936 C   0  0  0  0  0  0  0  0  0  0  0  0
    3.8421  -51.4421  -15.3957 C   0  0  0  0  0  0  0  0  0  0  0  0
    3.6019  -52.1763  -14.2277 C   0  0  0  0  0  0  0  0  0  0  0  0
    2.8419  -51.5979  -13.2510 C   0  0  0  0  0  0  0  0  0  0  0  0
    2.3067  -50.3327  -13.3672 C   0  0  0  0  0  0  0  0  0  0  0  0
    2.5779  -49.6702  -14.5301 N   0  0  0  0  0  0  0  0  0  0  0  0
    0.9217  -51.7820  -24.5274 O   0  0  0  0  0  0  0  0  0  0  0  0
    2.0284  -50.6781  -26.4380 C   0  0  0  0  0  0  0  0  0  0  0  0
    2.0472  -51.2205  -24.9955 C   0  0  0  0  0  0  0  0  0  0  0  0
    3.3753  -51.7516  -24.7994 C   0  0  0  0  0  0  0  0  0  0  0  0
    3.6788  -52.6606  -25.7135 O   0  0  0  0  0  0  0  0  0  0  0  0
    4.4041  -51.5473  -23.8929 N   0  0  0  0  0  0  0  0  0  0  0  0
    5.6387  -52.3608  -24.0292 C   0  0  0  0  0  0  0  0  0  0  0  0
    4.3556  -50.5711  -22.8377 C   0  0  0  0  0  0  0  0  0  0  0  0
    4.5871  -51.3274  -21.5323 C   0  0  0  0  0  0  0  0  0  0  0  0
    5.1518  -50.4985  -20.5854 O   0  0  0  0  0  0  0  0  0  0  0  0
    5.0260  -50.9181  -19.7022 H   0  0  0  0  0  0  0  0  0  0  0  0
 29 30  1  0  0  0
 30 28  1  0  0  0
 28  1  1  0  0  0
  1  2  2  0  0  0
  2  3  1  0  0  0
  3  4  2  0  0  0
  4  5  1  0  0  0
  5  6  2  0  0  0
  6  7  1  0  0  0
  7  8  2  0  0  0
  8  9  1  0  0  0
  9 11  1  0  0  0
 11 13  1  0  0  0
 13 14  2  0  0  0
 14 15  1  0  0  0
 15 16  2  0  0  0
 16 20  1  0  0  0
 20 21  1  0  0  0
 21 22  1  0  0  0
 22 23  2  0  0  0
 23 24  1  0  0  0
 24 25  2  0  0  0
 25 26  1  0  0  0
 26 27  2  0  0  0
 16 17  1  0  0  0
 17 18  1  0  0  0
 17 19  2  0  0  0
  9 10  2  0  0  0
 30 31  1  0  0  0
 31 32  2  0  0  0
 31 33  1  0  0  0
 33 34  1  0  0  0
 33 35  1  0  0  0
 35 36  1  0  0  0
 36 37  1  0  0  0
 10  1  1  0  0  0
 10  5  1  0  0  0
 19 13  1  0  0  0
 27 22  1  0  0  0
 11 12  1  0  0  0
 37 38  1  0  0  0
M  END
> <minimizedAffinity>
-6.91454

> <CNNscore>
0.6799585819

> <CNNaffinity>
7.2671976089

> <CNN_VS>
4.9413933754

> <CNNaffinity_variance>
0.0702028647

$$$$
[H]OC([H])([H])C([H])([H])N(C(=O)[C@]([H])(Oc1c([H])c([H])c([H])c2nc([H])nc(N([H])c3c([H])c([H])c(OC([H])([H])c4nc([H])c([H])c([H])c4[H])c(Cl)c3[H])c12)C([H])([H])[H])C([H])([H])[H]


 38 41  0  0  0  0  0  0  0  0999 V2000
    1.2445  -51.7010  -23.5695 C   0  0  0  0  0  0  0  0  0  0  0  0
    1.0593  -51.1367  -24.8395 C   0  0  0  0  0  0  0  0  0  0  0  0
    0.1058  -51.6463  -25.6693 C   0  0  0  0  0  0  0  0  0  0  0  0
   -0.6977  -52.6926  -25.3423 C   0  0  0  0  0  0  0  0  0  0  0  0
   -0.5395  -53.2663  -24.1054 C   0  0  0  0  0  0  0  0  0  0  0  0
   -1.3238  -54.3204  -23.7714 N   0  0  0  0  0  0  0  0  0  0  0  0
   -1.1648  -54.8861  -22.5777 C   0  0  0  0  0  0  0  0  0  0  0  0
   -0.2805  -54.4754  -21.6903 N   0  0  0  0  0  0  0  0  0  0  0  0
    0.5409  -53.4010  -21.9887 C   0  0  0  0  0  0  0  0  0  0  0  0
    0.4207  -52.7854  -23.2083 C   0  0  0  0  0  0  0  0  0  0  0  0
    1.3525  -52.9094  -20.9630 N   0  0  0  0  0  0  0  0  0  0  0  0
    2.3462  -52.8400  -20.9118 H   0  0  0  0  0  0  0  0  0  0  0  0
    0.7006  -52.3540  -19.7910 C   0  0  0  0  0  0  0  0  0  0  0  0
    1.2122  -51.2086  -19.2084 C   0  0  0  0  0  0  0  0  0  0  0  0
    0.6674  -50.6720  -18.0815 C   0  0  0  0  0  0  0  0  0  0  0  0
   -0.4478  -51.2617  -17.4541 C   0  0  0  0  0  0  0  0  0  0  0  0
   -0.9521  -52.4238  -18.0608 C   0  0  0  0  0  0  0  0  0  0  0  0
   -2.3402  -53.1678  -17.2907 Cl  0  0  0  0  0  0  0  0  0  0  0  0
   -0.3847  -52.9420  -19.1933 C   0  0  0  0  0  0  0  0  0  0  0  0
   -0.9700  -50.7512  -16.3763 O   0  0  0  0  0  0  0  0  0  0  0  0
   -1.4945  -50.2753  -15.3160 C   0  0  0  0  0  0  0  0  0  0  0  0
   -1.2976  -48.7942  -15.1022 C   0  0  0  0  0  0  0  0  0  0  0  0
   -2.3761  -47.9731  -15.1341 C   0  0  0  0  0  0  0  0  0  0  0  0
   -2.1715  -46.6024  -14.9336 C   0  0  0  0  0  0  0  0  0  0  0  0
   -0.8942  -46.1692  -14.7169 C   0  0  0  0  0  0  0  0  0  0  0  0
    0.1914  -47.0184  -14.6877 C   0  0  0  0  0  0  0  0  0  0  0  0
   -0.0758  -48.3422  -14.8901 N   0  0  0  0  0  0  0  0  0  0  0  0
    2.1731  -51.2266  -22.7259 O   0  0  0  0  0  0  0  0  0  0  0  0
    1.6418  -48.9550  -21.9187 C   0  0  0  0  0  0  0  0  0  0  0  0
    2.6575  -50.0439  -22.3163 C   0  0  0  0  0  0  0  0  0  0  0  0
    3.7521  -49.3413  -22.9427 C   0  0  0  0  0  0  0  0  0  0  0  0
    3.8799  -48.1115  -22.4681 O   0  0  0  0  0  0  0  0  0  0  0  0
    4.6953  -49.6349  -23.9155 N   0  0  0  0  0  0  0  0  0  0  0  0
    5.6558  -48.5743  -24.3120 C   0  0  0  0  0  0  0  0  0  0  0  0
    4.8149  -50.9207  -24.5487 C   0  0  0  0  0  0  0  0  0  0  0  0
    6.0356  -51.5990  -23.9326 C   0  0  0  0  0  0  0  0  0  0  0  0
    6.0015  -51.5016  -22.5571 O   0  0  0  0  0  0  0  0  0  0  0  0
    6.6249  -52.1719  -22.1908 H   0  0  0  0  0  0  0  0  0  0  0  0
 29 30  1  0  0  0
 30 28  1  0  0  0
 28  1  1  0  0  0
  1  2  2  0  0  0
  2  3  1  0  0  0
  3  4  2  0  0  0
  4  5  1  0  0  0
  5  6  2  0  0  0
  6  7  1  0  0  0
  7  8  2  0  0  0
  8  9  1  0  0  0
  9 11  1  0  0  0
 11 13  1  0  0  0
 13 14  2  0  0  0
 14 15  1  0  0  0
 15 16  2  0  0  0
 16 20  1  0  0  0
 20 21  1  0  0  0
 21 22  1  0  0  0
 22 23  2  0  0  0
 23 24  1  0  0  0
 24 25  2  0  0  0
 25 26  1  0  0  0
 26 27  2  0  0  0
 16 17  1  0  0  0
 17 18  1  0  0  0
 17 19  2  0  0  0
  9 10  2  0  0  0
 30 31  1  0  0  0
 31 32  2  0  0  0
 31 33  1  0  0  0
 33 34  1  0  0  0
 33 35  1  0  0  0
 35 36  1  0  0  0
 36 37  1  0  0  0
 10  1  1  0  0  0
 10  5  1  0  0  0
 19 13  1  0  0  0
 27 22  1  0  0  0
 11 12  1  0  0  0
 37 38  1  0  0  0
M  END
> <minimizedAffinity>
-7.18548

> <CNNscore>
0.5333709121

> <CNNaffinity>
7.0812401772

> <CNN_VS>
3.7769274712

> <CNNaffinity_variance>
0.1028248221

$$$$
[H]OC([H])([H])C([H])([H])N(C(=O)[C@]([H])(Oc1c([H])c([H])c([H])c2nc([H])nc(N([H])c3c([H])c([H])c(OC([H])([H])c4nc([H])c([H])c([H])c4[H])c(Cl)c3[H])c12)C([H])([H])[H])C([H])([H])[H]


 38 41  0  0  0  0  0  0  0  0999 V2000
    0.9058  -52.2541  -26.1751 C   0  0  0  0  0  0  0  0  0  0  0  0
    1.2417  -52.4563  -27.5212 C   0  0  0  0  0  0  0  0  0  0  0  0
    0.9676  -53.6544  -28.1100 C   0  0  0  0  0  0  0  0  0  0  0  0
    0.3769  -54.6946  -27.4646 C   0  0  0  0  0  0  0  0  0  0  0  0
    0.0365  -54.5265  -26.1455 C   0  0  0  0  0  0  0  0  0  0  0  0
   -0.5396  -55.5606  -25.4848 N   0  0  0  0  0  0  0  0  0  0  0  0
   -0.8599  -55.4047  -24.2029 C   0  0  0  0  0  0  0  0  0  0  0  0
   -0.6490  -54.2902  -23.5309 N   0  0  0  0  0  0  0  0  0  0  0  0
   -0.0639  -53.2076  -24.1665 C   0  0  0  0  0  0  0  0  0  0  0  0
    0.2901  -53.3182  -25.4868 C   0  0  0  0  0  0  0  0  0  0  0  0
   -0.0007  -52.0048  -23.4581 N   0  0  0  0  0  0  0  0  0  0  0  0
    0.0744  -51.0686  -23.7937 H   0  0  0  0  0  0  0  0  0  0  0  0
   -0.1091  -52.0644  -22.0119 C   0  0  0  0  0  0  0  0  0  0  0  0
   -0.8964  -53.0414  -21.4298 C   0  0  0  0  0  0  0  0  0  0  0  0
   -1.0696  -53.1141  -20.0810 C   0  0  0  0  0  0  0  0  0  0  0  0
   -0.4520  -52.1929  -19.2120 C   0  0  0  0  0  0  0  0  0  0  0  0
    0.3429  -51.2089  -19.8225 C   0  0  0  0  0  0  0  0  0  0  0  0
    1.1180  -50.0563  -18.7527 Cl  0  0  0  0  0  0  0  0  0  0  0  0
    0.4995  -51.1587  -21.1812 C   0  0  0  0  0  0  0  0  0  0  0  0
   -0.6166  -52.2597  -17.9223 O   0  0  0  0  0  0  0  0  0  0  0  0
   -0.8003  -52.3407  -16.6631 C   0  0  0  0  0  0  0  0  0  0  0  0
   -2.1181  -51.8012  -16.1629 C   0  0  0  0  0  0  0  0  0  0  0  0
   -3.2593  -52.4750  -16.4497 C   0  0  0  0  0  0  0  0  0  0  0  0
   -4.4712  -51.9574  -15.9763 C   0  0  0  0  0  0  0  0  0  0  0  0
   -4.4352  -50.8004  -15.2509 C   0  0  0  0  0  0  0  0  0  0  0  0
   -3.2653  -50.1279  -14.9685 C   0  0  0  0  0  0  0  0  0  0  0  0
   -2.1189  -50.6849  -15.4587 N   0  0  0  0  0  0  0  0  0  0  0  0
    1.1604  -51.0888  -25.5618 O   0  0  0  0  0  0  0  0  0  0  0  0
    3.2025  -50.0865  -26.5205 C   0  0  0  0  0  0  0  0  0  0  0  0
    2.1915  -50.2516  -25.3690 C   0  0  0  0  0  0  0  0  0  0  0  0
    2.9703  -50.1706  -24.1561 C   0  0  0  0  0  0  0  0  0  0  0  0
    2.9164  -48.9609  -23.6196 O   0  0  0  0  0  0  0  0  0  0  0  0
    3.7587  -51.0421  -23.4205 N   0  0  0  0  0  0  0  0  0  0  0  0
    4.4416  -50.5253  -22.2076 C   0  0  0  0  0  0  0  0  0  0  0  0
    3.9350  -52.4307  -23.7508 C   0  0  0  0  0  0  0  0  0  0  0  0
    5.4385  -52.6935  -23.7445 C   0  0  0  0  0  0  0  0  0  0  0  0
    6.0097  -52.2696  -24.9263 O   0  0  0  0  0  0  0  0  0  0  0  0
    6.9816  -52.1898  -24.7810 H   0  0  0  0  0  0  0  0  0  0  0  0
 29 30  1  0  0  0
 30 28  1  0  0  0
 28  1  1  0  0  0
  1  2  2  0  0  0
  2  3  1  0  0  0
  3  4  2  0  0  0
  4  5  1  0  0  0
  5  6  2  0  0  0
  6  7  1  0  0  0
  7  8  2  0  0  0
  8  9  1  0  0  0
  9 11  1  0  0  0
 11 13  1  0  0  0
 13 14  2  0  0  0
 14 15  1  0  0  0
 15 16  2  0  0  0
 16 20  1  0  0  0
 20 21  1  0  0  0
 21 22  1  0  0  0
 22 23  2  0  0  0
 23 24  1  0  0  0
 24 25  2  0  0  0
 25 26  1  0  0  0
 26 27  2  0  0  0
 16 17  1  0  0  0
 17 18  1  0  0  0
 17 19  2  0  0  0
  9 10  2  0  0  0
 30 31  1  0  0  0
 31 32  2  0  0  0
 31 33  1  0  0  0
 33 34  1  0  0  0
 33 35  1  0  0  0
 35 36  1  0  0  0
 36 37  1  0  0  0
 10  1  1  0  0  0
 10  5  1  0  0  0
 19 13  1  0  0  0
 27 22  1  0  0  0
 11 12  1  0  0  0
 37 38  1  0  0  0
M  END
> <minimizedAffinity>
-8.50919

> <CNNscore>
0.5285711884

> <CNNaffinity>
7.2047300339

> <CNN_VS>
3.8082127571

> <CNNaffinity_variance>
0.1958363205

$$$$
[H]OC([H])([H])C([H])([H])N(C(=O)[C@]([H])(Oc1c([H])c([H])c([H])c2nc([H])nc(N([H])c3c([H])c([H])c(OC([H])([H])c4nc([H])c([H])c([H])c4[H])c(Cl)c3[H])c12)C([H])([H])[H])C([H])([H])[H]


 38 41  0  0  0  0  0  0  0  0999 V2000
    0.7782  -51.4201  -24.3318 C   0  0  0  0  0  0  0  0  0  0  0  0
    0.3728  -51.0685  -25.6271 C   0  0  0  0  0  0  0  0  0  0  0  0
   -0.5283  -51.8509  -26.2854 C   0  0  0  0  0  0  0  0  0  0  0  0
   -1.0740  -52.9790  -25.7593 C   0  0  0  0  0  0  0  0  0  0  0  0
   -0.6962  -53.3490  -24.4926 C   0  0  0  0  0  0  0  0  0  0  0  0
   -1.2209  -54.4803  -23.9609 N   0  0  0  0  0  0  0  0  0  0  0  0
   -0.8477  -54.8479  -22.7378 C   0  0  0  0  0  0  0  0  0  0  0  0
    0.0108  -54.1675  -22.0042 N   0  0  0  0  0  0  0  0  0  0  0  0
    0.5709  -53.0049  -22.5071 C   0  0  0  0  0  0  0  0  0  0  0  0
    0.2232  -52.5848  -23.7655 C   0  0  0  0  0  0  0  0  0  0  0  0
    1.3545  -52.2417  -21.6376 N   0  0  0  0  0  0  0  0  0  0  0  0
    2.2368  -51.8027  -21.7909 H   0  0  0  0  0  0  0  0  0  0  0  0
    0.8276  -51.9710  -20.3125 C   0  0  0  0  0  0  0  0  0  0  0  0
    1.4079  -50.9811  -19.5403 C   0  0  0  0  0  0  0  0  0  0  0  0
    0.9830  -50.7174  -18.2736 C   0  0  0  0  0  0  0  0  0  0  0  0
   -0.0724  -51.4444  -17.6884 C   0  0  0  0  0  0  0  0  0  0  0  0
   -0.6482  -52.4451  -18.4884 C   0  0  0  0  0  0  0  0  0  0  0  0
   -1.9631  -53.3574  -17.7727 Cl  0  0  0  0  0  0  0  0  0  0  0  0
   -0.2010  -52.6894  -19.7587 C   0  0  0  0  0  0  0  0  0  0  0  0
   -0.4801  -51.1949  -16.4774 O   0  0  0  0  0  0  0  0  0  0  0  0
   -0.9020  -50.9658  -15.2961 C   0  0  0  0  0  0  0  0  0  0  0  0
   -2.3092  -50.4283  -15.2019 C   0  0  0  0  0  0  0  0  0  0  0  0
   -3.3525  -51.2900  -15.2875 C   0  0  0  0  0  0  0  0  0  0  0  0
   -4.6500  -50.7707  -15.1979 C   0  0  0  0  0  0  0  0  0  0  0  0
   -4.7913  -49.4226  -15.0288 C   0  0  0  0  0  0  0  0  0  0  0  0
   -3.7189  -48.5604  -14.9437 C   0  0  0  0  0  0  0  0  0  0  0  0
   -2.4813  -49.1299  -15.0384 N   0  0  0  0  0  0  0  0  0  0  0  0
    1.6632  -50.6750  -23.6533 O   0  0  0  0  0  0  0  0  0  0  0  0
    3.0569  -49.0512  -24.8840 C   0  0  0  0  0  0  0  0  0  0  0  0
    2.8894  -50.1565  -23.8230 C   0  0  0  0  0  0  0  0  0  0  0  0
    4.1094  -50.9268  -23.8712 C   0  0  0  0  0  0  0  0  0  0  0  0
    5.1023  -50.3107  -23.2478 O   0  0  0  0  0  0  0  0  0  0  0  0
    4.4958  -52.1448  -24.4092 N   0  0  0  0  0  0  0  0  0  0  0  0
    5.9120  -52.5656  -24.2615 C   0  0  0  0  0  0  0  0  0  0  0  0
    3.5953  -53.0408  -25.0837 C   0  0  0  0  0  0  0  0  0  0  0  0
    3.5094  -52.5654  -26.5315 C   0  0  0  0  0  0  0  0  0  0  0  0
    3.0608  -53.5814  -27.3495 O   0  0  0  0  0  0  0  0  0  0  0  0
    2.7519  -53.1763  -28.1936 H   0  0  0  0  0  0  0  0  0  0  0  0
 29 30  1  0  0  0
 30 28  1  0  0  0
 28  1  1  0  0  0
  1  2  2  0  0  0
  2  3  1  0  0  0
  3  4  2  0  0  0
  4  5  1  0  0  0
  5  6  2  0  0  0
  6  7  1  0  0  0
  7  8  2  0  0  0
  8  9  1  0  0  0
  9 11  1  0  0  0
 11 13  1  0  0  0
 13 14  2  0  0  0
 14 15  1  0  0  0
 15 16  2  0  0  0
 16 20  1  0  0  0
 20 21  1  0  0  0
 21 22  1  0  0  0
 22 23  2  0  0  0
 23 24  1  0  0  0
 24 25  2  0  0  0
 25 26  1  0  0  0
 26 27  2  0  0  0
 16 17  1  0  0  0
 17 18  1  0  0  0
 17 19  2  0  0  0
  9 10  2  0  0  0
 30 31  1  0  0  0
 31 32  2  0  0  0
 31 33  1  0  0  0
 33 34  1  0  0  0
 33 35  1  0  0  0
 35 36  1  0  0  0
 36 37  1  0  0  0
 10  1  1  0  0  0
 10  5  1  0  0  0
 19 13  1  0  0  0
 27 22  1  0  0  0
 11 12  1  0  0  0
 37 38  1  0  0  0
M  END
> <minimizedAffinity>
-7.83461

> <CNNscore>
0.4787481427

> <CNNaffinity>
7.2440657616

> <CNN_VS>
3.4680831432

> <CNNaffinity_variance>
0.1439054906

$$$$
[H]OC([H])([H])C([H])([H])N(C(=O)[C@]([H])(Oc1c([H])c([H])c([H])c2nc([H])nc(N([H])c3c([H])c([H])c(OC([H])([H])c4nc([H])c([H])c([H])c4[H])c(Cl)c3[H])c12)C([H])([H])[H])C([H])([H])[H]


 38 41  0  0  0  0  0  0  0  0999 V2000
    1.3667  -52.3841  -24.7816 C   0  0  0  0  0  0  0  0  0  0  0  0
    1.5959  -52.6884  -26.1308 C   0  0  0  0  0  0  0  0  0  0  0  0
    0.9158  -53.7157  -26.7135 C   0  0  0  0  0  0  0  0  0  0  0  0
    0.0080  -54.4868  -26.0587 C   0  0  0  0  0  0  0  0  0  0  0  0
   -0.2375  -54.2129  -24.7363 C   0  0  0  0  0  0  0  0  0  0  0  0
   -1.1294  -54.9834  -24.0664 N   0  0  0  0  0  0  0  0  0  0  0  0
   -1.3608  -54.7280  -22.7813 C   0  0  0  0  0  0  0  0  0  0  0  0
   -0.7680  -53.7572  -22.1147 N   0  0  0  0  0  0  0  0  0  0  0  0
    0.1494  -52.9445  -22.7596 C   0  0  0  0  0  0  0  0  0  0  0  0
    0.4276  -53.1691  -24.0836 C   0  0  0  0  0  0  0  0  0  0  0  0
    0.6348  -51.8396  -22.0551 N   0  0  0  0  0  0  0  0  0  0  0  0
    1.1091  -51.0277  -22.3875 H   0  0  0  0  0  0  0  0  0  0  0  0
    0.3928  -51.7892  -20.6248 C   0  0  0  0  0  0  0  0  0  0  0  0
   -0.2113  -52.8653  -20.0001 C   0  0  0  0  0  0  0  0  0  0  0  0
   -0.5030  -52.8517  -18.6700 C   0  0  0  0  0  0  0  0  0  0  0  0
   -0.2016  -51.7354  -17.8649 C   0  0  0  0  0  0  0  0  0  0  0  0
    0.4112  -50.6533  -18.5178 C   0  0  0  0  0  0  0  0  0  0  0  0
    0.7924  -49.2577  -17.5277 Cl  0  0  0  0  0  0  0  0  0  0  0  0
    0.6929  -50.6935  -19.8566 C   0  0  0  0  0  0  0  0  0  0  0  0
   -0.4801  -51.7195  -16.5932 O   0  0  0  0  0  0  0  0  0  0  0  0
   -0.7354  -51.7250  -15.3439 C   0  0  0  0  0  0  0  0  0  0  0  0
   -1.3407  -50.4543  -14.7990 C   0  0  0  0  0  0  0  0  0  0  0  0
   -2.4180  -49.9159  -15.4219 C   0  0  0  0  0  0  0  0  0  0  0  0
   -2.9641  -48.7366  -14.9003 C   0  0  0  0  0  0  0  0  0  0  0  0
   -2.3794  -48.1943  -13.7912 C   0  0  0  0  0  0  0  0  0  0  0  0
   -1.2839  -48.7554  -13.1702 C   0  0  0  0  0  0  0  0  0  0  0  0
   -0.7999  -49.9040  -13.7282 N   0  0  0  0  0  0  0  0  0  0  0  0
    2.0175  -51.3808  -24.1742 O   0  0  0  0  0  0  0  0  0  0  0  0
    2.4398  -49.5367  -25.7599 C   0  0  0  0  0  0  0  0  0  0  0  0
    2.8046  -50.3432  -24.4982 C   0  0  0  0  0  0  0  0  0  0  0  0
    4.2475  -50.3591  -24.4531 C   0  0  0  0  0  0  0  0  0  0  0  0
    4.7728  -49.4640  -25.2759 O   0  0  0  0  0  0  0  0  0  0  0  0
    5.2130  -51.0789  -23.7664 N   0  0  0  0  0  0  0  0  0  0  0  0
    6.6423  -50.7984  -24.0545 C   0  0  0  0  0  0  0  0  0  0  0  0
    4.9104  -52.0690  -22.7680 C   0  0  0  0  0  0  0  0  0  0  0  0
    4.8368  -51.3339  -21.4324 C   0  0  0  0  0  0  0  0  0  0  0  0
    3.7489  -51.7641  -20.7016 O   0  0  0  0  0  0  0  0  0  0  0  0
    3.8880  -51.4934  -19.7639 H   0  0  0  0  0  0  0  0  0  0  0  0
 29 30  1  0  0  0
 30 28  1  0  0  0
 28  1  1  0  0  0
  1  2  2  0  0  0
  2  3  1  0  0  0
  3  4  2  0  0  0
  4  5  1  0  0  0
  5  6  2  0  0  0
  6  7  1  0  0  0
  7  8  2  0  0  0
  8  9  1  0  0  0
  9 11  1  0  0  0
 11 13  1  0  0  0
 13 14  2  0  0  0
 14 15  1  0  0  0
 15 16  2  0  0  0
 16 20  1  0  0  0
 20 21  1  0  0  0
 21 22  1  0  0  0
 22 23  2  0  0  0
 23 24  1  0  0  0
 24 25  2  0  0  0
 25 26  1  0  0  0
 26 27  2  0  0  0
 16 17  1  0  0  0
 17 18  1  0  0  0
 17 19  2  0  0  0
  9 10  2  0  0  0
 30 31  1  0  0  0
 31 32  2  0  0  0
 31 33  1  0  0  0
 33 34  1  0  0  0
 33 35  1  0  0  0
 35 36  1  0  0  0
 36 37  1  0  0  0
 10  1  1  0  0  0
 10  5  1  0  0  0
 19 13  1  0  0  0
 27 22  1  0  0  0
 11 12  1  0  0  0
 37 38  1  0  0  0
M  END
> <minimizedAffinity>
-7.19240

> <CNNscore>
0.4693468511

> <CNNaffinity>
7.1225099564

> <CNN_VS>
3.3429276943

> <CNNaffinity_variance>
0.0621613264

$$$$
[H]OC([H])([H])C([H])([H])N(C(=O)[C@]([H])(Oc1c([H])c([H])c([H])c2nc([H])nc(N([H])c3c([H])c([H])c(OC([H])([H])c4nc([H])c([H])c([H])c4[H])c(Cl)c3[H])c12)C([H])([H])[H])C([H])([H])[H]


 38 41  0  0  0  0  0  0  0  0999 V2000
    1.0696  -51.5068  -24.4154 C   0  0  0  0  0  0  0  0  0  0  0  0
    0.7095  -51.1317  -25.7175 C   0  0  0  0  0  0  0  0  0  0  0  0
   -0.2826  -51.8082  -26.3620 C   0  0  0  0  0  0  0  0  0  0  0  0
   -0.9636  -52.8498  -25.8156 C   0  0  0  0  0  0  0  0  0  0  0  0
   -0.6331  -53.2402  -24.5418 C   0  0  0  0  0  0  0  0  0  0  0  0
   -1.2936  -54.2875  -23.9897 N   0  0  0  0  0  0  0  0  0  0  0  0
   -0.9673  -54.6758  -22.7596 C   0  0  0  0  0  0  0  0  0  0  0  0
   -0.0301  -54.0938  -22.0379 N   0  0  0  0  0  0  0  0  0  0  0  0
    0.6694  -53.0193  -22.5618 C   0  0  0  0  0  0  0  0  0  0  0  0
    0.3750  -52.5827  -23.8281 C   0  0  0  0  0  0  0  0  0  0  0  0
    1.5428  -52.3433  -21.7058 N   0  0  0  0  0  0  0  0  0  0  0  0
    2.4923  -52.0719  -21.8455 H   0  0  0  0  0  0  0  0  0  0  0  0
    1.0257  -51.8981  -20.4246 C   0  0  0  0  0  0  0  0  0  0  0  0
    1.4852  -50.7116  -19.8823 C   0  0  0  0  0  0  0  0  0  0  0  0
    1.0681  -50.2708  -18.6631 C   0  0  0  0  0  0  0  0  0  0  0  0
    0.1448  -51.0067  -17.8943 C   0  0  0  0  0  0  0  0  0  0  0  0
   -0.3095  -52.2083  -18.4623 C   0  0  0  0  0  0  0  0  0  0  0  0
   -1.4593  -53.1339  -17.5164 Cl  0  0  0  0  0  0  0  0  0  0  0  0
    0.1267  -52.6279  -19.6898 C   0  0  0  0  0  0  0  0  0  0  0  0
   -0.2550  -50.5880  -16.7282 O   0  0  0  0  0  0  0  0  0  0  0  0
   -0.6296  -50.1961  -15.5740 C   0  0  0  0  0  0  0  0  0  0  0  0
   -2.1188  -50.0262  -15.3974 C   0  0  0  0  0  0  0  0  0  0  0  0
   -2.6165  -48.7921  -15.1369 C   0  0  0  0  0  0  0  0  0  0  0  0
   -4.0009  -48.6562  -14.9763 C   0  0  0  0  0  0  0  0  0  0  0  0
   -4.7733  -49.7771  -15.0914 C   0  0  0  0  0  0  0  0  0  0  0  0
   -4.2504  -51.0247  -15.3567 C   0  0  0  0  0  0  0  0  0  0  0  0
   -2.8941  -51.0891  -15.5023 N   0  0  0  0  0  0  0  0  0  0  0  0
    2.0412  -50.8648  -23.7499 O   0  0  0  0  0  0  0  0  0  0  0  0
    4.3449  -50.5289  -22.9290 C   0  0  0  0  0  0  0  0  0  0  0  0
    3.2466  -50.3262  -23.9911 C   0  0  0  0  0  0  0  0  0  0  0  0
    3.4649  -49.0030  -24.5255 C   0  0  0  0  0  0  0  0  0  0  0  0
    3.5790  -48.0994  -23.5639 O   0  0  0  0  0  0  0  0  0  0  0  0
    3.5809  -48.4482  -25.7907 N   0  0  0  0  0  0  0  0  0  0  0  0
    3.7684  -46.9797  -25.9044 C   0  0  0  0  0  0  0  0  0  0  0  0
    3.5551  -49.2185  -27.0051 C   0  0  0  0  0  0  0  0  0  0  0  0
    4.4096  -48.4631  -28.0194 C   0  0  0  0  0  0  0  0  0  0  0  0
    4.8248  -49.3076  -29.0279 O   0  0  0  0  0  0  0  0  0  0  0  0
    5.1185  -48.7511  -29.7869 H   0  0  0  0  0  0  0  0  0  0  0  0
 29 30  1  0  0  0
 30 28  1  0  0  0
 28  1  1  0  0  0
  1  2  2  0  0  0
  2  3  1  0  0  0
  3  4  2  0  0  0
  4  5  1  0  0  0
  5  6  2  0  0  0
  6  7  1  0  0  0
  7  8  2  0  0  0
  8  9  1  0  0  0
  9 11  1  0  0  0
 11 13  1  0  0  0
 13 14  2  0  0  0
 14 15  1  0  0  0
 15 16  2  0  0  0
 16 20  1  0  0  0
 20 21  1  0  0  0
 21 22  1  0  0  0
 22 23  2  0  0  0
 23 24  1  0  0  0
 24 25  2  0  0  0
 25 26  1  0  0  0
 26 27  2  0  0  0
 16 17  1  0  0  0
 17 18  1  0  0  0
 17 19  2  0  0  0
  9 10  2  0  0  0
 30 31  1  0  0  0
 31 32  2  0  0  0
 31 33  1  0  0  0
 33 34  1  0  0  0
 33 35  1  0  0  0
 35 36  1  0  0  0
 36 37  1  0  0  0
 10  1  1  0  0  0
 10  5  1  0  0  0
 19 13  1  0  0  0
 27 22  1  0  0  0
 11 12  1  0  0  0
 37 38  1  0  0  0
M  END
> <minimizedAffinity>
-7.67762

> <CNNscore>
0.4473272562

> <CNNaffinity>
7.0943326950

> <CNN_VS>
3.1734883785

> <CNNaffinity_variance>
0.2516236603

$$$$
[H]OC([H])([H])C([H])([H])N(C(=O)[C@]([H])(Oc1c([H])c([H])c([H])c2nc([H])nc(N([H])c3c([H])c([H])c(OC([H])([H])c4nc([H])c([H])c([H])c4[H])c(Cl)c3[H])c12)C([H])([H])[H])C([H])([H])[H]


 38 41  0  0  0  0  0  0  0  0999 V2000
    1.2355  -51.7008  -24.3407 C   0  0  0  0  0  0  0  0  0  0  0  0
    0.9188  -51.2956  -25.6450 C   0  0  0  0  0  0  0  0  0  0  0  0
   -0.1330  -51.8727  -26.2916 C   0  0  0  0  0  0  0  0  0  0  0  0
   -0.9154  -52.8405  -25.7453 C   0  0  0  0  0  0  0  0  0  0  0  0
   -0.6295  -53.2581  -24.4693 C   0  0  0  0  0  0  0  0  0  0  0  0
   -1.3921  -54.2334  -23.9172 N   0  0  0  0  0  0  0  0  0  0  0  0
   -1.1102  -54.6486  -22.6849 C   0  0  0  0  0  0  0  0  0  0  0  0
   -0.1226  -54.1600  -21.9610 N   0  0  0  0  0  0  0  0  0  0  0  0
    0.6814  -53.1612  -22.4849 C   0  0  0  0  0  0  0  0  0  0  0  0
    0.4360  -52.7013  -23.7534 C   0  0  0  0  0  0  0  0  0  0  0  0
    1.6142  -52.5723  -21.6272 N   0  0  0  0  0  0  0  0  0  0  0  0
    2.6059  -52.5057  -21.7102 H   0  0  0  0  0  0  0  0  0  0  0  0
    1.1136  -51.8936  -20.4459 C   0  0  0  0  0  0  0  0  0  0  0  0
    1.4517  -50.5701  -20.2289 C   0  0  0  0  0  0  0  0  0  0  0  0
    1.0475  -49.8996  -19.1146 C   0  0  0  0  0  0  0  0  0  0  0  0
    0.2627  -50.5263  -18.1265 C   0  0  0  0  0  0  0  0  0  0  0  0
   -0.0697  -51.8699  -18.3652 C   0  0  0  0  0  0  0  0  0  0  0  0
   -1.0465  -52.6620  -17.1438 Cl  0  0  0  0  0  0  0  0  0  0  0  0
    0.3504  -52.5199  -19.4940 C   0  0  0  0  0  0  0  0  0  0  0  0
   -0.1244  -49.8879  -17.0599 O   0  0  0  0  0  0  0  0  0  0  0  0
   -0.5072  -49.2869  -16.0025 C   0  0  0  0  0  0  0  0  0  0  0  0
    0.5681  -49.0329  -14.9743 C   0  0  0  0  0  0  0  0  0  0  0  0
    0.5542  -47.8698  -14.2776 C   0  0  0  0  0  0  0  0  0  0  0  0
    1.5610  -47.6538  -13.3285 C   0  0  0  0  0  0  0  0  0  0  0  0
    2.5020  -48.6292  -13.1579 C   0  0  0  0  0  0  0  0  0  0  0  0
    2.5011  -49.8065  -13.8753 C   0  0  0  0  0  0  0  0  0  0  0  0
    1.4930  -49.9551  -14.7845 N   0  0  0  0  0  0  0  0  0  0  0  0
    2.2634  -51.1560  -23.6730 O   0  0  0  0  0  0  0  0  0  0  0  0
    4.3609  -52.1841  -24.4714 C   0  0  0  0  0  0  0  0  0  0  0  0
    3.5946  -51.0327  -23.7914 C   0  0  0  0  0  0  0  0  0  0  0  0
    4.4714  -50.5443  -22.7537 C   0  0  0  0  0  0  0  0  0  0  0  0
    4.4609  -51.3353  -21.6915 O   0  0  0  0  0  0  0  0  0  0  0  0
    5.3148  -49.4554  -22.5955 N   0  0  0  0  0  0  0  0  0  0  0  0
    6.0328  -49.2987  -21.3053 C   0  0  0  0  0  0  0  0  0  0  0  0
    5.5557  -48.4769  -23.6218 C   0  0  0  0  0  0  0  0  0  0  0  0
    6.6134  -49.0687  -24.5495 C   0  0  0  0  0  0  0  0  0  0  0  0
    6.1022  -49.2426  -25.8188 O   0  0  0  0  0  0  0  0  0  0  0  0
    6.8614  -49.3492  -26.4387 H   0  0  0  0  0  0  0  0  0  0  0  0
 29 30  1  0  0  0
 30 28  1  0  0  0
 28  1  1  0  0  0
  1  2  2  0  0  0
  2  3  1  0  0  0
  3  4  2  0  0  0
  4  5  1  0  0  0
  5  6  2  0  0  0
  6  7  1  0  0  0
  7  8  2  0  0  0
  8  9  1  0  0  0
  9 11  1  0  0  0
 11 13  1  0  0  0
 13 14  2  0  0  0
 14 15  1  0  0  0
 15 16  2  0  0  0
 16 20  1  0  0  0
 20 21  1  0  0  0
 21 22  1  0  0  0
 22 23  2  0  0  0
 23 24  1  0  0  0
 24 25  2  0  0  0
 25 26  1  0  0  0
 26 27  2  0  0  0
 16 17  1  0  0  0
 17 18  1  0  0  0
 17 19  2  0  0  0
  9 10  2  0  0  0
 30 31  1  0  0  0
 31 32  2  0  0  0
 31 33  1  0  0  0
 33 34  1  0  0  0
 33 35  1  0  0  0
 35 36  1  0  0  0
 36 37  1  0  0  0
 10  1  1  0  0  0
 10  5  1  0  0  0
 19 13  1  0  0  0
 27 22  1  0  0  0
 11 12  1  0  0  0
 37 38  1  0  0  0
M  END
> <minimizedAffinity>
-6.66487

> <CNNscore>
0.4252607226

> <CNNaffinity>
7.1829071045

> <CNN_VS>
3.0546083450

> <CNNaffinity_variance>
0.4840849936

$$$$
[H]OC([H])([H])C([H])([H])N(C(=O)[C@]([H])(Oc1c([H])c([H])c([H])c2nc([H])nc(N([H])c3c([H])c([H])c(OC([H])([H])c4nc([H])c([H])c([H])c4[H])c(Cl)c3[H])c12)C([H])([H])[H])C([H])([H])[H]


 38 41  0  0  0  0  0  0  0  0999 V2000
    1.0803  -51.5560  -24.4382 C   0  0  0  0  0  0  0  0  0  0  0  0
    0.7720  -51.2294  -25.7663 C   0  0  0  0  0  0  0  0  0  0  0  0
   -0.1584  -51.9622  -26.4405 C   0  0  0  0  0  0  0  0  0  0  0  0
   -0.8244  -53.0167  -25.9001 C   0  0  0  0  0  0  0  0  0  0  0  0
   -0.5436  -53.3606  -24.6012 C   0  0  0  0  0  0  0  0  0  0  0  0
   -1.1892  -54.4196  -24.0539 N   0  0  0  0  0  0  0  0  0  0  0  0
   -0.9106  -54.7627  -22.7990 C   0  0  0  0  0  0  0  0  0  0  0  0
   -0.0350  -54.1244  -22.0479 N   0  0  0  0  0  0  0  0  0  0  0  0
    0.6469  -53.0359  -22.5658 C   0  0  0  0  0  0  0  0  0  0  0  0
    0.4000  -52.6442  -23.8567 C   0  0  0  0  0  0  0  0  0  0  0  0
    1.4482  -52.3030  -21.6864 N   0  0  0  0  0  0  0  0  0  0  0  0
    2.3503  -51.9016  -21.8273 H   0  0  0  0  0  0  0  0  0  0  0  0
    0.9128  -52.0060  -20.3703 C   0  0  0  0  0  0  0  0  0  0  0  0
    1.5008  -51.0144  -19.6061 C   0  0  0  0  0  0  0  0  0  0  0  0
    1.0677  -50.7267  -18.3474 C   0  0  0  0  0  0  0  0  0  0  0  0
   -0.0043  -51.4295  -17.7626 C   0  0  0  0  0  0  0  0  0  0  0  0
   -0.5875  -52.4323  -18.5545 C   0  0  0  0  0  0  0  0  0  0  0  0
   -1.9231  -53.3145  -17.8393 Cl  0  0  0  0  0  0  0  0  0  0  0  0
   -0.1320  -52.7009  -19.8168 C   0  0  0  0  0  0  0  0  0  0  0  0
   -0.4197  -51.1571  -16.5592 O   0  0  0  0  0  0  0  0  0  0  0  0
   -0.8041  -50.9028  -15.3704 C   0  0  0  0  0  0  0  0  0  0  0  0
   -2.2177  -50.3903  -15.2404 C   0  0  0  0  0  0  0  0  0  0  0  0
   -2.4253  -49.0614  -15.0691 C   0  0  0  0  0  0  0  0  0  0  0  0
   -3.7445  -48.6066  -14.9505 C   0  0  0  0  0  0  0  0  0  0  0  0
   -4.7496  -49.5296  -15.0141 C   0  0  0  0  0  0  0  0  0  0  0  0
   -4.5204  -50.8778  -15.1887 C   0  0  0  0  0  0  0  0  0  0  0  0
   -3.2126  -51.2557  -15.2975 N   0  0  0  0  0  0  0  0  0  0  0  0
    1.9906  -50.8579  -23.7432 O   0  0  0  0  0  0  0  0  0  0  0  0
    3.3524  -49.0201  -24.6715 C   0  0  0  0  0  0  0  0  0  0  0  0
    2.3984  -49.5871  -23.6021 C   0  0  0  0  0  0  0  0  0  0  0  0
    2.8162  -48.9903  -22.3557 C   0  0  0  0  0  0  0  0  0  0  0  0
    1.8696  -48.2211  -21.8396 O   0  0  0  0  0  0  0  0  0  0  0  0
    3.9595  -49.0220  -21.5721 N   0  0  0  0  0  0  0  0  0  0  0  0
    3.9927  -48.1995  -20.3363 C   0  0  0  0  0  0  0  0  0  0  0  0
    5.1118  -49.8279  -21.8741 C   0  0  0  0  0  0  0  0  0  0  0  0
    4.8107  -51.2317  -21.3560 C   0  0  0  0  0  0  0  0  0  0  0  0
    4.4594  -52.0672  -22.3958 O   0  0  0  0  0  0  0  0  0  0  0  0
    4.5500  -52.9969  -22.0807 H   0  0  0  0  0  0  0  0  0  0  0  0
 29 30  1  0  0  0
 30 28  1  0  0  0
 28  1  1  0  0  0
  1  2  2  0  0  0
  2  3  1  0  0  0
  3  4  2  0  0  0
  4  5  1  0  0  0
  5  6  2  0  0  0
  6  7  1  0  0  0
  7  8  2  0  0  0
  8  9  1  0  0  0
  9 11  1  0  0  0
 11 13  1  0  0  0
 13 14  2  0  0  0
 14 15  1  0  0  0
 15 16  2  0  0  0
 16 20  1  0  0  0
 20 21  1  0  0  0
 21 22  1  0  0  0
 22 23  2  0  0  0
 23 24  1  0  0  0
 24 25  2  0  0  0
 25 26  1  0  0  0
 26 27  2  0  0  0
 16 17  1  0  0  0
 17 18  1  0  0  0
 17 19  2  0  0  0
  9 10  2  0  0  0
 30 31  1  0  0  0
 31 32  2  0  0  0
 31 33  1  0  0  0
 33 34  1  0  0  0
 33 35  1  0  0  0
 35 36  1  0  0  0
 36 37  1  0  0  0
 10  1  1  0  0  0
 10  5  1  0  0  0
 19 13  1  0  0  0
 27 22  1  0  0  0
 11 12  1  0  0  0
 37 38  1  0  0  0
M  END
> <minimizedAffinity>
-7.57873

> <CNNscore>
0.4095896482

> <CNNaffinity>
6.8913145065

> <CNN_VS>
2.8226110935

> <CNNaffinity_variance>
0.1153160930

$$$$
[H]OC([H])([H])C([H])([H])N(C(=O)[C@]([H])(Oc1c([H])c([H])c([H])c2nc([H])nc(N([H])c3c([H])c([H])c(OC([H])([H])c4nc([H])c([H])c([H])c4[H])c(Cl)c3[H])c12)C([H])([H])[H])C([H])([H])[H]


 38 41  0  0  0  0  0  0  0  0999 V2000
    0.9221  -52.0188  -24.7669 C   0  0  0  0  0  0  0  0  0  0  0  0
    1.0428  -52.4996  -26.0784 C   0  0  0  0  0  0  0  0  0  0  0  0
    0.4831  -53.6972  -26.4097 C   0  0  0  0  0  0  0  0  0  0  0  0
   -0.2004  -54.4789  -25.5326 C   0  0  0  0  0  0  0  0  0  0  0  0
   -0.3349  -54.0345  -24.2409 C   0  0  0  0  0  0  0  0  0  0  0  0
   -1.0012  -54.8108  -23.3514 N   0  0  0  0  0  0  0  0  0  0  0  0
   -1.1232  -54.3883  -22.0956 C   0  0  0  0  0  0  0  0  0  0  0  0
   -0.6298  -53.2452  -21.6618 N   0  0  0  0  0  0  0  0  0  0  0  0
    0.0572  -52.4199  -22.5364 C   0  0  0  0  0  0  0  0  0  0  0  0
    0.2153  -52.8116  -23.8412 C   0  0  0  0  0  0  0  0  0  0  0  0
    0.4271  -51.1560  -22.0694 N   0  0  0  0  0  0  0  0  0  0  0  0
    0.6799  -50.3357  -22.5774 H   0  0  0  0  0  0  0  0  0  0  0  0
    0.4069  -50.9314  -20.6355 C   0  0  0  0  0  0  0  0  0  0  0  0
    1.0218  -49.8068  -20.1158 C   0  0  0  0  0  0  0  0  0  0  0  0
    1.0722  -49.5713  -18.7754 C   0  0  0  0  0  0  0  0  0  0  0  0
    0.4976  -50.4668  -17.8518 C   0  0  0  0  0  0  0  0  0  0  0  0
   -0.1216  -51.6024  -18.3994 C   0  0  0  0  0  0  0  0  0  0  0  0
   -0.8412  -52.7251  -17.2613 Cl  0  0  0  0  0  0  0  0  0  0  0  0
   -0.1574  -51.8146  -19.7510 C   0  0  0  0  0  0  0  0  0  0  0  0
    0.5451  -50.2446  -16.5699 O   0  0  0  0  0  0  0  0  0  0  0  0
    0.6128  -50.0095  -15.3185 C   0  0  0  0  0  0  0  0  0  0  0  0
    1.5491  -50.9011  -14.5398 C   0  0  0  0  0  0  0  0  0  0  0  0
    1.0650  -51.6120  -13.4916 C   0  0  0  0  0  0  0  0  0  0  0  0
    1.9504  -52.4329  -12.7823 C   0  0  0  0  0  0  0  0  0  0  0  0
    3.2545  -52.4711  -13.1875 C   0  0  0  0  0  0  0  0  0  0  0  0
    3.7299  -51.7413  -14.2561 C   0  0  0  0  0  0  0  0  0  0  0  0
    2.8160  -50.9612  -14.9049 N   0  0  0  0  0  0  0  0  0  0  0  0
    1.4599  -50.8449  -24.4038 O   0  0  0  0  0  0  0  0  0  0  0  0
    2.8864  -49.4867  -25.8919 C   0  0  0  0  0  0  0  0  0  0  0  0
    2.6157  -50.1766  -24.5405 C   0  0  0  0  0  0  0  0  0  0  0  0
    3.9004  -50.6524  -24.0851 C   0  0  0  0  0  0  0  0  0  0  0  0
    4.4706  -51.4502  -24.9753 O   0  0  0  0  0  0  0  0  0  0  0  0
    4.6783  -50.4828  -22.9501 N   0  0  0  0  0  0  0  0  0  0  0  0
    5.9688  -51.2117  -22.8619 C   0  0  0  0  0  0  0  0  0  0  0  0
    4.3188  -49.6184  -21.8582 C   0  0  0  0  0  0  0  0  0  0  0  0
    5.0150  -50.1701  -20.6170 C   0  0  0  0  0  0  0  0  0  0  0  0
    4.1517  -50.9619  -19.8887 O   0  0  0  0  0  0  0  0  0  0  0  0
    4.6917  -51.5140  -19.2759 H   0  0  0  0  0  0  0  0  0  0  0  0
 29 30  1  0  0  0
 30 28  1  0  0  0
 28  1  1  0  0  0
  1  2  2  0  0  0
  2  3  1  0  0  0
  3  4  2  0  0  0
  4  5  1  0  0  0
  5  6  2  0  0  0
  6  7  1  0  0  0
  7  8  2  0  0  0
  8  9  1  0  0  0
  9 11  1  0  0  0
 11 13  1  0  0  0
 13 14  2  0  0  0
 14 15  1  0  0  0
 15 16  2  0  0  0
 16 20  1  0  0  0
 20 21  1  0  0  0
 21 22  1  0  0  0
 22 23  2  0  0  0
 23 24  1  0  0  0
 24 25  2  0  0  0
 25 26  1  0  0  0
 26 27  2  0  0  0
 16 17  1  0  0  0
 17 18  1  0  0  0
 17 19  2  0  0  0
  9 10  2  0  0  0
 30 31  1  0  0  0
 31 32  2  0  0  0
 31 33  1  0  0  0
 33 34  1  0  0  0
 33 35  1  0  0  0
 35 36  1  0  0  0
 36 37  1  0  0  0
 10  1  1  0  0  0
 10  5  1  0  0  0
 19 13  1  0  0  0
 27 22  1  0  0  0
 11 12  1  0  0  0
 37 38  1  0  0  0
M  END
> <minimizedAffinity>
-6.99454

> <CNNscore>
0.4017595947

> <CNNaffinity>
7.0601930618

> <CNN_VS>
2.8365004063

> <CNNaffinity_variance>
0.1561488360

$$$$
[H]c1nc(N([H])c2c([H])c([H])c(OC([H])([H])c3nc([H])c([H])c([H])c3[H])c(Cl)c2[H])c2c(O[C@@]([H])(C(=O)N3C([H])([H])C([H])([H])OC([H])([H])C3([H])[H])C([H])([H])[H])c([H])c([H])c([H])c2n1


 38 42  0  0  0  0  0  0  0  0999 V2000
    0.5116  -50.7107  -17.0535 C   0  0  0  0  0  0  0  0  0  0  0  0
    0.6216  -49.5979  -16.2077 C   0  0  0  0  0  0  0  0  0  0  0  0
   -0.3828  -49.2367  -15.3431 C   0  0  0  0  0  0  0  0  0  0  0  0
   -1.5404  -49.9603  -15.2772 C   0  0  0  0  0  0  0  0  0  0  0  0
   -1.6795  -51.0688  -16.1038 C   0  0  0  0  0  0  0  0  0  0  0  0
   -2.8230  -51.7722  -16.0582 N   0  0  0  0  0  0  0  0  0  0  0  0
   -2.9916  -52.8298  -16.8557 C   0  0  0  0  0  0  0  0  0  0  0  0
   -2.0350  -53.1854  -17.6893 N   0  0  0  0  0  0  0  0  0  0  0  0
   -0.8284  -52.5372  -17.8153 C   0  0  0  0  0  0  0  0  0  0  0  0
   -0.6474  -51.4433  -16.9946 C   0  0  0  0  0  0  0  0  0  0  0  0
    0.1167  -53.0578  -18.7012 N   0  0  0  0  0  0  0  0  0  0  0  0
    0.9812  -53.5065  -18.4820 H   0  0  0  0  0  0  0  0  0  0  0  0
   -0.1306  -52.9892  -20.1119 C   0  0  0  0  0  0  0  0  0  0  0  0
   -0.0802  -51.8322  -20.8287 C   0  0  0  0  0  0  0  0  0  0  0  0
   -0.3514  -51.7783  -22.1881 C   0  0  0  0  0  0  0  0  0  0  0  0
   -0.6830  -52.9134  -22.8574 C   0  0  0  0  0  0  0  0  0  0  0  0
   -0.7413  -54.1078  -22.1535 C   0  0  0  0  0  0  0  0  0  0  0  0
   -1.1731  -55.5565  -23.0524 Cl  0  0  0  0  0  0  0  0  0  0  0  0
   -0.4708  -54.1491  -20.8057 C   0  0  0  0  0  0  0  0  0  0  0  0
   -0.9592  -52.9190  -24.1990 O   0  0  0  0  0  0  0  0  0  0  0  0
   -0.2304  -53.4920  -25.2246 C   0  0  0  0  0  0  0  0  0  0  0  0
    1.0058  -52.7422  -25.5220 C   0  0  0  0  0  0  0  0  0  0  0  0
    0.9371  -51.3665  -25.6022 C   0  0  0  0  0  0  0  0  0  0  0  0
    2.0665  -50.6314  -25.8763 C   0  0  0  0  0  0  0  0  0  0  0  0
    3.2395  -51.3047  -26.0630 C   0  0  0  0  0  0  0  0  0  0  0  0
    3.2830  -52.6819  -25.9776 C   0  0  0  0  0  0  0  0  0  0  0  0
    2.1578  -53.4040  -25.7053 N   0  0  0  0  0  0  0  0  0  0  0  0
    1.5286  -51.0329  -17.8975 O   0  0  0  0  0  0  0  0  0  0  0  0
    1.5751  -49.2479  -19.3905 C   0  0  0  0  0  0  0  0  0  0  0  0
    2.4216  -50.2973  -18.6107 C   0  0  0  0  0  0  0  0  0  0  0  0
    3.3243  -50.8506  -19.5831 C   0  0  0  0  0  0  0  0  0  0  0  0
    3.1746  -52.1486  -19.7397 O   0  0  0  0  0  0  0  0  0  0  0  0
    4.3098  -50.3049  -20.3824 N   0  0  0  0  0  0  0  0  0  0  0  0
    4.6656  -48.9219  -20.4365 C   0  0  0  0  0  0  0  0  0  0  0  0
    4.7192  -48.5591  -21.9298 C   0  0  0  0  0  0  0  0  0  0  0  0
    4.0757  -49.5151  -22.7136 O   0  0  0  0  0  0  0  0  0  0  0  0
    4.7495  -50.7353  -22.6894 C   0  0  0  0  0  0  0  0  0  0  0  0
    5.1281  -51.1453  -21.2923 C   0  0  0  0  0  0  0  0  0  0  0  0
 29 30  1  0  0  0
 30 28  1  0  0  0
 28  1  1  0  0  0
  1  2  2  0  0  0
  2  3  1  0  0  0
  3  4  2  0  0  0
  4  5  1  0  0  0
  5  6  2  0  0  0
  6  7  1  0  0  0
  7  8  2  0  0  0
  8  9  1  0  0  0
  9 11  1  0  0  0
 11 13  1  0  0  0
 13 14  2  0  0  0
 14 15  1  0  0  0
 15 16  2  0  0  0
 16 20  1  0  0  0
 20 21  1  0  0  0
 21 22  1  0  0  0
 22 23  2  0  0  0
 23 24  1  0  0  0
 24 25  2  0  0  0
 25 26  1  0  0  0
 26 27  2  0  0  0
 16 17  1  0  0  0
 17 18  1  0  0  0
 17 19  2  0  0  0
  9 10  2  0  0  0
 30 31  1  0  0  0
 31 32  2  0  0  0
 31 33  1  0  0  0
 33 34  1  0  0  0
 34 35  1  0  0  0
 35 36  1  0  0  0
 36 37  1  0  0  0
 37 38  1  0  0  0
 10  1  1  0  0  0
 38 33  1  0  0  0
 10  5  1  0  0  0
 19 13  1  0  0  0
 27 22  1  0  0  0
 11 12  1  0  0  0
M  END
> <minimizedAffinity>
-8.34586

> <CNNscore>
0.5992561579

> <CNNaffinity>
7.2106580734

> <CNN_VS>
4.3210310936

> <CNNaffinity_variance>
0.2379114628

$$$$
[H]c1nc(N([H])c2c([H])c([H])c(OC([H])([H])c3nc([H])c([H])c([H])c3[H])c(Cl)c2[H])c2c(O[C@@]([H])(C(=O)N3C([H])([H])C([H])([H])OC([H])([H])C3([H])[H])C([H])([H])[H])c([H])c([H])c([H])c2n1


 38 42  0  0  0  0  0  0  0  0999 V2000
    1.0742  -51.5140  -23.6996 C   0  0  0  0  0  0  0  0  0  0  0  0
    0.9837  -51.1522  -25.0511 C   0  0  0  0  0  0  0  0  0  0  0  0
    0.1995  -51.8453  -25.9408 C   0  0  0  0  0  0  0  0  0  0  0  0
   -0.5295  -52.9270  -25.5328 C   0  0  0  0  0  0  0  0  0  0  0  0
   -0.4599  -53.3107  -24.1989 C   0  0  0  0  0  0  0  0  0  0  0  0
   -1.1582  -54.3852  -23.7960 N   0  0  0  0  0  0  0  0  0  0  0  0
   -1.0941  -54.7882  -22.5246 C   0  0  0  0  0  0  0  0  0  0  0  0
   -0.3449  -54.1311  -21.6623 N   0  0  0  0  0  0  0  0  0  0  0  0
    0.4072  -53.0210  -21.9686 C   0  0  0  0  0  0  0  0  0  0  0  0
    0.3460  -52.5991  -23.2806 C   0  0  0  0  0  0  0  0  0  0  0  0
    1.1113  -52.3907  -20.9410 N   0  0  0  0  0  0  0  0  0  0  0  0
    2.0373  -52.0188  -20.9702 H   0  0  0  0  0  0  0  0  0  0  0  0
    0.4791  -52.2057  -19.6674 C   0  0  0  0  0  0  0  0  0  0  0  0
   -0.4671  -53.0486  -19.1681 C   0  0  0  0  0  0  0  0  0  0  0  0
   -1.0907  -52.8389  -17.9468 C   0  0  0  0  0  0  0  0  0  0  0  0
   -0.7617  -51.7550  -17.1963 C   0  0  0  0  0  0  0  0  0  0  0  0
    0.2001  -50.8789  -17.6788 C   0  0  0  0  0  0  0  0  0  0  0  0
    0.6010  -49.4875  -16.6806 Cl  0  0  0  0  0  0  0  0  0  0  0  0
    0.8115  -51.0967  -18.8914 C   0  0  0  0  0  0  0  0  0  0  0  0
   -1.3439  -51.4994  -15.9831 O   0  0  0  0  0  0  0  0  0  0  0  0
   -2.6010  -50.9854  -15.7238 C   0  0  0  0  0  0  0  0  0  0  0  0
   -3.5239  -52.0040  -15.1856 C   0  0  0  0  0  0  0  0  0  0  0  0
   -4.2570  -52.7624  -16.0750 C   0  0  0  0  0  0  0  0  0  0  0  0
   -5.1272  -53.7222  -15.6138 C   0  0  0  0  0  0  0  0  0  0  0  0
   -5.2357  -53.8929  -14.2635 C   0  0  0  0  0  0  0  0  0  0  0  0
   -4.4913  -53.1216  -13.3935 C   0  0  0  0  0  0  0  0  0  0  0  0
   -3.6302  -52.1712  -13.8592 N   0  0  0  0  0  0  0  0  0  0  0  0
    1.8648  -50.8026  -22.8513 O   0  0  0  0  0  0  0  0  0  0  0  0
    3.8490  -51.9320  -23.3043 C   0  0  0  0  0  0  0  0  0  0  0  0
    3.2086  -50.6236  -22.7531 C   0  0  0  0  0  0  0  0  0  0  0  0
    3.8961  -50.3588  -21.5186 C   0  0  0  0  0  0  0  0  0  0  0  0
    4.0939  -51.4436  -20.8004 O   0  0  0  0  0  0  0  0  0  0  0  0
    4.3893  -49.2084  -20.9345 N   0  0  0  0  0  0  0  0  0  0  0  0
    4.3366  -47.8985  -21.5033 C   0  0  0  0  0  0  0  0  0  0  0  0
    5.7553  -47.3217  -21.3643 C   0  0  0  0  0  0  0  0  0  0  0  0
    6.6908  -48.3194  -21.0959 O   0  0  0  0  0  0  0  0  0  0  0  0
    6.4869  -48.8883  -19.8397 C   0  0  0  0  0  0  0  0  0  0  0  0
    5.0415  -49.2306  -19.6011 C   0  0  0  0  0  0  0  0  0  0  0  0
 29 30  1  0  0  0
 30 28  1  0  0  0
 28  1  1  0  0  0
  1  2  2  0  0  0
  2  3  1  0  0  0
  3  4  2  0  0  0
  4  5  1  0  0  0
  5  6  2  0  0  0
  6  7  1  0  0  0
  7  8  2  0  0  0
  8  9  1  0  0  0
  9 11  1  0  0  0
 11 13  1  0  0  0
 13 14  2  0  0  0
 14 15  1  0  0  0
 15 16  2  0  0  0
 16 20  1  0  0  0
 20 21  1  0  0  0
 21 22  1  0  0  0
 22 23  2  0  0  0
 23 24  1  0  0  0
 24 25  2  0  0  0
 25 26  1  0  0  0
 26 27  2  0  0  0
 16 17  1  0  0  0
 17 18  1  0  0  0
 17 19  2  0  0  0
  9 10  2  0  0  0
 30 31  1  0  0  0
 31 32  2  0  0  0
 31 33  1  0  0  0
 33 34  1  0  0  0
 34 35  1  0  0  0
 35 36  1  0  0  0
 36 37  1  0  0  0
 37 38  1  0  0  0
 10  1  1  0  0  0
 38 33  1  0  0  0
 10  5  1  0  0  0
 19 13  1  0  0  0
 27 22  1  0  0  0
 11 12  1  0  0  0
M  END
> <minimizedAffinity>
-8.53567

> <CNNscore>
0.5110172629

> <CNNaffinity>
7.2392110825

> <CNN_VS>
3.6993618011

> <CNNaffinity_variance>
0.1853565723

$$$$
[H]c1nc(N([H])c2c([H])c([H])c(OC([H])([H])c3nc([H])c([H])c([H])c3[H])c(Cl)c2[H])c2c(O[C@@]([H])(C(=O)N3C([H])([H])C([H])([H])OC([H])([H])C3([H])[H])C([H])([H])[H])c([H])c([H])c([H])c2n1


 38 42  0  0  0  0  0  0  0  0999 V2000
    0.9422  -51.5505  -24.1301 C   0  0  0  0  0  0  0  0  0  0  0  0
    0.7919  -51.2389  -25.4888 C   0  0  0  0  0  0  0  0  0  0  0  0
   -0.0002  -51.9869  -26.3255 C   0  0  0  0  0  0  0  0  0  0  0  0
   -0.6783  -53.0763  -25.8549 C   0  0  0  0  0  0  0  0  0  0  0  0
   -0.5489  -53.4110  -24.5123 C   0  0  0  0  0  0  0  0  0  0  0  0
   -1.1967  -54.4925  -24.0483 N   0  0  0  0  0  0  0  0  0  0  0  0
   -1.0743  -54.8489  -22.7673 C   0  0  0  0  0  0  0  0  0  0  0  0
   -0.3170  -54.1389  -21.9556 N   0  0  0  0  0  0  0  0  0  0  0  0
    0.3870  -53.0169  -22.3263 C   0  0  0  0  0  0  0  0  0  0  0  0
    0.2654  -52.6430  -23.6486 C   0  0  0  0  0  0  0  0  0  0  0  0
    1.1060  -52.3294  -21.3469 N   0  0  0  0  0  0  0  0  0  0  0  0
    1.9969  -51.8877  -21.4365 H   0  0  0  0  0  0  0  0  0  0  0  0
    0.5459  -52.1870  -20.0347 C   0  0  0  0  0  0  0  0  0  0  0  0
   -0.3419  -53.0685  -19.4964 C   0  0  0  0  0  0  0  0  0  0  0  0
   -0.8974  -52.9003  -18.2365 C   0  0  0  0  0  0  0  0  0  0  0  0
   -0.5580  -51.8195  -17.4861 C   0  0  0  0  0  0  0  0  0  0  0  0
    0.3454  -50.9046  -18.0079 C   0  0  0  0  0  0  0  0  0  0  0  0
    0.7618  -49.5185  -17.0086 Cl  0  0  0  0  0  0  0  0  0  0  0  0
    0.8894  -51.0815  -19.2586 C   0  0  0  0  0  0  0  0  0  0  0  0
   -1.0742  -51.6040  -16.2358 O   0  0  0  0  0  0  0  0  0  0  0  0
   -2.2145  -50.9053  -15.8849 C   0  0  0  0  0  0  0  0  0  0  0  0
   -3.2838  -51.7911  -15.3842 C   0  0  0  0  0  0  0  0  0  0  0  0
   -3.8779  -52.6688  -16.2676 C   0  0  0  0  0  0  0  0  0  0  0  0
   -4.8772  -53.5114  -15.8403 C   0  0  0  0  0  0  0  0  0  0  0  0
   -5.2526  -53.4468  -14.5292 C   0  0  0  0  0  0  0  0  0  0  0  0
   -4.6430  -52.5600  -13.6644 C   0  0  0  0  0  0  0  0  0  0  0  0
   -3.6523  -51.7273  -14.0963 N   0  0  0  0  0  0  0  0  0  0  0  0
    1.7387  -50.7856  -23.3358 O   0  0  0  0  0  0  0  0  0  0  0  0
    3.6821  -50.3394  -22.1352 C   0  0  0  0  0  0  0  0  0  0  0  0
    2.9588  -50.2122  -23.5086 C   0  0  0  0  0  0  0  0  0  0  0  0
    3.1554  -48.8467  -23.9128 C   0  0  0  0  0  0  0  0  0  0  0  0
    3.0619  -47.9983  -22.9112 O   0  0  0  0  0  0  0  0  0  0  0  0
    3.4209  -48.2449  -25.1274 N   0  0  0  0  0  0  0  0  0  0  0  0
    3.5989  -48.9254  -26.3713 C   0  0  0  0  0  0  0  0  0  0  0  0
    4.8792  -48.3413  -26.9913 C   0  0  0  0  0  0  0  0  0  0  0  0
    5.6376  -47.6510  -26.0475 O   0  0  0  0  0  0  0  0  0  0  0  0
    4.9826  -46.5030  -25.6044 C   0  0  0  0  0  0  0  0  0  0  0  0
    3.5440  -46.7710  -25.2553 C   0  0  0  0  0  0  0  0  0  0  0  0
 29 30  1  0  0  0
 30 28  1  0  0  0
 28  1  1  0  0  0
  1  2  2  0  0  0
  2  3  1  0  0  0
  3  4  2  0  0  0
  4  5  1  0  0  0
  5  6  2  0  0  0
  6  7  1  0  0  0
  7  8  2  0  0  0
  8  9  1  0  0  0
  9 11  1  0  0  0
 11 13  1  0  0  0
 13 14  2  0  0  0
 14 15  1  0  0  0
 15 16  2  0  0  0
 16 20  1  0  0  0
 20 21  1  0  0  0
 21 22  1  0  0  0
 22 23  2  0  0  0
 23 24  1  0  0  0
 24 25  2  0  0  0
 25 26  1  0  0  0
 26 27  2  0  0  0
 16 17  1  0  0  0
 17 18  1  0  0  0
 17 19  2  0  0  0
  9 10  2  0  0  0
 30 31  1  0  0  0
 31 32  2  0  0  0
 31 33  1  0  0  0
 33 34  1  0  0  0
 34 35  1  0  0  0
 35 36  1  0  0  0
 36 37  1  0  0  0
 37 38  1  0  0  0
 10  1  1  0  0  0
 38 33  1  0  0  0
 10  5  1  0  0  0
 19 13  1  0  0  0
 27 22  1  0  0  0
 11 12  1  0  0  0
M  END
> <minimizedAffinity>
-8.51559

> <CNNscore>
0.4160744250

> <CNNaffinity>
7.1697397232

> <CNN_VS>
2.9831452370

> <CNNaffinity_variance>
0.1796582639

$$$$
[H]c1nc(N([H])c2c([H])c([H])c(OC([H])([H])c3nc([H])c([H])c([H])c3[H])c(Cl)c2[H])c2c(O[C@@]([H])(C(=O)N3C([H])([H])C([H])([H])OC([H])([H])C3([H])[H])C([H])([H])[H])c([H])c([H])c([H])c2n1


 38 42  0  0  0  0  0  0  0  0999 V2000
    1.1627  -51.5669  -24.6145 C   0  0  0  0  0  0  0  0  0  0  0  0
    0.8387  -51.3264  -25.9572 C   0  0  0  0  0  0  0  0  0  0  0  0
   -0.1304  -52.0454  -26.6138 C   0  0  0  0  0  0  0  0  0  0  0  0
   -0.8215  -53.0339  -25.9709 C   0  0  0  0  0  0  0  0  0  0  0  0
   -0.5224  -53.2962  -24.6394 C   0  0  0  0  0  0  0  0  0  0  0  0
   -1.1840  -54.2801  -24.0079 N   0  0  0  0  0  0  0  0  0  0  0  0
   -0.9029  -54.5671  -22.7345 C   0  0  0  0  0  0  0  0  0  0  0  0
    0.0250  -53.8842  -22.0948 N   0  0  0  0  0  0  0  0  0  0  0  0
    0.7592  -52.8596  -22.6452 C   0  0  0  0  0  0  0  0  0  0  0  0
    0.4742  -52.5578  -23.9608 C   0  0  0  0  0  0  0  0  0  0  0  0
    1.6724  -52.1851  -21.8329 N   0  0  0  0  0  0  0  0  0  0  0  0
    2.6492  -52.0501  -21.9888 H   0  0  0  0  0  0  0  0  0  0  0  0
    1.2144  -51.5717  -20.6205 C   0  0  0  0  0  0  0  0  0  0  0  0
    1.4959  -50.2844  -20.2762 C   0  0  0  0  0  0  0  0  0  0  0  0
    1.0699  -49.7150  -19.0851 C   0  0  0  0  0  0  0  0  0  0  0  0
    0.3386  -50.4503  -18.2071 C   0  0  0  0  0  0  0  0  0  0  0  0
    0.0352  -51.7650  -18.5312 C   0  0  0  0  0  0  0  0  0  0  0  0
   -0.9133  -52.6862  -17.3715 Cl  0  0  0  0  0  0  0  0  0  0  0  0
    0.4633  -52.3190  -19.7150 C   0  0  0  0  0  0  0  0  0  0  0  0
   -0.1092  -49.9393  -17.0177 O   0  0  0  0  0  0  0  0  0  0  0  0
    0.6267  -49.3712  -15.9944 C   0  0  0  0  0  0  0  0  0  0  0  0
    1.5147  -50.3471  -15.3326 C   0  0  0  0  0  0  0  0  0  0  0  0
    2.8725  -50.2617  -15.5622 C   0  0  0  0  0  0  0  0  0  0  0  0
    3.7334  -51.1515  -14.9638 C   0  0  0  0  0  0  0  0  0  0  0  0
    3.2012  -52.1072  -14.1467 C   0  0  0  0  0  0  0  0  0  0  0  0
    1.8389  -52.1723  -13.9326 C   0  0  0  0  0  0  0  0  0  0  0  0
    0.9913  -51.2857  -14.5303 N   0  0  0  0  0  0  0  0  0  0  0  0
    2.1313  -50.8341  -24.0016 O   0  0  0  0  0  0  0  0  0  0  0  0
    3.2552  -49.2950  -25.3378 C   0  0  0  0  0  0  0  0  0  0  0  0
    2.4580  -49.5149  -24.0179 C   0  0  0  0  0  0  0  0  0  0  0  0
    3.2343  -48.8664  -22.9965 C   0  0  0  0  0  0  0  0  0  0  0  0
    2.6348  -47.8091  -22.4922 O   0  0  0  0  0  0  0  0  0  0  0  0
    4.4714  -49.1224  -22.4380 N   0  0  0  0  0  0  0  0  0  0  0  0
    5.3260  -50.2169  -22.7758 C   0  0  0  0  0  0  0  0  0  0  0  0
    5.7612  -50.8396  -21.4388 C   0  0  0  0  0  0  0  0  0  0  0  0
    4.9455  -50.4220  -20.3887 O   0  0  0  0  0  0  0  0  0  0  0  0
    5.0953  -49.0596  -20.1341 C   0  0  0  0  0  0  0  0  0  0  0  0
    5.0522  -48.2400  -21.3950 C   0  0  0  0  0  0  0  0  0  0  0  0
 29 30  1  0  0  0
 30 28  1  0  0  0
 28  1  1  0  0  0
  1  2  2  0  0  0
  2  3  1  0  0  0
  3  4  2  0  0  0
  4  5  1  0  0  0
  5  6  2  0  0  0
  6  7  1  0  0  0
  7  8  2  0  0  0
  8  9  1  0  0  0
  9 11  1  0  0  0
 11 13  1  0  0  0
 13 14  2  0  0  0
 14 15  1  0  0  0
 15 16  2  0  0  0
 16 20  1  0  0  0
 20 21  1  0  0  0
 21 22  1  0  0  0
 22 23  2  0  0  0
 23 24  1  0  0  0
 24 25  2  0  0  0
 25 26  1  0  0  0
 26 27  2  0  0  0
 16 17  1  0  0  0
 17 18  1  0  0  0
 17 19  2  0  0  0
  9 10  2  0  0  0
 30 31  1  0  0  0
 31 32  2  0  0  0
 31 33  1  0  0  0
 33 34  1  0  0  0
 34 35  1  0  0  0
 35 36  1  0  0  0
 36 37  1  0  0  0
 37 38  1  0  0  0
 10  1  1  0  0  0
 38 33  1  0  0  0
 10  5  1  0  0  0
 19 13  1  0  0  0
 27 22  1  0  0  0
 11 12  1  0  0  0
M  END
> <minimizedAffinity>
-7.76203

> <CNNscore>
0.4137357175

> <CNNaffinity>
7.2123475075

> <CNN_VS>
2.9840056896

> <CNNaffinity_variance>
0.2517351508

$$$$
[H]c1nc(N([H])c2c([H])c([H])c(OC([H])([H])c3nc([H])c([H])c([H])c3[H])c(Cl)c2[H])c2c(O[C@@]([H])(C(=O)N3C([H])([H])C([H])([H])OC([H])([H])C3([H])[H])C([H])([H])[H])c([H])c([H])c([H])c2n1


 38 42  0  0  0  0  0  0  0  0999 V2000
    0.3492  -50.6690  -16.9711 C   0  0  0  0  0  0  0  0  0  0  0  0
    0.4233  -49.5319  -16.1544 C   0  0  0  0  0  0  0  0  0  0  0  0
   -0.5973  -49.1745  -15.3072 C   0  0  0  0  0  0  0  0  0  0  0  0
   -1.7362  -49.9263  -15.2309 C   0  0  0  0  0  0  0  0  0  0  0  0
   -1.8395  -51.0594  -16.0289 C   0  0  0  0  0  0  0  0  0  0  0  0
   -2.9647  -51.7911  -15.9733 N   0  0  0  0  0  0  0  0  0  0  0  0
   -3.0992  -52.8734  -16.7438 C   0  0  0  0  0  0  0  0  0  0  0  0
   -2.1268  -53.2256  -17.5604 N   0  0  0  0  0  0  0  0  0  0  0  0
   -0.9365  -52.5495  -17.6944 C   0  0  0  0  0  0  0  0  0  0  0  0
   -0.7907  -51.4300  -16.9016 C   0  0  0  0  0  0  0  0  0  0  0  0
    0.0291  -53.0682  -18.5590 N   0  0  0  0  0  0  0  0  0  0  0  0
    0.8515  -53.5825  -18.3226 H   0  0  0  0  0  0  0  0  0  0  0  0
   -0.1279  -52.8928  -19.9734 C   0  0  0  0  0  0  0  0  0  0  0  0
    0.0643  -51.7039  -20.6095 C   0  0  0  0  0  0  0  0  0  0  0  0
   -0.1207  -51.5440  -21.9750 C   0  0  0  0  0  0  0  0  0  0  0  0
   -0.5091  -52.6022  -22.7337 C   0  0  0  0  0  0  0  0  0  0  0  0
   -0.7116  -53.8268  -22.1133 C   0  0  0  0  0  0  0  0  0  0  0  0
   -1.2133  -55.1741  -23.1265 Cl  0  0  0  0  0  0  0  0  0  0  0  0
   -0.5255  -53.9734  -20.7586 C   0  0  0  0  0  0  0  0  0  0  0  0
   -0.7053  -52.5021  -24.0856 O   0  0  0  0  0  0  0  0  0  0  0  0
    0.1531  -51.9960  -25.0440 C   0  0  0  0  0  0  0  0  0  0  0  0
   -0.3168  -52.2656  -26.4171 C   0  0  0  0  0  0  0  0  0  0  0  0
   -1.6728  -52.2237  -26.6680 C   0  0  0  0  0  0  0  0  0  0  0  0
   -2.1508  -52.4681  -27.9341 C   0  0  0  0  0  0  0  0  0  0  0  0
   -1.2461  -52.7493  -28.9172 C   0  0  0  0  0  0  0  0  0  0  0  0
    0.1061  -52.7855  -28.6414 C   0  0  0  0  0  0  0  0  0  0  0  0
    0.5723  -52.5419  -27.3824 N   0  0  0  0  0  0  0  0  0  0  0  0
    1.3812  -50.9866  -17.7987 O   0  0  0  0  0  0  0  0  0  0  0  0
    3.3809  -50.9634  -16.6078 C   0  0  0  0  0  0  0  0  0  0  0  0
    2.6574  -50.5350  -17.9189 C   0  0  0  0  0  0  0  0  0  0  0  0
    3.0068  -49.1534  -18.1076 C   0  0  0  0  0  0  0  0  0  0  0  0
    3.7919  -48.6900  -17.1587 O   0  0  0  0  0  0  0  0  0  0  0  0
    2.6911  -48.2176  -19.0734 N   0  0  0  0  0  0  0  0  0  0  0  0
    1.8819  -48.4540  -20.2273 C   0  0  0  0  0  0  0  0  0  0  0  0
    2.6649  -47.8738  -21.4167 C   0  0  0  0  0  0  0  0  0  0  0  0
    4.0023  -47.6535  -21.0922 O   0  0  0  0  0  0  0  0  0  0  0  0
    4.1389  -46.6459  -20.1385 C   0  0  0  0  0  0  0  0  0  0  0  0
    3.1811  -46.8187  -18.9913 C   0  0  0  0  0  0  0  0  0  0  0  0
 29 30  1  0  0  0
 30 28  1  0  0  0
 28  1  1  0  0  0
  1  2  2  0  0  0
  2  3  1  0  0  0
  3  4  2  0  0  0
  4  5  1  0  0  0
  5  6  2  0  0  0
  6  7  1  0  0  0
  7  8  2  0  0  0
  8  9  1  0  0  0
  9 11  1  0  0  0
 11 13  1  0  0  0
 13 14  2  0  0  0
 14 15  1  0  0  0
 15 16  2  0  0  0
 16 20  1  0  0  0
 20 21  1  0  0  0
 21 22  1  0  0  0
 22 23  2  0  0  0
 23 24  1  0  0  0
 24 25  2  0  0  0
 25 26  1  0  0  0
 26 27  2  0  0  0
 16 17  1  0  0  0
 17 18  1  0  0  0
 17 19  2  0  0  0
  9 10  2  0  0  0
 30 31  1  0  0  0
 31 32  2  0  0  0
 31 33  1  0  0  0
 33 34  1  0  0  0
 34 35  1  0  0  0
 35 36  1  0  0  0
 36 37  1  0  0  0
 37 38  1  0  0  0
 10  1  1  0  0  0
 38 33  1  0  0  0
 10  5  1  0  0  0
 19 13  1  0  0  0
 27 22  1  0  0  0
 11 12  1  0  0  0
M  END
> <minimizedAffinity>
-8.72860

> <CNNscore>
0.3935585022

> <CNNaffinity>
7.1468620300

> <CNN_VS>
2.8127083778

> <CNNaffinity_variance>
0.1335651577

$$$$
[H]c1nc(N([H])c2c([H])c([H])c(OC([H])([H])c3nc([H])c([H])c([H])c3[H])c(Cl)c2[H])c2c(O[C@@]([H])(C(=O)N3C([H])([H])C([H])([H])OC([H])([H])C3([H])[H])C([H])([H])[H])c([H])c([H])c([H])c2n1


 38 42  0  0  0  0  0  0  0  0999 V2000
    1.1812  -51.7783  -24.3825 C   0  0  0  0  0  0  0  0  0  0  0  0
    0.9449  -51.3063  -25.6814 C   0  0  0  0  0  0  0  0  0  0  0  0
   -0.0374  -51.8358  -26.4824 C   0  0  0  0  0  0  0  0  0  0  0  0
   -0.8291  -52.8556  -26.0339 C   0  0  0  0  0  0  0  0  0  0  0  0
   -0.6186  -53.3455  -24.7505 C   0  0  0  0  0  0  0  0  0  0  0  0
   -1.3799  -54.3614  -24.3113 N   0  0  0  0  0  0  0  0  0  0  0  0
   -1.1860  -54.8651  -23.0899 C   0  0  0  0  0  0  0  0  0  0  0  0
   -0.2464  -54.3653  -22.3128 N   0  0  0  0  0  0  0  0  0  0  0  0
    0.5860  -53.3276  -22.6627 C   0  0  0  0  0  0  0  0  0  0  0  0
    0.3914  -52.8025  -23.9235 C   0  0  0  0  0  0  0  0  0  0  0  0
    1.5014  -52.8619  -21.7173 N   0  0  0  0  0  0  0  0  0  0  0  0
    2.4970  -52.8372  -21.7877 H   0  0  0  0  0  0  0  0  0  0  0  0
    1.0194  -52.3227  -20.4793 C   0  0  0  0  0  0  0  0  0  0  0  0
    0.0452  -52.9115  -19.7313 C   0  0  0  0  0  0  0  0  0  0  0  0
   -0.4310  -52.3611  -18.5504 C   0  0  0  0  0  0  0  0  0  0  0  0
    0.0792  -51.1860  -18.0975 C   0  0  0  0  0  0  0  0  0  0  0  0
    1.0739  -50.5632  -18.8380 C   0  0  0  0  0  0  0  0  0  0  0  0
    1.7110  -49.0444  -18.2212 Cl  0  0  0  0  0  0  0  0  0  0  0  0
    1.5380  -51.1181  -20.0077 C   0  0  0  0  0  0  0  0  0  0  0  0
   -0.3522  -50.5981  -16.9380 O   0  0  0  0  0  0  0  0  0  0  0  0
   -0.8737  -51.2029  -15.8094 C   0  0  0  0  0  0  0  0  0  0  0  0
   -2.2831  -50.8326  -15.5745 C   0  0  0  0  0  0  0  0  0  0  0  0
   -2.5532  -49.6169  -14.9806 C   0  0  0  0  0  0  0  0  0  0  0  0
   -3.8530  -49.2345  -14.7453 C   0  0  0  0  0  0  0  0  0  0  0  0
   -4.8498  -50.0906  -15.1163 C   0  0  0  0  0  0  0  0  0  0  0  0
   -4.5543  -51.3019  -15.7090 C   0  0  0  0  0  0  0  0  0  0  0  0
   -3.2618  -51.6739  -15.9389 N   0  0  0  0  0  0  0  0  0  0  0  0
    2.1663  -51.2284  -23.6223 O   0  0  0  0  0  0  0  0  0  0  0  0
    4.0929  -52.3674  -24.2609 C   0  0  0  0  0  0  0  0  0  0  0  0
    3.4897  -50.9980  -23.8291 C   0  0  0  0  0  0  0  0  0  0  0  0
    4.3843  -50.4924  -22.8239 C   0  0  0  0  0  0  0  0  0  0  0  0
    5.4667  -51.2280  -22.6856 O   0  0  0  0  0  0  0  0  0  0  0  0
    4.3432  -49.4007  -21.9787 N   0  0  0  0  0  0  0  0  0  0  0  0
    3.3023  -48.4226  -21.9336 C   0  0  0  0  0  0  0  0  0  0  0  0
    4.0073  -47.0562  -21.9553 C   0  0  0  0  0  0  0  0  0  0  0  0
    5.3326  -47.1691  -22.3715 O   0  0  0  0  0  0  0  0  0  0  0  0
    6.1014  -47.8751  -21.4474 C   0  0  0  0  0  0  0  0  0  0  0  0
    5.4221  -49.1382  -20.9933 C   0  0  0  0  0  0  0  0  0  0  0  0
 29 30  1  0  0  0
 30 28  1  0  0  0
 28  1  1  0  0  0
  1  2  2  0  0  0
  2  3  1  0  0  0
  3  4  2  0  0  0
  4  5  1  0  0  0
  5  6  2  0  0  0
  6  7  1  0  0  0
  7  8  2  0  0  0
  8  9  1  0  0  0
  9 11  1  0  0  0
 11 13  1  0  0  0
 13 14  2  0  0  0
 14 15  1  0  0  0
 15 16  2  0  0  0
 16 20  1  0  0  0
 20 21  1  0  0  0
 21 22  1  0  0  0
 22 23  2  0  0  0
 23 24  1  0  0  0
 24 25  2  0  0  0
 25 26  1  0  0  0
 26 27  2  0  0  0
 16 17  1  0  0  0
 17 18  1  0  0  0
 17 19  2  0  0  0
  9 10  2  0  0  0
 30 31  1  0  0  0
 31 32  2  0  0  0
 31 33  1  0  0  0
 33 34  1  0  0  0
 34 35  1  0  0  0
 35 36  1  0  0  0
 36 37  1  0  0  0
 37 38  1  0  0  0
 10  1  1  0  0  0
 38 33  1  0  0  0
 10  5  1  0  0  0
 19 13  1  0  0  0
 27 22  1  0  0  0
 11 12  1  0  0  0
M  END
> <minimizedAffinity>
-7.96995

> <CNNscore>
0.3632254601

> <CNNaffinity>
7.1462583542

> <CNN_VS>
2.5957028866

> <CNNaffinity_variance>
0.3078336120

$$$$
[H]c1nc(N([H])c2c([H])c([H])c(OC([H])([H])c3nc([H])c([H])c([H])c3[H])c(Cl)c2[H])c2c(O[C@@]([H])(C(=O)N3C([H])([H])C([H])([H])OC([H])([H])C3([H])[H])C([H])([H])[H])c([H])c([H])c([H])c2n1


 38 42  0  0  0  0  0  0  0  0999 V2000
    1.0095  -51.6489  -24.2383 C   0  0  0  0  0  0  0  0  0  0  0  0
    0.7543  -51.2251  -25.5501 C   0  0  0  0  0  0  0  0  0  0  0  0
   -0.1713  -51.8486  -26.3510 C   0  0  0  0  0  0  0  0  0  0  0  0
   -0.8850  -52.9189  -25.8895 C   0  0  0  0  0  0  0  0  0  0  0  0
   -0.6538  -53.3630  -24.5932 C   0  0  0  0  0  0  0  0  0  0  0  0
   -1.3376  -54.4271  -24.1407 N   0  0  0  0  0  0  0  0  0  0  0  0
   -1.1210  -54.8876  -22.9062 C   0  0  0  0  0  0  0  0  0  0  0  0
   -0.2353  -54.2976  -22.1290 N   0  0  0  0  0  0  0  0  0  0  0  0
    0.5162  -53.2042  -22.4918 C   0  0  0  0  0  0  0  0  0  0  0  0
    0.2979  -52.7232  -23.7662 C   0  0  0  0  0  0  0  0  0  0  0  0
    1.3783  -52.6465  -21.5459 N   0  0  0  0  0  0  0  0  0  0  0  0
    2.3551  -52.4628  -21.6391 H   0  0  0  0  0  0  0  0  0  0  0  0
    0.8585  -52.2493  -20.2700 C   0  0  0  0  0  0  0  0  0  0  0  0
   -0.0470  -52.9832  -19.5654 C   0  0  0  0  0  0  0  0  0  0  0  0
   -0.5627  -52.5702  -18.3456 C   0  0  0  0  0  0  0  0  0  0  0  0
   -0.1638  -51.3877  -17.8080 C   0  0  0  0  0  0  0  0  0  0  0  0
    0.7589  -50.6186  -18.5026 C   0  0  0  0  0  0  0  0  0  0  0  0
    1.2525  -49.0947  -17.7763 Cl  0  0  0  0  0  0  0  0  0  0  0  0
    1.2630  -51.0381  -19.7115 C   0  0  0  0  0  0  0  0  0  0  0  0
   -0.6386  -50.9314  -16.6069 O   0  0  0  0  0  0  0  0  0  0  0  0
   -0.9568  -51.6594  -15.4754 C   0  0  0  0  0  0  0  0  0  0  0  0
    0.1975  -51.8230  -14.5700 C   0  0  0  0  0  0  0  0  0  0  0  0
    1.3262  -51.0637  -14.8001 C   0  0  0  0  0  0  0  0  0  0  0  0
    2.4225  -51.1860  -13.9789 C   0  0  0  0  0  0  0  0  0  0  0  0
    2.3517  -52.0734  -12.9437 C   0  0  0  0  0  0  0  0  0  0  0  0
    1.2109  -52.8221  -12.7339 C   0  0  0  0  0  0  0  0  0  0  0  0
    0.1274  -52.6949  -13.5534 N   0  0  0  0  0  0  0  0  0  0  0  0
    1.9368  -51.0057  -23.4786 O   0  0  0  0  0  0  0  0  0  0  0  0
    4.0181  -50.5998  -22.5191 C   0  0  0  0  0  0  0  0  0  0  0  0
    3.1083  -50.3784  -23.7638 C   0  0  0  0  0  0  0  0  0  0  0  0
    3.2171  -48.9771  -24.0655 C   0  0  0  0  0  0  0  0  0  0  0  0
    3.1867  -48.2185  -22.9907 O   0  0  0  0  0  0  0  0  0  0  0  0
    3.3468  -48.2668  -25.2430 N   0  0  0  0  0  0  0  0  0  0  0  0
    3.4328  -48.8347  -26.5516 C   0  0  0  0  0  0  0  0  0  0  0  0
    4.6280  -48.1465  -27.2316 C   0  0  0  0  0  0  0  0  0  0  0  0
    5.4456  -47.5034  -26.3039 O   0  0  0  0  0  0  0  0  0  0  0  0
    4.7937  -46.4252  -25.7072 C   0  0  0  0  0  0  0  0  0  0  0  0
    3.4044  -46.7835  -25.2549 C   0  0  0  0  0  0  0  0  0  0  0  0
 29 30  1  0  0  0
 30 28  1  0  0  0
 28  1  1  0  0  0
  1  2  2  0  0  0
  2  3  1  0  0  0
  3  4  2  0  0  0
  4  5  1  0  0  0
  5  6  2  0  0  0
  6  7  1  0  0  0
  7  8  2  0  0  0
  8  9  1  0  0  0
  9 11  1  0  0  0
 11 13  1  0  0  0
 13 14  2  0  0  0
 14 15  1  0  0  0
 15 16  2  0  0  0
 16 20  1  0  0  0
 20 21  1  0  0  0
 21 22  1  0  0  0
 22 23  2  0  0  0
 23 24  1  0  0  0
 24 25  2  0  0  0
 25 26  1  0  0  0
 26 27  2  0  0  0
 16 17  1  0  0  0
 17 18  1  0  0  0
 17 19  2  0  0  0
  9 10  2  0  0  0
 30 31  1  0  0  0
 31 32  2  0  0  0
 31 33  1  0  0  0
 33 34  1  0  0  0
 34 35  1  0  0  0
 35 36  1  0  0  0
 36 37  1  0  0  0
 37 38  1  0  0  0
 10  1  1  0  0  0
 38 33  1  0  0  0
 10  5  1  0  0  0
 19 13  1  0  0  0
 27 22  1  0  0  0
 11 12  1  0  0  0
M  END
> <minimizedAffinity>
-7.70664

> <CNNscore>
0.3482712209

> <CNNaffinity>
7.1397962570

> <CNN_VS>
2.4865856171

> <CNNaffinity_variance>
0.1996330768

$$$$
[H]c1nc(N([H])c2c([H])c([H])c(OC([H])([H])c3nc([H])c([H])c([H])c3[H])c(Cl)c2[H])c2c(O[C@@]([H])(C(=O)N3C([H])([H])C([H])([H])OC([H])([H])C3([H])[H])C([H])([H])[H])c([H])c([H])c([H])c2n1


 38 42  0  0  0  0  0  0  0  0999 V2000
    1.1212  -50.4012  -17.9104 C   0  0  0  0  0  0  0  0  0  0  0  0
    1.1763  -49.2582  -17.1002 C   0  0  0  0  0  0  0  0  0  0  0  0
    0.2304  -48.9999  -16.1381 C   0  0  0  0  0  0  0  0  0  0  0  0
   -0.8116  -49.8607  -15.9352 C   0  0  0  0  0  0  0  0  0  0  0  0
   -0.8939  -51.0024  -16.7233 C   0  0  0  0  0  0  0  0  0  0  0  0
   -1.9267  -51.8420  -16.5426 N   0  0  0  0  0  0  0  0  0  0  0  0
   -2.0417  -52.9361  -17.2994 C   0  0  0  0  0  0  0  0  0  0  0  0
   -1.1404  -53.1940  -18.2256 N   0  0  0  0  0  0  0  0  0  0  0  0
   -0.0467  -52.4036  -18.4922 C   0  0  0  0  0  0  0  0  0  0  0  0
    0.0782  -51.2713  -17.7142 C   0  0  0  0  0  0  0  0  0  0  0  0
    0.8587  -52.8281  -19.4663 N   0  0  0  0  0  0  0  0  0  0  0  0
    1.8455  -52.9490  -19.3756 H   0  0  0  0  0  0  0  0  0  0  0  0
    0.3764  -53.1658  -20.7737 C   0  0  0  0  0  0  0  0  0  0  0  0
   -0.2504  -54.3397  -21.0639 C   0  0  0  0  0  0  0  0  0  0  0  0
   -0.6846  -54.6637  -22.3409 C   0  0  0  0  0  0  0  0  0  0  0  0
   -0.4895  -53.7907  -23.3638 C   0  0  0  0  0  0  0  0  0  0  0  0
    0.1456  -52.5859  -23.0982 C   0  0  0  0  0  0  0  0  0  0  0  0
    0.3803  -51.4805  -24.4458 Cl  0  0  0  0  0  0  0  0  0  0  0  0
    0.5721  -52.2755  -21.8281 C   0  0  0  0  0  0  0  0  0  0  0  0
   -0.8985  -54.0578  -24.6434 O   0  0  0  0  0  0  0  0  0  0  0  0
   -0.1676  -54.5997  -25.6845 C   0  0  0  0  0  0  0  0  0  0  0  0
   -0.3543  -53.8582  -26.9471 C   0  0  0  0  0  0  0  0  0  0  0  0
    0.6797  -53.8446  -27.8605 C   0  0  0  0  0  0  0  0  0  0  0  0
    0.5450  -53.1661  -29.0491 C   0  0  0  0  0  0  0  0  0  0  0  0
   -0.6326  -52.5170  -29.2864 C   0  0  0  0  0  0  0  0  0  0  0  0
   -1.6527  -52.5453  -28.3567 C   0  0  0  0  0  0  0  0  0  0  0  0
   -1.5111  -53.2208  -27.1797 N   0  0  0  0  0  0  0  0  0  0  0  0
    2.0765  -50.6187  -18.8541 O   0  0  0  0  0  0  0  0  0  0  0  0
    1.6505  -49.1166  -20.5802 C   0  0  0  0  0  0  0  0  0  0  0  0
    2.7457  -49.8055  -19.7132 C   0  0  0  0  0  0  0  0  0  0  0  0
    3.7341  -50.2653  -20.6504 C   0  0  0  0  0  0  0  0  0  0  0  0
    3.7845  -51.5773  -20.7381 O   0  0  0  0  0  0  0  0  0  0  0  0
    4.6357  -49.6187  -21.4731 N   0  0  0  0  0  0  0  0  0  0  0  0
    4.7788  -48.2024  -21.5994 C   0  0  0  0  0  0  0  0  0  0  0  0
    4.7959  -47.9140  -23.1097 C   0  0  0  0  0  0  0  0  0  0  0  0
    4.3145  -48.9962  -23.8443 O   0  0  0  0  0  0  0  0  0  0  0  0
    5.1648  -50.0970  -23.7517 C   0  0  0  0  0  0  0  0  0  0  0  0
    5.5832  -50.3714  -22.3330 C   0  0  0  0  0  0  0  0  0  0  0  0
 29 30  1  0  0  0
 30 28  1  0  0  0
 28  1  1  0  0  0
  1  2  2  0  0  0
  2  3  1  0  0  0
  3  4  2  0  0  0
  4  5  1  0  0  0
  5  6  2  0  0  0
  6  7  1  0  0  0
  7  8  2  0  0  0
  8  9  1  0  0  0
  9 11  1  0  0  0
 11 13  1  0  0  0
 13 14  2  0  0  0
 14 15  1  0  0  0
 15 16  2  0  0  0
 16 20  1  0  0  0
 20 21  1  0  0  0
 21 22  1  0  0  0
 22 23  2  0  0  0
 23 24  1  0  0  0
 24 25  2  0  0  0
 25 26  1  0  0  0
 26 27  2  0  0  0
 16 17  1  0  0  0
 17 18  1  0  0  0
 17 19  2  0  0  0
  9 10  2  0  0  0
 30 31  1  0  0  0
 31 32  2  0  0  0
 31 33  1  0  0  0
 33 34  1  0  0  0
 34 35  1  0  0  0
 35 36  1  0  0  0
 36 37  1  0  0  0
 37 38  1  0  0  0
 10  1  1  0  0  0
 38 33  1  0  0  0
 10  5  1  0  0  0
 19 13  1  0  0  0
 27 22  1  0  0  0
 11 12  1  0  0  0
M  END
> <minimizedAffinity>
-8.86167

> <CNNscore>
0.3208385706

> <CNNaffinity>
7.0983948708

> <CNN_VS>
2.2774388790

> <CNNaffinity_variance>
0.1999832094

$$$$
[H]c1nc(N([H])c2c([H])c([H])c(OC([H])([H])c3nc([H])c([H])c([H])c3[H])c(Cl)c2[H])c2c(O[C@@]([H])(C(=O)N3C([H])([H])C([H])([H])OC([H])([H])C3([H])[H])C([H])([H])[H])c([H])c([H])c([H])c2n1


 38 42  0  0  0  0  0  0  0  0999 V2000
    0.9575  -51.5761  -24.0234 C   0  0  0  0  0  0  0  0  0  0  0  0
    0.6910  -51.1967  -25.3465 C   0  0  0  0  0  0  0  0  0  0  0  0
   -0.2105  -51.8732  -26.1318 C   0  0  0  0  0  0  0  0  0  0  0  0
   -0.8879  -52.9548  -25.6427 C   0  0  0  0  0  0  0  0  0  0  0  0
   -0.6447  -53.3557  -24.3345 C   0  0  0  0  0  0  0  0  0  0  0  0
   -1.2924  -54.4303  -23.8546 N   0  0  0  0  0  0  0  0  0  0  0  0
   -1.0630  -54.8497  -22.6078 C   0  0  0  0  0  0  0  0  0  0  0  0
   -0.2002  -54.2087  -21.8454 N   0  0  0  0  0  0  0  0  0  0  0  0
    0.5140  -53.1000  -22.2364 C   0  0  0  0  0  0  0  0  0  0  0  0
    0.2823  -52.6613  -23.5236 C   0  0  0  0  0  0  0  0  0  0  0  0
    1.3540  -52.4877  -21.3046 N   0  0  0  0  0  0  0  0  0  0  0  0
    2.3195  -52.2560  -21.4081 H   0  0  0  0  0  0  0  0  0  0  0  0
    0.8245  -52.1012  -20.0293 C   0  0  0  0  0  0  0  0  0  0  0  0
    1.3409  -51.0911  -19.2756 C   0  0  0  0  0  0  0  0  0  0  0  0
    0.8353  -50.7492  -18.0299 C   0  0  0  0  0  0  0  0  0  0  0  0
   -0.2200  -51.4343  -17.5167 C   0  0  0  0  0  0  0  0  0  0  0  0
   -0.7680  -52.4682  -18.2625 C   0  0  0  0  0  0  0  0  0  0  0  0
   -2.1330  -53.3323  -17.5672 Cl  0  0  0  0  0  0  0  0  0  0  0  0
   -0.2580  -52.7986  -19.4963 C   0  0  0  0  0  0  0  0  0  0  0  0
   -0.7604  -51.1390  -16.2933 O   0  0  0  0  0  0  0  0  0  0  0  0
   -1.1495  -49.9076  -15.7995 C   0  0  0  0  0  0  0  0  0  0  0  0
   -2.4064  -49.9832  -15.0292 C   0  0  0  0  0  0  0  0  0  0  0  0
   -3.4716  -50.6697  -15.5749 C   0  0  0  0  0  0  0  0  0  0  0  0
   -4.6595  -50.7640  -14.8886 C   0  0  0  0  0  0  0  0  0  0  0  0
   -4.7427  -50.1617  -13.6661 C   0  0  0  0  0  0  0  0  0  0  0  0
   -3.6629  -49.4803  -13.1411 C   0  0  0  0  0  0  0  0  0  0  0  0
   -2.4876  -49.3913  -13.8285 N   0  0  0  0  0  0  0  0  0  0  0  0
    1.8601  -50.8810  -23.2799 O   0  0  0  0  0  0  0  0  0  0  0  0
    3.9381  -50.5327  -22.2909 C   0  0  0  0  0  0  0  0  0  0  0  0
    3.0619  -50.3110  -23.5594 C   0  0  0  0  0  0  0  0  0  0  0  0
    3.2347  -48.9249  -23.8990 C   0  0  0  0  0  0  0  0  0  0  0  0
    3.2640  -48.1395  -22.8435 O   0  0  0  0  0  0  0  0  0  0  0  0
    3.3758  -48.2513  -25.0965 N   0  0  0  0  0  0  0  0  0  0  0  0
    3.4067  -48.8548  -26.3915 C   0  0  0  0  0  0  0  0  0  0  0  0
    4.6209  -48.2449  -27.1115 C   0  0  0  0  0  0  0  0  0  0  0  0
    5.4882  -47.6213  -26.2164 O   0  0  0  0  0  0  0  0  0  0  0  0
    4.9034  -46.4971  -25.6352 C   0  0  0  0  0  0  0  0  0  0  0  0
    3.5074  -46.7735  -25.1475 C   0  0  0  0  0  0  0  0  0  0  0  0
 29 30  1  0  0  0
 30 28  1  0  0  0
 28  1  1  0  0  0
  1  2  2  0  0  0
  2  3  1  0  0  0
  3  4  2  0  0  0
  4  5  1  0  0  0
  5  6  2  0  0  0
  6  7  1  0  0  0
  7  8  2  0  0  0
  8  9  1  0  0  0
  9 11  1  0  0  0
 11 13  1  0  0  0
 13 14  2  0  0  0
 14 15  1  0  0  0
 15 16  2  0  0  0
 16 20  1  0  0  0
 20 21  1  0  0  0
 21 22  1  0  0  0
 22 23  2  0  0  0
 23 24  1  0  0  0
 24 25  2  0  0  0
 25 26  1  0  0  0
 26 27  2  0  0  0
 16 17  1  0  0  0
 17 18  1  0  0  0
 17 19  2  0  0  0
  9 10  2  0  0  0
 30 31  1  0  0  0
 31 32  2  0  0  0
 31 33  1  0  0  0
 33 34  1  0  0  0
 34 35  1  0  0  0
 35 36  1  0  0  0
 36 37  1  0  0  0
 37 38  1  0  0  0
 10  1  1  0  0  0
 38 33  1  0  0  0
 10  5  1  0  0  0
 19 13  1  0  0  0
 27 22  1  0  0  0
 11 12  1  0  0  0
M  END
> <minimizedAffinity>
-7.86889

> <CNNscore>
0.3203426003

> <CNNaffinity>
7.0319390297

> <CNN_VS>
2.2526295185

> <CNNaffinity_variance>
0.2226051539

$$$$
[H]ON([H])C(=O)C([H])([H])C([H])([H])C([H])([H])C([H])([H])C([H])([H])C([H])([H])Oc1c(OC([H])([H])[H])c([H])c2nc([H])nc(N([H])c3c([H])c([H])c(F)c(Cl)c3[H])c2c1[H]


 35 37  0  0  0  0  0  0  0  0999 V2000
   -0.3180  -52.3636  -19.4893 C   0  0  0  0  0  0  0  0  0  0  0  0
   -0.8453  -53.4877  -20.0586 C   0  0  0  0  0  0  0  0  0  0  0  0
   -0.8031  -53.7693  -21.3903 C   0  0  0  0  0  0  0  0  0  0  0  0
   -1.3316  -54.8940  -21.9084 N   0  0  0  0  0  0  0  0  0  0  0  0
   -1.2925  -55.1866  -23.2084 C   0  0  0  0  0  0  0  0  0  0  0  0
   -0.7034  -54.3294  -24.0510 N   0  0  0  0  0  0  0  0  0  0  0  0
   -0.1450  -53.1690  -23.6069 C   0  0  0  0  0  0  0  0  0  0  0  0
   -0.1800  -52.8575  -22.2570 C   0  0  0  0  0  0  0  0  0  0  0  0
    0.3549  -51.7232  -21.7015 C   0  0  0  0  0  0  0  0  0  0  0  0
    0.3160  -51.4254  -20.3311 C   0  0  0  0  0  0  0  0  0  0  0  0
   -1.3052  -52.7454  -17.3182 C   0  0  0  0  0  0  0  0  0  0  0  0
   -0.3647  -52.0832  -18.1323 O   0  0  0  0  0  0  0  0  0  0  0  0
    0.4345  -52.2495  -24.5045 N   0  0  0  0  0  0  0  0  0  0  0  0
    0.9928  -51.4227  -24.1541 H   0  0  0  0  0  0  0  0  0  0  0  0
    0.2722  -52.4174  -25.9114 C   0  0  0  0  0  0  0  0  0  0  0  0
    1.2626  -52.6320  -26.8221 C   0  0  0  0  0  0  0  0  0  0  0  0
    1.0126  -52.8159  -28.1830 C   0  0  0  0  0  0  0  0  0  0  0  0
   -0.2881  -52.7765  -28.6243 C   0  0  0  0  0  0  0  0  0  0  0  0
   -0.5423  -52.9504  -29.9380 F   0  0  0  0  0  0  0  0  0  0  0  0
   -1.3161  -52.5570  -27.7158 C   0  0  0  0  0  0  0  0  0  0  0  0
   -2.9698  -52.5079  -28.2642 Cl  0  0  0  0  0  0  0  0  0  0  0  0
   -1.0456  -52.3805  -26.3796 C   0  0  0  0  0  0  0  0  0  0  0  0
    0.8423  -50.3270  -19.8442 O   0  0  0  0  0  0  0  0  0  0  0  0
    1.1518  -49.0532  -19.8240 C   0  0  0  0  0  0  0  0  0  0  0  0
    1.3524  -48.4953  -21.2214 C   0  0  0  0  0  0  0  0  0  0  0  0
    2.7442  -47.9979  -21.4160 C   0  0  0  0  0  0  0  0  0  0  0  0
    3.5512  -48.7461  -22.4254 C   0  0  0  0  0  0  0  0  0  0  0  0
    4.2830  -49.9214  -21.8031 C   0  0  0  0  0  0  0  0  0  0  0  0
    4.5469  -49.7446  -20.3412 C   0  0  0  0  0  0  0  0  0  0  0  0
    5.9900  -49.3777  -20.1593 C   0  0  0  0  0  0  0  0  0  0  0  0
    6.8485  -49.5383  -21.0553 O   0  0  0  0  0  0  0  0  0  0  0  0
    6.3536  -48.8251  -18.9041 N   0  0  0  0  0  0  0  0  0  0  0  0
    7.6284  -48.4686  -18.6724 O   0  0  0  0  0  0  0  0  0  0  0  0
    5.6558  -48.6894  -18.1572 H   0  0  0  0  0  0  0  0  0  0  0  0
    8.0596  -48.2754  -19.5582 H   0  0  0  0  0  0  0  0  0  0  0  0
 11 12  1  0  0  0
 12  1  1  0  0  0
  1  2  2  0  0  0
  2  3  1  0  0  0
  3  4  2  0  0  0
  4  5  1  0  0  0
  5  6  2  0  0  0
  6  7  1  0  0  0
  7 13  1  0  0  0
 13 15  1  0  0  0
 15 16  2  0  0  0
 16 17  1  0  0  0
 17 18  2  0  0  0
 18 19  1  0  0  0
 18 20  1  0  0  0
 20 21  1  0  0  0
 20 22  2  0  0  0
  7  8  2  0  0  0
  8  9  1  0  0  0
  9 10  2  0  0  0
 10 23  1  0  0  0
 23 24  1  0  0  0
 24 25  1  0  0  0
 25 26  1  0  0  0
 26 27  1  0  0  0
 27 28  1  0  0  0
 28 29  1  0  0  0
 29 30  1  0  0  0
 30 31  2  0  0  0
 30 32  1  0  0  0
 32 33  1  0  0  0
 10  1  1  0  0  0
  8  3  1  0  0  0
 22 15  1  0  0  0
 13 14  1  0  0  0
 32 34  1  0  0  0
 33 35  1  0  0  0
M  END
> <minimizedAffinity>
-7.92608

> <CNNscore>
0.9425689578

> <CNNaffinity>
7.6253290176

> <CNN_VS>
7.1873984337

> <CNNaffinity_variance>
0.1071922928

$$$$
[H]ON([H])C(=O)C([H])([H])C([H])([H])C([H])([H])C([H])([H])C([H])([H])C([H])([H])Oc1c(OC([H])([H])[H])c([H])c2nc([H])nc(N([H])c3c([H])c([H])c(F)c(Cl)c3[H])c2c1[H]


 35 37  0  0  0  0  0  0  0  0999 V2000
   -0.2826  -52.4702  -19.3808 C   0  0  0  0  0  0  0  0  0  0  0  0
   -0.7587  -53.6032  -19.9770 C   0  0  0  0  0  0  0  0  0  0  0  0
   -0.7750  -53.8176  -21.3216 C   0  0  0  0  0  0  0  0  0  0  0  0
   -1.2492  -54.9538  -21.8666 N   0  0  0  0  0  0  0  0  0  0  0  0
   -1.2660  -55.1810  -23.1802 C   0  0  0  0  0  0  0  0  0  0  0  0
   -0.7926  -54.2425  -24.0091 N   0  0  0  0  0  0  0  0  0  0  0  0
   -0.2957  -53.0651  -23.5376 C   0  0  0  0  0  0  0  0  0  0  0  0
   -0.2733  -52.8211  -22.1736 C   0  0  0  0  0  0  0  0  0  0  0  0
    0.2088  -51.6767  -21.5911 C   0  0  0  0  0  0  0  0  0  0  0  0
    0.2295  -51.4477  -20.2072 C   0  0  0  0  0  0  0  0  0  0  0  0
   -1.3864  -52.6347  -17.2387 C   0  0  0  0  0  0  0  0  0  0  0  0
   -0.2691  -52.2584  -18.0107 O   0  0  0  0  0  0  0  0  0  0  0  0
    0.1603  -52.0627  -24.4175 N   0  0  0  0  0  0  0  0  0  0  0  0
    0.5333  -51.1435  -24.0514 H   0  0  0  0  0  0  0  0  0  0  0  0
    0.1214  -52.2711  -25.8279 C   0  0  0  0  0  0  0  0  0  0  0  0
    1.1909  -52.4715  -26.6478 C   0  0  0  0  0  0  0  0  0  0  0  0
    1.0614  -52.6980  -28.0190 C   0  0  0  0  0  0  0  0  0  0  0  0
   -0.1987  -52.7173  -28.5666 C   0  0  0  0  0  0  0  0  0  0  0  0
   -0.3366  -52.9328  -29.8916 F   0  0  0  0  0  0  0  0  0  0  0  0
   -1.3056  -52.5134  -27.7521 C   0  0  0  0  0  0  0  0  0  0  0  0
   -2.9087  -52.5387  -28.4358 Cl  0  0  0  0  0  0  0  0  0  0  0  0
   -1.1534  -52.2942  -26.4036 C   0  0  0  0  0  0  0  0  0  0  0  0
    0.7016  -50.3364  -19.6945 O   0  0  0  0  0  0  0  0  0  0  0  0
    1.4524  -49.2627  -19.6471 C   0  0  0  0  0  0  0  0  0  0  0  0
    2.9068  -49.5985  -19.3707 C   0  0  0  0  0  0  0  0  0  0  0  0
    3.5085  -48.6520  -18.3886 C   0  0  0  0  0  0  0  0  0  0  0  0
    3.3619  -47.2053  -18.7282 C   0  0  0  0  0  0  0  0  0  0  0  0
    3.5314  -46.3196  -17.5073 C   0  0  0  0  0  0  0  0  0  0  0  0
    3.1597  -47.0010  -16.2283 C   0  0  0  0  0  0  0  0  0  0  0  0
    4.3303  -46.9281  -15.2930 C   0  0  0  0  0  0  0  0  0  0  0  0
    4.2018  -46.8228  -14.0529 O   0  0  0  0  0  0  0  0  0  0  0  0
    5.6202  -46.9879  -15.8810 N   0  0  0  0  0  0  0  0  0  0  0  0
    6.7148  -46.9330  -15.1032 O   0  0  0  0  0  0  0  0  0  0  0  0
    5.7393  -47.0728  -16.9016 H   0  0  0  0  0  0  0  0  0  0  0  0
    6.4589  -47.2586  -14.1887 H   0  0  0  0  0  0  0  0  0  0  0  0
 11 12  1  0  0  0
 12  1  1  0  0  0
  1  2  2  0  0  0
  2  3  1  0  0  0
  3  4  2  0  0  0
  4  5  1  0  0  0
  5  6  2  0  0  0
  6  7  1  0  0  0
  7 13  1  0  0  0
 13 15  1  0  0  0
 15 16  2  0  0  0
 16 17  1  0  0  0
 17 18  2  0  0  0
 18 19  1  0  0  0
 18 20  1  0  0  0
 20 21  1  0  0  0
 20 22  2  0  0  0
  7  8  2  0  0  0
  8  9  1  0  0  0
  9 10  2  0  0  0
 10 23  1  0  0  0
 23 24  1  0  0  0
 24 25  1  0  0  0
 25 26  1  0  0  0
 26 27  1  0  0  0
 27 28  1  0  0  0
 28 29  1  0  0  0
 29 30  1  0  0  0
 30 31  2  0  0  0
 30 32  1  0  0  0
 32 33  1  0  0  0
 10  1  1  0  0  0
  8  3  1  0  0  0
 22 15  1  0  0  0
 13 14  1  0  0  0
 32 34  1  0  0  0
 33 35  1  0  0  0
M  END
> <minimizedAffinity>
-7.23296

> <CNNscore>
0.9424569011

> <CNNaffinity>
7.4080796242

> <CNN_VS>
6.9817957878

> <CNNaffinity_variance>
0.2659094632

$$$$
[H]ON([H])C(=O)C([H])([H])C([H])([H])C([H])([H])C([H])([H])C([H])([H])C([H])([H])Oc1c(OC([H])([H])[H])c([H])c2nc([H])nc(N([H])c3c([H])c([H])c(F)c(Cl)c3[H])c2c1[H]


 35 37  0  0  0  0  0  0  0  0999 V2000
   -0.2522  -52.3822  -19.6009 C   0  0  0  0  0  0  0  0  0  0  0  0
   -0.7952  -53.5102  -20.1472 C   0  0  0  0  0  0  0  0  0  0  0  0
   -0.7949  -53.7989  -21.4780 C   0  0  0  0  0  0  0  0  0  0  0  0
   -1.3374  -54.9273  -21.9730 N   0  0  0  0  0  0  0  0  0  0  0  0
   -1.3392  -55.2268  -23.2721 C   0  0  0  0  0  0  0  0  0  0  0  0
   -0.7789  -54.3731  -24.1376 N   0  0  0  0  0  0  0  0  0  0  0  0
   -0.2089  -53.2093  -23.7176 C   0  0  0  0  0  0  0  0  0  0  0  0
   -0.2015  -52.8906  -22.3689 C   0  0  0  0  0  0  0  0  0  0  0  0
    0.3487  -51.7524  -21.8368 C   0  0  0  0  0  0  0  0  0  0  0  0
    0.3528  -51.4474  -20.4675 C   0  0  0  0  0  0  0  0  0  0  0  0
   -1.2039  -52.7146  -17.4060 C   0  0  0  0  0  0  0  0  0  0  0  0
   -0.2562  -52.0946  -18.2446 O   0  0  0  0  0  0  0  0  0  0  0  0
    0.3400  -52.2936  -24.6380 N   0  0  0  0  0  0  0  0  0  0  0  0
    0.8968  -51.4569  -24.3094 H   0  0  0  0  0  0  0  0  0  0  0  0
    0.1479  -52.4789  -26.0390 C   0  0  0  0  0  0  0  0  0  0  0  0
    1.1153  -52.7365  -26.9631 C   0  0  0  0  0  0  0  0  0  0  0  0
    0.8360  -52.9345  -28.3163 C   0  0  0  0  0  0  0  0  0  0  0  0
   -0.4708  -52.8644  -28.7355 C   0  0  0  0  0  0  0  0  0  0  0  0
   -0.7532  -53.0515  -30.0417 F   0  0  0  0  0  0  0  0  0  0  0  0
   -1.4757  -52.6008  -27.8131 C   0  0  0  0  0  0  0  0  0  0  0  0
   -3.1367  -52.5124  -28.3335 Cl  0  0  0  0  0  0  0  0  0  0  0  0
   -1.1765  -52.4111  -26.4848 C   0  0  0  0  0  0  0  0  0  0  0  0
    0.8923  -50.3454  -20.0034 O   0  0  0  0  0  0  0  0  0  0  0  0
    1.7790  -49.3824  -19.9338 C   0  0  0  0  0  0  0  0  0  0  0  0
    1.4598  -48.2464  -20.8888 C   0  0  0  0  0  0  0  0  0  0  0  0
    2.5113  -48.1013  -21.9356 C   0  0  0  0  0  0  0  0  0  0  0  0
    3.3998  -49.2883  -22.1127 C   0  0  0  0  0  0  0  0  0  0  0  0
    3.9410  -49.3812  -23.5278 C   0  0  0  0  0  0  0  0  0  0  0  0
    3.1811  -50.3410  -24.3878 C   0  0  0  0  0  0  0  0  0  0  0  0
    3.9593  -51.6205  -24.4748 C   0  0  0  0  0  0  0  0  0  0  0  0
    3.4377  -52.7444  -24.3008 O   0  0  0  0  0  0  0  0  0  0  0  0
    5.3419  -51.5062  -24.7724 N   0  0  0  0  0  0  0  0  0  0  0  0
    6.1001  -52.6114  -24.8706 O   0  0  0  0  0  0  0  0  0  0  0  0
    5.7837  -50.5858  -24.9162 H   0  0  0  0  0  0  0  0  0  0  0  0
    5.4977  -53.3772  -25.1126 H   0  0  0  0  0  0  0  0  0  0  0  0
 11 12  1  0  0  0
 12  1  1  0  0  0
  1  2  2  0  0  0
  2  3  1  0  0  0
  3  4  2  0  0  0
  4  5  1  0  0  0
  5  6  2  0  0  0
  6  7  1  0  0  0
  7 13  1  0  0  0
 13 15  1  0  0  0
 15 16  2  0  0  0
 16 17  1  0  0  0
 17 18  2  0  0  0
 18 19  1  0  0  0
 18 20  1  0  0  0
 20 21  1  0  0  0
 20 22  2  0  0  0
  7  8  2  0  0  0
  8  9  1  0  0  0
  9 10  2  0  0  0
 10 23  1  0  0  0
 23 24  1  0  0  0
 24 25  1  0  0  0
 25 26  1  0  0  0
 26 27  1  0  0  0
 27 28  1  0  0  0
 28 29  1  0  0  0
 29 30  1  0  0  0
 30 31  2  0  0  0
 30 32  1  0  0  0
 32 33  1  0  0  0
 10  1  1  0  0  0
  8  3  1  0  0  0
 22 15  1  0  0  0
 13 14  1  0  0  0
 32 34  1  0  0  0
 33 35  1  0  0  0
M  END
> <minimizedAffinity>
-8.33924

> <CNNscore>
0.9262272120

> <CNNaffinity>
7.6449899673

> <CNN_VS>
7.0809979439

> <CNNaffinity_variance>
0.1577921808

$$$$
[H]ON([H])C(=O)C([H])([H])C([H])([H])C([H])([H])C([H])([H])C([H])([H])C([H])([H])Oc1c(OC([H])([H])[H])c([H])c2nc([H])nc(N([H])c3c([H])c([H])c(F)c(Cl)c3[H])c2c1[H]


 35 37  0  0  0  0  0  0  0  0999 V2000
   -0.4221  -52.4474  -19.4583 C   0  0  0  0  0  0  0  0  0  0  0  0
   -0.8949  -53.5780  -20.0615 C   0  0  0  0  0  0  0  0  0  0  0  0
   -0.8387  -53.8177  -21.4008 C   0  0  0  0  0  0  0  0  0  0  0  0
   -1.3128  -54.9505  -21.9529 N   0  0  0  0  0  0  0  0  0  0  0  0
   -1.2593  -55.2024  -23.2609 C   0  0  0  0  0  0  0  0  0  0  0  0
   -0.7114  -54.2935  -24.0768 N   0  0  0  0  0  0  0  0  0  0  0  0
   -0.2092  -53.1214  -23.5975 C   0  0  0  0  0  0  0  0  0  0  0  0
   -0.2595  -52.8520  -22.2391 C   0  0  0  0  0  0  0  0  0  0  0  0
    0.2204  -51.7104  -21.6494 C   0  0  0  0  0  0  0  0  0  0  0  0
    0.1668  -51.4555  -20.2709 C   0  0  0  0  0  0  0  0  0  0  0  0
   -1.4974  -52.8171  -17.3273 C   0  0  0  0  0  0  0  0  0  0  0  0
   -0.4826  -52.2098  -18.0937 O   0  0  0  0  0  0  0  0  0  0  0  0
    0.3262  -52.1492  -24.4665 N   0  0  0  0  0  0  0  0  0  0  0  0
    0.7723  -51.2674  -24.0903 H   0  0  0  0  0  0  0  0  0  0  0  0
    0.2704  -52.3376  -25.8791 C   0  0  0  0  0  0  0  0  0  0  0  0
    1.3290  -52.5382  -26.7130 C   0  0  0  0  0  0  0  0  0  0  0  0
    1.1828  -52.7442  -28.0857 C   0  0  0  0  0  0  0  0  0  0  0  0
   -0.0832  -52.7424  -28.6202 C   0  0  0  0  0  0  0  0  0  0  0  0
   -0.2372  -52.9380  -29.9464 F   0  0  0  0  0  0  0  0  0  0  0  0
   -1.1792  -52.5379  -27.7913 C   0  0  0  0  0  0  0  0  0  0  0  0
   -2.7895  -52.5365  -28.4582 Cl  0  0  0  0  0  0  0  0  0  0  0  0
   -1.0106  -52.3390  -26.4416 C   0  0  0  0  0  0  0  0  0  0  0  0
    0.6399  -50.3481  -19.7508 O   0  0  0  0  0  0  0  0  0  0  0  0
    1.5514  -49.5623  -19.2308 C   0  0  0  0  0  0  0  0  0  0  0  0
    1.2894  -49.2832  -17.7618 C   0  0  0  0  0  0  0  0  0  0  0  0
    2.1868  -50.0882  -16.8847 C   0  0  0  0  0  0  0  0  0  0  0  0
    1.4943  -50.8929  -15.8346 C   0  0  0  0  0  0  0  0  0  0  0  0
    1.5697  -50.2268  -14.4728 C   0  0  0  0  0  0  0  0  0  0  0  0
    1.9567  -51.1684  -13.3765 C   0  0  0  0  0  0  0  0  0  0  0  0
    3.3589  -51.6391  -13.6268 C   0  0  0  0  0  0  0  0  0  0  0  0
    4.3233  -50.8538  -13.7641 O   0  0  0  0  0  0  0  0  0  0  0  0
    3.5563  -53.0422  -13.7006 N   0  0  0  0  0  0  0  0  0  0  0  0
    4.7874  -53.5356  -13.9177 O   0  0  0  0  0  0  0  0  0  0  0  0
    2.7695  -53.6995  -13.5909 H   0  0  0  0  0  0  0  0  0  0  0  0
    5.4524  -52.8541  -13.5994 H   0  0  0  0  0  0  0  0  0  0  0  0
 11 12  1  0  0  0
 12  1  1  0  0  0
  1  2  2  0  0  0
  2  3  1  0  0  0
  3  4  2  0  0  0
  4  5  1  0  0  0
  5  6  2  0  0  0
  6  7  1  0  0  0
  7 13  1  0  0  0
 13 15  1  0  0  0
 15 16  2  0  0  0
 16 17  1  0  0  0
 17 18  2  0  0  0
 18 19  1  0  0  0
 18 20  1  0  0  0
 20 21  1  0  0  0
 20 22  2  0  0  0
  7  8  2  0  0  0
  8  9  1  0  0  0
  9 10  2  0  0  0
 10 23  1  0  0  0
 23 24  1  0  0  0
 24 25  1  0  0  0
 25 26  1  0  0  0
 26 27  1  0  0  0
 27 28  1  0  0  0
 28 29  1  0  0  0
 29 30  1  0  0  0
 30 31  2  0  0  0
 30 32  1  0  0  0
 32 33  1  0  0  0
 10  1  1  0  0  0
  8  3  1  0  0  0
 22 15  1  0  0  0
 13 14  1  0  0  0
 32 34  1  0  0  0
 33 35  1  0  0  0
M  END
> <minimizedAffinity>
-8.11366

> <CNNscore>
0.8993822336

> <CNNaffinity>
7.2971181870

> <CNN_VS>
6.5628986359

> <CNNaffinity_variance>
0.1183193773

$$$$
[H]ON([H])C(=O)C([H])([H])C([H])([H])C([H])([H])C([H])([H])C([H])([H])C([H])([H])Oc1c(OC([H])([H])[H])c([H])c2nc([H])nc(N([H])c3c([H])c([H])c(F)c(Cl)c3[H])c2c1[H]


 35 37  0  0  0  0  0  0  0  0999 V2000
   -0.1031  -52.2981  -19.4063 C   0  0  0  0  0  0  0  0  0  0  0  0
   -0.6426  -53.4271  -19.9540 C   0  0  0  0  0  0  0  0  0  0  0  0
   -0.6854  -53.6910  -21.2892 C   0  0  0  0  0  0  0  0  0  0  0  0
   -1.2226  -54.8214  -21.7857 N   0  0  0  0  0  0  0  0  0  0  0  0
   -1.2662  -55.0968  -23.0894 C   0  0  0  0  0  0  0  0  0  0  0  0
   -0.7558  -54.2156  -23.9582 N   0  0  0  0  0  0  0  0  0  0  0  0
   -0.1947  -53.0480  -23.5370 C   0  0  0  0  0  0  0  0  0  0  0  0
   -0.1440  -52.7542  -22.1836 C   0  0  0  0  0  0  0  0  0  0  0  0
    0.4019  -51.6146  -21.6501 C   0  0  0  0  0  0  0  0  0  0  0  0
    0.4503  -51.3348  -20.2762 C   0  0  0  0  0  0  0  0  0  0  0  0
   -1.0808  -52.5388  -17.2109 C   0  0  0  0  0  0  0  0  0  0  0  0
   -0.0629  -52.0357  -18.0455 O   0  0  0  0  0  0  0  0  0  0  0  0
    0.3010  -52.1039  -24.4590 N   0  0  0  0  0  0  0  0  0  0  0  0
    0.7759  -51.2180  -24.1310 H   0  0  0  0  0  0  0  0  0  0  0  0
    0.1648  -52.3274  -25.8610 C   0  0  0  0  0  0  0  0  0  0  0  0
    1.1709  -52.5869  -26.7423 C   0  0  0  0  0  0  0  0  0  0  0  0
    0.9460  -52.8237  -28.0994 C   0  0  0  0  0  0  0  0  0  0  0  0
   -0.3454  -52.7913  -28.5679 C   0  0  0  0  0  0  0  0  0  0  0  0
   -0.5753  -53.0160  -29.8784 F   0  0  0  0  0  0  0  0  0  0  0  0
   -1.3890  -52.5265  -27.6897 C   0  0  0  0  0  0  0  0  0  0  0  0
   -3.0310  -52.4858  -28.2726 Cl  0  0  0  0  0  0  0  0  0  0  0  0
   -1.1432  -52.2983  -26.3566 C   0  0  0  0  0  0  0  0  0  0  0  0
    0.9838  -50.2304  -19.8110 O   0  0  0  0  0  0  0  0  0  0  0  0
    1.9011  -49.3020  -19.6883 C   0  0  0  0  0  0  0  0  0  0  0  0
    3.2323  -49.8750  -19.2370 C   0  0  0  0  0  0  0  0  0  0  0  0
    3.9199  -48.9667  -18.2753 C   0  0  0  0  0  0  0  0  0  0  0  0
    3.2622  -47.6418  -18.0714 C   0  0  0  0  0  0  0  0  0  0  0  0
    3.1236  -47.3019  -16.5985 C   0  0  0  0  0  0  0  0  0  0  0  0
    2.8258  -48.4932  -15.7440 C   0  0  0  0  0  0  0  0  0  0  0  0
    1.3373  -48.6205  -15.6077 C   0  0  0  0  0  0  0  0  0  0  0  0
    0.7645  -49.7179  -15.4260 O   0  0  0  0  0  0  0  0  0  0  0  0
    0.5850  -47.4204  -15.6910 N   0  0  0  0  0  0  0  0  0  0  0  0
   -0.7531  -47.4583  -15.5727 O   0  0  0  0  0  0  0  0  0  0  0  0
    1.0451  -46.5101  -15.8422 H   0  0  0  0  0  0  0  0  0  0  0  0
   -0.9921  -48.2784  -15.0453 H   0  0  0  0  0  0  0  0  0  0  0  0
 11 12  1  0  0  0
 12  1  1  0  0  0
  1  2  2  0  0  0
  2  3  1  0  0  0
  3  4  2  0  0  0
  4  5  1  0  0  0
  5  6  2  0  0  0
  6  7  1  0  0  0
  7 13  1  0  0  0
 13 15  1  0  0  0
 15 16  2  0  0  0
 16 17  1  0  0  0
 17 18  2  0  0  0
 18 19  1  0  0  0
 18 20  1  0  0  0
 20 21  1  0  0  0
 20 22  2  0  0  0
  7  8  2  0  0  0
  8  9  1  0  0  0
  9 10  2  0  0  0
 10 23  1  0  0  0
 23 24  1  0  0  0
 24 25  1  0  0  0
 25 26  1  0  0  0
 26 27  1  0  0  0
 27 28  1  0  0  0
 28 29  1  0  0  0
 29 30  1  0  0  0
 30 31  2  0  0  0
 30 32  1  0  0  0
 32 33  1  0  0  0
 10  1  1  0  0  0
  8  3  1  0  0  0
 22 15  1  0  0  0
 13 14  1  0  0  0
 32 34  1  0  0  0
 33 35  1  0  0  0
M  END
> <minimizedAffinity>
-7.39671

> <CNNscore>
0.8564821482

> <CNNaffinity>
7.3114433289

> <CNN_VS>
6.2621207237

> <CNNaffinity_variance>
0.1384691000

$$$$
[H]ON([H])C(=O)C([H])([H])C([H])([H])C([H])([H])C([H])([H])C([H])([H])C([H])([H])Oc1c(OC([H])([H])[H])c([H])c2nc([H])nc(N([H])c3c([H])c([H])c(F)c(Cl)c3[H])c2c1[H]


 35 37  0  0  0  0  0  0  0  0999 V2000
   -0.3112  -52.2032  -19.4573 C   0  0  0  0  0  0  0  0  0  0  0  0
   -0.8407  -53.3625  -19.9488 C   0  0  0  0  0  0  0  0  0  0  0  0
   -0.8667  -53.6992  -21.2680 C   0  0  0  0  0  0  0  0  0  0  0  0
   -1.3944  -54.8569  -21.7082 N   0  0  0  0  0  0  0  0  0  0  0  0
   -1.4216  -55.2033  -22.9953 C   0  0  0  0  0  0  0  0  0  0  0  0
   -0.9036  -54.3690  -23.9049 N   0  0  0  0  0  0  0  0  0  0  0  0
   -0.3512  -53.1780  -23.5416 C   0  0  0  0  0  0  0  0  0  0  0  0
   -0.3176  -52.8105  -22.2059 C   0  0  0  0  0  0  0  0  0  0  0  0
    0.2184  -51.6414  -21.7290 C   0  0  0  0  0  0  0  0  0  0  0  0
    0.2495  -51.2869  -20.3721 C   0  0  0  0  0  0  0  0  0  0  0  0
   -1.1334  -52.5455  -17.2122 C   0  0  0  0  0  0  0  0  0  0  0  0
   -0.2881  -51.8668  -18.1126 O   0  0  0  0  0  0  0  0  0  0  0  0
    0.1525  -52.2839  -24.5080 N   0  0  0  0  0  0  0  0  0  0  0  0
    0.7282  -51.4430  -24.2261 H   0  0  0  0  0  0  0  0  0  0  0  0
   -0.1122  -52.4974  -25.8931 C   0  0  0  0  0  0  0  0  0  0  0  0
   -1.2679  -52.2045  -26.5524 C   0  0  0  0  0  0  0  0  0  0  0  0
   -1.4335  -52.4195  -27.9216 C   0  0  0  0  0  0  0  0  0  0  0  0
   -0.3870  -52.9518  -28.6355 C   0  0  0  0  0  0  0  0  0  0  0  0
   -0.5359  -53.1667  -29.9593 F   0  0  0  0  0  0  0  0  0  0  0  0
    0.8015  -53.2613  -27.9859 C   0  0  0  0  0  0  0  0  0  0  0  0
    2.1363  -53.9342  -28.8821 Cl  0  0  0  0  0  0  0  0  0  0  0  0
    0.9421  -53.0388  -26.6366 C   0  0  0  0  0  0  0  0  0  0  0  0
    0.7740  -50.1567  -19.9617 O   0  0  0  0  0  0  0  0  0  0  0  0
    1.7281  -49.2785  -19.7694 C   0  0  0  0  0  0  0  0  0  0  0  0
    3.0963  -49.9324  -19.6998 C   0  0  0  0  0  0  0  0  0  0  0  0
    3.6088  -50.2720  -21.0579 C   0  0  0  0  0  0  0  0  0  0  0  0
    3.4120  -49.2150  -22.0941 C   0  0  0  0  0  0  0  0  0  0  0  0
    2.5539  -49.7069  -23.2455 C   0  0  0  0  0  0  0  0  0  0  0  0
    3.3184  -49.8763  -24.5202 C   0  0  0  0  0  0  0  0  0  0  0  0
    3.9872  -51.2189  -24.4989 C   0  0  0  0  0  0  0  0  0  0  0  0
    3.3795  -52.2746  -24.2130 O   0  0  0  0  0  0  0  0  0  0  0  0
    5.3675  -51.2483  -24.8262 N   0  0  0  0  0  0  0  0  0  0  0  0
    6.0304  -52.4173  -24.8320 O   0  0  0  0  0  0  0  0  0  0  0  0
    5.8798  -50.3851  -25.0618 H   0  0  0  0  0  0  0  0  0  0  0  0
    5.3621  -53.1491  -24.9926 H   0  0  0  0  0  0  0  0  0  0  0  0
 11 12  1  0  0  0
 12  1  1  0  0  0
  1  2  2  0  0  0
  2  3  1  0  0  0
  3  4  2  0  0  0
  4  5  1  0  0  0
  5  6  2  0  0  0
  6  7  1  0  0  0
  7 13  1  0  0  0
 13 15  1  0  0  0
 15 16  2  0  0  0
 16 17  1  0  0  0
 17 18  2  0  0  0
 18 19  1  0  0  0
 18 20  1  0  0  0
 20 21  1  0  0  0
 20 22  2  0  0  0
  7  8  2  0  0  0
  8  9  1  0  0  0
  9 10  2  0  0  0
 10 23  1  0  0  0
 23 24  1  0  0  0
 24 25  1  0  0  0
 25 26  1  0  0  0
 26 27  1  0  0  0
 27 28  1  0  0  0
 28 29  1  0  0  0
 29 30  1  0  0  0
 30 31  2  0  0  0
 30 32  1  0  0  0
 32 33  1  0  0  0
 10  1  1  0  0  0
  8  3  1  0  0  0
 22 15  1  0  0  0
 13 14  1  0  0  0
 32 34  1  0  0  0
 33 35  1  0  0  0
M  END
> <minimizedAffinity>
-7.84523

> <CNNscore>
0.7836979032

> <CNNaffinity>
7.3943924904

> <CNN_VS>
5.7949700356

> <CNNaffinity_variance>
0.2288760841

$$$$
[H]ON([H])C(=O)C([H])([H])C([H])([H])C([H])([H])C([H])([H])C([H])([H])C([H])([H])Oc1c(OC([H])([H])[H])c([H])c2nc([H])nc(N([H])c3c([H])c([H])c(F)c(Cl)c3[H])c2c1[H]


 35 37  0  0  0  0  0  0  0  0999 V2000
   -0.0791  -51.8006  -19.1497 C   0  0  0  0  0  0  0  0  0  0  0  0
   -0.6282  -52.9813  -19.5626 C   0  0  0  0  0  0  0  0  0  0  0  0
   -0.6989  -53.3857  -20.8609 C   0  0  0  0  0  0  0  0  0  0  0  0
   -1.2445  -54.5622  -21.2228 N   0  0  0  0  0  0  0  0  0  0  0  0
   -1.3153  -54.9747  -22.4885 C   0  0  0  0  0  0  0  0  0  0  0  0
   -0.8251  -54.1911  -23.4568 N   0  0  0  0  0  0  0  0  0  0  0  0
   -0.2574  -52.9856  -23.1743 C   0  0  0  0  0  0  0  0  0  0  0  0
   -0.1784  -52.5495  -21.8612 C   0  0  0  0  0  0  0  0  0  0  0  0
    0.3766  -51.3599  -21.4637 C   0  0  0  0  0  0  0  0  0  0  0  0
    0.4538  -50.9356  -20.1287 C   0  0  0  0  0  0  0  0  0  0  0  0
   -0.7183  -52.1136  -16.8416 C   0  0  0  0  0  0  0  0  0  0  0  0
   -0.0105  -51.3950  -17.8257 O   0  0  0  0  0  0  0  0  0  0  0  0
    0.2169  -52.1452  -24.2019 N   0  0  0  0  0  0  0  0  0  0  0  0
    0.8504  -51.3261  -23.9883 H   0  0  0  0  0  0  0  0  0  0  0  0
   -0.1569  -52.3847  -25.5573 C   0  0  0  0  0  0  0  0  0  0  0  0
   -1.3643  -52.1108  -26.1260 C   0  0  0  0  0  0  0  0  0  0  0  0
   -1.6381  -52.3508  -27.4735 C   0  0  0  0  0  0  0  0  0  0  0  0
   -0.6483  -52.8888  -28.2604 C   0  0  0  0  0  0  0  0  0  0  0  0
   -0.9018  -53.1277  -29.5640 F   0  0  0  0  0  0  0  0  0  0  0  0
    0.5911  -53.1791  -27.7037 C   0  0  0  0  0  0  0  0  0  0  0  0
    1.8545  -53.8591  -28.6933 Cl  0  0  0  0  0  0  0  0  0  0  0  0
    0.8382  -52.9322  -26.3742 C   0  0  0  0  0  0  0  0  0  0  0  0
    0.9951  -49.7883  -19.7952 O   0  0  0  0  0  0  0  0  0  0  0  0
    1.9731  -48.9424  -19.5793 C   0  0  0  0  0  0  0  0  0  0  0  0
    2.2348  -48.0573  -20.7844 C   0  0  0  0  0  0  0  0  0  0  0  0
    3.6666  -47.6492  -20.8614 C   0  0  0  0  0  0  0  0  0  0  0  0
    4.3731  -48.0432  -22.1165 C   0  0  0  0  0  0  0  0  0  0  0  0
    3.4099  -48.2058  -23.2784 C   0  0  0  0  0  0  0  0  0  0  0  0
    3.8972  -47.5694  -24.5416 C   0  0  0  0  0  0  0  0  0  0  0  0
    3.6065  -46.0992  -24.4763 C   0  0  0  0  0  0  0  0  0  0  0  0
    4.5060  -45.2295  -24.4778 O   0  0  0  0  0  0  0  0  0  0  0  0
    2.2400  -45.7221  -24.4145 N   0  0  0  0  0  0  0  0  0  0  0  0
    1.9052  -44.4218  -24.3589 O   0  0  0  0  0  0  0  0  0  0  0  0
    1.4897  -46.4292  -24.4108 H   0  0  0  0  0  0  0  0  0  0  0  0
    2.6532  -43.8936  -24.7706 H   0  0  0  0  0  0  0  0  0  0  0  0
 11 12  1  0  0  0
 12  1  1  0  0  0
  1  2  2  0  0  0
  2  3  1  0  0  0
  3  4  2  0  0  0
  4  5  1  0  0  0
  5  6  2  0  0  0
  6  7  1  0  0  0
  7 13  1  0  0  0
 13 15  1  0  0  0
 15 16  2  0  0  0
 16 17  1  0  0  0
 17 18  2  0  0  0
 18 19  1  0  0  0
 18 20  1  0  0  0
 20 21  1  0  0  0
 20 22  2  0  0  0
  7  8  2  0  0  0
  8  9  1  0  0  0
  9 10  2  0  0  0
 10 23  1  0  0  0
 23 24  1  0  0  0
 24 25  1  0  0  0
 25 26  1  0  0  0
 26 27  1  0  0  0
 27 28  1  0  0  0
 28 29  1  0  0  0
 29 30  1  0  0  0
 30 31  2  0  0  0
 30 32  1  0  0  0
 32 33  1  0  0  0
 10  1  1  0  0  0
  8  3  1  0  0  0
 22 15  1  0  0  0
 13 14  1  0  0  0
 32 34  1  0  0  0
 33 35  1  0  0  0
M  END
> <minimizedAffinity>
-7.39806

> <CNNscore>
0.7051550746

> <CNNaffinity>
7.4334464073

> <CNN_VS>
5.2417325974

> <CNNaffinity_variance>
0.2290120423

$$$$
[H]ON([H])C(=O)C([H])([H])C([H])([H])C([H])([H])C([H])([H])C([H])([H])C([H])([H])Oc1c(OC([H])([H])[H])c([H])c2nc([H])nc(N([H])c3c([H])c([H])c(F)c(Cl)c3[H])c2c1[H]


 35 37  0  0  0  0  0  0  0  0999 V2000
   -0.5636  -52.6292  -19.1867 C   0  0  0  0  0  0  0  0  0  0  0  0
   -1.0534  -53.6994  -19.8798 C   0  0  0  0  0  0  0  0  0  0  0  0
   -0.9636  -53.8493  -21.2303 C   0  0  0  0  0  0  0  0  0  0  0  0
   -1.4562  -54.9252  -21.8725 N   0  0  0  0  0  0  0  0  0  0  0  0
   -1.3703  -55.0892  -23.1928 C   0  0  0  0  0  0  0  0  0  0  0  0
   -0.7688  -54.1460  -23.9280 N   0  0  0  0  0  0  0  0  0  0  0  0
   -0.2446  -53.0270  -23.3548 C   0  0  0  0  0  0  0  0  0  0  0  0
   -0.3283  -52.8490  -21.9830 C   0  0  0  0  0  0  0  0  0  0  0  0
    0.1694  -51.7671  -21.3025 C   0  0  0  0  0  0  0  0  0  0  0  0
    0.0814  -51.6049  -19.9118 C   0  0  0  0  0  0  0  0  0  0  0  0
   -1.9014  -52.6787  -17.1763 C   0  0  0  0  0  0  0  0  0  0  0  0
   -0.6587  -52.4830  -17.8113 O   0  0  0  0  0  0  0  0  0  0  0  0
    0.3481  -52.0166  -24.1390 N   0  0  0  0  0  0  0  0  0  0  0  0
    0.2758  -50.9985  -23.8629 H   0  0  0  0  0  0  0  0  0  0  0  0
    1.0568  -52.3528  -25.3301 C   0  0  0  0  0  0  0  0  0  0  0  0
    2.3738  -52.6892  -25.4225 C   0  0  0  0  0  0  0  0  0  0  0  0
    2.9839  -53.0345  -26.6295 C   0  0  0  0  0  0  0  0  0  0  0  0
    2.2244  -53.0330  -27.7748 C   0  0  0  0  0  0  0  0  0  0  0  0
    2.8036  -53.3626  -28.9482 F   0  0  0  0  0  0  0  0  0  0  0  0
    0.8794  -52.6915  -27.7075 C   0  0  0  0  0  0  0  0  0  0  0  0
   -0.0937  -52.6890  -29.1534 Cl  0  0  0  0  0  0  0  0  0  0  0  0
    0.2999  -52.3567  -26.5067 C   0  0  0  0  0  0  0  0  0  0  0  0
    0.5733  -50.5521  -19.3032 O   0  0  0  0  0  0  0  0  0  0  0  0
    1.4809  -49.8488  -18.6706 C   0  0  0  0  0  0  0  0  0  0  0  0
    1.0057  -49.4131  -17.2963 C   0  0  0  0  0  0  0  0  0  0  0  0
    1.9009  -49.9273  -16.2208 C   0  0  0  0  0  0  0  0  0  0  0  0
    1.2778  -50.9205  -15.2962 C   0  0  0  0  0  0  0  0  0  0  0  0
    1.3976  -50.4922  -13.8449 C   0  0  0  0  0  0  0  0  0  0  0  0
    1.7004  -49.0361  -13.6829 C   0  0  0  0  0  0  0  0  0  0  0  0
    0.4121  -48.3063  -13.4426 C   0  0  0  0  0  0  0  0  0  0  0  0
   -0.5093  -48.7721  -12.7358 O   0  0  0  0  0  0  0  0  0  0  0  0
    0.2752  -47.0356  -14.0588 N   0  0  0  0  0  0  0  0  0  0  0  0
   -0.8505  -46.3230  -13.8830 O   0  0  0  0  0  0  0  0  0  0  0  0
    1.0265  -46.6417  -14.6449 H   0  0  0  0  0  0  0  0  0  0  0  0
   -1.2686  -46.6165  -13.0187 H   0  0  0  0  0  0  0  0  0  0  0  0
 11 12  1  0  0  0
 12  1  1  0  0  0
  1  2  2  0  0  0
  2  3  1  0  0  0
  3  4  2  0  0  0
  4  5  1  0  0  0
  5  6  2  0  0  0
  6  7  1  0  0  0
  7 13  1  0  0  0
 13 15  1  0  0  0
 15 16  2  0  0  0
 16 17  1  0  0  0
 17 18  2  0  0  0
 18 19  1  0  0  0
 18 20  1  0  0  0
 20 21  1  0  0  0
 20 22  2  0  0  0
  7  8  2  0  0  0
  8  9  1  0  0  0
  9 10  2  0  0  0
 10 23  1  0  0  0
 23 24  1  0  0  0
 24 25  1  0  0  0
 25 26  1  0  0  0
 26 27  1  0  0  0
 27 28  1  0  0  0
 28 29  1  0  0  0
 29 30  1  0  0  0
 30 31  2  0  0  0
 30 32  1  0  0  0
 32 33  1  0  0  0
 10  1  1  0  0  0
  8  3  1  0  0  0
 22 15  1  0  0  0
 13 14  1  0  0  0
 32 34  1  0  0  0
 33 35  1  0  0  0
M  END
> <minimizedAffinity>
-6.48094

> <CNNscore>
0.7005268931

> <CNNaffinity>
6.9953737259

> <CNN_VS>
4.9004473686

> <CNNaffinity_variance>
0.1374870986

$$$$
[H]ON([H])C(=O)C([H])([H])C([H])([H])C([H])([H])C([H])([H])C([H])([H])C([H])([H])Oc1c(OC([H])([H])[H])c([H])c2nc([H])nc(N([H])c3c([H])c([H])c(F)c(Cl)c3[H])c2c1[H]


 35 37  0  0  0  0  0  0  0  0999 V2000
   -0.0350  -51.6143  -19.2832 C   0  0  0  0  0  0  0  0  0  0  0  0
   -0.5511  -52.8240  -19.6517 C   0  0  0  0  0  0  0  0  0  0  0  0
   -0.6279  -53.2698  -20.9361 C   0  0  0  0  0  0  0  0  0  0  0  0
   -1.1400  -54.4738  -21.2539 N   0  0  0  0  0  0  0  0  0  0  0  0
   -1.2161  -54.9267  -22.5055 C   0  0  0  0  0  0  0  0  0  0  0  0
   -0.7664  -54.1575  -23.5045 N   0  0  0  0  0  0  0  0  0  0  0  0
   -0.2343  -52.9262  -23.2671 C   0  0  0  0  0  0  0  0  0  0  0  0
   -0.1502  -52.4480  -21.9692 C   0  0  0  0  0  0  0  0  0  0  0  0
    0.3715  -51.2295  -21.6163 C   0  0  0  0  0  0  0  0  0  0  0  0
    0.4546  -50.7626  -20.2960 C   0  0  0  0  0  0  0  0  0  0  0  0
    1.2926  -51.1075  -17.3301 C   0  0  0  0  0  0  0  0  0  0  0  0
    0.0400  -51.1666  -17.9731 O   0  0  0  0  0  0  0  0  0  0  0  0
    0.1967  -52.1025  -24.3269 N   0  0  0  0  0  0  0  0  0  0  0  0
    0.8130  -51.2620  -24.1489 H   0  0  0  0  0  0  0  0  0  0  0  0
   -0.1985  -52.3885  -25.6670 C   0  0  0  0  0  0  0  0  0  0  0  0
   -1.4144  -52.1328  -26.2260 C   0  0  0  0  0  0  0  0  0  0  0  0
   -1.7095  -52.4192  -27.5599 C   0  0  0  0  0  0  0  0  0  0  0  0
   -0.7327  -52.9858  -28.3429 C   0  0  0  0  0  0  0  0  0  0  0  0
   -1.0068  -53.2696  -29.6333 F   0  0  0  0  0  0  0  0  0  0  0  0
    0.5150  -53.2584  -27.7959 C   0  0  0  0  0  0  0  0  0  0  0  0
    1.7621  -53.9743  -28.7808 Cl  0  0  0  0  0  0  0  0  0  0  0  0
    0.7831  -52.9657  -26.4798 C   0  0  0  0  0  0  0  0  0  0  0  0
    0.9628  -49.5887  -20.0055 O   0  0  0  0  0  0  0  0  0  0  0  0
    1.6358  -48.4860  -20.2282 C   0  0  0  0  0  0  0  0  0  0  0  0
    3.0010  -48.5101  -19.5649 C   0  0  0  0  0  0  0  0  0  0  0  0
    3.9678  -47.6232  -20.2729 C   0  0  0  0  0  0  0  0  0  0  0  0
    4.9545  -48.3269  -21.1453 C   0  0  0  0  0  0  0  0  0  0  0  0
    5.5522  -49.5399  -20.4557 C   0  0  0  0  0  0  0  0  0  0  0  0
    5.8619  -50.6604  -21.3974 C   0  0  0  0  0  0  0  0  0  0  0  0
    4.5836  -51.3743  -21.7238 C   0  0  0  0  0  0  0  0  0  0  0  0
    3.7633  -51.7304  -20.8487 O   0  0  0  0  0  0  0  0  0  0  0  0
    4.3315  -51.6341  -23.0957 N   0  0  0  0  0  0  0  0  0  0  0  0
    3.2033  -52.2658  -23.4622 O   0  0  0  0  0  0  0  0  0  0  0  0
    5.0003  -51.3473  -23.8261 H   0  0  0  0  0  0  0  0  0  0  0  0
    2.5162  -52.1076  -22.7475 H   0  0  0  0  0  0  0  0  0  0  0  0
 11 12  1  0  0  0
 12  1  1  0  0  0
  1  2  2  0  0  0
  2  3  1  0  0  0
  3  4  2  0  0  0
  4  5  1  0  0  0
  5  6  2  0  0  0
  6  7  1  0  0  0
  7 13  1  0  0  0
 13 15  1  0  0  0
 15 16  2  0  0  0
 16 17  1  0  0  0
 17 18  2  0  0  0
 18 19  1  0  0  0
 18 20  1  0  0  0
 20 21  1  0  0  0
 20 22  2  0  0  0
  7  8  2  0  0  0
  8  9  1  0  0  0
  9 10  2  0  0  0
 10 23  1  0  0  0
 23 24  1  0  0  0
 24 25  1  0  0  0
 25 26  1  0  0  0
 26 27  1  0  0  0
 27 28  1  0  0  0
 28 29  1  0  0  0
 29 30  1  0  0  0
 30 31  2  0  0  0
 30 32  1  0  0  0
 32 33  1  0  0  0
 10  1  1  0  0  0
  8  3  1  0  0  0
 22 15  1  0  0  0
 13 14  1  0  0  0
 32 34  1  0  0  0
 33 35  1  0  0  0
M  END
> <minimizedAffinity>
-7.19623

> <CNNscore>
0.6075290442

> <CNNaffinity>
7.0701866150

> <CNN_VS>
4.2953438759

> <CNNaffinity_variance>
0.1728123873

$$$$
