[H]/C(C(=O)N([H])c1c(OC([H])([H])C([H])([H])[H])c([H])c2nc([H])c(C#N)c(N([H])c3c([H])c([H])c(OC([H])([H])c4c([H])c([H])c([H])c([H])c4[H])c(Cl)c3[H])c2c1[H])=C(/[H])C([H])([H])N(C([H])([H])[H])C([H])([H])[H]


 42 45  0  0  0  0  0  0  0  0999 V2000
   -0.3859  -52.9124  -19.3298 C   0  0  0  0  0  0  0  0  0  0  0  0
   -0.8227  -53.9589  -20.1202 C   0  0  0  0  0  0  0  0  0  0  0  0
   -0.7437  -53.9228  -21.4958 C   0  0  0  0  0  0  0  0  0  0  0  0
   -1.1730  -54.9518  -22.2645 N   0  0  0  0  0  0  0  0  0  0  0  0
   -1.0876  -54.9023  -23.6188 C   0  0  0  0  0  0  0  0  0  0  0  0
   -0.5576  -53.7962  -24.2678 C   0  0  0  0  0  0  0  0  0  0  0  0
   -0.1285  -52.7629  -23.4597 C   0  0  0  0  0  0  0  0  0  0  0  0
   -0.2124  -52.8071  -22.0849 C   0  0  0  0  0  0  0  0  0  0  0  0
    0.2277  -51.7535  -21.2898 C   0  0  0  0  0  0  0  0  0  0  0  0
    0.1663  -51.7511  -19.9240 C   0  0  0  0  0  0  0  0  0  0  0  0
    0.5914  -50.7136  -19.0619 N   0  0  0  0  0  0  0  0  0  0  0  0
    1.8292  -50.5737  -18.4427 C   0  0  0  0  0  0  0  0  0  0  0  0
    2.7410  -51.4127  -18.6024 O   0  0  0  0  0  0  0  0  0  0  0  0
   -0.1058  -49.9234  -18.8410 H   0  0  0  0  0  0  0  0  0  0  0  0
    2.1521  -49.4489  -17.5702 C   0  0  0  0  0  0  0  0  0  0  0  0
    2.8061  -48.3673  -17.9223 C   0  0  0  0  0  0  0  0  0  0  0  0
    3.1331  -47.2345  -17.0471 C   0  0  0  0  0  0  0  0  0  0  0  0
    2.9481  -47.3804  -15.6651 N   0  0  0  0  0  0  0  0  0  0  0  0
    1.8607  -46.6785  -15.0914 C   0  0  0  0  0  0  0  0  0  0  0  0
    4.0656  -47.6528  -14.8438 C   0  0  0  0  0  0  0  0  0  0  0  0
   -0.4641  -53.7373  -25.7035 C   0  0  0  0  0  0  0  0  0  0  0  0
   -0.3748  -53.7048  -26.8576 N   0  0  0  0  0  0  0  0  0  0  0  0
    0.4279  -51.5929  -24.0319 N   0  0  0  0  0  0  0  0  0  0  0  0
   -0.1653  -51.0034  -24.6252 H   0  0  0  0  0  0  0  0  0  0  0  0
    1.7816  -51.2734  -23.7683 C   0  0  0  0  0  0  0  0  0  0  0  0
    2.1725  -50.0342  -23.3549 C   0  0  0  0  0  0  0  0  0  0  0  0
    3.5100  -49.7289  -23.0936 C   0  0  0  0  0  0  0  0  0  0  0  0
    4.4608  -50.7037  -23.2574 C   0  0  0  0  0  0  0  0  0  0  0  0
    4.0538  -51.9588  -23.6776 C   0  0  0  0  0  0  0  0  0  0  0  0
    5.2476  -53.2335  -23.8988 Cl  0  0  0  0  0  0  0  0  0  0  0  0
    2.7421  -52.2520  -23.9319 C   0  0  0  0  0  0  0  0  0  0  0  0
    5.8021  -50.4688  -23.0157 O   0  0  0  0  0  0  0  0  0  0  0  0
    6.6547  -50.1456  -24.0914 C   0  0  0  0  0  0  0  0  0  0  0  0
    6.4480  -48.7489  -24.5246 C   0  0  0  0  0  0  0  0  0  0  0  0
    6.7609  -47.7249  -23.6892 C   0  0  0  0  0  0  0  0  0  0  0  0
    6.5633  -46.4222  -24.1114 C   0  0  0  0  0  0  0  0  0  0  0  0
    6.0473  -46.1919  -25.3854 C   0  0  0  0  0  0  0  0  0  0  0  0
    5.7259  -47.2080  -26.2419 C   0  0  0  0  0  0  0  0  0  0  0  0
    5.9411  -48.5037  -25.7753 C   0  0  0  0  0  0  0  0  0  0  0  0
   -0.4572  -52.9364  -17.9680 O   0  0  0  0  0  0  0  0  0  0  0  0
   -1.6105  -51.6046  -16.2697 C   0  0  0  0  0  0  0  0  0  0  0  0
   -1.6116  -52.7651  -17.2378 C   0  0  0  0  0  0  0  0  0  0  0  0
 41 42  1  0  0  0
 42 40  1  0  0  0
 40  1  1  0  0  0
  1  2  2  0  0  0
  2  3  1  0  0  0
  3  4  2  0  0  0
  4  5  1  0  0  0
  5  6  2  0  0  0
  6 21  1  0  0  0
 21 22  3  0  0  0
  6  7  1  0  0  0
  7 23  1  0  0  0
 23 25  1  0  0  0
 25 26  2  0  0  0
 26 27  1  0  0  0
 27 28  2  0  0  0
 28 32  1  0  0  0
 32 33  1  0  0  0
 33 34  1  0  0  0
 34 35  2  0  0  0
 35 36  1  0  0  0
 36 37  2  0  0  0
 37 38  1  0  0  0
 38 39  2  0  0  0
 28 29  1  0  0  0
 29 30  1  0  0  0
 29 31  2  0  0  0
  7  8  2  0  0  0
  8  9  1  0  0  0
  9 10  2  0  0  0
 10 11  1  0  0  0
 11 12  1  0  0  0
 12 13  2  0  0  0
 12 15  1  0  0  0
 15 16  2  0  0  0
 16 17  1  0  0  0
 17 18  1  0  0  0
 18 19  1  0  0  0
 18 20  1  0  0  0
 10  1  1  0  0  0
  8  3  1  0  0  0
 31 25  1  0  0  0
 39 34  1  0  0  0
 23 24  1  0  0  0
 11 14  1  0  0  0
M  END
> <minimizedAffinity>
-6.89401

> <CNNscore>
0.6499130726

> <CNNaffinity>
7.6969881058

> <CNN_VS>
5.0023732185

> <CNNaffinity_variance>
0.1138077229

$$$$
[H]/C(C(=O)N([H])c1c(OC([H])([H])C([H])([H])[H])c([H])c2nc([H])c(C#N)c(N([H])c3c([H])c([H])c(OC([H])([H])c4c([H])c([H])c([H])c([H])c4[H])c(Cl)c3[H])c2c1[H])=C(/[H])C([H])([H])N(C([H])([H])[H])C([H])([H])[H]


 42 45  0  0  0  0  0  0  0  0999 V2000
   -0.5649  -52.8677  -19.3457 C   0  0  0  0  0  0  0  0  0  0  0  0
   -0.9369  -53.9469  -20.1251 C   0  0  0  0  0  0  0  0  0  0  0  0
   -0.8036  -53.9425  -21.4970 C   0  0  0  0  0  0  0  0  0  0  0  0
   -1.1695  -55.0034  -22.2550 N   0  0  0  0  0  0  0  0  0  0  0  0
   -1.0311  -54.9849  -23.6056 C   0  0  0  0  0  0  0  0  0  0  0  0
   -0.5097  -53.8790  -24.2618 C   0  0  0  0  0  0  0  0  0  0  0  0
   -0.1457  -52.8127  -23.4646 C   0  0  0  0  0  0  0  0  0  0  0  0
   -0.2836  -52.8254  -22.0935 C   0  0  0  0  0  0  0  0  0  0  0  0
    0.0912  -51.7389  -21.3094 C   0  0  0  0  0  0  0  0  0  0  0  0
   -0.0253  -51.7045  -19.9476 C   0  0  0  0  0  0  0  0  0  0  0  0
    0.3324  -50.6329  -19.0967 N   0  0  0  0  0  0  0  0  0  0  0  0
    1.5451  -50.4295  -18.4463 C   0  0  0  0  0  0  0  0  0  0  0  0
    2.4943  -51.2335  -18.5620 O   0  0  0  0  0  0  0  0  0  0  0  0
   -0.4023  -49.8675  -18.9128 H   0  0  0  0  0  0  0  0  0  0  0  0
    1.7969  -49.2747  -17.5898 C   0  0  0  0  0  0  0  0  0  0  0  0
    1.3328  -49.1046  -16.3744 C   0  0  0  0  0  0  0  0  0  0  0  0
    1.5836  -47.9440  -15.5105 C   0  0  0  0  0  0  0  0  0  0  0  0
    0.4879  -47.2995  -14.9194 N   0  0  0  0  0  0  0  0  0  0  0  0
   -0.7936  -47.8238  -15.2148 C   0  0  0  0  0  0  0  0  0  0  0  0
    0.5828  -45.9250  -14.6045 C   0  0  0  0  0  0  0  0  0  0  0  0
   -0.3602  -53.8527  -25.6938 C   0  0  0  0  0  0  0  0  0  0  0  0
   -0.2525  -53.8479  -26.8467 N   0  0  0  0  0  0  0  0  0  0  0  0
    0.3969  -51.6401  -24.0447 N   0  0  0  0  0  0  0  0  0  0  0  0
   -0.1897  -51.0848  -24.6763 H   0  0  0  0  0  0  0  0  0  0  0  0
    1.7283  -51.2711  -23.7360 C   0  0  0  0  0  0  0  0  0  0  0  0
    2.0549  -50.0274  -23.2821 C   0  0  0  0  0  0  0  0  0  0  0  0
    3.3708  -49.6731  -22.9764 C   0  0  0  0  0  0  0  0  0  0  0  0
    4.3663  -50.6028  -23.1372 C   0  0  0  0  0  0  0  0  0  0  0  0
    4.0243  -51.8628  -23.5989 C   0  0  0  0  0  0  0  0  0  0  0  0
    5.2768  -53.0804  -23.8175 Cl  0  0  0  0  0  0  0  0  0  0  0  0
    2.7336  -52.2041  -23.8965 C   0  0  0  0  0  0  0  0  0  0  0  0
    5.6894  -50.3181  -22.8527 O   0  0  0  0  0  0  0  0  0  0  0  0
    6.1717  -50.5008  -21.5402 C   0  0  0  0  0  0  0  0  0  0  0  0
    5.9783  -49.2785  -20.7344 C   0  0  0  0  0  0  0  0  0  0  0  0
    5.2670  -49.3319  -19.5786 C   0  0  0  0  0  0  0  0  0  0  0  0
    5.0971  -48.1781  -18.8342 C   0  0  0  0  0  0  0  0  0  0  0  0
    5.6607  -46.9873  -19.2889 C   0  0  0  0  0  0  0  0  0  0  0  0
    6.3802  -46.9116  -20.4491 C   0  0  0  0  0  0  0  0  0  0  0  0
    6.5260  -48.0977  -21.1667 C   0  0  0  0  0  0  0  0  0  0  0  0
   -0.6904  -52.8601  -17.9876 O   0  0  0  0  0  0  0  0  0  0  0  0
   -1.9655  -51.7880  -16.1953 C   0  0  0  0  0  0  0  0  0  0  0  0
   -1.8867  -52.8069  -17.3086 C   0  0  0  0  0  0  0  0  0  0  0  0
 41 42  1  0  0  0
 42 40  1  0  0  0
 40  1  1  0  0  0
  1  2  2  0  0  0
  2  3  1  0  0  0
  3  4  2  0  0  0
  4  5  1  0  0  0
  5  6  2  0  0  0
  6 21  1  0  0  0
 21 22  3  0  0  0
  6  7  1  0  0  0
  7 23  1  0  0  0
 23 25  1  0  0  0
 25 26  2  0  0  0
 26 27  1  0  0  0
 27 28  2  0  0  0
 28 32  1  0  0  0
 32 33  1  0  0  0
 33 34  1  0  0  0
 34 35  2  0  0  0
 35 36  1  0  0  0
 36 37  2  0  0  0
 37 38  1  0  0  0
 38 39  2  0  0  0
 28 29  1  0  0  0
 29 30  1  0  0  0
 29 31  2  0  0  0
  7  8  2  0  0  0
  8  9  1  0  0  0
  9 10  2  0  0  0
 10 11  1  0  0  0
 11 12  1  0  0  0
 12 13  2  0  0  0
 12 15  1  0  0  0
 15 16  2  0  0  0
 16 17  1  0  0  0
 17 18  1  0  0  0
 18 19  1  0  0  0
 18 20  1  0  0  0
 10  1  1  0  0  0
  8  3  1  0  0  0
 31 25  1  0  0  0
 39 34  1  0  0  0
 23 24  1  0  0  0
 11 14  1  0  0  0
M  END
> <minimizedAffinity>
-7.18485

> <CNNscore>
0.6482564211

> <CNNaffinity>
7.5589513779

> <CNN_VS>
4.9001388550

> <CNNaffinity_variance>
0.1290211380

$$$$
[H]/C(C(=O)N([H])c1c(OC([H])([H])C([H])([H])[H])c([H])c2nc([H])c(C#N)c(N([H])c3c([H])c([H])c(OC([H])([H])c4c([H])c([H])c([H])c([H])c4[H])c(Cl)c3[H])c2c1[H])=C(/[H])C([H])([H])N(C([H])([H])[H])C([H])([H])[H]


 42 45  0  0  0  0  0  0  0  0999 V2000
   -0.3082  -52.8248  -19.6999 C   0  0  0  0  0  0  0  0  0  0  0  0
   -0.6491  -53.9455  -20.4335 C   0  0  0  0  0  0  0  0  0  0  0  0
   -0.6071  -53.9622  -21.8111 C   0  0  0  0  0  0  0  0  0  0  0  0
   -0.9419  -55.0638  -22.5241 N   0  0  0  0  0  0  0  0  0  0  0  0
   -0.8944  -55.0655  -23.8811 C   0  0  0  0  0  0  0  0  0  0  0  0
   -0.5014  -53.9394  -24.5901 C   0  0  0  0  0  0  0  0  0  0  0  0
   -0.1662  -52.8317  -23.8381 C   0  0  0  0  0  0  0  0  0  0  0  0
   -0.2123  -52.8237  -22.4607 C   0  0  0  0  0  0  0  0  0  0  0  0
    0.1313  -51.6953  -21.7228 C   0  0  0  0  0  0  0  0  0  0  0  0
    0.1024  -51.6390  -20.3571 C   0  0  0  0  0  0  0  0  0  0  0  0
    0.4344  -50.5252  -19.5511 N   0  0  0  0  0  0  0  0  0  0  0  0
    1.6870  -50.1719  -19.0599 C   0  0  0  0  0  0  0  0  0  0  0  0
    2.7035  -50.8566  -19.3024 O   0  0  0  0  0  0  0  0  0  0  0  0
   -0.3575  -49.8525  -19.2688 H   0  0  0  0  0  0  0  0  0  0  0  0
    1.9054  -48.9883  -18.2342 C   0  0  0  0  0  0  0  0  0  0  0  0
    2.3831  -48.9822  -17.0122 C   0  0  0  0  0  0  0  0  0  0  0  0
    2.6034  -47.7935  -16.1787 C   0  0  0  0  0  0  0  0  0  0  0  0
    3.8980  -47.5378  -15.7052 N   0  0  0  0  0  0  0  0  0  0  0  0
    4.2215  -48.0549  -14.4276 C   0  0  0  0  0  0  0  0  0  0  0  0
    4.5742  -46.3746  -16.1377 C   0  0  0  0  0  0  0  0  0  0  0  0
   -0.4488  -53.9344  -26.0291 C   0  0  0  0  0  0  0  0  0  0  0  0
   -0.3996  -53.9110  -27.1858 N   0  0  0  0  0  0  0  0  0  0  0  0
    0.2480  -51.6358  -24.4738 N   0  0  0  0  0  0  0  0  0  0  0  0
   -0.4665  -51.0005  -24.8441 H   0  0  0  0  0  0  0  0  0  0  0  0
    1.6315  -51.3544  -24.5783 C   0  0  0  0  0  0  0  0  0  0  0  0
    2.1084  -50.2827  -25.2736 C   0  0  0  0  0  0  0  0  0  0  0  0
    3.4749  -50.0106  -25.3684 C   0  0  0  0  0  0  0  0  0  0  0  0
    4.3660  -50.8457  -24.7442 C   0  0  0  0  0  0  0  0  0  0  0  0
    3.8718  -51.9315  -24.0409 C   0  0  0  0  0  0  0  0  0  0  0  0
    4.9872  -53.0243  -23.2281 Cl  0  0  0  0  0  0  0  0  0  0  0  0
    2.5321  -52.1928  -23.9514 C   0  0  0  0  0  0  0  0  0  0  0  0
    5.7316  -50.6340  -24.7976 O   0  0  0  0  0  0  0  0  0  0  0  0
    6.2656  -49.4232  -24.3100 C   0  0  0  0  0  0  0  0  0  0  0  0
    6.0704  -49.3129  -22.8503 C   0  0  0  0  0  0  0  0  0  0  0  0
    6.8010  -50.0867  -22.0065 C   0  0  0  0  0  0  0  0  0  0  0  0
    6.6075  -49.9693  -20.6416 C   0  0  0  0  0  0  0  0  0  0  0  0
    5.6665  -49.0585  -20.1648 C   0  0  0  0  0  0  0  0  0  0  0  0
    4.9208  -48.2702  -20.9965 C   0  0  0  0  0  0  0  0  0  0  0  0
    5.1485  -48.4217  -22.3634 C   0  0  0  0  0  0  0  0  0  0  0  0
   -0.3442  -52.7959  -18.3368 O   0  0  0  0  0  0  0  0  0  0  0  0
   -1.5437  -51.8364  -16.4319 C   0  0  0  0  0  0  0  0  0  0  0  0
   -1.4938  -52.8182  -17.5798 C   0  0  0  0  0  0  0  0  0  0  0  0
 41 42  1  0  0  0
 42 40  1  0  0  0
 40  1  1  0  0  0
  1  2  2  0  0  0
  2  3  1  0  0  0
  3  4  2  0  0  0
  4  5  1  0  0  0
  5  6  2  0  0  0
  6 21  1  0  0  0
 21 22  3  0  0  0
  6  7  1  0  0  0
  7 23  1  0  0  0
 23 25  1  0  0  0
 25 26  2  0  0  0
 26 27  1  0  0  0
 27 28  2  0  0  0
 28 32  1  0  0  0
 32 33  1  0  0  0
 33 34  1  0  0  0
 34 35  2  0  0  0
 35 36  1  0  0  0
 36 37  2  0  0  0
 37 38  1  0  0  0
 38 39  2  0  0  0
 28 29  1  0  0  0
 29 30  1  0  0  0
 29 31  2  0  0  0
  7  8  2  0  0  0
  8  9  1  0  0  0
  9 10  2  0  0  0
 10 11  1  0  0  0
 11 12  1  0  0  0
 12 13  2  0  0  0
 12 15  1  0  0  0
 15 16  2  0  0  0
 16 17  1  0  0  0
 17 18  1  0  0  0
 18 19  1  0  0  0
 18 20  1  0  0  0
 10  1  1  0  0  0
  8  3  1  0  0  0
 31 25  1  0  0  0
 39 34  1  0  0  0
 23 24  1  0  0  0
 11 14  1  0  0  0
M  END
> <minimizedAffinity>
-6.81959

> <CNNscore>
0.5844262242

> <CNNaffinity>
7.6459488869

> <CNN_VS>
4.4684929848

> <CNNaffinity_variance>
0.1280722171

$$$$
[H]/C(C(=O)N([H])c1c(OC([H])([H])C([H])([H])[H])c([H])c2nc([H])c(C#N)c(N([H])c3c([H])c([H])c(OC([H])([H])c4c([H])c([H])c([H])c([H])c4[H])c(Cl)c3[H])c2c1[H])=C(/[H])C([H])([H])N(C([H])([H])[H])C([H])([H])[H]


 42 45  0  0  0  0  0  0  0  0999 V2000
   -0.4402  -52.8971  -19.5011 C   0  0  0  0  0  0  0  0  0  0  0  0
   -0.8664  -53.9816  -20.2446 C   0  0  0  0  0  0  0  0  0  0  0  0
   -0.7909  -54.0037  -21.6206 C   0  0  0  0  0  0  0  0  0  0  0  0
   -1.2097  -55.0697  -22.3433 N   0  0  0  0  0  0  0  0  0  0  0  0
   -1.1280  -55.0775  -23.6987 C   0  0  0  0  0  0  0  0  0  0  0  0
   -0.6126  -53.9942  -24.3960 C   0  0  0  0  0  0  0  0  0  0  0  0
   -0.1939  -52.9222  -23.6343 C   0  0  0  0  0  0  0  0  0  0  0  0
   -0.2742  -52.9082  -22.2586 C   0  0  0  0  0  0  0  0  0  0  0  0
    0.1552  -51.8164  -21.5107 C   0  0  0  0  0  0  0  0  0  0  0  0
    0.0969  -51.7560  -20.1461 C   0  0  0  0  0  0  0  0  0  0  0  0
    0.5116  -50.6774  -19.3305 N   0  0  0  0  0  0  0  0  0  0  0  0
    1.7241  -50.5296  -18.6648 C   0  0  0  0  0  0  0  0  0  0  0  0
    2.6187  -51.3992  -18.7308 O   0  0  0  0  0  0  0  0  0  0  0  0
   -0.1728  -49.8580  -19.1908 H   0  0  0  0  0  0  0  0  0  0  0  0
    2.0387  -49.3609  -17.8490 C   0  0  0  0  0  0  0  0  0  0  0  0
    3.1604  -49.1575  -17.1995 C   0  0  0  0  0  0  0  0  0  0  0  0
    3.4798  -47.9834  -16.3775 C   0  0  0  0  0  0  0  0  0  0  0  0
    3.2063  -48.0331  -15.0034 N   0  0  0  0  0  0  0  0  0  0  0  0
    3.8052  -49.0880  -14.2735 C   0  0  0  0  0  0  0  0  0  0  0  0
    1.9858  -47.5069  -14.5227 C   0  0  0  0  0  0  0  0  0  0  0  0
   -0.5231  -53.9959  -25.8332 C   0  0  0  0  0  0  0  0  0  0  0  0
   -0.4338  -53.9861  -26.9877 N   0  0  0  0  0  0  0  0  0  0  0  0
    0.3472  -51.7714  -24.2578 N   0  0  0  0  0  0  0  0  0  0  0  0
   -0.2940  -51.0848  -24.6685 H   0  0  0  0  0  0  0  0  0  0  0  0
    1.7525  -51.6041  -24.2948 C   0  0  0  0  0  0  0  0  0  0  0  0
    2.6143  -52.6607  -24.2843 C   0  0  0  0  0  0  0  0  0  0  0  0
    3.9995  -52.4865  -24.3248 C   0  0  0  0  0  0  0  0  0  0  0  0
    4.5103  -51.2147  -24.3766 C   0  0  0  0  0  0  0  0  0  0  0  0
    3.6268  -50.1484  -24.3866 C   0  0  0  0  0  0  0  0  0  0  0  0
    4.2480  -48.5025  -24.4520 Cl  0  0  0  0  0  0  0  0  0  0  0  0
    2.2711  -50.3253  -24.3469 C   0  0  0  0  0  0  0  0  0  0  0  0
    5.8711  -50.9715  -24.4191 O   0  0  0  0  0  0  0  0  0  0  0  0
    6.6631  -51.2601  -23.2886 C   0  0  0  0  0  0  0  0  0  0  0  0
    6.4048  -50.2910  -22.2046 C   0  0  0  0  0  0  0  0  0  0  0  0
    5.5242  -50.5954  -21.2165 C   0  0  0  0  0  0  0  0  0  0  0  0
    5.2953  -49.6773  -20.2070 C   0  0  0  0  0  0  0  0  0  0  0  0
    5.9749  -48.4607  -20.2285 C   0  0  0  0  0  0  0  0  0  0  0  0
    6.8653  -48.1344  -21.2134 C   0  0  0  0  0  0  0  0  0  0  0  0
    7.0649  -49.0887  -22.2098 C   0  0  0  0  0  0  0  0  0  0  0  0
   -0.5081  -52.8633  -18.1393 O   0  0  0  0  0  0  0  0  0  0  0  0
   -1.7675  -51.8100  -16.3249 C   0  0  0  0  0  0  0  0  0  0  0  0
   -1.6757  -52.8578  -17.4100 C   0  0  0  0  0  0  0  0  0  0  0  0
 41 42  1  0  0  0
 42 40  1  0  0  0
 40  1  1  0  0  0
  1  2  2  0  0  0
  2  3  1  0  0  0
  3  4  2  0  0  0
  4  5  1  0  0  0
  5  6  2  0  0  0
  6 21  1  0  0  0
 21 22  3  0  0  0
  6  7  1  0  0  0
  7 23  1  0  0  0
 23 25  1  0  0  0
 25 26  2  0  0  0
 26 27  1  0  0  0
 27 28  2  0  0  0
 28 32  1  0  0  0
 32 33  1  0  0  0
 33 34  1  0  0  0
 34 35  2  0  0  0
 35 36  1  0  0  0
 36 37  2  0  0  0
 37 38  1  0  0  0
 38 39  2  0  0  0
 28 29  1  0  0  0
 29 30  1  0  0  0
 29 31  2  0  0  0
  7  8  2  0  0  0
  8  9  1  0  0  0
  9 10  2  0  0  0
 10 11  1  0  0  0
 11 12  1  0  0  0
 12 13  2  0  0  0
 12 15  1  0  0  0
 15 16  2  0  0  0
 16 17  1  0  0  0
 17 18  1  0  0  0
 18 19  1  0  0  0
 18 20  1  0  0  0
 10  1  1  0  0  0
  8  3  1  0  0  0
 31 25  1  0  0  0
 39 34  1  0  0  0
 23 24  1  0  0  0
 11 14  1  0  0  0
M  END
> <minimizedAffinity>
-7.36769

> <CNNscore>
0.5675143003

> <CNNaffinity>
7.5910978317

> <CNN_VS>
4.3080563545

> <CNNaffinity_variance>
0.0905839503

$$$$
[H]/C(C(=O)N([H])c1c(OC([H])([H])C([H])([H])[H])c([H])c2nc([H])c(C#N)c(N([H])c3c([H])c([H])c(OC([H])([H])c4c([H])c([H])c([H])c([H])c4[H])c(Cl)c3[H])c2c1[H])=C(/[H])C([H])([H])N(C([H])([H])[H])C([H])([H])[H]


 42 45  0  0  0  0  0  0  0  0999 V2000
    0.7610  -52.4009  -26.9329 C   0  0  0  0  0  0  0  0  0  0  0  0
   -0.2374  -53.0937  -26.2744 C   0  0  0  0  0  0  0  0  0  0  0  0
   -0.1693  -53.3761  -24.9271 C   0  0  0  0  0  0  0  0  0  0  0  0
   -1.1514  -54.0549  -24.2876 N   0  0  0  0  0  0  0  0  0  0  0  0
   -1.0708  -54.3247  -22.9593 C   0  0  0  0  0  0  0  0  0  0  0  0
    0.0201  -53.9161  -22.2054 C   0  0  0  0  0  0  0  0  0  0  0  0
    1.0055  -53.2269  -22.8829 C   0  0  0  0  0  0  0  0  0  0  0  0
    0.9295  -52.9498  -24.2307 C   0  0  0  0  0  0  0  0  0  0  0  0
    1.9349  -52.2523  -24.8930 C   0  0  0  0  0  0  0  0  0  0  0  0
    1.9044  -51.9530  -26.2267 C   0  0  0  0  0  0  0  0  0  0  0  0
    2.8928  -51.2533  -26.9574 N   0  0  0  0  0  0  0  0  0  0  0  0
    3.2838  -49.9268  -26.8076 C   0  0  0  0  0  0  0  0  0  0  0  0
    2.7583  -49.1805  -25.9544 O   0  0  0  0  0  0  0  0  0  0  0  0
    3.4228  -51.7865  -27.7282 H   0  0  0  0  0  0  0  0  0  0  0  0
    4.3256  -49.3142  -27.6261 C   0  0  0  0  0  0  0  0  0  0  0  0
    4.2772  -48.1169  -28.1606 C   0  0  0  0  0  0  0  0  0  0  0  0
    5.3230  -47.4980  -28.9849 C   0  0  0  0  0  0  0  0  0  0  0  0
    5.6572  -48.0998  -30.2062 N   0  0  0  0  0  0  0  0  0  0  0  0
    7.0357  -48.2962  -30.4623 C   0  0  0  0  0  0  0  0  0  0  0  0
    4.7960  -47.9367  -31.3149 C   0  0  0  0  0  0  0  0  0  0  0  0
    0.1118  -54.1989  -20.7965 C   0  0  0  0  0  0  0  0  0  0  0  0
    0.1941  -54.4446  -19.6679 N   0  0  0  0  0  0  0  0  0  0  0  0
    2.1567  -52.7687  -22.1969 N   0  0  0  0  0  0  0  0  0  0  0  0
    3.0699  -53.1617  -22.4477 H   0  0  0  0  0  0  0  0  0  0  0  0
    2.0125  -51.7851  -21.1890 C   0  0  0  0  0  0  0  0  0  0  0  0
    2.3983  -51.9994  -19.8988 C   0  0  0  0  0  0  0  0  0  0  0  0
    2.2557  -51.0219  -18.9116 C   0  0  0  0  0  0  0  0  0  0  0  0
    1.7110  -49.8089  -19.2480 C   0  0  0  0  0  0  0  0  0  0  0  0
    1.3222  -49.6012  -20.5608 C   0  0  0  0  0  0  0  0  0  0  0  0
    0.6189  -48.0564  -21.0274 Cl  0  0  0  0  0  0  0  0  0  0  0  0
    1.4646  -50.5625  -21.5234 C   0  0  0  0  0  0  0  0  0  0  0  0
    1.5420  -48.7975  -18.3201 O   0  0  0  0  0  0  0  0  0  0  0  0
    1.6429  -49.0935  -16.9450 C   0  0  0  0  0  0  0  0  0  0  0  0
    0.3100  -49.3510  -16.3636 C   0  0  0  0  0  0  0  0  0  0  0  0
   -0.2017  -50.6090  -16.3675 C   0  0  0  0  0  0  0  0  0  0  0  0
   -1.4510  -50.8334  -15.8167 C   0  0  0  0  0  0  0  0  0  0  0  0
   -2.1550  -49.7619  -15.2704 C   0  0  0  0  0  0  0  0  0  0  0  0
   -1.6584  -48.4881  -15.2562 C   0  0  0  0  0  0  0  0  0  0  0  0
   -0.3970  -48.3080  -15.8215 C   0  0  0  0  0  0  0  0  0  0  0  0
    0.7050  -52.1139  -28.2651 O   0  0  0  0  0  0  0  0  0  0  0  0
   -1.2026  -52.8881  -29.5878 C   0  0  0  0  0  0  0  0  0  0  0  0
    0.2648  -52.9818  -29.2388 C   0  0  0  0  0  0  0  0  0  0  0  0
 41 42  1  0  0  0
 42 40  1  0  0  0
 40  1  1  0  0  0
  1  2  2  0  0  0
  2  3  1  0  0  0
  3  4  2  0  0  0
  4  5  1  0  0  0
  5  6  2  0  0  0
  6 21  1  0  0  0
 21 22  3  0  0  0
  6  7  1  0  0  0
  7 23  1  0  0  0
 23 25  1  0  0  0
 25 26  2  0  0  0
 26 27  1  0  0  0
 27 28  2  0  0  0
 28 32  1  0  0  0
 32 33  1  0  0  0
 33 34  1  0  0  0
 34 35  2  0  0  0
 35 36  1  0  0  0
 36 37  2  0  0  0
 37 38  1  0  0  0
 38 39  2  0  0  0
 28 29  1  0  0  0
 29 30  1  0  0  0
 29 31  2  0  0  0
  7  8  2  0  0  0
  8  9  1  0  0  0
  9 10  2  0  0  0
 10 11  1  0  0  0
 11 12  1  0  0  0
 12 13  2  0  0  0
 12 15  1  0  0  0
 15 16  2  0  0  0
 16 17  1  0  0  0
 17 18  1  0  0  0
 18 19  1  0  0  0
 18 20  1  0  0  0
 10  1  1  0  0  0
  8  3  1  0  0  0
 31 25  1  0  0  0
 39 34  1  0  0  0
 23 24  1  0  0  0
 11 14  1  0  0  0
M  END
> <minimizedAffinity>
-6.25167

> <CNNscore>
0.5132158995

> <CNNaffinity>
7.4843010902

> <CNN_VS>
3.8410623074

> <CNNaffinity_variance>
0.1519685090

$$$$
[H]/C(C(=O)N([H])c1c(OC([H])([H])C([H])([H])[H])c([H])c2nc([H])c(C#N)c(N([H])c3c([H])c([H])c(OC([H])([H])c4c([H])c([H])c([H])c([H])c4[H])c(Cl)c3[H])c2c1[H])=C(/[H])C([H])([H])N(C([H])([H])[H])C([H])([H])[H]


 42 45  0  0  0  0  0  0  0  0999 V2000
   -0.6683  -52.8881  -19.2610 C   0  0  0  0  0  0  0  0  0  0  0  0
   -1.0781  -53.9626  -20.0277 C   0  0  0  0  0  0  0  0  0  0  0  0
   -0.9322  -53.9850  -21.3981 C   0  0  0  0  0  0  0  0  0  0  0  0
   -1.3353  -55.0413  -22.1436 N   0  0  0  0  0  0  0  0  0  0  0  0
   -1.1839  -55.0494  -23.4930 C   0  0  0  0  0  0  0  0  0  0  0  0
   -0.6106  -53.9765  -24.1606 C   0  0  0  0  0  0  0  0  0  0  0  0
   -0.2095  -52.9142  -23.3760 C   0  0  0  0  0  0  0  0  0  0  0  0
   -0.3603  -52.9000  -22.0063 C   0  0  0  0  0  0  0  0  0  0  0  0
    0.0526  -51.8181  -21.2350 C   0  0  0  0  0  0  0  0  0  0  0  0
   -0.0748  -51.7579  -19.8751 C   0  0  0  0  0  0  0  0  0  0  0  0
    0.3198  -50.6891  -19.0369 N   0  0  0  0  0  0  0  0  0  0  0  0
    1.5417  -50.5159  -18.3952 C   0  0  0  0  0  0  0  0  0  0  0  0
    2.4658  -51.3491  -18.5082 O   0  0  0  0  0  0  0  0  0  0  0  0
   -0.3906  -49.9003  -18.8566 H   0  0  0  0  0  0  0  0  0  0  0  0
    1.8330  -49.3607  -17.5518 C   0  0  0  0  0  0  0  0  0  0  0  0
    1.3206  -49.1268  -16.3667 C   0  0  0  0  0  0  0  0  0  0  0  0
    1.6109  -47.9656  -15.5161 C   0  0  0  0  0  0  0  0  0  0  0  0
    2.9067  -47.4307  -15.5319 N   0  0  0  0  0  0  0  0  0  0  0  0
    3.8504  -48.0240  -14.6591 C   0  0  0  0  0  0  0  0  0  0  0  0
    3.0888  -46.0723  -15.8770 C   0  0  0  0  0  0  0  0  0  0  0  0
   -0.4471  -53.9786  -25.5913 C   0  0  0  0  0  0  0  0  0  0  0  0
   -0.2957  -53.9755  -26.7393 N   0  0  0  0  0  0  0  0  0  0  0  0
    0.3871  -51.7744  -23.9683 N   0  0  0  0  0  0  0  0  0  0  0  0
   -0.2022  -51.1344  -24.5108 H   0  0  0  0  0  0  0  0  0  0  0  0
    1.7746  -51.5537  -23.7940 C   0  0  0  0  0  0  0  0  0  0  0  0
    2.7127  -52.4691  -24.1700 C   0  0  0  0  0  0  0  0  0  0  0  0
    4.0798  -52.2413  -23.9976 C   0  0  0  0  0  0  0  0  0  0  0  0
    4.4933  -51.0619  -23.4328 C   0  0  0  0  0  0  0  0  0  0  0  0
    3.5329  -50.1389  -23.0541 C   0  0  0  0  0  0  0  0  0  0  0  0
    4.0282  -48.6148  -22.3256 Cl  0  0  0  0  0  0  0  0  0  0  0  0
    2.1952  -50.3675  -23.2257 C   0  0  0  0  0  0  0  0  0  0  0  0
    5.8310  -50.7726  -23.2340 O   0  0  0  0  0  0  0  0  0  0  0  0
    6.6460  -50.4627  -24.3423 C   0  0  0  0  0  0  0  0  0  0  0  0
    6.4829  -49.0486  -24.7355 C   0  0  0  0  0  0  0  0  0  0  0  0
    5.7636  -48.7296  -25.8424 C   0  0  0  0  0  0  0  0  0  0  0  0
    5.6185  -47.3997  -26.1956 C   0  0  0  0  0  0  0  0  0  0  0  0
    6.2147  -46.4183  -25.4059 C   0  0  0  0  0  0  0  0  0  0  0  0
    6.9427  -46.7176  -24.2880 C   0  0  0  0  0  0  0  0  0  0  0  0
    7.0629  -48.0694  -23.9699 C   0  0  0  0  0  0  0  0  0  0  0  0
   -0.8057  -52.8543  -17.9045 O   0  0  0  0  0  0  0  0  0  0  0  0
   -2.1194  -51.8181  -16.1189 C   0  0  0  0  0  0  0  0  0  0  0  0
   -2.0090  -52.8296  -17.2362 C   0  0  0  0  0  0  0  0  0  0  0  0
 41 42  1  0  0  0
 42 40  1  0  0  0
 40  1  1  0  0  0
  1  2  2  0  0  0
  2  3  1  0  0  0
  3  4  2  0  0  0
  4  5  1  0  0  0
  5  6  2  0  0  0
  6 21  1  0  0  0
 21 22  3  0  0  0
  6  7  1  0  0  0
  7 23  1  0  0  0
 23 25  1  0  0  0
 25 26  2  0  0  0
 26 27  1  0  0  0
 27 28  2  0  0  0
 28 32  1  0  0  0
 32 33  1  0  0  0
 33 34  1  0  0  0
 34 35  2  0  0  0
 35 36  1  0  0  0
 36 37  2  0  0  0
 37 38  1  0  0  0
 38 39  2  0  0  0
 28 29  1  0  0  0
 29 30  1  0  0  0
 29 31  2  0  0  0
  7  8  2  0  0  0
  8  9  1  0  0  0
  9 10  2  0  0  0
 10 11  1  0  0  0
 11 12  1  0  0  0
 12 13  2  0  0  0
 12 15  1  0  0  0
 15 16  2  0  0  0
 16 17  1  0  0  0
 17 18  1  0  0  0
 18 19  1  0  0  0
 18 20  1  0  0  0
 10  1  1  0  0  0
  8  3  1  0  0  0
 31 25  1  0  0  0
 39 34  1  0  0  0
 23 24  1  0  0  0
 11 14  1  0  0  0
M  END
> <minimizedAffinity>
-7.06578

> <CNNscore>
0.4793581367

> <CNNaffinity>
7.4551138878

> <CNN_VS>
3.5736694336

> <CNNaffinity_variance>
0.0606372431

$$$$
[H]/C(C(=O)N([H])c1c(OC([H])([H])C([H])([H])[H])c([H])c2nc([H])c(C#N)c(N([H])c3c([H])c([H])c(OC([H])([H])c4c([H])c([H])c([H])c([H])c4[H])c(Cl)c3[H])c2c1[H])=C(/[H])C([H])([H])N(C([H])([H])[H])C([H])([H])[H]


 42 45  0  0  0  0  0  0  0  0999 V2000
   -0.2980  -52.3370  -21.1486 C   0  0  0  0  0  0  0  0  0  0  0  0
   -0.7386  -53.0356  -22.2569 C   0  0  0  0  0  0  0  0  0  0  0  0
    0.0000  -53.1121  -23.4181 C   0  0  0  0  0  0  0  0  0  0  0  0
   -0.4372  -53.7988  -24.5004 N   0  0  0  0  0  0  0  0  0  0  0  0
    0.3023  -53.8663  -25.6372 C   0  0  0  0  0  0  0  0  0  0  0  0
    1.5340  -53.2348  -25.7346 C   0  0  0  0  0  0  0  0  0  0  0  0
    1.9542  -52.5426  -24.6170 C   0  0  0  0  0  0  0  0  0  0  0  0
    1.2085  -52.4704  -23.4604 C   0  0  0  0  0  0  0  0  0  0  0  0
    1.6527  -51.7672  -22.3450 C   0  0  0  0  0  0  0  0  0  0  0  0
    0.9501  -51.6676  -21.1764 C   0  0  0  0  0  0  0  0  0  0  0  0
    1.3433  -50.9670  -20.0123 N   0  0  0  0  0  0  0  0  0  0  0  0
    2.4644  -51.1923  -19.2201 C   0  0  0  0  0  0  0  0  0  0  0  0
    3.2820  -52.0995  -19.4835 O   0  0  0  0  0  0  0  0  0  0  0  0
    0.7192  -50.1567  -19.6759 H   0  0  0  0  0  0  0  0  0  0  0  0
    2.7664  -50.3946  -18.0356 C   0  0  0  0  0  0  0  0  0  0  0  0
    3.2884  -50.8451  -16.9194 C   0  0  0  0  0  0  0  0  0  0  0  0
    3.5928  -50.0456  -15.7259 C   0  0  0  0  0  0  0  0  0  0  0  0
    3.8352  -50.7123  -14.5167 N   0  0  0  0  0  0  0  0  0  0  0  0
    3.6911  -52.1206  -14.5270 C   0  0  0  0  0  0  0  0  0  0  0  0
    3.6107  -50.0341  -13.2972 C   0  0  0  0  0  0  0  0  0  0  0  0
    2.3233  -53.3025  -26.9372 C   0  0  0  0  0  0  0  0  0  0  0  0
    2.9409  -53.3613  -27.9149 N   0  0  0  0  0  0  0  0  0  0  0  0
    3.1989  -51.8668  -24.6219 N   0  0  0  0  0  0  0  0  0  0  0  0
    4.0338  -52.3675  -24.3001 H   0  0  0  0  0  0  0  0  0  0  0  0
    3.2528  -50.5249  -25.0697 C   0  0  0  0  0  0  0  0  0  0  0  0
    3.2873  -50.1974  -26.3930 C   0  0  0  0  0  0  0  0  0  0  0  0
    3.3367  -48.8704  -26.8259 C   0  0  0  0  0  0  0  0  0  0  0  0
    3.3513  -47.8648  -25.8933 C   0  0  0  0  0  0  0  0  0  0  0  0
    3.3163  -48.2079  -24.5521 C   0  0  0  0  0  0  0  0  0  0  0  0
    3.3344  -46.9427  -23.3282 Cl  0  0  0  0  0  0  0  0  0  0  0  0
    3.2678  -49.5094  -24.1341 C   0  0  0  0  0  0  0  0  0  0  0  0
    3.3992  -46.5304  -26.2534 O   0  0  0  0  0  0  0  0  0  0  0  0
    4.3011  -46.1138  -27.2542 C   0  0  0  0  0  0  0  0  0  0  0  0
    3.6639  -46.1544  -28.5859 C   0  0  0  0  0  0  0  0  0  0  0  0
    2.3977  -45.6910  -28.7478 C   0  0  0  0  0  0  0  0  0  0  0  0
    1.8162  -45.7341  -30.0025 C   0  0  0  0  0  0  0  0  0  0  0  0
    2.5449  -46.2525  -31.0714 C   0  0  0  0  0  0  0  0  0  0  0  0
    3.8205  -46.7240  -30.9303 C   0  0  0  0  0  0  0  0  0  0  0  0
    4.3665  -46.6613  -29.6493 C   0  0  0  0  0  0  0  0  0  0  0  0
   -1.0185  -52.2548  -19.9935 O   0  0  0  0  0  0  0  0  0  0  0  0
   -0.8089  -52.4841  -17.5663 C   0  0  0  0  0  0  0  0  0  0  0  0
   -0.9046  -53.1240  -18.9320 C   0  0  0  0  0  0  0  0  0  0  0  0
 41 42  1  0  0  0
 42 40  1  0  0  0
 40  1  1  0  0  0
  1  2  2  0  0  0
  2  3  1  0  0  0
  3  4  2  0  0  0
  4  5  1  0  0  0
  5  6  2  0  0  0
  6 21  1  0  0  0
 21 22  3  0  0  0
  6  7  1  0  0  0
  7 23  1  0  0  0
 23 25  1  0  0  0
 25 26  2  0  0  0
 26 27  1  0  0  0
 27 28  2  0  0  0
 28 32  1  0  0  0
 32 33  1  0  0  0
 33 34  1  0  0  0
 34 35  2  0  0  0
 35 36  1  0  0  0
 36 37  2  0  0  0
 37 38  1  0  0  0
 38 39  2  0  0  0
 28 29  1  0  0  0
 29 30  1  0  0  0
 29 31  2  0  0  0
  7  8  2  0  0  0
  8  9  1  0  0  0
  9 10  2  0  0  0
 10 11  1  0  0  0
 11 12  1  0  0  0
 12 13  2  0  0  0
 12 15  1  0  0  0
 15 16  2  0  0  0
 16 17  1  0  0  0
 17 18  1  0  0  0
 18 19  1  0  0  0
 18 20  1  0  0  0
 10  1  1  0  0  0
  8  3  1  0  0  0
 31 25  1  0  0  0
 39 34  1  0  0  0
 23 24  1  0  0  0
 11 14  1  0  0  0
M  END
> <minimizedAffinity>
-7.34073

> <CNNscore>
0.3811573982

> <CNNaffinity>
7.4245996475

> <CNN_VS>
2.8299410343

> <CNNaffinity_variance>
0.0825607479

$$$$
[H]/C(C(=O)N([H])c1c(OC([H])([H])C([H])([H])[H])c([H])c2nc([H])c(C#N)c(N([H])c3c([H])c([H])c(OC([H])([H])c4c([H])c([H])c([H])c([H])c4[H])c(Cl)c3[H])c2c1[H])=C(/[H])C([H])([H])N(C([H])([H])[H])C([H])([H])[H]


 42 45  0  0  0  0  0  0  0  0999 V2000
    0.9003  -53.0161  -26.5665 C   0  0  0  0  0  0  0  0  0  0  0  0
    0.2679  -54.1040  -25.9947 C   0  0  0  0  0  0  0  0  0  0  0  0
   -0.2336  -54.0708  -24.7113 C   0  0  0  0  0  0  0  0  0  0  0  0
   -0.8527  -55.1401  -24.1570 N   0  0  0  0  0  0  0  0  0  0  0  0
   -1.3430  -55.0920  -22.8916 C   0  0  0  0  0  0  0  0  0  0  0  0
   -1.2288  -53.9462  -22.1173 C   0  0  0  0  0  0  0  0  0  0  0  0
   -0.5934  -52.8725  -22.7074 C   0  0  0  0  0  0  0  0  0  0  0  0
   -0.0939  -52.9150  -23.9911 C   0  0  0  0  0  0  0  0  0  0  0  0
    0.5424  -51.8195  -24.5662 C   0  0  0  0  0  0  0  0  0  0  0  0
    1.0529  -51.8130  -25.8346 C   0  0  0  0  0  0  0  0  0  0  0  0
    1.7122  -50.7371  -26.4734 N   0  0  0  0  0  0  0  0  0  0  0  0
    3.0275  -50.3192  -26.2986 C   0  0  0  0  0  0  0  0  0  0  0  0
    3.7990  -50.8967  -25.5036 O   0  0  0  0  0  0  0  0  0  0  0  0
    1.1537  -50.1543  -27.1860 H   0  0  0  0  0  0  0  0  0  0  0  0
    3.5985  -49.1878  -27.0229 C   0  0  0  0  0  0  0  0  0  0  0  0
    3.5288  -47.9292  -26.6588 C   0  0  0  0  0  0  0  0  0  0  0  0
    4.1015  -46.7888  -27.3853 C   0  0  0  0  0  0  0  0  0  0  0  0
    3.3178  -46.1520  -28.3578 N   0  0  0  0  0  0  0  0  0  0  0  0
    1.9922  -45.8192  -27.9884 C   0  0  0  0  0  0  0  0  0  0  0  0
    3.5813  -46.3952  -29.7249 C   0  0  0  0  0  0  0  0  0  0  0  0
   -1.7464  -53.8885  -20.7748 C   0  0  0  0  0  0  0  0  0  0  0  0
   -2.1669  -53.8622  -19.6962 N   0  0  0  0  0  0  0  0  0  0  0  0
   -0.4306  -51.6594  -21.9947 N   0  0  0  0  0  0  0  0  0  0  0  0
   -1.0542  -50.8740  -22.2081 H   0  0  0  0  0  0  0  0  0  0  0  0
    0.5847  -51.5682  -21.0125 C   0  0  0  0  0  0  0  0  0  0  0  0
    0.3062  -51.4248  -19.6853 C   0  0  0  0  0  0  0  0  0  0  0  0
    1.3144  -51.3392  -18.7226 C   0  0  0  0  0  0  0  0  0  0  0  0
    2.6250  -51.4008  -19.1221 C   0  0  0  0  0  0  0  0  0  0  0  0
    2.8973  -51.5463  -20.4721 C   0  0  0  0  0  0  0  0  0  0  0  0
    4.5682  -51.6283  -21.0202 Cl  0  0  0  0  0  0  0  0  0  0  0  0
    1.9056  -51.6297  -21.4105 C   0  0  0  0  0  0  0  0  0  0  0  0
    3.6714  -51.3228  -18.2213 O   0  0  0  0  0  0  0  0  0  0  0  0
    3.7048  -50.2677  -17.2863 C   0  0  0  0  0  0  0  0  0  0  0  0
    3.3354  -50.7473  -15.9393 C   0  0  0  0  0  0  0  0  0  0  0  0
    4.0213  -51.7725  -15.3711 C   0  0  0  0  0  0  0  0  0  0  0  0
    3.6639  -52.2082  -14.1074 C   0  0  0  0  0  0  0  0  0  0  0  0
    2.6073  -51.5837  -13.4472 C   0  0  0  0  0  0  0  0  0  0  0  0
    1.9038  -50.5503  -14.0009 C   0  0  0  0  0  0  0  0  0  0  0  0
    2.2980  -50.1442  -15.2749 C   0  0  0  0  0  0  0  0  0  0  0  0
    1.3995  -53.0357  -27.8356 O   0  0  0  0  0  0  0  0  0  0  0  0
   -0.6251  -52.5989  -29.1387 C   0  0  0  0  0  0  0  0  0  0  0  0
    0.6733  -53.3517  -28.9616 C   0  0  0  0  0  0  0  0  0  0  0  0
 41 42  1  0  0  0
 42 40  1  0  0  0
 40  1  1  0  0  0
  1  2  2  0  0  0
  2  3  1  0  0  0
  3  4  2  0  0  0
  4  5  1  0  0  0
  5  6  2  0  0  0
  6 21  1  0  0  0
 21 22  3  0  0  0
  6  7  1  0  0  0
  7 23  1  0  0  0
 23 25  1  0  0  0
 25 26  2  0  0  0
 26 27  1  0  0  0
 27 28  2  0  0  0
 28 32  1  0  0  0
 32 33  1  0  0  0
 33 34  1  0  0  0
 34 35  2  0  0  0
 35 36  1  0  0  0
 36 37  2  0  0  0
 37 38  1  0  0  0
 38 39  2  0  0  0
 28 29  1  0  0  0
 29 30  1  0  0  0
 29 31  2  0  0  0
  7  8  2  0  0  0
  8  9  1  0  0  0
  9 10  2  0  0  0
 10 11  1  0  0  0
 11 12  1  0  0  0
 12 13  2  0  0  0
 12 15  1  0  0  0
 15 16  2  0  0  0
 16 17  1  0  0  0
 17 18  1  0  0  0
 18 19  1  0  0  0
 18 20  1  0  0  0
 10  1  1  0  0  0
  8  3  1  0  0  0
 31 25  1  0  0  0
 39 34  1  0  0  0
 23 24  1  0  0  0
 11 14  1  0  0  0
M  END
> <minimizedAffinity>
-7.90975

> <CNNscore>
0.3323372304

> <CNNaffinity>
7.4271507263

> <CNN_VS>
2.4683187008

> <CNNaffinity_variance>
0.1228957325

$$$$
[H]/C(C(=O)N([H])c1c(OC([H])([H])C([H])([H])[H])c([H])c2nc([H])c(C#N)c(N([H])c3c([H])c([H])c(OC([H])([H])c4c([H])c([H])c([H])c([H])c4[H])c(Cl)c3[H])c2c1[H])=C(/[H])C([H])([H])N(C([H])([H])[H])C([H])([H])[H]


 42 45  0  0  0  0  0  0  0  0999 V2000
    1.9047  -52.3605  -24.7935 C   0  0  0  0  0  0  0  0  0  0  0  0
    1.0521  -53.4389  -24.9369 C   0  0  0  0  0  0  0  0  0  0  0  0
    0.4191  -54.0226  -23.8606 C   0  0  0  0  0  0  0  0  0  0  0  0
   -0.4157  -55.0788  -24.0080 N   0  0  0  0  0  0  0  0  0  0  0  0
   -1.0333  -55.6427  -22.9382 C   0  0  0  0  0  0  0  0  0  0  0  0
   -0.8334  -55.1594  -21.6530 C   0  0  0  0  0  0  0  0  0  0  0  0
    0.0221  -54.0830  -21.5326 C   0  0  0  0  0  0  0  0  0  0  0  0
    0.6517  -53.5063  -22.6143 C   0  0  0  0  0  0  0  0  0  0  0  0
    1.5097  -52.4206  -22.4694 C   0  0  0  0  0  0  0  0  0  0  0  0
    2.1559  -51.8146  -23.5107 C   0  0  0  0  0  0  0  0  0  0  0  0
    3.0408  -50.7142  -23.4293 N   0  0  0  0  0  0  0  0  0  0  0  0
    4.2339  -50.6310  -22.7190 C   0  0  0  0  0  0  0  0  0  0  0  0
    4.6607  -51.5884  -22.0392 O   0  0  0  0  0  0  0  0  0  0  0  0
    2.7859  -49.8203  -23.9726 H   0  0  0  0  0  0  0  0  0  0  0  0
    5.0676  -49.4328  -22.7148 C   0  0  0  0  0  0  0  0  0  0  0  0
    5.8008  -49.0113  -21.7117 C   0  0  0  0  0  0  0  0  0  0  0  0
    6.6399  -47.8062  -21.7041 C   0  0  0  0  0  0  0  0  0  0  0  0
    6.2934  -46.7540  -20.8448 N   0  0  0  0  0  0  0  0  0  0  0  0
    6.6578  -46.8977  -19.4843 C   0  0  0  0  0  0  0  0  0  0  0  0
    5.1635  -45.9603  -21.1458 C   0  0  0  0  0  0  0  0  0  0  0  0
   -1.4852  -55.7527  -20.5142 C   0  0  0  0  0  0  0  0  0  0  0  0
   -1.9973  -56.2186  -19.5860 N   0  0  0  0  0  0  0  0  0  0  0  0
    0.2870  -53.5204  -20.2602 N   0  0  0  0  0  0  0  0  0  0  0  0
    1.2200  -53.6399  -19.8521 H   0  0  0  0  0  0  0  0  0  0  0  0
   -0.7408  -52.8121  -19.5923 C   0  0  0  0  0  0  0  0  0  0  0  0
   -1.9841  -53.3379  -19.3999 C   0  0  0  0  0  0  0  0  0  0  0  0
   -2.9911  -52.6333  -18.7366 C   0  0  0  0  0  0  0  0  0  0  0  0
   -2.7234  -51.3739  -18.2638 C   0  0  0  0  0  0  0  0  0  0  0  0
   -1.4578  -50.8488  -18.4644 C   0  0  0  0  0  0  0  0  0  0  0  0
   -1.0797  -49.2351  -17.8712 Cl  0  0  0  0  0  0  0  0  0  0  0  0
   -0.4754  -51.5438  -19.1147 C   0  0  0  0  0  0  0  0  0  0  0  0
   -3.6744  -50.6223  -17.5980 O   0  0  0  0  0  0  0  0  0  0  0  0
   -4.6500  -51.2734  -16.8152 C   0  0  0  0  0  0  0  0  0  0  0  0
   -4.3177  -51.1829  -15.3791 C   0  0  0  0  0  0  0  0  0  0  0  0
   -5.2136  -50.6537  -14.5063 C   0  0  0  0  0  0  0  0  0  0  0  0
   -4.8874  -50.5784  -13.1638 C   0  0  0  0  0  0  0  0  0  0  0  0
   -3.6460  -51.0480  -12.7389 C   0  0  0  0  0  0  0  0  0  0  0  0
   -2.7299  -51.5842  -13.6006 C   0  0  0  0  0  0  0  0  0  0  0  0
   -3.1003  -51.6404  -14.9433 C   0  0  0  0  0  0  0  0  0  0  0  0
    2.5359  -51.7731  -25.8502 O   0  0  0  0  0  0  0  0  0  0  0  0
    4.5641  -53.0877  -25.4675 C   0  0  0  0  0  0  0  0  0  0  0  0
    3.8642  -51.9460  -26.1680 C   0  0  0  0  0  0  0  0  0  0  0  0
 41 42  1  0  0  0
 42 40  1  0  0  0
 40  1  1  0  0  0
  1  2  2  0  0  0
  2  3  1  0  0  0
  3  4  2  0  0  0
  4  5  1  0  0  0
  5  6  2  0  0  0
  6 21  1  0  0  0
 21 22  3  0  0  0
  6  7  1  0  0  0
  7 23  1  0  0  0
 23 25  1  0  0  0
 25 26  2  0  0  0
 26 27  1  0  0  0
 27 28  2  0  0  0
 28 32  1  0  0  0
 32 33  1  0  0  0
 33 34  1  0  0  0
 34 35  2  0  0  0
 35 36  1  0  0  0
 36 37  2  0  0  0
 37 38  1  0  0  0
 38 39  2  0  0  0
 28 29  1  0  0  0
 29 30  1  0  0  0
 29 31  2  0  0  0
  7  8  2  0  0  0
  8  9  1  0  0  0
  9 10  2  0  0  0
 10 11  1  0  0  0
 11 12  1  0  0  0
 12 13  2  0  0  0
 12 15  1  0  0  0
 15 16  2  0  0  0
 16 17  1  0  0  0
 17 18  1  0  0  0
 18 19  1  0  0  0
 18 20  1  0  0  0
 10  1  1  0  0  0
  8  3  1  0  0  0
 31 25  1  0  0  0
 39 34  1  0  0  0
 23 24  1  0  0  0
 11 14  1  0  0  0
M  END
> <minimizedAffinity>
25.68349

> <CNNscore>
0.3177747428

> <CNNaffinity>
6.5428705215

> <CNN_VS>
2.0791590214

> <CNNaffinity_variance>
0.5553099513

$$$$
[H]/C(C(=O)N([H])c1c(OC([H])([H])C([H])([H])[H])c([H])c2nc([H])c(C#N)c(N([H])c3c([H])c([H])c(OC([H])([H])c4nc([H])c([H])c([H])c4[H])c(Cl)c3[H])c2c1[H])=C(/[H])C([H])([H])N(C([H])([H])[H])C([H])([H])[H]


 42 45  0  0  0  0  0  0  0  0999 V2000
   -0.5238  -52.7826  -19.4470 C   0  0  0  0  0  0  0  0  0  0  0  0
   -1.0093  -53.8798  -20.1008 C   0  0  0  0  0  0  0  0  0  0  0  0
   -0.8445  -53.9502  -21.4790 C   0  0  0  0  0  0  0  0  0  0  0  0
   -1.3112  -55.0170  -22.1486 N   0  0  0  0  0  0  0  0  0  0  0  0
   -1.1527  -55.0871  -23.4827 C   0  0  0  0  0  0  0  0  0  0  0  0
   -0.5263  -54.1101  -24.2270 C   0  0  0  0  0  0  0  0  0  0  0  0
   -0.0389  -53.0028  -23.5523 C   0  0  0  0  0  0  0  0  0  0  0  0
   -0.2159  -52.9596  -22.1888 C   0  0  0  0  0  0  0  0  0  0  0  0
    0.2578  -51.8684  -21.4787 C   0  0  0  0  0  0  0  0  0  0  0  0
    0.1384  -51.7167  -20.1156 C   0  0  0  0  0  0  0  0  0  0  0  0
    0.6031  -50.6304  -19.3615 N   0  0  0  0  0  0  0  0  0  0  0  0
    1.9014  -50.3527  -18.9643 C   0  0  0  0  0  0  0  0  0  0  0  0
    2.8799  -51.0656  -19.2369 O   0  0  0  0  0  0  0  0  0  0  0  0
   -0.1413  -49.9238  -19.0524 H   0  0  0  0  0  0  0  0  0  0  0  0
    2.2027  -49.1365  -18.1582 C   0  0  0  0  0  0  0  0  0  0  0  0
    2.9880  -49.1700  -17.0983 C   0  0  0  0  0  0  0  0  0  0  0  0
    3.2870  -47.9621  -16.2980 C   0  0  0  0  0  0  0  0  0  0  0  0
    3.8571  -48.2959  -15.0049 N   0  0  0  0  0  0  0  0  0  0  0  0
    2.7933  -48.6565  -14.1054 C   0  0  0  0  0  0  0  0  0  0  0  0
    4.5722  -47.1648  -14.4460 C   0  0  0  0  0  0  0  0  0  0  0  0
   -0.3809  -54.2337  -25.6649 C   0  0  0  0  0  0  0  0  0  0  0  0
   -0.2808  -54.3440  -26.8148 N   0  0  0  0  0  0  0  0  0  0  0  0
    0.6021  -51.9991  -24.2994 N   0  0  0  0  0  0  0  0  0  0  0  0
    0.1665  -51.5412  -25.1219 H   0  0  0  0  0  0  0  0  0  0  0  0
    1.9083  -51.5913  -23.9112 C   0  0  0  0  0  0  0  0  0  0  0  0
    3.0183  -52.3873  -24.1432 C   0  0  0  0  0  0  0  0  0  0  0  0
    4.2916  -51.9879  -23.7638 C   0  0  0  0  0  0  0  0  0  0  0  0
    4.4781  -50.7842  -23.1449 C   0  0  0  0  0  0  0  0  0  0  0  0
    3.3940  -49.9746  -22.9024 C   0  0  0  0  0  0  0  0  0  0  0  0
    3.6621  -48.4395  -22.1086 Cl  0  0  0  0  0  0  0  0  0  0  0  0
    2.1461  -50.3722  -23.2773 C   0  0  0  0  0  0  0  0  0  0  0  0
    5.7331  -50.3531  -22.7524 O   0  0  0  0  0  0  0  0  0  0  0  0
    6.5713  -49.7289  -23.7170 C   0  0  0  0  0  0  0  0  0  0  0  0
    6.8524  -48.3291  -23.3497 C   0  0  0  0  0  0  0  0  0  0  0  0
    7.3689  -47.9673  -22.1119 C   0  0  0  0  0  0  0  0  0  0  0  0
    7.6264  -46.6546  -21.7835 C   0  0  0  0  0  0  0  0  0  0  0  0
    7.3515  -45.6929  -22.7361 C   0  0  0  0  0  0  0  0  0  0  0  0
    6.8403  -46.0477  -23.9619 C   0  0  0  0  0  0  0  0  0  0  0  0
    6.6099  -47.3474  -24.2244 N   0  0  0  0  0  0  0  0  0  0  0  0
   -0.6765  -52.6915  -18.0827 O   0  0  0  0  0  0  0  0  0  0  0  0
   -2.0156  -51.9216  -16.1878 C   0  0  0  0  0  0  0  0  0  0  0  0
   -1.8211  -52.8906  -17.3172 C   0  0  0  0  0  0  0  0  0  0  0  0
 41 42  1  0  0  0
 42 40  1  0  0  0
 40  1  1  0  0  0
  1  2  2  0  0  0
  2  3  1  0  0  0
  3  4  2  0  0  0
  4  5  1  0  0  0
  5  6  2  0  0  0
  6 21  1  0  0  0
 21 22  3  0  0  0
  6  7  1  0  0  0
  7 23  1  0  0  0
 23 25  1  0  0  0
 25 26  2  0  0  0
 26 27  1  0  0  0
 27 28  2  0  0  0
 28 32  1  0  0  0
 32 33  1  0  0  0
 33 34  1  0  0  0
 34 35  2  0  0  0
 35 36  1  0  0  0
 36 37  2  0  0  0
 37 38  1  0  0  0
 38 39  2  0  0  0
 28 29  1  0  0  0
 29 30  1  0  0  0
 29 31  2  0  0  0
  7  8  2  0  0  0
  8  9  1  0  0  0
  9 10  2  0  0  0
 10 11  1  0  0  0
 11 12  1  0  0  0
 12 13  2  0  0  0
 12 15  1  0  0  0
 15 16  2  0  0  0
 16 17  1  0  0  0
 17 18  1  0  0  0
 18 19  1  0  0  0
 18 20  1  0  0  0
 10  1  1  0  0  0
  8  3  1  0  0  0
 31 25  1  0  0  0
 39 34  1  0  0  0
 23 24  1  0  0  0
 11 14  1  0  0  0
M  END
> <minimizedAffinity>
-6.89226

> <CNNscore>
0.6116222739

> <CNNaffinity>
7.7288346291

> <CNN_VS>
4.7271275520

> <CNNaffinity_variance>
0.0365970209

$$$$
[H]/C(C(=O)N([H])c1c(OC([H])([H])C([H])([H])[H])c([H])c2nc([H])c(C#N)c(N([H])c3c([H])c([H])c(OC([H])([H])c4nc([H])c([H])c([H])c4[H])c(Cl)c3[H])c2c1[H])=C(/[H])C([H])([H])N(C([H])([H])[H])C([H])([H])[H]


 42 45  0  0  0  0  0  0  0  0999 V2000
   -0.5656  -52.8556  -19.3314 C   0  0  0  0  0  0  0  0  0  0  0  0
   -1.0653  -53.9114  -20.0402 C   0  0  0  0  0  0  0  0  0  0  0  0
   -0.8900  -53.9195  -21.4189 C   0  0  0  0  0  0  0  0  0  0  0  0
   -1.3703  -54.9445  -22.1421 N   0  0  0  0  0  0  0  0  0  0  0  0
   -1.2016  -54.9542  -23.4767 C   0  0  0  0  0  0  0  0  0  0  0  0
   -0.5511  -53.9549  -24.1689 C   0  0  0  0  0  0  0  0  0  0  0  0
   -0.0493  -52.8901  -23.4386 C   0  0  0  0  0  0  0  0  0  0  0  0
   -0.2373  -52.9082  -22.0760 C   0  0  0  0  0  0  0  0  0  0  0  0
    0.2501  -51.8610  -21.3112 C   0  0  0  0  0  0  0  0  0  0  0  0
    0.1217  -51.7718  -19.9434 C   0  0  0  0  0  0  0  0  0  0  0  0
    0.5997  -50.7312  -19.1349 N   0  0  0  0  0  0  0  0  0  0  0  0
    1.8432  -50.6107  -18.5353 C   0  0  0  0  0  0  0  0  0  0  0  0
    2.7498  -51.4518  -18.6383 O   0  0  0  0  0  0  0  0  0  0  0  0
   -0.0845  -49.9254  -18.9578 H   0  0  0  0  0  0  0  0  0  0  0  0
    2.1701  -49.4187  -17.7033 C   0  0  0  0  0  0  0  0  0  0  0  0
    3.0360  -48.5027  -18.0935 C   0  0  0  0  0  0  0  0  0  0  0  0
    3.3604  -47.3192  -17.2672 C   0  0  0  0  0  0  0  0  0  0  0  0
    4.2789  -46.4208  -17.9436 N   0  0  0  0  0  0  0  0  0  0  0  0
    3.6942  -46.0099  -19.1927 C   0  0  0  0  0  0  0  0  0  0  0  0
    5.5411  -47.0801  -18.2183 C   0  0  0  0  0  0  0  0  0  0  0  0
   -0.3955  -54.0129  -25.6099 C   0  0  0  0  0  0  0  0  0  0  0  0
   -0.2655  -54.0782  -26.7602 N   0  0  0  0  0  0  0  0  0  0  0  0
    0.6163  -51.8643  -24.1322 N   0  0  0  0  0  0  0  0  0  0  0  0
    0.1575  -51.2828  -24.8583 H   0  0  0  0  0  0  0  0  0  0  0  0
    1.9818  -51.6105  -23.8255 C   0  0  0  0  0  0  0  0  0  0  0  0
    2.9764  -52.5299  -24.1176 C   0  0  0  0  0  0  0  0  0  0  0  0
    4.3077  -52.2807  -23.8177 C   0  0  0  0  0  0  0  0  0  0  0  0
    4.6691  -51.1065  -23.2196 C   0  0  0  0  0  0  0  0  0  0  0  0
    3.7025  -50.1767  -22.9187 C   0  0  0  0  0  0  0  0  0  0  0  0
    4.1935  -48.6828  -22.1535 Cl  0  0  0  0  0  0  0  0  0  0  0  0
    2.3967  -50.4271  -23.2157 C   0  0  0  0  0  0  0  0  0  0  0  0
    5.9868  -50.8237  -22.9059 O   0  0  0  0  0  0  0  0  0  0  0  0
    6.9118  -50.6229  -23.9674 C   0  0  0  0  0  0  0  0  0  0  0  0
    6.9272  -49.2132  -24.3986 C   0  0  0  0  0  0  0  0  0  0  0  0
    7.5362  -48.2084  -23.6576 C   0  0  0  0  0  0  0  0  0  0  0  0
    7.5423  -46.8955  -24.0739 C   0  0  0  0  0  0  0  0  0  0  0  0
    6.9148  -46.6022  -25.2689 C   0  0  0  0  0  0  0  0  0  0  0  0
    6.3112  -47.5943  -26.0047 C   0  0  0  0  0  0  0  0  0  0  0  0
    6.3385  -48.8591  -25.5458 N   0  0  0  0  0  0  0  0  0  0  0  0
   -0.7283  -52.8264  -17.9655 O   0  0  0  0  0  0  0  0  0  0  0  0
   -1.9237  -51.6947  -16.1581 C   0  0  0  0  0  0  0  0  0  0  0  0
   -1.9055  -52.7468  -17.2281 C   0  0  0  0  0  0  0  0  0  0  0  0
 41 42  1  0  0  0
 42 40  1  0  0  0
 40  1  1  0  0  0
  1  2  2  0  0  0
  2  3  1  0  0  0
  3  4  2  0  0  0
  4  5  1  0  0  0
  5  6  2  0  0  0
  6 21  1  0  0  0
 21 22  3  0  0  0
  6  7  1  0  0  0
  7 23  1  0  0  0
 23 25  1  0  0  0
 25 26  2  0  0  0
 26 27  1  0  0  0
 27 28  2  0  0  0
 28 32  1  0  0  0
 32 33  1  0  0  0
 33 34  1  0  0  0
 34 35  2  0  0  0
 35 36  1  0  0  0
 36 37  2  0  0  0
 37 38  1  0  0  0
 38 39  2  0  0  0
 28 29  1  0  0  0
 29 30  1  0  0  0
 29 31  2  0  0  0
  7  8  2  0  0  0
  8  9  1  0  0  0
  9 10  2  0  0  0
 10 11  1  0  0  0
 11 12  1  0  0  0
 12 13  2  0  0  0
 12 15  1  0  0  0
 15 16  2  0  0  0
 16 17  1  0  0  0
 17 18  1  0  0  0
 18 19  1  0  0  0
 18 20  1  0  0  0
 10  1  1  0  0  0
  8  3  1  0  0  0
 31 25  1  0  0  0
 39 34  1  0  0  0
 23 24  1  0  0  0
 11 14  1  0  0  0
M  END
> <minimizedAffinity>
-7.20223

> <CNNscore>
0.5369805694

> <CNNaffinity>
7.6827516556

> <CNN_VS>
4.1254882812

> <CNNaffinity_variance>
0.0543615036

$$$$
[H]/C(C(=O)N([H])c1c(OC([H])([H])C([H])([H])[H])c([H])c2nc([H])c(C#N)c(N([H])c3c([H])c([H])c(OC([H])([H])c4nc([H])c([H])c([H])c4[H])c(Cl)c3[H])c2c1[H])=C(/[H])C([H])([H])N(C([H])([H])[H])C([H])([H])[H]


 42 45  0  0  0  0  0  0  0  0999 V2000
   -0.2947  -52.8985  -19.6150 C   0  0  0  0  0  0  0  0  0  0  0  0
   -0.7587  -53.9773  -20.3134 C   0  0  0  0  0  0  0  0  0  0  0  0
   -0.6848  -53.9435  -21.7008 C   0  0  0  0  0  0  0  0  0  0  0  0
   -1.1328  -54.9898  -22.4141 N   0  0  0  0  0  0  0  0  0  0  0  0
   -1.0622  -54.9590  -23.7572 C   0  0  0  0  0  0  0  0  0  0  0  0
   -0.5464  -53.8961  -24.4680 C   0  0  0  0  0  0  0  0  0  0  0  0
   -0.0797  -52.8086  -23.7481 C   0  0  0  0  0  0  0  0  0  0  0  0
   -0.1653  -52.8692  -22.3765 C   0  0  0  0  0  0  0  0  0  0  0  0
    0.2912  -51.8010  -21.6216 C   0  0  0  0  0  0  0  0  0  0  0  0
    0.2567  -51.7500  -20.2463 C   0  0  0  0  0  0  0  0  0  0  0  0
    0.7074  -50.6901  -19.4474 N   0  0  0  0  0  0  0  0  0  0  0  0
    1.9071  -50.5801  -18.7626 C   0  0  0  0  0  0  0  0  0  0  0  0
    2.7914  -51.4508  -18.7639 O   0  0  0  0  0  0  0  0  0  0  0  0
    0.0383  -49.8579  -19.3544 H   0  0  0  0  0  0  0  0  0  0  0  0
    2.2105  -49.3636  -17.9575 C   0  0  0  0  0  0  0  0  0  0  0  0
    3.1293  -49.3561  -17.0105 C   0  0  0  0  0  0  0  0  0  0  0  0
    3.4303  -48.1481  -16.2112 C   0  0  0  0  0  0  0  0  0  0  0  0
    3.3010  -48.3946  -14.7861 N   0  0  0  0  0  0  0  0  0  0  0  0
    3.6733  -49.7576  -14.5130 C   0  0  0  0  0  0  0  0  0  0  0  0
    1.9339  -48.1915  -14.3468 C   0  0  0  0  0  0  0  0  0  0  0  0
   -0.4927  -53.9124  -25.9174 C   0  0  0  0  0  0  0  0  0  0  0  0
   -0.4662  -53.9144  -27.0767 N   0  0  0  0  0  0  0  0  0  0  0  0
    0.4488  -51.7180  -24.4607 N   0  0  0  0  0  0  0  0  0  0  0  0
   -0.1386  -51.0651  -25.0126 H   0  0  0  0  0  0  0  0  0  0  0  0
    1.8536  -51.4981  -24.4246 C   0  0  0  0  0  0  0  0  0  0  0  0
    2.7546  -52.5502  -24.3985 C   0  0  0  0  0  0  0  0  0  0  0  0
    4.1245  -52.3338  -24.3632 C   0  0  0  0  0  0  0  0  0  0  0  0
    4.6187  -51.0600  -24.3532 C   0  0  0  0  0  0  0  0  0  0  0  0
    3.7470  -49.9974  -24.3785 C   0  0  0  0  0  0  0  0  0  0  0  0
    4.4073  -48.3781  -24.3649 Cl  0  0  0  0  0  0  0  0  0  0  0  0
    2.4028  -50.2163  -24.4131 C   0  0  0  0  0  0  0  0  0  0  0  0
    5.9785  -50.8060  -24.3182 O   0  0  0  0  0  0  0  0  0  0  0  0
    6.7000  -51.1209  -23.1337 C   0  0  0  0  0  0  0  0  0  0  0  0
    6.4582  -50.1166  -22.0819 C   0  0  0  0  0  0  0  0  0  0  0  0
    5.5922  -50.3373  -21.0184 C   0  0  0  0  0  0  0  0  0  0  0  0
    5.3768  -49.3889  -20.0431 C   0  0  0  0  0  0  0  0  0  0  0  0
    6.0579  -48.1924  -20.1552 C   0  0  0  0  0  0  0  0  0  0  0  0
    6.9156  -47.9709  -21.2065 C   0  0  0  0  0  0  0  0  0  0  0  0
    7.0849  -48.9364  -22.1286 N   0  0  0  0  0  0  0  0  0  0  0  0
   -0.3588  -52.9100  -18.2407 O   0  0  0  0  0  0  0  0  0  0  0  0
   -1.3529  -51.6386  -16.4045 C   0  0  0  0  0  0  0  0  0  0  0  0
   -1.4672  -52.7404  -17.4170 C   0  0  0  0  0  0  0  0  0  0  0  0
 41 42  1  0  0  0
 42 40  1  0  0  0
 40  1  1  0  0  0
  1  2  2  0  0  0
  2  3  1  0  0  0
  3  4  2  0  0  0
  4  5  1  0  0  0
  5  6  2  0  0  0
  6 21  1  0  0  0
 21 22  3  0  0  0
  6  7  1  0  0  0
  7 23  1  0  0  0
 23 25  1  0  0  0
 25 26  2  0  0  0
 26 27  1  0  0  0
 27 28  2  0  0  0
 28 32  1  0  0  0
 32 33  1  0  0  0
 33 34  1  0  0  0
 34 35  2  0  0  0
 35 36  1  0  0  0
 36 37  2  0  0  0
 37 38  1  0  0  0
 38 39  2  0  0  0
 28 29  1  0  0  0
 29 30  1  0  0  0
 29 31  2  0  0  0
  7  8  2  0  0  0
  8  9  1  0  0  0
  9 10  2  0  0  0
 10 11  1  0  0  0
 11 12  1  0  0  0
 12 13  2  0  0  0
 12 15  1  0  0  0
 15 16  2  0  0  0
 16 17  1  0  0  0
 17 18  1  0  0  0
 18 19  1  0  0  0
 18 20  1  0  0  0
 10  1  1  0  0  0
  8  3  1  0  0  0
 31 25  1  0  0  0
 39 34  1  0  0  0
 23 24  1  0  0  0
 11 14  1  0  0  0
M  END
> <minimizedAffinity>
-7.25940

> <CNNscore>
0.4718272090

> <CNNaffinity>
7.5912637711

> <CNN_VS>
3.5817646980

> <CNNaffinity_variance>
0.1011352092

$$$$
[H]/C(C(=O)N([H])c1c(OC([H])([H])C([H])([H])[H])c([H])c2nc([H])c(C#N)c(N([H])c3c([H])c([H])c(OC([H])([H])c4nc([H])c([H])c([H])c4[H])c(Cl)c3[H])c2c1[H])=C(/[H])C([H])([H])N(C([H])([H])[H])C([H])([H])[H]


 42 45  0  0  0  0  0  0  0  0999 V2000
    0.1156  -52.8700  -19.9117 C   0  0  0  0  0  0  0  0  0  0  0  0
   -0.4329  -53.9120  -20.6048 C   0  0  0  0  0  0  0  0  0  0  0  0
   -0.4350  -53.8494  -21.9932 C   0  0  0  0  0  0  0  0  0  0  0  0
   -0.9671  -54.8592  -22.7014 N   0  0  0  0  0  0  0  0  0  0  0  0
   -0.9702  -54.8005  -24.0453 C   0  0  0  0  0  0  0  0  0  0  0  0
   -0.4493  -53.7441  -24.7622 C   0  0  0  0  0  0  0  0  0  0  0  0
    0.1035  -52.6941  -24.0476 C   0  0  0  0  0  0  0  0  0  0  0  0
    0.0920  -52.7826  -22.6749 C   0  0  0  0  0  0  0  0  0  0  0  0
    0.6357  -51.7523  -21.9253 C   0  0  0  0  0  0  0  0  0  0  0  0
    0.6802  -51.7315  -20.5494 C   0  0  0  0  0  0  0  0  0  0  0  0
    1.2202  -50.7102  -19.7557 N   0  0  0  0  0  0  0  0  0  0  0  0
    1.2384  -49.3470  -20.0046 C   0  0  0  0  0  0  0  0  0  0  0  0
    0.7535  -48.8181  -21.0170 O   0  0  0  0  0  0  0  0  0  0  0  0
    1.6779  -51.0239  -18.8386 H   0  0  0  0  0  0  0  0  0  0  0  0
    1.8652  -48.4083  -19.0321 C   0  0  0  0  0  0  0  0  0  0  0  0
    2.8983  -47.6511  -19.3489 C   0  0  0  0  0  0  0  0  0  0  0  0
    3.5206  -46.7190  -18.3831 C   0  0  0  0  0  0  0  0  0  0  0  0
    4.5251  -45.8788  -19.0104 N   0  0  0  0  0  0  0  0  0  0  0  0
    4.7170  -44.7014  -18.2055 C   0  0  0  0  0  0  0  0  0  0  0  0
    4.1039  -45.4693  -20.3363 C   0  0  0  0  0  0  0  0  0  0  0  0
   -0.4773  -53.7293  -26.2123 C   0  0  0  0  0  0  0  0  0  0  0  0
   -0.5071  -53.6991  -27.3711 N   0  0  0  0  0  0  0  0  0  0  0  0
    0.6381  -51.6106  -24.7664 N   0  0  0  0  0  0  0  0  0  0  0  0
    0.0562  -50.9668  -25.3346 H   0  0  0  0  0  0  0  0  0  0  0  0
    2.0415  -51.3851  -24.7134 C   0  0  0  0  0  0  0  0  0  0  0  0
    2.9495  -52.4295  -24.7792 C   0  0  0  0  0  0  0  0  0  0  0  0
    4.3179  -52.2077  -24.7273 C   0  0  0  0  0  0  0  0  0  0  0  0
    4.8038  -50.9362  -24.6085 C   0  0  0  0  0  0  0  0  0  0  0  0
    3.9251  -49.8813  -24.5410 C   0  0  0  0  0  0  0  0  0  0  0  0
    4.5747  -48.2647  -24.3891 Cl  0  0  0  0  0  0  0  0  0  0  0  0
    2.5823  -50.1054  -24.5925 C   0  0  0  0  0  0  0  0  0  0  0  0
    6.1619  -50.6770  -24.5536 O   0  0  0  0  0  0  0  0  0  0  0  0
    6.9072  -51.1788  -23.4511 C   0  0  0  0  0  0  0  0  0  0  0  0
    6.7463  -50.3175  -22.2655 C   0  0  0  0  0  0  0  0  0  0  0  0
    5.7233  -50.4945  -21.3426 C   0  0  0  0  0  0  0  0  0  0  0  0
    5.5861  -49.6814  -20.2394 C   0  0  0  0  0  0  0  0  0  0  0  0
    6.5105  -48.6682  -20.0748 C   0  0  0  0  0  0  0  0  0  0  0  0
    7.5241  -48.4904  -20.9863 C   0  0  0  0  0  0  0  0  0  0  0  0
    7.6060  -49.3175  -22.0447 N   0  0  0  0  0  0  0  0  0  0  0  0
    0.1279  -52.9105  -18.5365 O   0  0  0  0  0  0  0  0  0  0  0  0
   -2.0773  -53.0119  -17.4860 C   0  0  0  0  0  0  0  0  0  0  0  0
   -0.7546  -52.3193  -17.6378 C   0  0  0  0  0  0  0  0  0  0  0  0
 41 42  1  0  0  0
 42 40  1  0  0  0
 40  1  1  0  0  0
  1  2  2  0  0  0
  2  3  1  0  0  0
  3  4  2  0  0  0
  4  5  1  0  0  0
  5  6  2  0  0  0
  6 21  1  0  0  0
 21 22  3  0  0  0
  6  7  1  0  0  0
  7 23  1  0  0  0
 23 25  1  0  0  0
 25 26  2  0  0  0
 26 27  1  0  0  0
 27 28  2  0  0  0
 28 32  1  0  0  0
 32 33  1  0  0  0
 33 34  1  0  0  0
 34 35  2  0  0  0
 35 36  1  0  0  0
 36 37  2  0  0  0
 37 38  1  0  0  0
 38 39  2  0  0  0
 28 29  1  0  0  0
 29 30  1  0  0  0
 29 31  2  0  0  0
  7  8  2  0  0  0
  8  9  1  0  0  0
  9 10  2  0  0  0
 10 11  1  0  0  0
 11 12  1  0  0  0
 12 13  2  0  0  0
 12 15  1  0  0  0
 15 16  2  0  0  0
 16 17  1  0  0  0
 17 18  1  0  0  0
 18 19  1  0  0  0
 18 20  1  0  0  0
 10  1  1  0  0  0
  8  3  1  0  0  0
 31 25  1  0  0  0
 39 34  1  0  0  0
 23 24  1  0  0  0
 11 14  1  0  0  0
M  END
> <minimizedAffinity>
-6.75712

> <CNNscore>
0.4255866408

> <CNNaffinity>
7.4878683090

> <CNN_VS>
3.1867368221

> <CNNaffinity_variance>
0.0582078584

$$$$
[H]/C(C(=O)N([H])c1c(OC([H])([H])C([H])([H])[H])c([H])c2nc([H])c(C#N)c(N([H])c3c([H])c([H])c(OC([H])([H])c4nc([H])c([H])c([H])c4[H])c(Cl)c3[H])c2c1[H])=C(/[H])C([H])([H])N(C([H])([H])[H])C([H])([H])[H]


 42 45  0  0  0  0  0  0  0  0999 V2000
    0.8700  -53.0738  -26.4218 C   0  0  0  0  0  0  0  0  0  0  0  0
    0.2586  -54.1727  -25.8874 C   0  0  0  0  0  0  0  0  0  0  0  0
   -0.2445  -54.0816  -24.5950 C   0  0  0  0  0  0  0  0  0  0  0  0
   -0.8510  -55.1456  -24.0434 N   0  0  0  0  0  0  0  0  0  0  0  0
   -1.3387  -55.0595  -22.7926 C   0  0  0  0  0  0  0  0  0  0  0  0
   -1.2546  -53.9208  -22.0197 C   0  0  0  0  0  0  0  0  0  0  0  0
   -0.6322  -52.8140  -22.5731 C   0  0  0  0  0  0  0  0  0  0  0  0
   -0.1436  -52.9325  -23.8536 C   0  0  0  0  0  0  0  0  0  0  0  0
    0.4854  -51.8472  -24.4415 C   0  0  0  0  0  0  0  0  0  0  0  0
    1.0117  -51.8491  -25.7136 C   0  0  0  0  0  0  0  0  0  0  0  0
    1.6543  -50.7743  -26.3433 N   0  0  0  0  0  0  0  0  0  0  0  0
    2.9520  -50.3230  -26.1616 C   0  0  0  0  0  0  0  0  0  0  0  0
    3.7634  -50.8363  -25.3755 O   0  0  0  0  0  0  0  0  0  0  0  0
    1.0667  -50.2319  -27.0570 H   0  0  0  0  0  0  0  0  0  0  0  0
    3.4610  -49.1526  -26.9302 C   0  0  0  0  0  0  0  0  0  0  0  0
    3.3022  -47.9113  -26.5117 C   0  0  0  0  0  0  0  0  0  0  0  0
    3.8078  -46.7492  -27.2751 C   0  0  0  0  0  0  0  0  0  0  0  0
    3.1871  -46.6486  -28.5839 N   0  0  0  0  0  0  0  0  0  0  0  0
    4.1332  -46.0784  -29.5062 C   0  0  0  0  0  0  0  0  0  0  0  0
    2.0148  -45.7961  -28.5375 C   0  0  0  0  0  0  0  0  0  0  0  0
   -1.7971  -53.8796  -20.6751 C   0  0  0  0  0  0  0  0  0  0  0  0
   -2.2490  -53.8439  -19.6078 N   0  0  0  0  0  0  0  0  0  0  0  0
   -0.5397  -51.6464  -21.7955 N   0  0  0  0  0  0  0  0  0  0  0  0
   -1.2169  -50.8640  -21.8676 H   0  0  0  0  0  0  0  0  0  0  0  0
    0.5313  -51.5306  -20.8667 C   0  0  0  0  0  0  0  0  0  0  0  0
    0.3036  -51.3576  -19.5111 C   0  0  0  0  0  0  0  0  0  0  0  0
    1.3494  -51.2447  -18.6067 C   0  0  0  0  0  0  0  0  0  0  0  0
    2.6433  -51.3028  -19.0419 C   0  0  0  0  0  0  0  0  0  0  0  0
    2.8979  -51.4738  -20.3818 C   0  0  0  0  0  0  0  0  0  0  0  0
    4.5633  -51.5445  -20.9107 Cl  0  0  0  0  0  0  0  0  0  0  0  0
    1.8666  -51.5840  -21.2652 C   0  0  0  0  0  0  0  0  0  0  0  0
    3.7115  -51.1939  -18.1690 O   0  0  0  0  0  0  0  0  0  0  0  0
    3.6903  -50.1606  -17.1920 C   0  0  0  0  0  0  0  0  0  0  0  0
    3.7050  -50.7192  -15.8279 C   0  0  0  0  0  0  0  0  0  0  0  0
    3.3132  -49.9884  -14.7134 C   0  0  0  0  0  0  0  0  0  0  0  0
    3.3324  -50.5245  -13.4447 C   0  0  0  0  0  0  0  0  0  0  0  0
    3.7596  -51.8311  -13.3108 C   0  0  0  0  0  0  0  0  0  0  0  0
    4.1480  -52.5571  -14.4117 C   0  0  0  0  0  0  0  0  0  0  0  0
    4.1072  -51.9783  -15.6259 N   0  0  0  0  0  0  0  0  0  0  0  0
    1.3762  -53.1417  -27.6994 O   0  0  0  0  0  0  0  0  0  0  0  0
   -0.6879  -52.6181  -28.9001 C   0  0  0  0  0  0  0  0  0  0  0  0
    0.6899  -53.2127  -28.9077 C   0  0  0  0  0  0  0  0  0  0  0  0
 41 42  1  0  0  0
 42 40  1  0  0  0
 40  1  1  0  0  0
  1  2  2  0  0  0
  2  3  1  0  0  0
  3  4  2  0  0  0
  4  5  1  0  0  0
  5  6  2  0  0  0
  6 21  1  0  0  0
 21 22  3  0  0  0
  6  7  1  0  0  0
  7 23  1  0  0  0
 23 25  1  0  0  0
 25 26  2  0  0  0
 26 27  1  0  0  0
 27 28  2  0  0  0
 28 32  1  0  0  0
 32 33  1  0  0  0
 33 34  1  0  0  0
 34 35  2  0  0  0
 35 36  1  0  0  0
 36 37  2  0  0  0
 37 38  1  0  0  0
 38 39  2  0  0  0
 28 29  1  0  0  0
 29 30  1  0  0  0
 29 31  2  0  0  0
  7  8  2  0  0  0
  8  9  1  0  0  0
  9 10  2  0  0  0
 10 11  1  0  0  0
 11 12  1  0  0  0
 12 13  2  0  0  0
 12 15  1  0  0  0
 15 16  2  0  0  0
 16 17  1  0  0  0
 17 18  1  0  0  0
 18 19  1  0  0  0
 18 20  1  0  0  0
 10  1  1  0  0  0
  8  3  1  0  0  0
 31 25  1  0  0  0
 39 34  1  0  0  0
 23 24  1  0  0  0
 11 14  1  0  0  0
M  END
> <minimizedAffinity>
-7.93852

> <CNNscore>
0.3421504796

> <CNNaffinity>
7.4864106178

> <CNN_VS>
2.5614790916

> <CNNaffinity_variance>
0.0997672528

$$$$
[H]/C(C(=O)N([H])c1c(OC([H])([H])C([H])([H])[H])c([H])c2nc([H])c(C#N)c(N([H])c3c([H])c([H])c(OC([H])([H])c4nc([H])c([H])c([H])c4[H])c(Cl)c3[H])c2c1[H])=C(/[H])C([H])([H])N(C([H])([H])[H])C([H])([H])[H]


 42 45  0  0  0  0  0  0  0  0999 V2000
    0.3652  -51.1751  -18.9762 C   0  0  0  0  0  0  0  0  0  0  0  0
   -0.1375  -52.4245  -19.2070 C   0  0  0  0  0  0  0  0  0  0  0  0
   -0.2137  -52.8700  -20.5213 C   0  0  0  0  0  0  0  0  0  0  0  0
   -0.7032  -54.0940  -20.7789 N   0  0  0  0  0  0  0  0  0  0  0  0
   -0.7777  -54.5271  -22.0503 C   0  0  0  0  0  0  0  0  0  0  0  0
   -0.3740  -53.7772  -23.1347 C   0  0  0  0  0  0  0  0  0  0  0  0
    0.1336  -52.5124  -22.8871 C   0  0  0  0  0  0  0  0  0  0  0  0
    0.1972  -52.0974  -21.5771 C   0  0  0  0  0  0  0  0  0  0  0  0
    0.6988  -50.8385  -21.2892 C   0  0  0  0  0  0  0  0  0  0  0  0
    0.8103  -50.3178  -20.0196 C   0  0  0  0  0  0  0  0  0  0  0  0
    1.3112  -49.0516  -19.6871 N   0  0  0  0  0  0  0  0  0  0  0  0
    2.5855  -48.5493  -19.8974 C   0  0  0  0  0  0  0  0  0  0  0  0
    3.5040  -49.1858  -20.4369 O   0  0  0  0  0  0  0  0  0  0  0  0
    0.6199  -48.3866  -19.2089 H   0  0  0  0  0  0  0  0  0  0  0  0
    2.9335  -47.1649  -19.4705 C   0  0  0  0  0  0  0  0  0  0  0  0
    4.1617  -46.8184  -19.1351 C   0  0  0  0  0  0  0  0  0  0  0  0
    4.5070  -45.4436  -18.7112 C   0  0  0  0  0  0  0  0  0  0  0  0
    5.2951  -45.4341  -17.4917 N   0  0  0  0  0  0  0  0  0  0  0  0
    6.3906  -44.5147  -17.6516 C   0  0  0  0  0  0  0  0  0  0  0  0
    5.8335  -46.7513  -17.2120 C   0  0  0  0  0  0  0  0  0  0  0  0
   -0.4753  -54.2910  -24.4873 C   0  0  0  0  0  0  0  0  0  0  0  0
   -0.5741  -54.6929  -25.5705 N   0  0  0  0  0  0  0  0  0  0  0  0
    0.5489  -51.7372  -23.9840 N   0  0  0  0  0  0  0  0  0  0  0  0
   -0.0934  -51.4414  -24.7428 H   0  0  0  0  0  0  0  0  0  0  0  0
    1.9125  -51.3394  -24.0585 C   0  0  0  0  0  0  0  0  0  0  0  0
    2.2760  -50.0104  -24.2044 C   0  0  0  0  0  0  0  0  0  0  0  0
    3.6064  -49.6243  -24.2771 C   0  0  0  0  0  0  0  0  0  0  0  0
    4.5986  -50.5610  -24.2051 C   0  0  0  0  0  0  0  0  0  0  0  0
    4.2661  -51.8869  -24.0604 C   0  0  0  0  0  0  0  0  0  0  0  0
    5.5562  -53.0641  -23.9710 Cl  0  0  0  0  0  0  0  0  0  0  0  0
    2.9577  -52.2600  -23.9896 C   0  0  0  0  0  0  0  0  0  0  0  0
    5.9361  -50.2129  -24.2741 O   0  0  0  0  0  0  0  0  0  0  0  0
    6.2996  -48.8569  -24.0466 C   0  0  0  0  0  0  0  0  0  0  0  0
    6.7579  -48.6555  -22.6599 C   0  0  0  0  0  0  0  0  0  0  0  0
    6.7968  -47.4048  -22.0566 C   0  0  0  0  0  0  0  0  0  0  0  0
    7.2277  -47.2327  -20.7597 C   0  0  0  0  0  0  0  0  0  0  0  0
    7.6266  -48.3582  -20.0654 C   0  0  0  0  0  0  0  0  0  0  0  0
    7.5893  -49.5973  -20.6596 C   0  0  0  0  0  0  0  0  0  0  0  0
    7.1582  -49.7019  -21.9301 N   0  0  0  0  0  0  0  0  0  0  0  0
    0.4491  -50.7132  -17.6829 O   0  0  0  0  0  0  0  0  0  0  0  0
   -0.8748  -49.8210  -15.8315 C   0  0  0  0  0  0  0  0  0  0  0  0
   -0.3675  -51.0087  -16.5958 C   0  0  0  0  0  0  0  0  0  0  0  0
 41 42  1  0  0  0
 42 40  1  0  0  0
 40  1  1  0  0  0
  1  2  2  0  0  0
  2  3  1  0  0  0
  3  4  2  0  0  0
  4  5  1  0  0  0
  5  6  2  0  0  0
  6 21  1  0  0  0
 21 22  3  0  0  0
  6  7  1  0  0  0
  7 23  1  0  0  0
 23 25  1  0  0  0
 25 26  2  0  0  0
 26 27  1  0  0  0
 27 28  2  0  0  0
 28 32  1  0  0  0
 32 33  1  0  0  0
 33 34  1  0  0  0
 34 35  2  0  0  0
 35 36  1  0  0  0
 36 37  2  0  0  0
 37 38  1  0  0  0
 38 39  2  0  0  0
 28 29  1  0  0  0
 29 30  1  0  0  0
 29 31  2  0  0  0
  7  8  2  0  0  0
  8  9  1  0  0  0
  9 10  2  0  0  0
 10 11  1  0  0  0
 11 12  1  0  0  0
 12 13  2  0  0  0
 12 15  1  0  0  0
 15 16  2  0  0  0
 16 17  1  0  0  0
 17 18  1  0  0  0
 18 19  1  0  0  0
 18 20  1  0  0  0
 10  1  1  0  0  0
  8  3  1  0  0  0
 31 25  1  0  0  0
 39 34  1  0  0  0
 23 24  1  0  0  0
 11 14  1  0  0  0
M  END
> <minimizedAffinity>
-6.42254

> <CNNscore>
0.3277261257

> <CNNaffinity>
7.2081284523

> <CNN_VS>
2.3622920513

> <CNNaffinity_variance>
0.3032479584

$$$$
[H]/C(C(=O)N([H])c1c(OC([H])([H])C([H])([H])[H])c([H])c2nc([H])c(C#N)c(N([H])c3c([H])c([H])c(OC([H])([H])c4nc([H])c([H])c([H])c4[H])c(Cl)c3[H])c2c1[H])=C(/[H])C([H])([H])N(C([H])([H])[H])C([H])([H])[H]


 42 45  0  0  0  0  0  0  0  0999 V2000
   -0.3329  -52.5193  -21.2966 C   0  0  0  0  0  0  0  0  0  0  0  0
   -0.8148  -53.1605  -22.4028 C   0  0  0  0  0  0  0  0  0  0  0  0
   -0.0250  -53.1824  -23.5462 C   0  0  0  0  0  0  0  0  0  0  0  0
   -0.4722  -53.8055  -24.6488 N   0  0  0  0  0  0  0  0  0  0  0  0
    0.2908  -53.8278  -25.7566 C   0  0  0  0  0  0  0  0  0  0  0  0
    1.5343  -53.2375  -25.8362 C   0  0  0  0  0  0  0  0  0  0  0  0
    2.0111  -52.5906  -24.7080 C   0  0  0  0  0  0  0  0  0  0  0  0
    1.2084  -52.5846  -23.5908 C   0  0  0  0  0  0  0  0  0  0  0  0
    1.6504  -51.9476  -22.4428 C   0  0  0  0  0  0  0  0  0  0  0  0
    0.9354  -51.8774  -21.2684 C   0  0  0  0  0  0  0  0  0  0  0  0
    1.3466  -51.2439  -20.0876 N   0  0  0  0  0  0  0  0  0  0  0  0
    2.5419  -51.3950  -19.4027 C   0  0  0  0  0  0  0  0  0  0  0  0
    3.4582  -52.1512  -19.7609 O   0  0  0  0  0  0  0  0  0  0  0  0
    0.6468  -50.5541  -19.6594 H   0  0  0  0  0  0  0  0  0  0  0  0
    2.7998  -50.6276  -18.1519 C   0  0  0  0  0  0  0  0  0  0  0  0
    1.8717  -49.8888  -17.5741 C   0  0  0  0  0  0  0  0  0  0  0  0
    2.1281  -49.1269  -16.3320 C   0  0  0  0  0  0  0  0  0  0  0  0
    0.9331  -49.0006  -15.5169 N   0  0  0  0  0  0  0  0  0  0  0  0
   -0.2198  -49.2712  -16.3346 C   0  0  0  0  0  0  0  0  0  0  0  0
    0.8131  -47.6599  -14.9770 C   0  0  0  0  0  0  0  0  0  0  0  0
    2.3180  -53.2902  -27.0556 C   0  0  0  0  0  0  0  0  0  0  0  0
    2.9383  -53.3140  -28.0350 N   0  0  0  0  0  0  0  0  0  0  0  0
    3.2778  -51.9845  -24.7757 N   0  0  0  0  0  0  0  0  0  0  0  0
    4.1642  -52.5154  -24.6846 H   0  0  0  0  0  0  0  0  0  0  0  0
    3.3493  -50.5784  -24.9783 C   0  0  0  0  0  0  0  0  0  0  0  0
    3.1644  -50.0131  -26.2296 C   0  0  0  0  0  0  0  0  0  0  0  0
    3.2346  -48.6415  -26.4254 C   0  0  0  0  0  0  0  0  0  0  0  0
    3.4913  -47.8095  -25.3724 C   0  0  0  0  0  0  0  0  0  0  0  0
    3.6789  -48.3438  -24.1199 C   0  0  0  0  0  0  0  0  0  0  0  0
    4.0059  -47.2555  -22.7906 Cl  0  0  0  0  0  0  0  0  0  0  0  0
    3.6087  -49.6916  -23.9339 C   0  0  0  0  0  0  0  0  0  0  0  0
    3.5686  -46.4369  -25.5300 O   0  0  0  0  0  0  0  0  0  0  0  0
    2.4980  -45.7647  -26.1817 C   0  0  0  0  0  0  0  0  0  0  0  0
    2.8388  -45.4567  -27.5825 C   0  0  0  0  0  0  0  0  0  0  0  0
    2.0342  -45.8327  -28.6507 C   0  0  0  0  0  0  0  0  0  0  0  0
    2.3661  -45.5375  -29.9544 C   0  0  0  0  0  0  0  0  0  0  0  0
    3.5416  -44.8456  -30.1724 C   0  0  0  0  0  0  0  0  0  0  0  0
    4.3401  -44.4721  -29.1176 C   0  0  0  0  0  0  0  0  0  0  0  0
    3.9623  -44.7893  -27.8655 N   0  0  0  0  0  0  0  0  0  0  0  0
   -1.0983  -52.4845  -20.1538 O   0  0  0  0  0  0  0  0  0  0  0  0
   -1.0720  -52.6868  -17.7177 C   0  0  0  0  0  0  0  0  0  0  0  0
   -1.0799  -53.3494  -19.0641 C   0  0  0  0  0  0  0  0  0  0  0  0
 41 42  1  0  0  0
 42 40  1  0  0  0
 40  1  1  0  0  0
  1  2  2  0  0  0
  2  3  1  0  0  0
  3  4  2  0  0  0
  4  5  1  0  0  0
  5  6  2  0  0  0
  6 21  1  0  0  0
 21 22  3  0  0  0
  6  7  1  0  0  0
  7 23  1  0  0  0
 23 25  1  0  0  0
 25 26  2  0  0  0
 26 27  1  0  0  0
 27 28  2  0  0  0
 28 32  1  0  0  0
 32 33  1  0  0  0
 33 34  1  0  0  0
 34 35  2  0  0  0
 35 36  1  0  0  0
 36 37  2  0  0  0
 37 38  1  0  0  0
 38 39  2  0  0  0
 28 29  1  0  0  0
 29 30  1  0  0  0
 29 31  2  0  0  0
  7  8  2  0  0  0
  8  9  1  0  0  0
  9 10  2  0  0  0
 10 11  1  0  0  0
 11 12  1  0  0  0
 12 13  2  0  0  0
 12 15  1  0  0  0
 15 16  2  0  0  0
 16 17  1  0  0  0
 17 18  1  0  0  0
 18 19  1  0  0  0
 18 20  1  0  0  0
 10  1  1  0  0  0
  8  3  1  0  0  0
 31 25  1  0  0  0
 39 34  1  0  0  0
 23 24  1  0  0  0
 11 14  1  0  0  0
M  END
> <minimizedAffinity>
-7.08512

> <CNNscore>
0.2077915668

> <CNNaffinity>
7.3114457130

> <CNN_VS>
1.5192567110

> <CNNaffinity_variance>
0.0670454651

$$$$
[H]/C(C(=O)N([H])c1c(OC([H])([H])C([H])([H])[H])c([H])c2nc([H])c(C#N)c(N([H])c3c([H])c([H])c(OC([H])([H])c4nc([H])c([H])c([H])c4[H])c(Cl)c3[H])c2c1[H])=C(/[H])C([H])([H])N(C([H])([H])[H])C([H])([H])[H]


 42 45  0  0  0  0  0  0  0  0999 V2000
   -1.3655  -46.9924  -15.0710 C   0  0  0  0  0  0  0  0  0  0  0  0
   -2.6913  -47.3094  -14.9774 C   0  0  0  0  0  0  0  0  0  0  0  0
   -3.0612  -48.6405  -15.1288 C   0  0  0  0  0  0  0  0  0  0  0  0
   -4.3572  -48.9823  -15.0415 N   0  0  0  0  0  0  0  0  0  0  0  0
   -4.7173  -50.2702  -15.1878 C   0  0  0  0  0  0  0  0  0  0  0  0
   -3.8197  -51.2889  -15.4278 C   0  0  0  0  0  0  0  0  0  0  0  0
   -2.4788  -50.9541  -15.5207 C   0  0  0  0  0  0  0  0  0  0  0  0
   -2.1414  -49.6294  -15.3668 C   0  0  0  0  0  0  0  0  0  0  0  0
   -0.8104  -49.2551  -15.4532 C   0  0  0  0  0  0  0  0  0  0  0  0
   -0.3557  -47.9629  -15.3160 C   0  0  0  0  0  0  0  0  0  0  0  0
    0.9795  -47.5441  -15.3964 N   0  0  0  0  0  0  0  0  0  0  0  0
    2.1289  -48.3049  -15.2532 C   0  0  0  0  0  0  0  0  0  0  0  0
    2.1319  -49.5242  -15.0223 O   0  0  0  0  0  0  0  0  0  0  0  0
    1.1310  -46.5015  -15.5940 H   0  0  0  0  0  0  0  0  0  0  0  0
    3.4737  -47.6749  -15.3737 C   0  0  0  0  0  0  0  0  0  0  0  0
    4.0067  -47.3692  -16.5414 C   0  0  0  0  0  0  0  0  0  0  0  0
    5.3422  -46.7436  -16.6608 C   0  0  0  0  0  0  0  0  0  0  0  0
    5.3234  -45.5893  -17.5416 N   0  0  0  0  0  0  0  0  0  0  0  0
    4.8512  -45.9994  -18.8376 C   0  0  0  0  0  0  0  0  0  0  0  0
    6.6526  -45.0285  -17.6896 C   0  0  0  0  0  0  0  0  0  0  0  0
   -4.2598  -52.6628  -15.5779 C   0  0  0  0  0  0  0  0  0  0  0  0
   -4.5933  -53.7662  -15.7038 N   0  0  0  0  0  0  0  0  0  0  0  0
   -1.5529  -51.9834  -15.7652 N   0  0  0  0  0  0  0  0  0  0  0  0
   -1.2804  -52.6810  -15.0475 H   0  0  0  0  0  0  0  0  0  0  0  0
   -0.9613  -52.0740  -17.0555 C   0  0  0  0  0  0  0  0  0  0  0  0
    0.1807  -51.3618  -17.3843 C   0  0  0  0  0  0  0  0  0  0  0  0
    0.7563  -51.4514  -18.6433 C   0  0  0  0  0  0  0  0  0  0  0  0
    0.1997  -52.2556  -19.5975 C   0  0  0  0  0  0  0  0  0  0  0  0
   -0.9337  -52.9734  -19.2982 C   0  0  0  0  0  0  0  0  0  0  0  0
   -1.6245  -53.9945  -20.5385 Cl  0  0  0  0  0  0  0  0  0  0  0  0
   -1.4943  -52.8813  -18.0600 C   0  0  0  0  0  0  0  0  0  0  0  0
    0.7461  -52.3697  -20.8637 O   0  0  0  0  0  0  0  0  0  0  0  0
    0.4564  -51.3615  -21.8240 C   0  0  0  0  0  0  0  0  0  0  0  0
    1.4380  -50.2638  -21.7539 C   0  0  0  0  0  0  0  0  0  0  0  0
    1.1018  -48.9819  -21.3375 C   0  0  0  0  0  0  0  0  0  0  0  0
    2.0306  -47.9665  -21.2773 C   0  0  0  0  0  0  0  0  0  0  0  0
    3.3270  -48.2648  -21.6492 C   0  0  0  0  0  0  0  0  0  0  0  0
    3.6629  -49.5324  -22.0617 C   0  0  0  0  0  0  0  0  0  0  0  0
    2.7110  -50.4830  -22.0994 N   0  0  0  0  0  0  0  0  0  0  0  0
   -0.9767  -45.6807  -14.9251 O   0  0  0  0  0  0  0  0  0  0  0  0
    0.2158  -44.9492  -12.9202 C   0  0  0  0  0  0  0  0  0  0  0  0
   -1.0082  -44.8823  -13.7860 C   0  0  0  0  0  0  0  0  0  0  0  0
 41 42  1  0  0  0
 42 40  1  0  0  0
 40  1  1  0  0  0
  1  2  2  0  0  0
  2  3  1  0  0  0
  3  4  2  0  0  0
  4  5  1  0  0  0
  5  6  2  0  0  0
  6 21  1  0  0  0
 21 22  3  0  0  0
  6  7  1  0  0  0
  7 23  1  0  0  0
 23 25  1  0  0  0
 25 26  2  0  0  0
 26 27  1  0  0  0
 27 28  2  0  0  0
 28 32  1  0  0  0
 32 33  1  0  0  0
 33 34  1  0  0  0
 34 35  2  0  0  0
 35 36  1  0  0  0
 36 37  2  0  0  0
 37 38  1  0  0  0
 38 39  2  0  0  0
 28 29  1  0  0  0
 29 30  1  0  0  0
 29 31  2  0  0  0
  7  8  2  0  0  0
  8  9  1  0  0  0
  9 10  2  0  0  0
 10 11  1  0  0  0
 11 12  1  0  0  0
 12 13  2  0  0  0
 12 15  1  0  0  0
 15 16  2  0  0  0
 16 17  1  0  0  0
 17 18  1  0  0  0
 18 19  1  0  0  0
 18 20  1  0  0  0
 10  1  1  0  0  0
  8  3  1  0  0  0
 31 25  1  0  0  0
 39 34  1  0  0  0
 23 24  1  0  0  0
 11 14  1  0  0  0
M  END
> <minimizedAffinity>
-6.09440

> <CNNscore>
0.1960421503

> <CNNaffinity>
6.6302156448

> <CNN_VS>
1.2998017073

> <CNNaffinity_variance>
0.2255783975

$$$$
[H]/C(C(=O)N([H])c1c(OC([H])([H])C([H])([H])[H])c([H])c2nc([H])c(C#N)c(N([H])c3c([H])c([H])c(OC([H])([H])c4nc([H])c([H])c([H])c4[H])c(Cl)c3[H])c2c1[H])=C(/[H])C([H])([H])N(C([H])([H])[H])C([H])([H])[H]


 42 45  0  0  0  0  0  0  0  0999 V2000
   -0.0427  -52.2001  -21.0724 C   0  0  0  0  0  0  0  0  0  0  0  0
   -0.5186  -52.9065  -22.1408 C   0  0  0  0  0  0  0  0  0  0  0  0
    0.2496  -52.9448  -23.2984 C   0  0  0  0  0  0  0  0  0  0  0  0
   -0.1925  -53.6316  -24.3647 N   0  0  0  0  0  0  0  0  0  0  0  0
    0.5495  -53.6699  -25.4862 C   0  0  0  0  0  0  0  0  0  0  0  0
    1.7659  -53.0336  -25.6161 C   0  0  0  0  0  0  0  0  0  0  0  0
    2.2369  -52.3207  -24.5258 C   0  0  0  0  0  0  0  0  0  0  0  0
    1.4560  -52.3000  -23.3934 C   0  0  0  0  0  0  0  0  0  0  0  0
    1.8932  -51.5976  -22.2822 C   0  0  0  0  0  0  0  0  0  0  0  0
    1.1984  -51.5067  -21.0972 C   0  0  0  0  0  0  0  0  0  0  0  0
    1.6055  -50.8078  -19.9525 N   0  0  0  0  0  0  0  0  0  0  0  0
    1.4928  -49.4521  -19.6880 C   0  0  0  0  0  0  0  0  0  0  0  0
    0.9898  -48.6301  -20.4699 O   0  0  0  0  0  0  0  0  0  0  0  0
    2.0624  -51.3975  -19.1829 H   0  0  0  0  0  0  0  0  0  0  0  0
    1.9886  -48.8881  -18.4012 C   0  0  0  0  0  0  0  0  0  0  0  0
    3.0734  -48.1402  -18.3308 C   0  0  0  0  0  0  0  0  0  0  0  0
    3.5656  -47.5802  -17.0529 C   0  0  0  0  0  0  0  0  0  0  0  0
    3.3675  -46.1437  -16.9782 N   0  0  0  0  0  0  0  0  0  0  0  0
    3.7992  -45.5485  -18.2153 C   0  0  0  0  0  0  0  0  0  0  0  0
    4.1405  -45.5694  -15.8939 C   0  0  0  0  0  0  0  0  0  0  0  0
    2.5277  -53.1060  -26.8482 C   0  0  0  0  0  0  0  0  0  0  0  0
    3.1338  -53.1445  -27.8360 N   0  0  0  0  0  0  0  0  0  0  0  0
    3.4759  -51.6673  -24.6449 N   0  0  0  0  0  0  0  0  0  0  0  0
    4.3851  -52.1566  -24.5456 H   0  0  0  0  0  0  0  0  0  0  0  0
    3.4854  -50.2706  -24.9139 C   0  0  0  0  0  0  0  0  0  0  0  0
    3.6558  -49.7777  -26.1975 C   0  0  0  0  0  0  0  0  0  0  0  0
    3.6649  -48.4151  -26.4579 C   0  0  0  0  0  0  0  0  0  0  0  0
    3.5037  -47.5197  -25.4384 C   0  0  0  0  0  0  0  0  0  0  0  0
    3.3327  -47.9815  -24.1551 C   0  0  0  0  0  0  0  0  0  0  0  0
    3.1288  -46.8131  -22.8699 Cl  0  0  0  0  0  0  0  0  0  0  0  0
    3.3247  -49.3208  -23.9056 C   0  0  0  0  0  0  0  0  0  0  0  0
    3.5073  -46.1539  -25.6606 O   0  0  0  0  0  0  0  0  0  0  0  0
    2.4226  -45.5775  -26.3773 C   0  0  0  0  0  0  0  0  0  0  0  0
    2.7696  -45.3790  -27.7963 C   0  0  0  0  0  0  0  0  0  0  0  0
    2.0261  -45.9264  -28.8343 C   0  0  0  0  0  0  0  0  0  0  0  0
    2.3631  -45.7319  -30.1556 C   0  0  0  0  0  0  0  0  0  0  0  0
    3.4800  -44.9645  -30.4228 C   0  0  0  0  0  0  0  0  0  0  0  0
    4.2179  -44.4215  -29.3979 C   0  0  0  0  0  0  0  0  0  0  0  0
    3.8385  -44.6468  -28.1266 N   0  0  0  0  0  0  0  0  0  0  0  0
   -0.7869  -52.1480  -19.9164 O   0  0  0  0  0  0  0  0  0  0  0  0
   -0.6866  -52.3166  -17.4796 C   0  0  0  0  0  0  0  0  0  0  0  0
   -0.7499  -52.9978  -18.8153 C   0  0  0  0  0  0  0  0  0  0  0  0
 41 42  1  0  0  0
 42 40  1  0  0  0
 40  1  1  0  0  0
  1  2  2  0  0  0
  2  3  1  0  0  0
  3  4  2  0  0  0
  4  5  1  0  0  0
  5  6  2  0  0  0
  6 21  1  0  0  0
 21 22  3  0  0  0
  6  7  1  0  0  0
  7 23  1  0  0  0
 23 25  1  0  0  0
 25 26  2  0  0  0
 26 27  1  0  0  0
 27 28  2  0  0  0
 28 32  1  0  0  0
 32 33  1  0  0  0
 33 34  1  0  0  0
 34 35  2  0  0  0
 35 36  1  0  0  0
 36 37  2  0  0  0
 37 38  1  0  0  0
 38 39  2  0  0  0
 28 29  1  0  0  0
 29 30  1  0  0  0
 29 31  2  0  0  0
  7  8  2  0  0  0
  8  9  1  0  0  0
  9 10  2  0  0  0
 10 11  1  0  0  0
 11 12  1  0  0  0
 12 13  2  0  0  0
 12 15  1  0  0  0
 15 16  2  0  0  0
 16 17  1  0  0  0
 17 18  1  0  0  0
 18 19  1  0  0  0
 18 20  1  0  0  0
 10  1  1  0  0  0
  8  3  1  0  0  0
 31 25  1  0  0  0
 39 34  1  0  0  0
 23 24  1  0  0  0
 11 14  1  0  0  0
M  END
> <minimizedAffinity>
-6.77996

> <CNNscore>
0.1943701357

> <CNNaffinity>
7.2470917702

> <CNN_VS>
1.4086182117

> <CNNaffinity_variance>
0.0784588084

$$$$
[H]c1nc(N([H])c2c([H])c([H])c(OC([H])([H])c3c([H])c([H])c([H])c(F)c3[H])c(Cl)c2[H])c2c([H])c(-c3oc(C([H])([H])N([H])C([H])([H])C([H])([H])S(=O)(=O)C([H])([H])[H])c([H])c3[H])c([H])c([H])c2n1


 42 46  0  0  0  0  0  0  0  0999 V2000
    0.0357  -51.7163  -21.1800 C   0  0  0  0  0  0  0  0  0  0  0  0
   -0.4069  -52.7216  -20.3143 C   0  0  0  0  0  0  0  0  0  0  0  0
   -0.8611  -53.9274  -20.7760 C   0  0  0  0  0  0  0  0  0  0  0  0
   -0.8946  -54.1838  -22.1210 C   0  0  0  0  0  0  0  0  0  0  0  0
   -1.2883  -55.3705  -22.6187 N   0  0  0  0  0  0  0  0  0  0  0  0
   -1.2705  -55.6246  -23.9327 C   0  0  0  0  0  0  0  0  0  0  0  0
   -0.8508  -54.6747  -24.7774 N   0  0  0  0  0  0  0  0  0  0  0  0
   -0.4355  -53.4472  -24.3659 C   0  0  0  0  0  0  0  0  0  0  0  0
   -0.4595  -53.2002  -23.0328 C   0  0  0  0  0  0  0  0  0  0  0  0
   -0.0041  -51.9825  -22.5188 C   0  0  0  0  0  0  0  0  0  0  0  0
    1.3385  -49.2437  -18.9508 C   0  0  0  0  0  0  0  0  0  0  0  0
    1.5749  -48.5364  -20.0729 C   0  0  0  0  0  0  0  0  0  0  0  0
    1.1151  -49.3665  -21.1180 C   0  0  0  0  0  0  0  0  0  0  0  0
    0.6367  -50.5007  -20.5790 C   0  0  0  0  0  0  0  0  0  0  0  0
    0.7895  -50.3793  -19.2892 O   0  0  0  0  0  0  0  0  0  0  0  0
    1.5896  -48.9714  -17.5242 C   0  0  0  0  0  0  0  0  0  0  0  0
    0.4503  -49.3301  -16.6682 N   0  0  0  0  0  0  0  0  0  0  0  0
    0.1042  -50.2675  -16.8974 H   0  0  0  0  0  0  0  0  0  0  0  0
    0.9052  -49.3012  -15.2982 C   0  0  0  0  0  0  0  0  0  0  0  0
    1.4937  -50.5299  -14.7076 C   0  0  0  0  0  0  0  0  0  0  0  0
   -1.2719  -50.7735  -13.7395 C   0  0  0  0  0  0  0  0  0  0  0  0
    0.0872  -51.6472  -14.4154 S   0  0  0  0  0  0  0  0  0  0  0  0
    0.5667  -52.8054  -13.6393 O   0  0  0  0  0  0  0  0  0  0  0  0
   -0.3193  -52.1019  -15.8127 O   0  0  0  0  0  0  0  0  0  0  0  0
    0.0025  -52.4790  -25.3153 N   0  0  0  0  0  0  0  0  0  0  0  0
   -0.5489  -52.0240  -26.0472 H   0  0  0  0  0  0  0  0  0  0  0  0
    1.3997  -52.1539  -25.1856 C   0  0  0  0  0  0  0  0  0  0  0  0
    2.4234  -53.0622  -25.1316 C   0  0  0  0  0  0  0  0  0  0  0  0
    3.7342  -52.6512  -24.9176 C   0  0  0  0  0  0  0  0  0  0  0  0
    4.0622  -51.3305  -24.7494 C   0  0  0  0  0  0  0  0  0  0  0  0
    2.9798  -50.4210  -24.8175 C   0  0  0  0  0  0  0  0  0  0  0  0
    3.3270  -48.6967  -24.6343 Cl  0  0  0  0  0  0  0  0  0  0  0  0
    1.6937  -50.8200  -25.0290 C   0  0  0  0  0  0  0  0  0  0  0  0
    5.2735  -50.8359  -24.5188 O   0  0  0  0  0  0  0  0  0  0  0  0
    6.1362  -50.4124  -23.6201 C   0  0  0  0  0  0  0  0  0  0  0  0
    5.7844  -50.0703  -22.2380 C   0  0  0  0  0  0  0  0  0  0  0  0
    6.3032  -48.8464  -21.7361 C   0  0  0  0  0  0  0  0  0  0  0  0
    6.0020  -48.4658  -20.4558 C   0  0  0  0  0  0  0  0  0  0  0  0
    5.1942  -49.2394  -19.6087 C   0  0  0  0  0  0  0  0  0  0  0  0
    4.6865  -50.4263  -20.0864 C   0  0  0  0  0  0  0  0  0  0  0  0
    3.8824  -51.2601  -19.3702 F   0  0  0  0  0  0  0  0  0  0  0  0
    5.0043  -50.8066  -21.4017 C   0  0  0  0  0  0  0  0  0  0  0  0
 21 22  1  0  0  0
 22 23  2  0  0  0
 22 24  2  0  0  0
 22 20  1  0  0  0
 20 19  1  0  0  0
 19 17  1  0  0  0
 17 16  1  0  0  0
 16 11  1  0  0  0
 11 12  2  0  0  0
 12 13  1  0  0  0
 13 14  2  0  0  0
 14 15  1  0  0  0
 14  1  1  0  0  0
  1  2  2  0  0  0
  2  3  1  0  0  0
  3  4  2  0  0  0
  4  5  1  0  0  0
  5  6  2  0  0  0
  6  7  1  0  0  0
  7  8  2  0  0  0
  8 25  1  0  0  0
 25 27  1  0  0  0
 27 28  2  0  0  0
 28 29  1  0  0  0
 29 30  2  0  0  0
 30 34  1  0  0  0
 34 35  1  0  0  0
 35 36  1  0  0  0
 36 37  2  0  0  0
 37 38  1  0  0  0
 38 39  2  0  0  0
 39 40  1  0  0  0
 40 41  1  0  0  0
 40 42  2  0  0  0
 30 31  1  0  0  0
 31 32  1  0  0  0
 31 33  2  0  0  0
  8  9  1  0  0  0
  9 10  2  0  0  0
 15 11  1  0  0  0
 10  1  1  0  0  0
  9  4  1  0  0  0
 33 27  1  0  0  0
 42 36  1  0  0  0
 17 18  1  0  0  0
 25 26  1  0  0  0
M  END
> <minimizedAffinity>
-7.88483

> <CNNscore>
0.3251602948

> <CNNaffinity>
7.3374948502

> <CNN_VS>
2.3858618736

> <CNNaffinity_variance>
0.2706222534

$$$$
[H]c1nc(N([H])c2c([H])c([H])c(OC([H])([H])c3c([H])c([H])c([H])c(F)c3[H])c(Cl)c2[H])c2c([H])c(-c3oc(C([H])([H])N([H])C([H])([H])C([H])([H])S(=O)(=O)C([H])([H])[H])c([H])c3[H])c([H])c([H])c2n1


 42 46  0  0  0  0  0  0  0  0999 V2000
    0.9606  -52.9932  -24.3496 C   0  0  0  0  0  0  0  0  0  0  0  0
   -0.2235  -53.6953  -24.5969 C   0  0  0  0  0  0  0  0  0  0  0  0
   -1.0449  -54.1105  -23.5838 C   0  0  0  0  0  0  0  0  0  0  0  0
   -0.7219  -53.8444  -22.2796 C   0  0  0  0  0  0  0  0  0  0  0  0
   -1.5215  -54.1911  -21.2542 N   0  0  0  0  0  0  0  0  0  0  0  0
   -1.2173  -53.8824  -19.9878 C   0  0  0  0  0  0  0  0  0  0  0  0
   -0.0878  -53.2113  -19.7308 N   0  0  0  0  0  0  0  0  0  0  0  0
    0.7799  -52.8206  -20.7019 C   0  0  0  0  0  0  0  0  0  0  0  0
    0.4626  -53.1403  -21.9809 C   0  0  0  0  0  0  0  0  0  0  0  0
    1.2732  -52.7354  -23.0455 C   0  0  0  0  0  0  0  0  0  0  0  0
    2.8643  -50.9940  -26.6209 C   0  0  0  0  0  0  0  0  0  0  0  0
    2.7503  -52.0498  -27.4501 C   0  0  0  0  0  0  0  0  0  0  0  0
    2.0007  -52.9957  -26.7178 C   0  0  0  0  0  0  0  0  0  0  0  0
    1.7102  -52.4678  -25.5167 C   0  0  0  0  0  0  0  0  0  0  0  0
    2.2429  -51.2771  -25.5078 O   0  0  0  0  0  0  0  0  0  0  0  0
    3.5314  -49.6861  -26.7513 C   0  0  0  0  0  0  0  0  0  0  0  0
    3.5710  -48.9400  -25.4859 N   0  0  0  0  0  0  0  0  0  0  0  0
    2.8395  -49.2684  -24.8471 H   0  0  0  0  0  0  0  0  0  0  0  0
    4.8688  -49.1549  -24.8909 C   0  0  0  0  0  0  0  0  0  0  0  0
    5.0194  -49.0178  -23.4200 C   0  0  0  0  0  0  0  0  0  0  0  0
    5.5421  -51.8214  -24.1356 C   0  0  0  0  0  0  0  0  0  0  0  0
    5.3177  -50.7044  -22.8053 S   0  0  0  0  0  0  0  0  0  0  0  0
    4.2531  -51.0441  -21.8436 O   0  0  0  0  0  0  0  0  0  0  0  0
    6.6518  -50.6003  -22.0745 O   0  0  0  0  0  0  0  0  0  0  0  0
    1.9654  -52.1058  -20.3638 N   0  0  0  0  0  0  0  0  0  0  0  0
    2.8935  -52.1956  -20.7846 H   0  0  0  0  0  0  0  0  0  0  0  0
    1.7717  -51.1700  -19.2861 C   0  0  0  0  0  0  0  0  0  0  0  0
    0.9079  -50.1072  -19.3046 C   0  0  0  0  0  0  0  0  0  0  0  0
    0.8566  -49.2083  -18.2452 C   0  0  0  0  0  0  0  0  0  0  0  0
    1.6615  -49.3392  -17.1429 C   0  0  0  0  0  0  0  0  0  0  0  0
    2.5361  -50.4520  -17.1565 C   0  0  0  0  0  0  0  0  0  0  0  0
    3.5890  -50.7021  -15.7578 Cl  0  0  0  0  0  0  0  0  0  0  0  0
    2.5880  -51.3364  -18.1925 C   0  0  0  0  0  0  0  0  0  0  0  0
    1.7069  -48.5283  -16.0915 O   0  0  0  0  0  0  0  0  0  0  0  0
    1.2548  -48.2659  -14.8840 C   0  0  0  0  0  0  0  0  0  0  0  0
   -0.1492  -48.4031  -14.4827 C   0  0  0  0  0  0  0  0  0  0  0  0
   -0.3896  -48.9539  -13.1952 C   0  0  0  0  0  0  0  0  0  0  0  0
   -1.6791  -49.0982  -12.7581 C   0  0  0  0  0  0  0  0  0  0  0  0
   -2.7856  -48.7212  -13.5342 C   0  0  0  0  0  0  0  0  0  0  0  0
   -2.5626  -48.1861  -14.7825 C   0  0  0  0  0  0  0  0  0  0  0  0
   -3.5477  -47.7711  -15.6263 F   0  0  0  0  0  0  0  0  0  0  0  0
   -1.2344  -48.0446  -15.2202 C   0  0  0  0  0  0  0  0  0  0  0  0
 21 22  1  0  0  0
 22 23  2  0  0  0
 22 24  2  0  0  0
 22 20  1  0  0  0
 20 19  1  0  0  0
 19 17  1  0  0  0
 17 16  1  0  0  0
 16 11  1  0  0  0
 11 12  2  0  0  0
 12 13  1  0  0  0
 13 14  2  0  0  0
 14 15  1  0  0  0
 14  1  1  0  0  0
  1  2  2  0  0  0
  2  3  1  0  0  0
  3  4  2  0  0  0
  4  5  1  0  0  0
  5  6  2  0  0  0
  6  7  1  0  0  0
  7  8  2  0  0  0
  8 25  1  0  0  0
 25 27  1  0  0  0
 27 28  2  0  0  0
 28 29  1  0  0  0
 29 30  2  0  0  0
 30 34  1  0  0  0
 34 35  1  0  0  0
 35 36  1  0  0  0
 36 37  2  0  0  0
 37 38  1  0  0  0
 38 39  2  0  0  0
 39 40  1  0  0  0
 40 41  1  0  0  0
 40 42  2  0  0  0
 30 31  1  0  0  0
 31 32  1  0  0  0
 31 33  2  0  0  0
  8  9  1  0  0  0
  9 10  2  0  0  0
 15 11  1  0  0  0
 10  1  1  0  0  0
  9  4  1  0  0  0
 33 27  1  0  0  0
 42 36  1  0  0  0
 17 18  1  0  0  0
 25 26  1  0  0  0
M  END
> <minimizedAffinity>
-6.91807

> <CNNscore>
0.2377753258

> <CNNaffinity>
6.9785270691

> <CNN_VS>
1.6593215466

> <CNNaffinity_variance>
0.1546601802

$$$$
[H]c1nc(N([H])c2c([H])c([H])c(OC([H])([H])c3c([H])c([H])c([H])c(F)c3[H])c(Cl)c2[H])c2c([H])c(-c3oc(C([H])([H])N([H])C([H])([H])C([H])([H])S(=O)(=O)C([H])([H])[H])c([H])c3[H])c([H])c([H])c2n1


 42 46  0  0  0  0  0  0  0  0999 V2000
   -0.3948  -52.9435  -21.7266 C   0  0  0  0  0  0  0  0  0  0  0  0
   -1.0174  -54.1938  -21.7994 C   0  0  0  0  0  0  0  0  0  0  0  0
   -1.0974  -54.8965  -22.9712 C   0  0  0  0  0  0  0  0  0  0  0  0
   -0.5606  -54.3835  -24.1222 C   0  0  0  0  0  0  0  0  0  0  0  0
   -0.5735  -55.0583  -25.2864 N   0  0  0  0  0  0  0  0  0  0  0  0
   -0.0028  -54.5663  -26.3926 C   0  0  0  0  0  0  0  0  0  0  0  0
    0.5975  -53.3708  -26.3431 N   0  0  0  0  0  0  0  0  0  0  0  0
    0.6593  -52.6182  -25.2125 C   0  0  0  0  0  0  0  0  0  0  0  0
    0.0762  -53.1257  -24.0983 C   0  0  0  0  0  0  0  0  0  0  0  0
    0.1350  -52.4413  -22.8807 C   0  0  0  0  0  0  0  0  0  0  0  0
   -0.5229  -52.1721  -18.2383 C   0  0  0  0  0  0  0  0  0  0  0  0
    0.2250  -51.1031  -18.5746 C   0  0  0  0  0  0  0  0  0  0  0  0
    0.4008  -51.2192  -19.9705 C   0  0  0  0  0  0  0  0  0  0  0  0
   -0.2381  -52.3254  -20.3874 C   0  0  0  0  0  0  0  0  0  0  0  0
   -0.7728  -52.8559  -19.3224 O   0  0  0  0  0  0  0  0  0  0  0  0
   -1.0497  -52.6603  -16.9511 C   0  0  0  0  0  0  0  0  0  0  0  0
   -2.3892  -53.2521  -17.0733 N   0  0  0  0  0  0  0  0  0  0  0  0
   -2.3951  -54.2146  -16.7202 H   0  0  0  0  0  0  0  0  0  0  0  0
   -3.2983  -52.4434  -16.2960 C   0  0  0  0  0  0  0  0  0  0  0  0
   -4.5599  -53.0499  -15.8009 C   0  0  0  0  0  0  0  0  0  0  0  0
   -3.4330  -52.3367  -13.1804 C   0  0  0  0  0  0  0  0  0  0  0  0
   -4.8672  -52.2738  -14.1838 S   0  0  0  0  0  0  0  0  0  0  0  0
   -6.0894  -52.8649  -13.6089 O   0  0  0  0  0  0  0  0  0  0  0  0
   -5.1181  -50.8079  -14.5197 O   0  0  0  0  0  0  0  0  0  0  0  0
    1.3158  -51.3535  -25.2237 N   0  0  0  0  0  0  0  0  0  0  0  0
    1.0305  -50.5031  -25.7158 H   0  0  0  0  0  0  0  0  0  0  0  0
    2.5249  -51.3386  -24.4411 C   0  0  0  0  0  0  0  0  0  0  0  0
    3.4695  -52.3303  -24.4224 C   0  0  0  0  0  0  0  0  0  0  0  0
    4.5622  -52.2616  -23.5655 C   0  0  0  0  0  0  0  0  0  0  0  0
    4.7442  -51.2101  -22.7046 C   0  0  0  0  0  0  0  0  0  0  0  0
    3.7518  -50.2022  -22.7563 C   0  0  0  0  0  0  0  0  0  0  0  0
    3.9303  -48.8010  -21.6923 Cl  0  0  0  0  0  0  0  0  0  0  0  0
    2.6801  -50.2651  -23.5963 C   0  0  0  0  0  0  0  0  0  0  0  0
    5.7363  -51.0586  -21.8341 O   0  0  0  0  0  0  0  0  0  0  0  0
    6.9650  -50.6350  -21.6290 C   0  0  0  0  0  0  0  0  0  0  0  0
    7.7258  -49.8219  -22.5836 C   0  0  0  0  0  0  0  0  0  0  0  0
    8.3220  -48.6374  -22.0735 C   0  0  0  0  0  0  0  0  0  0  0  0
    9.0540  -47.8406  -22.9126 C   0  0  0  0  0  0  0  0  0  0  0  0
    9.2438  -48.1464  -24.2688 C   0  0  0  0  0  0  0  0  0  0  0  0
    8.6706  -49.2922  -24.7718 C   0  0  0  0  0  0  0  0  0  0  0  0
    8.7894  -49.7058  -26.0639 F   0  0  0  0  0  0  0  0  0  0  0  0
    7.9203  -50.1007  -23.9006 C   0  0  0  0  0  0  0  0  0  0  0  0
 21 22  1  0  0  0
 22 23  2  0  0  0
 22 24  2  0  0  0
 22 20  1  0  0  0
 20 19  1  0  0  0
 19 17  1  0  0  0
 17 16  1  0  0  0
 16 11  1  0  0  0
 11 12  2  0  0  0
 12 13  1  0  0  0
 13 14  2  0  0  0
 14 15  1  0  0  0
 14  1  1  0  0  0
  1  2  2  0  0  0
  2  3  1  0  0  0
  3  4  2  0  0  0
  4  5  1  0  0  0
  5  6  2  0  0  0
  6  7  1  0  0  0
  7  8  2  0  0  0
  8 25  1  0  0  0
 25 27  1  0  0  0
 27 28  2  0  0  0
 28 29  1  0  0  0
 29 30  2  0  0  0
 30 34  1  0  0  0
 34 35  1  0  0  0
 35 36  1  0  0  0
 36 37  2  0  0  0
 37 38  1  0  0  0
 38 39  2  0  0  0
 39 40  1  0  0  0
 40 41  1  0  0  0
 40 42  2  0  0  0
 30 31  1  0  0  0
 31 32  1  0  0  0
 31 33  2  0  0  0
  8  9  1  0  0  0
  9 10  2  0  0  0
 15 11  1  0  0  0
 10  1  1  0  0  0
  9  4  1  0  0  0
 33 27  1  0  0  0
 42 36  1  0  0  0
 17 18  1  0  0  0
 25 26  1  0  0  0
M  END
> <minimizedAffinity>
-8.81725

> <CNNscore>
0.1813489050

> <CNNaffinity>
6.9796080589

> <CNN_VS>
1.2657443285

> <CNNaffinity_variance>
0.1983645856

$$$$
[H]c1nc(N([H])c2c([H])c([H])c(OC([H])([H])c3c([H])c([H])c([H])c(F)c3[H])c(Cl)c2[H])c2c([H])c(-c3oc(C([H])([H])N([H])C([H])([H])C([H])([H])S(=O)(=O)C([H])([H])[H])c([H])c3[H])c([H])c([H])c2n1


 42 46  0  0  0  0  0  0  0  0999 V2000
    0.1259  -51.6595  -20.6329 C   0  0  0  0  0  0  0  0  0  0  0  0
   -0.3955  -52.7201  -19.8851 C   0  0  0  0  0  0  0  0  0  0  0  0
   -0.8969  -53.8473  -20.4779 C   0  0  0  0  0  0  0  0  0  0  0  0
   -0.9012  -53.9664  -21.8424 C   0  0  0  0  0  0  0  0  0  0  0  0
   -1.3400  -55.0744  -22.4675 N   0  0  0  0  0  0  0  0  0  0  0  0
   -1.2940  -55.1971  -23.7996 C   0  0  0  0  0  0  0  0  0  0  0  0
   -0.7990  -54.1923  -24.5327 N   0  0  0  0  0  0  0  0  0  0  0  0
   -0.3337  -53.0364  -23.9886 C   0  0  0  0  0  0  0  0  0  0  0  0
   -0.3870  -52.9224  -22.6384 C   0  0  0  0  0  0  0  0  0  0  0  0
    0.1146  -51.7886  -21.9923 C   0  0  0  0  0  0  0  0  0  0  0  0
    1.9350  -48.7202  -19.7013 C   0  0  0  0  0  0  0  0  0  0  0  0
    1.5778  -49.0497  -18.4447 C   0  0  0  0  0  0  0  0  0  0  0  0
    0.8225  -50.2335  -18.5904 C   0  0  0  0  0  0  0  0  0  0  0  0
    0.7700  -50.5445  -19.8967 C   0  0  0  0  0  0  0  0  0  0  0  0
    1.4471  -49.6171  -20.5156 O   0  0  0  0  0  0  0  0  0  0  0  0
    2.7114  -47.5987  -20.2599 C   0  0  0  0  0  0  0  0  0  0  0  0
    2.3906  -47.3316  -21.6688 N   0  0  0  0  0  0  0  0  0  0  0  0
    2.1674  -46.3410  -21.8095 H   0  0  0  0  0  0  0  0  0  0  0  0
    3.5475  -47.6861  -22.4565 C   0  0  0  0  0  0  0  0  0  0  0  0
    4.7007  -46.7521  -22.5051 C   0  0  0  0  0  0  0  0  0  0  0  0
    5.1263  -44.3464  -24.1412 C   0  0  0  0  0  0  0  0  0  0  0  0
    4.0124  -45.1629  -23.0641 S   0  0  0  0  0  0  0  0  0  0  0  0
    3.5780  -44.4014  -21.8788 O   0  0  0  0  0  0  0  0  0  0  0  0
    2.7944  -45.5589  -23.8913 O   0  0  0  0  0  0  0  0  0  0  0  0
    0.1838  -52.0042  -24.8236 N   0  0  0  0  0  0  0  0  0  0  0  0
   -0.3405  -51.3480  -25.4077 H   0  0  0  0  0  0  0  0  0  0  0  0
    1.6224  -51.9359  -24.8100 C   0  0  0  0  0  0  0  0  0  0  0  0
    2.4592  -52.9283  -24.3729 C   0  0  0  0  0  0  0  0  0  0  0  0
    3.8346  -52.7323  -24.3186 C   0  0  0  0  0  0  0  0  0  0  0  0
    4.4141  -51.5477  -24.6937 C   0  0  0  0  0  0  0  0  0  0  0  0
    3.5192  -50.5483  -25.1453 C   0  0  0  0  0  0  0  0  0  0  0  0
    4.1940  -49.0001  -25.6698 Cl  0  0  0  0  0  0  0  0  0  0  0  0
    2.1704  -50.7373  -25.2016 C   0  0  0  0  0  0  0  0  0  0  0  0
    5.7086  -51.2507  -24.6601 O   0  0  0  0  0  0  0  0  0  0  0  0
    6.6997  -50.7269  -23.9713 C   0  0  0  0  0  0  0  0  0  0  0  0
    6.5727  -50.2209  -22.6005 C   0  0  0  0  0  0  0  0  0  0  0  0
    7.5273  -49.2511  -22.1917 C   0  0  0  0  0  0  0  0  0  0  0  0
    7.4558  -48.7321  -20.9267 C   0  0  0  0  0  0  0  0  0  0  0  0
    6.4701  -49.1198  -20.0065 C   0  0  0  0  0  0  0  0  0  0  0  0
    5.5407  -50.0582  -20.3937 C   0  0  0  0  0  0  0  0  0  0  0  0
    4.5293  -50.5089  -19.6007 F   0  0  0  0  0  0  0  0  0  0  0  0
    5.6257  -50.5844  -21.6943 C   0  0  0  0  0  0  0  0  0  0  0  0
 21 22  1  0  0  0
 22 23  2  0  0  0
 22 24  2  0  0  0
 22 20  1  0  0  0
 20 19  1  0  0  0
 19 17  1  0  0  0
 17 16  1  0  0  0
 16 11  1  0  0  0
 11 12  2  0  0  0
 12 13  1  0  0  0
 13 14  2  0  0  0
 14 15  1  0  0  0
 14  1  1  0  0  0
  1  2  2  0  0  0
  2  3  1  0  0  0
  3  4  2  0  0  0
  4  5  1  0  0  0
  5  6  2  0  0  0
  6  7  1  0  0  0
  7  8  2  0  0  0
  8 25  1  0  0  0
 25 27  1  0  0  0
 27 28  2  0  0  0
 28 29  1  0  0  0
 29 30  2  0  0  0
 30 34  1  0  0  0
 34 35  1  0  0  0
 35 36  1  0  0  0
 36 37  2  0  0  0
 37 38  1  0  0  0
 38 39  2  0  0  0
 39 40  1  0  0  0
 40 41  1  0  0  0
 40 42  2  0  0  0
 30 31  1  0  0  0
 31 32  1  0  0  0
 31 33  2  0  0  0
  8  9  1  0  0  0
  9 10  2  0  0  0
 15 11  1  0  0  0
 10  1  1  0  0  0
  9  4  1  0  0  0
 33 27  1  0  0  0
 42 36  1  0  0  0
 17 18  1  0  0  0
 25 26  1  0  0  0
M  END
> <minimizedAffinity>
-7.68613

> <CNNscore>
0.1680211872

> <CNNaffinity>
7.1094946861

> <CNN_VS>
1.1945457458

> <CNNaffinity_variance>
0.2310427427

$$$$
[H]c1nc(N([H])c2c([H])c([H])c(OC([H])([H])c3c([H])c([H])c([H])c(F)c3[H])c(Cl)c2[H])c2c([H])c(-c3oc(C([H])([H])N([H])C([H])([H])C([H])([H])S(=O)(=O)C([H])([H])[H])c([H])c3[H])c([H])c([H])c2n1


 42 46  0  0  0  0  0  0  0  0999 V2000
    2.3956  -50.9717  -26.1361 C   0  0  0  0  0  0  0  0  0  0  0  0
    2.8599  -52.0150  -26.9435 C   0  0  0  0  0  0  0  0  0  0  0  0
    2.3055  -53.2657  -26.9017 C   0  0  0  0  0  0  0  0  0  0  0  0
    1.2641  -53.5316  -26.0527 C   0  0  0  0  0  0  0  0  0  0  0  0
    0.6569  -54.7318  -26.0109 N   0  0  0  0  0  0  0  0  0  0  0  0
   -0.3910  -54.9641  -25.2113 C   0  0  0  0  0  0  0  0  0  0  0  0
   -0.8497  -53.9782  -24.4304 N   0  0  0  0  0  0  0  0  0  0  0  0
   -0.2998  -52.7350  -24.4056 C   0  0  0  0  0  0  0  0  0  0  0  0
    0.7624  -52.5115  -25.2184 C   0  0  0  0  0  0  0  0  0  0  0  0
    1.3582  -51.2490  -25.2924 C   0  0  0  0  0  0  0  0  0  0  0  0
    3.9688  -48.0596  -27.4868 C   0  0  0  0  0  0  0  0  0  0  0  0
    3.7039  -47.5116  -26.2848 C   0  0  0  0  0  0  0  0  0  0  0  0
    3.0547  -48.5369  -25.5637 C   0  0  0  0  0  0  0  0  0  0  0  0
    2.9687  -49.6210  -26.3531 C   0  0  0  0  0  0  0  0  0  0  0  0
    3.5273  -49.2886  -27.4841 O   0  0  0  0  0  0  0  0  0  0  0  0
    4.6111  -47.5364  -28.7059 C   0  0  0  0  0  0  0  0  0  0  0  0
    4.3443  -48.3658  -29.8892 N   0  0  0  0  0  0  0  0  0  0  0  0
    3.3459  -48.3571  -30.1218 H   0  0  0  0  0  0  0  0  0  0  0  0
    5.1043  -47.8188  -30.9883 C   0  0  0  0  0  0  0  0  0  0  0  0
    4.4953  -47.7892  -32.3421 C   0  0  0  0  0  0  0  0  0  0  0  0
    2.7895  -46.0408  -33.9788 C   0  0  0  0  0  0  0  0  0  0  0  0
    3.5599  -46.2300  -32.4173 S   0  0  0  0  0  0  0  0  0  0  0  0
    4.4493  -45.1331  -31.9939 O   0  0  0  0  0  0  0  0  0  0  0  0
    2.4511  -46.4149  -31.3873 O   0  0  0  0  0  0  0  0  0  0  0  0
   -0.8361  -51.7267  -23.5534 N   0  0  0  0  0  0  0  0  0  0  0  0
   -1.3389  -50.8781  -23.8251 H   0  0  0  0  0  0  0  0  0  0  0  0
   -0.5987  -51.9840  -22.1563 C   0  0  0  0  0  0  0  0  0  0  0  0
   -1.0651  -53.0668  -21.4591 C   0  0  0  0  0  0  0  0  0  0  0  0
   -0.8542  -53.1810  -20.0897 C   0  0  0  0  0  0  0  0  0  0  0  0
   -0.1781  -52.2242  -19.3773 C   0  0  0  0  0  0  0  0  0  0  0  0
    0.2940  -51.1237  -20.1319 C   0  0  0  0  0  0  0  0  0  0  0  0
    1.1971  -49.8595  -19.2872 Cl  0  0  0  0  0  0  0  0  0  0  0  0
    0.0907  -51.0091  -21.4749 C   0  0  0  0  0  0  0  0  0  0  0  0
    0.0579  -52.2258  -18.0699 O   0  0  0  0  0  0  0  0  0  0  0  0
   -0.4270  -52.4339  -16.8646 C   0  0  0  0  0  0  0  0  0  0  0  0
   -1.7671  -52.0219  -16.4337 C   0  0  0  0  0  0  0  0  0  0  0  0
   -1.8560  -50.7913  -15.7291 C   0  0  0  0  0  0  0  0  0  0  0  0
   -3.0810  -50.3466  -15.3090 C   0  0  0  0  0  0  0  0  0  0  0  0
   -4.2652  -51.0604  -15.5470 C   0  0  0  0  0  0  0  0  0  0  0  0
   -4.1891  -52.2532  -16.2294 C   0  0  0  0  0  0  0  0  0  0  0  0
   -5.2635  -53.0330  -16.5334 F   0  0  0  0  0  0  0  0  0  0  0  0
   -2.9257  -52.6996  -16.6539 C   0  0  0  0  0  0  0  0  0  0  0  0
 21 22  1  0  0  0
 22 23  2  0  0  0
 22 24  2  0  0  0
 22 20  1  0  0  0
 20 19  1  0  0  0
 19 17  1  0  0  0
 17 16  1  0  0  0
 16 11  1  0  0  0
 11 12  2  0  0  0
 12 13  1  0  0  0
 13 14  2  0  0  0
 14 15  1  0  0  0
 14  1  1  0  0  0
  1  2  2  0  0  0
  2  3  1  0  0  0
  3  4  2  0  0  0
  4  5  1  0  0  0
  5  6  2  0  0  0
  6  7  1  0  0  0
  7  8  2  0  0  0
  8 25  1  0  0  0
 25 27  1  0  0  0
 27 28  2  0  0  0
 28 29  1  0  0  0
 29 30  2  0  0  0
 30 34  1  0  0  0
 34 35  1  0  0  0
 35 36  1  0  0  0
 36 37  2  0  0  0
 37 38  1  0  0  0
 38 39  2  0  0  0
 39 40  1  0  0  0
 40 41  1  0  0  0
 40 42  2  0  0  0
 30 31  1  0  0  0
 31 32  1  0  0  0
 31 33  2  0  0  0
  8  9  1  0  0  0
  9 10  2  0  0  0
 15 11  1  0  0  0
 10  1  1  0  0  0
  9  4  1  0  0  0
 33 27  1  0  0  0
 42 36  1  0  0  0
 17 18  1  0  0  0
 25 26  1  0  0  0
M  END
> <minimizedAffinity>
-7.93035

> <CNNscore>
0.1268534511

> <CNNaffinity>
6.7886543274

> <CNN_VS>
0.8611642122

> <CNNaffinity_variance>
0.1584434360

$$$$
[H]c1nc(N([H])c2c([H])c([H])c(OC([H])([H])c3c([H])c([H])c([H])c(F)c3[H])c(Cl)c2[H])c2c([H])c(-c3oc(C([H])([H])N([H])C([H])([H])C([H])([H])S(=O)(=O)C([H])([H])[H])c([H])c3[H])c([H])c([H])c2n1


 42 46  0  0  0  0  0  0  0  0999 V2000
   -0.6377  -53.1711  -21.2108 C   0  0  0  0  0  0  0  0  0  0  0  0
   -1.2417  -54.4012  -21.4902 C   0  0  0  0  0  0  0  0  0  0  0  0
   -1.2442  -54.9379  -22.7493 C   0  0  0  0  0  0  0  0  0  0  0  0
   -0.6451  -54.2718  -23.7853 C   0  0  0  0  0  0  0  0  0  0  0  0
   -0.5815  -54.7819  -25.0290 N   0  0  0  0  0  0  0  0  0  0  0  0
    0.0490  -54.1425  -26.0216 C   0  0  0  0  0  0  0  0  0  0  0  0
    0.6327  -52.9635  -25.7740 N   0  0  0  0  0  0  0  0  0  0  0  0
    0.6191  -52.3718  -24.5499 C   0  0  0  0  0  0  0  0  0  0  0  0
   -0.0241  -53.0276  -23.5524 C   0  0  0  0  0  0  0  0  0  0  0  0
   -0.0452  -52.5152  -22.2518 C   0  0  0  0  0  0  0  0  0  0  0  0
    0.1589  -51.5534  -18.1240 C   0  0  0  0  0  0  0  0  0  0  0  0
   -0.7592  -52.3854  -17.5949 C   0  0  0  0  0  0  0  0  0  0  0  0
   -1.2203  -53.1465  -18.6908 C   0  0  0  0  0  0  0  0  0  0  0  0
   -0.5676  -52.7407  -19.7931 C   0  0  0  0  0  0  0  0  0  0  0  0
    0.2420  -51.7944  -19.4047 O   0  0  0  0  0  0  0  0  0  0  0  0
    1.0044  -50.4954  -17.5422 C   0  0  0  0  0  0  0  0  0  0  0  0
    2.4178  -50.6242  -17.9230 N   0  0  0  0  0  0  0  0  0  0  0  0
    2.5313  -51.3155  -18.6714 H   0  0  0  0  0  0  0  0  0  0  0  0
    2.8673  -49.3315  -18.3829 C   0  0  0  0  0  0  0  0  0  0  0  0
    2.0189  -48.5691  -19.3335 C   0  0  0  0  0  0  0  0  0  0  0  0
    3.6491  -48.0306  -21.7204 C   0  0  0  0  0  0  0  0  0  0  0  0
    2.5116  -49.1432  -20.9886 S   0  0  0  0  0  0  0  0  0  0  0  0
    1.2908  -49.4289  -21.7643 O   0  0  0  0  0  0  0  0  0  0  0  0
    3.2619  -50.4430  -20.7201 O   0  0  0  0  0  0  0  0  0  0  0  0
    1.2617  -51.1158  -24.3496 N   0  0  0  0  0  0  0  0  0  0  0  0
    0.8244  -50.1964  -24.2491 H   0  0  0  0  0  0  0  0  0  0  0  0
    2.6978  -51.2178  -24.3051 C   0  0  0  0  0  0  0  0  0  0  0  0
    3.4023  -52.2533  -23.7506 C   0  0  0  0  0  0  0  0  0  0  0  0
    4.7903  -52.2176  -23.6798 C   0  0  0  0  0  0  0  0  0  0  0  0
    5.5139  -51.1540  -24.1544 C   0  0  0  0  0  0  0  0  0  0  0  0
    4.7527  -50.1062  -24.7255 C   0  0  0  0  0  0  0  0  0  0  0  0
    5.6169  -48.7100  -25.3820 Cl  0  0  0  0  0  0  0  0  0  0  0  0
    3.3919  -50.1385  -24.7983 C   0  0  0  0  0  0  0  0  0  0  0  0
    6.8342  -51.0110  -24.1163 O   0  0  0  0  0  0  0  0  0  0  0  0
    7.8685  -50.5095  -23.4760 C   0  0  0  0  0  0  0  0  0  0  0  0
    7.7677  -49.6823  -22.2690 C   0  0  0  0  0  0  0  0  0  0  0  0
    8.6459  -48.5683  -22.1888 C   0  0  0  0  0  0  0  0  0  0  0  0
    8.5934  -47.7512  -21.0914 C   0  0  0  0  0  0  0  0  0  0  0  0
    7.7002  -47.9679  -20.0312 C   0  0  0  0  0  0  0  0  0  0  0  0
    6.8452  -49.0442  -20.1003 C   0  0  0  0  0  0  0  0  0  0  0  0
    5.9257  -49.3560  -19.1453 F   0  0  0  0  0  0  0  0  0  0  0  0
    6.9100  -49.8762  -21.2313 C   0  0  0  0  0  0  0  0  0  0  0  0
 21 22  1  0  0  0
 22 23  2  0  0  0
 22 24  2  0  0  0
 22 20  1  0  0  0
 20 19  1  0  0  0
 19 17  1  0  0  0
 17 16  1  0  0  0
 16 11  1  0  0  0
 11 12  2  0  0  0
 12 13  1  0  0  0
 13 14  2  0  0  0
 14 15  1  0  0  0
 14  1  1  0  0  0
  1  2  2  0  0  0
  2  3  1  0  0  0
  3  4  2  0  0  0
  4  5  1  0  0  0
  5  6  2  0  0  0
  6  7  1  0  0  0
  7  8  2  0  0  0
  8 25  1  0  0  0
 25 27  1  0  0  0
 27 28  2  0  0  0
 28 29  1  0  0  0
 29 30  2  0  0  0
 30 34  1  0  0  0
 34 35  1  0  0  0
 35 36  1  0  0  0
 36 37  2  0  0  0
 37 38  1  0  0  0
 38 39  2  0  0  0
 39 40  1  0  0  0
 40 41  1  0  0  0
 40 42  2  0  0  0
 30 31  1  0  0  0
 31 32  1  0  0  0
 31 33  2  0  0  0
  8  9  1  0  0  0
  9 10  2  0  0  0
 15 11  1  0  0  0
 10  1  1  0  0  0
  9  4  1  0  0  0
 33 27  1  0  0  0
 42 36  1  0  0  0
 17 18  1  0  0  0
 25 26  1  0  0  0
M  END
> <minimizedAffinity>
-7.71717

> <CNNscore>
0.1183910742

> <CNNaffinity>
6.6553030014

> <CNN_VS>
0.7879284620

> <CNNaffinity_variance>
0.7362674475

$$$$
[H]c1nc(N([H])c2c([H])c([H])c(OC([H])([H])c3c([H])c([H])c([H])c(F)c3[H])c(Cl)c2[H])c2c([H])c(-c3oc(C([H])([H])N([H])C([H])([H])C([H])([H])S(=O)(=O)C([H])([H])[H])c([H])c3[H])c([H])c([H])c2n1


 42 46  0  0  0  0  0  0  0  0999 V2000
    0.0976  -52.2346  -21.2595 C   0  0  0  0  0  0  0  0  0  0  0  0
   -1.0863  -52.9126  -21.5670 C   0  0  0  0  0  0  0  0  0  0  0  0
   -1.2753  -53.5302  -22.7738 C   0  0  0  0  0  0  0  0  0  0  0  0
   -0.2925  -53.4987  -23.7273 C   0  0  0  0  0  0  0  0  0  0  0  0
   -0.4145  -54.1309  -24.9089 N   0  0  0  0  0  0  0  0  0  0  0  0
    0.5728  -54.1325  -25.8127 C   0  0  0  0  0  0  0  0  0  0  0  0
    1.7136  -53.4885  -25.5369 N   0  0  0  0  0  0  0  0  0  0  0  0
    1.9261  -52.8227  -24.3707 C   0  0  0  0  0  0  0  0  0  0  0  0
    0.9183  -52.8262  -23.4633 C   0  0  0  0  0  0  0  0  0  0  0  0
    1.0695  -52.2082  -22.2185 C   0  0  0  0  0  0  0  0  0  0  0  0
   -0.0912  -51.6690  -17.7347 C   0  0  0  0  0  0  0  0  0  0  0  0
    0.7668  -50.6588  -17.9769 C   0  0  0  0  0  0  0  0  0  0  0  0
    0.9844  -50.7058  -19.3709 C   0  0  0  0  0  0  0  0  0  0  0  0
    0.2604  -51.7175  -19.8789 C   0  0  0  0  0  0  0  0  0  0  0  0
   -0.3626  -52.2579  -18.8682 O   0  0  0  0  0  0  0  0  0  0  0  0
   -0.7109  -52.1817  -16.4995 C   0  0  0  0  0  0  0  0  0  0  0  0
   -1.9887  -51.5255  -16.1903 N   0  0  0  0  0  0  0  0  0  0  0  0
   -2.1324  -50.7076  -16.7915 H   0  0  0  0  0  0  0  0  0  0  0  0
   -3.0416  -52.4870  -16.4176 C   0  0  0  0  0  0  0  0  0  0  0  0
   -4.4478  -52.0938  -16.1483 C   0  0  0  0  0  0  0  0  0  0  0  0
   -4.7148  -49.8925  -14.2174 C   0  0  0  0  0  0  0  0  0  0  0  0
   -4.4894  -51.6206  -14.3916 S   0  0  0  0  0  0  0  0  0  0  0  0
   -3.3034  -52.1919  -13.7278 O   0  0  0  0  0  0  0  0  0  0  0  0
   -5.7481  -52.2952  -13.8574 O   0  0  0  0  0  0  0  0  0  0  0  0
    3.1645  -52.1582  -24.1357 N   0  0  0  0  0  0  0  0  0  0  0  0
    3.9935  -52.5257  -23.6620 H   0  0  0  0  0  0  0  0  0  0  0  0
    3.1842  -50.8081  -24.6371 C   0  0  0  0  0  0  0  0  0  0  0  0
    3.1854  -50.4536  -25.9602 C   0  0  0  0  0  0  0  0  0  0  0  0
    3.2934  -49.1218  -26.3441 C   0  0  0  0  0  0  0  0  0  0  0  0
    3.4054  -48.1090  -25.4266 C   0  0  0  0  0  0  0  0  0  0  0  0
    3.3944  -48.5126  -24.0700 C   0  0  0  0  0  0  0  0  0  0  0  0
    3.5103  -47.2604  -22.8266 Cl  0  0  0  0  0  0  0  0  0  0  0  0
    3.2869  -49.8171  -23.6897 C   0  0  0  0  0  0  0  0  0  0  0  0
    3.5352  -46.8126  -25.6862 O   0  0  0  0  0  0  0  0  0  0  0  0
    3.0158  -45.7476  -26.2584 C   0  0  0  0  0  0  0  0  0  0  0  0
    3.0911  -45.4658  -27.6958 C   0  0  0  0  0  0  0  0  0  0  0  0
    4.2167  -44.7195  -28.1373 C   0  0  0  0  0  0  0  0  0  0  0  0
    4.3499  -44.4326  -29.4695 C   0  0  0  0  0  0  0  0  0  0  0  0
    3.4136  -44.8483  -30.4282 C   0  0  0  0  0  0  0  0  0  0  0  0
    2.3202  -45.5723  -30.0100 C   0  0  0  0  0  0  0  0  0  0  0  0
    1.3487  -46.0430  -30.8403 F   0  0  0  0  0  0  0  0  0  0  0  0
    2.1943  -45.8589  -28.6398 C   0  0  0  0  0  0  0  0  0  0  0  0
 21 22  1  0  0  0
 22 23  2  0  0  0
 22 24  2  0  0  0
 22 20  1  0  0  0
 20 19  1  0  0  0
 19 17  1  0  0  0
 17 16  1  0  0  0
 16 11  1  0  0  0
 11 12  2  0  0  0
 12 13  1  0  0  0
 13 14  2  0  0  0
 14 15  1  0  0  0
 14  1  1  0  0  0
  1  2  2  0  0  0
  2  3  1  0  0  0
  3  4  2  0  0  0
  4  5  1  0  0  0
  5  6  2  0  0  0
  6  7  1  0  0  0
  7  8  2  0  0  0
  8 25  1  0  0  0
 25 27  1  0  0  0
 27 28  2  0  0  0
 28 29  1  0  0  0
 29 30  2  0  0  0
 30 34  1  0  0  0
 34 35  1  0  0  0
 35 36  1  0  0  0
 36 37  2  0  0  0
 37 38  1  0  0  0
 38 39  2  0  0  0
 39 40  1  0  0  0
 40 41  1  0  0  0
 40 42  2  0  0  0
 30 31  1  0  0  0
 31 32  1  0  0  0
 31 33  2  0  0  0
  8  9  1  0  0  0
  9 10  2  0  0  0
 15 11  1  0  0  0
 10  1  1  0  0  0
  9  4  1  0  0  0
 33 27  1  0  0  0
 42 36  1  0  0  0
 17 18  1  0  0  0
 25 26  1  0  0  0
M  END
> <minimizedAffinity>
-7.91457

> <CNNscore>
0.1146950945

> <CNNaffinity>
6.8639364243

> <CNN_VS>
0.7872598171

> <CNNaffinity_variance>
0.0813734755

$$$$
[H]c1nc(N([H])c2c([H])c([H])c(OC([H])([H])c3c([H])c([H])c([H])c(F)c3[H])c(Cl)c2[H])c2c([H])c(-c3oc(C([H])([H])N([H])C([H])([H])C([H])([H])S(=O)(=O)C([H])([H])[H])c([H])c3[H])c([H])c([H])c2n1


 42 46  0  0  0  0  0  0  0  0999 V2000
   -0.4053  -52.9949  -21.6074 C   0  0  0  0  0  0  0  0  0  0  0  0
   -0.9456  -54.2775  -21.7449 C   0  0  0  0  0  0  0  0  0  0  0  0
   -1.0052  -54.9129  -22.9557 C   0  0  0  0  0  0  0  0  0  0  0  0
   -0.5292  -54.2974  -24.0829 C   0  0  0  0  0  0  0  0  0  0  0  0
   -0.5236  -54.9009  -25.2856 N   0  0  0  0  0  0  0  0  0  0  0  0
   -0.0114  -54.3066  -26.3701 C   0  0  0  0  0  0  0  0  0  0  0  0
    0.5098  -53.0786  -26.2588 N   0  0  0  0  0  0  0  0  0  0  0  0
    0.5470  -52.3923  -25.0857 C   0  0  0  0  0  0  0  0  0  0  0  0
    0.0237  -53.0033  -23.9941 C   0  0  0  0  0  0  0  0  0  0  0  0
    0.0643  -52.3903  -22.7383 C   0  0  0  0  0  0  0  0  0  0  0  0
    0.3787  -51.0025  -18.7446 C   0  0  0  0  0  0  0  0  0  0  0  0
   -0.2534  -51.9706  -18.0530 C   0  0  0  0  0  0  0  0  0  0  0  0
   -0.6615  -52.8986  -19.0354 C   0  0  0  0  0  0  0  0  0  0  0  0
   -0.2598  -52.4485  -20.2362 C   0  0  0  0  0  0  0  0  0  0  0  0
    0.3551  -51.3203  -20.0110 O   0  0  0  0  0  0  0  0  0  0  0  0
    1.0269  -49.7424  -18.3387 C   0  0  0  0  0  0  0  0  0  0  0  0
    0.8819  -49.4659  -16.9028 N   0  0  0  0  0  0  0  0  0  0  0  0
    0.7297  -50.3338  -16.3788 H   0  0  0  0  0  0  0  0  0  0  0  0
    2.0994  -48.8335  -16.4531 C   0  0  0  0  0  0  0  0  0  0  0  0
    2.6293  -49.1650  -15.1062 C   0  0  0  0  0  0  0  0  0  0  0  0
    3.8552  -51.4598  -13.7363 C   0  0  0  0  0  0  0  0  0  0  0  0
    2.9168  -50.9618  -15.1287 S   0  0  0  0  0  0  0  0  0  0  0  0
    3.4650  -51.3287  -16.4473 O   0  0  0  0  0  0  0  0  0  0  0  0
    1.5235  -51.5604  -14.9705 O   0  0  0  0  0  0  0  0  0  0  0  0
    1.1182  -51.0879  -25.0318 N   0  0  0  0  0  0  0  0  0  0  0  0
    0.7971  -50.2423  -25.5098 H   0  0  0  0  0  0  0  0  0  0  0  0
    2.2917  -51.0200  -24.1993 C   0  0  0  0  0  0  0  0  0  0  0  0
    2.4568  -50.1818  -23.1288 C   0  0  0  0  0  0  0  0  0  0  0  0
    3.6633  -50.1301  -22.4398 C   0  0  0  0  0  0  0  0  0  0  0  0
    4.7362  -50.9059  -22.7963 C   0  0  0  0  0  0  0  0  0  0  0  0
    4.5265  -51.7635  -23.9026 C   0  0  0  0  0  0  0  0  0  0  0  0
    5.8568  -52.8136  -24.4075 Cl  0  0  0  0  0  0  0  0  0  0  0  0
    3.3445  -51.8182  -24.5794 C   0  0  0  0  0  0  0  0  0  0  0  0
    5.9340  -50.9175  -22.2217 O   0  0  0  0  0  0  0  0  0  0  0  0
    6.8171  -50.2555  -21.5054 C   0  0  0  0  0  0  0  0  0  0  0  0
    6.5199  -49.0263  -20.7624 C   0  0  0  0  0  0  0  0  0  0  0  0
    6.9222  -47.8060  -21.3688 C   0  0  0  0  0  0  0  0  0  0  0  0
    6.6638  -46.6230  -20.7297 C   0  0  0  0  0  0  0  0  0  0  0  0
    6.0115  -46.5623  -19.4889 C   0  0  0  0  0  0  0  0  0  0  0  0
    5.6175  -47.7393  -18.8941 C   0  0  0  0  0  0  0  0  0  0  0  0
    4.9673  -47.8151  -17.6998 F   0  0  0  0  0  0  0  0  0  0  0  0
    5.8899  -48.9470  -19.5595 C   0  0  0  0  0  0  0  0  0  0  0  0
 21 22  1  0  0  0
 22 23  2  0  0  0
 22 24  2  0  0  0
 22 20  1  0  0  0
 20 19  1  0  0  0
 19 17  1  0  0  0
 17 16  1  0  0  0
 16 11  1  0  0  0
 11 12  2  0  0  0
 12 13  1  0  0  0
 13 14  2  0  0  0
 14 15  1  0  0  0
 14  1  1  0  0  0
  1  2  2  0  0  0
  2  3  1  0  0  0
  3  4  2  0  0  0
  4  5  1  0  0  0
  5  6  2  0  0  0
  6  7  1  0  0  0
  7  8  2  0  0  0
  8 25  1  0  0  0
 25 27  1  0  0  0
 27 28  2  0  0  0
 28 29  1  0  0  0
 29 30  2  0  0  0
 30 34  1  0  0  0
 34 35  1  0  0  0
 35 36  1  0  0  0
 36 37  2  0  0  0
 37 38  1  0  0  0
 38 39  2  0  0  0
 39 40  1  0  0  0
 40 41  1  0  0  0
 40 42  2  0  0  0
 30 31  1  0  0  0
 31 32  1  0  0  0
 31 33  2  0  0  0
  8  9  1  0  0  0
  9 10  2  0  0  0
 15 11  1  0  0  0
 10  1  1  0  0  0
  9  4  1  0  0  0
 33 27  1  0  0  0
 42 36  1  0  0  0
 17 18  1  0  0  0
 25 26  1  0  0  0
M  END
> <minimizedAffinity>
-7.69193

> <CNNscore>
0.1062459052

> <CNNaffinity>
6.7868027687

> <CNN_VS>
0.7210699916

> <CNNaffinity_variance>
0.5276005268

$$$$
[H]c1nc(N([H])c2c([H])c([H])c(OC([H])([H])c3c([H])c([H])c([H])c(F)c3[H])c(Cl)c2[H])c2c([H])c(-c3oc(C([H])([H])N([H])C([H])([H])C([H])([H])S(=O)(=O)C([H])([H])[H])c([H])c3[H])c([H])c([H])c2n1


 42 46  0  0  0  0  0  0  0  0999 V2000
    2.3620  -48.8167  -21.7857 C   0  0  0  0  0  0  0  0  0  0  0  0
    3.1788  -48.7793  -20.6510 C   0  0  0  0  0  0  0  0  0  0  0  0
    3.9405  -47.6849  -20.3420 C   0  0  0  0  0  0  0  0  0  0  0  0
    3.9217  -46.5796  -21.1508 C   0  0  0  0  0  0  0  0  0  0  0  0
    4.6166  -45.4639  -20.8624 N   0  0  0  0  0  0  0  0  0  0  0  0
    4.5517  -44.3735  -21.6359 C   0  0  0  0  0  0  0  0  0  0  0  0
    3.7759  -44.3901  -22.7268 N   0  0  0  0  0  0  0  0  0  0  0  0
    3.0394  -45.4714  -23.0967 C   0  0  0  0  0  0  0  0  0  0  0  0
    3.1143  -46.5710  -22.3067 C   0  0  0  0  0  0  0  0  0  0  0  0
    2.3529  -47.7099  -22.5855 C   0  0  0  0  0  0  0  0  0  0  0  0
    0.6142  -51.6761  -23.0300 C   0  0  0  0  0  0  0  0  0  0  0  0
    0.0070  -51.6730  -21.8273 C   0  0  0  0  0  0  0  0  0  0  0  0
    0.5760  -50.5750  -21.1464 C   0  0  0  0  0  0  0  0  0  0  0  0
    1.4722  -49.9906  -21.9594 C   0  0  0  0  0  0  0  0  0  0  0  0
    1.4573  -50.6796  -23.0670 O   0  0  0  0  0  0  0  0  0  0  0  0
    0.4995  -52.5559  -24.2070 C   0  0  0  0  0  0  0  0  0  0  0  0
   -0.7577  -52.3603  -24.9422 N   0  0  0  0  0  0  0  0  0  0  0  0
   -0.9597  -51.3619  -25.0580 H   0  0  0  0  0  0  0  0  0  0  0  0
   -0.6088  -52.9798  -26.2378 C   0  0  0  0  0  0  0  0  0  0  0  0
    0.5655  -53.8533  -26.4889 C   0  0  0  0  0  0  0  0  0  0  0  0
   -0.0324  -52.9061  -29.2075 C   0  0  0  0  0  0  0  0  0  0  0  0
    1.2501  -53.2971  -28.0806 S   0  0  0  0  0  0  0  0  0  0  0  0
    2.2352  -54.2944  -28.5372 O   0  0  0  0  0  0  0  0  0  0  0  0
    1.9636  -51.9934  -27.7401 O   0  0  0  0  0  0  0  0  0  0  0  0
    2.2304  -45.4254  -24.2688 N   0  0  0  0  0  0  0  0  0  0  0  0
    1.2129  -45.3355  -24.3255 H   0  0  0  0  0  0  0  0  0  0  0  0
    2.9934  -45.5359  -25.4855 C   0  0  0  0  0  0  0  0  0  0  0  0
    3.4950  -44.4839  -26.2050 C   0  0  0  0  0  0  0  0  0  0  0  0
    4.1456  -44.6909  -27.4161 C   0  0  0  0  0  0  0  0  0  0  0  0
    4.3130  -45.9449  -27.9448 C   0  0  0  0  0  0  0  0  0  0  0  0
    3.7874  -47.0070  -27.1708 C   0  0  0  0  0  0  0  0  0  0  0  0
    3.9860  -48.6570  -27.7755 Cl  0  0  0  0  0  0  0  0  0  0  0  0
    3.1505  -46.8082  -25.9822 C   0  0  0  0  0  0  0  0  0  0  0  0
    4.8972  -46.2491  -29.0986 O   0  0  0  0  0  0  0  0  0  0  0  0
    5.1574  -45.8742  -30.3327 C   0  0  0  0  0  0  0  0  0  0  0  0
    4.2366  -46.0555  -31.4598 C   0  0  0  0  0  0  0  0  0  0  0  0
    4.7898  -45.9088  -32.7603 C   0  0  0  0  0  0  0  0  0  0  0  0
    3.9837  -46.0762  -33.8543 C   0  0  0  0  0  0  0  0  0  0  0  0
    2.6205  -46.3902  -33.7462 C   0  0  0  0  0  0  0  0  0  0  0  0
    2.0758  -46.5349  -32.4905 C   0  0  0  0  0  0  0  0  0  0  0  0
    0.7725  -46.8494  -32.2513 F   0  0  0  0  0  0  0  0  0  0  0  0
    2.9134  -46.3591  -31.3756 C   0  0  0  0  0  0  0  0  0  0  0  0
 21 22  1  0  0  0
 22 23  2  0  0  0
 22 24  2  0  0  0
 22 20  1  0  0  0
 20 19  1  0  0  0
 19 17  1  0  0  0
 17 16  1  0  0  0
 16 11  1  0  0  0
 11 12  2  0  0  0
 12 13  1  0  0  0
 13 14  2  0  0  0
 14 15  1  0  0  0
 14  1  1  0  0  0
  1  2  2  0  0  0
  2  3  1  0  0  0
  3  4  2  0  0  0
  4  5  1  0  0  0
  5  6  2  0  0  0
  6  7  1  0  0  0
  7  8  2  0  0  0
  8 25  1  0  0  0
 25 27  1  0  0  0
 27 28  2  0  0  0
 28 29  1  0  0  0
 29 30  2  0  0  0
 30 34  1  0  0  0
 34 35  1  0  0  0
 35 36  1  0  0  0
 36 37  2  0  0  0
 37 38  1  0  0  0
 38 39  2  0  0  0
 39 40  1  0  0  0
 40 41  1  0  0  0
 40 42  2  0  0  0
 30 31  1  0  0  0
 31 32  1  0  0  0
 31 33  2  0  0  0
  8  9  1  0  0  0
  9 10  2  0  0  0
 15 11  1  0  0  0
 10  1  1  0  0  0
  9  4  1  0  0  0
 33 27  1  0  0  0
 42 36  1  0  0  0
 17 18  1  0  0  0
 25 26  1  0  0  0
M  END
> <minimizedAffinity>
-7.87274

> <CNNscore>
0.1007364020

> <CNNaffinity>
6.4911804199

> <CNN_VS>
0.6538981795

> <CNNaffinity_variance>
0.6417397261

$$$$
[H]/C(C(=O)N([H])c1nc([H])c2nc([H])nc(N([H])c3c([H])c([H])c(F)c(Cl)c3[H])c2c1[H])=C(/[H])C([H])([H])N(C([H])([H])[H])C([H])([H])[H]


 30 32  0  0  0  0  0  0  0  0999 V2000
    0.6144  -51.6795  -20.3928 C   0  0  0  0  0  0  0  0  0  0  0  0
    0.6515  -52.0356  -21.7373 C   0  0  0  0  0  0  0  0  0  0  0  0
   -0.1067  -53.0750  -22.1649 C   0  0  0  0  0  0  0  0  0  0  0  0
   -0.1010  -53.4742  -23.5060 C   0  0  0  0  0  0  0  0  0  0  0  0
   -0.8966  -54.5167  -23.7757 N   0  0  0  0  0  0  0  0  0  0  0  0
   -1.6603  -55.1735  -22.8989 C   0  0  0  0  0  0  0  0  0  0  0  0
   -1.6443  -54.7670  -21.6192 N   0  0  0  0  0  0  0  0  0  0  0  0
   -0.8801  -53.7238  -21.2227 C   0  0  0  0  0  0  0  0  0  0  0  0
   -0.9141  -53.3664  -19.8892 C   0  0  0  0  0  0  0  0  0  0  0  0
   -0.1500  -52.3339  -19.5079 N   0  0  0  0  0  0  0  0  0  0  0  0
    2.7300  -50.7591  -19.4728 C   0  0  0  0  0  0  0  0  0  0  0  0
    3.1458  -51.9502  -19.3657 O   0  0  0  0  0  0  0  0  0  0  0  0
    1.4398  -50.5745  -19.9904 N   0  0  0  0  0  0  0  0  0  0  0  0
    1.0693  -49.6115  -20.0908 H   0  0  0  0  0  0  0  0  0  0  0  0
    3.2876  -48.8099  -18.0871 C   0  0  0  0  0  0  0  0  0  0  0  0
    3.5484  -49.6324  -19.0785 C   0  0  0  0  0  0  0  0  0  0  0  0
    4.1742  -47.6645  -17.7314 C   0  0  0  0  0  0  0  0  0  0  0  0
    5.1136  -46.5910  -15.8215 C   0  0  0  0  0  0  0  0  0  0  0  0
    3.9416  -47.2258  -16.3525 N   0  0  0  0  0  0  0  0  0  0  0  0
    3.6221  -48.4021  -15.5471 C   0  0  0  0  0  0  0  0  0  0  0  0
    0.6892  -52.8183  -24.4669 N   0  0  0  0  0  0  0  0  0  0  0  0
    1.5005  -52.2193  -24.0988 H   0  0  0  0  0  0  0  0  0  0  0  0
    0.5569  -52.8337  -25.8667 C   0  0  0  0  0  0  0  0  0  0  0  0
    1.5491  -52.9625  -26.7919 C   0  0  0  0  0  0  0  0  0  0  0  0
    1.3532  -52.9582  -28.1738 C   0  0  0  0  0  0  0  0  0  0  0  0
    0.0640  -52.8138  -28.6166 C   0  0  0  0  0  0  0  0  0  0  0  0
   -0.1951  -52.8017  -29.9558 F   0  0  0  0  0  0  0  0  0  0  0  0
   -0.9830  -52.6801  -27.7637 C   0  0  0  0  0  0  0  0  0  0  0  0
   -2.6362  -52.4993  -28.3629 Cl  0  0  0  0  0  0  0  0  0  0  0  0
   -0.7354  -52.6906  -26.4086 C   0  0  0  0  0  0  0  0  0  0  0  0
 18 19  1  0  0  0
 19 20  1  0  0  0
 19 17  1  0  0  0
 17 15  1  0  0  0
 15 16  2  0  0  0
 16 11  1  0  0  0
 11 12  2  0  0  0
 11 13  1  0  0  0
 13  1  1  0  0  0
  1  2  2  0  0  0
  2  3  1  0  0  0
  3  4  2  0  0  0
  4 21  1  0  0  0
 21 23  1  0  0  0
 23 24  2  0  0  0
 24 25  1  0  0  0
 25 26  2  0  0  0
 26 27  1  0  0  0
 26 28  1  0  0  0
 28 29  1  0  0  0
 28 30  2  0  0  0
  4  5  1  0  0  0
  5  6  2  0  0  0
  6  7  1  0  0  0
  7  8  2  0  0  0
  8  9  1  0  0  0
  9 10  2  0  0  0
 10  1  1  0  0  0
  8  3  1  0  0  0
 30 23  1  0  0  0
 13 14  1  0  0  0
 21 22  1  0  0  0
M  END
> <minimizedAffinity>
-7.91360

> <CNNscore>
0.9533947706

> <CNNaffinity>
7.2992448807

> <CNN_VS>
6.9590620995

> <CNNaffinity_variance>
0.1230972782

$$$$
[H]/C(C(=O)N([H])c1nc([H])c2nc([H])nc(N([H])c3c([H])c([H])c(F)c(Cl)c3[H])c2c1[H])=C(/[H])C([H])([H])N(C([H])([H])[H])C([H])([H])[H]


 30 32  0  0  0  0  0  0  0  0999 V2000
    0.8862  -51.4893  -20.4167 C   0  0  0  0  0  0  0  0  0  0  0  0
    0.8266  -51.8452  -21.7605 C   0  0  0  0  0  0  0  0  0  0  0  0
    0.0634  -52.9036  -22.1288 C   0  0  0  0  0  0  0  0  0  0  0  0
   -0.0261  -53.3033  -23.4667 C   0  0  0  0  0  0  0  0  0  0  0  0
   -0.8141  -54.3655  -23.6746 N   0  0  0  0  0  0  0  0  0  0  0  0
   -1.4900  -55.0407  -22.7416 C   0  0  0  0  0  0  0  0  0  0  0  0
   -1.3839  -54.6332  -21.4665 N   0  0  0  0  0  0  0  0  0  0  0  0
   -0.6172  -53.5709  -21.1297 C   0  0  0  0  0  0  0  0  0  0  0  0
   -0.5554  -53.2137  -19.7972 C   0  0  0  0  0  0  0  0  0  0  0  0
    0.2101  -52.1622  -19.4756 N   0  0  0  0  0  0  0  0  0  0  0  0
    3.0044  -50.5195  -19.5555 C   0  0  0  0  0  0  0  0  0  0  0  0
    3.4205  -51.7029  -19.3835 O   0  0  0  0  0  0  0  0  0  0  0  0
    1.7127  -50.3638  -20.0789 N   0  0  0  0  0  0  0  0  0  0  0  0
    1.3419  -49.4079  -20.2316 H   0  0  0  0  0  0  0  0  0  0  0  0
    5.1214  -49.2828  -19.4160 C   0  0  0  0  0  0  0  0  0  0  0  0
    3.8239  -49.3727  -19.2268 C   0  0  0  0  0  0  0  0  0  0  0  0
    5.9097  -48.0695  -19.0541 C   0  0  0  0  0  0  0  0  0  0  0  0
    5.6065  -46.5692  -20.8817 C   0  0  0  0  0  0  0  0  0  0  0  0
    6.5241  -47.4665  -20.2402 N   0  0  0  0  0  0  0  0  0  0  0  0
    6.8780  -48.5395  -21.1663 C   0  0  0  0  0  0  0  0  0  0  0  0
    0.6696  -52.6285  -24.4857 N   0  0  0  0  0  0  0  0  0  0  0  0
    1.4449  -51.9530  -24.1768 H   0  0  0  0  0  0  0  0  0  0  0  0
    0.4824  -52.7126  -25.8768 C   0  0  0  0  0  0  0  0  0  0  0  0
    1.4370  -52.8921  -26.8326 C   0  0  0  0  0  0  0  0  0  0  0  0
    1.1870  -52.9554  -28.2043 C   0  0  0  0  0  0  0  0  0  0  0  0
   -0.1182  -52.8266  -28.6029 C   0  0  0  0  0  0  0  0  0  0  0  0
   -0.4296  -52.8796  -29.9299 F   0  0  0  0  0  0  0  0  0  0  0  0
   -1.1303  -52.6454  -27.7174 C   0  0  0  0  0  0  0  0  0  0  0  0
   -2.8053  -52.4862  -28.2597 Cl  0  0  0  0  0  0  0  0  0  0  0  0
   -0.8297  -52.5900  -26.3742 C   0  0  0  0  0  0  0  0  0  0  0  0
 18 19  1  0  0  0
 19 20  1  0  0  0
 19 17  1  0  0  0
 17 15  1  0  0  0
 15 16  2  0  0  0
 16 11  1  0  0  0
 11 12  2  0  0  0
 11 13  1  0  0  0
 13  1  1  0  0  0
  1  2  2  0  0  0
  2  3  1  0  0  0
  3  4  2  0  0  0
  4 21  1  0  0  0
 21 23  1  0  0  0
 23 24  2  0  0  0
 24 25  1  0  0  0
 25 26  2  0  0  0
 26 27  1  0  0  0
 26 28  1  0  0  0
 28 29  1  0  0  0
 28 30  2  0  0  0
  4  5  1  0  0  0
  5  6  2  0  0  0
  6  7  1  0  0  0
  7  8  2  0  0  0
  8  9  1  0  0  0
  9 10  2  0  0  0
 10  1  1  0  0  0
  8  3  1  0  0  0
 30 23  1  0  0  0
 13 14  1  0  0  0
 21 22  1  0  0  0
M  END
> <minimizedAffinity>
-7.88683

> <CNNscore>
0.9424794316

> <CNNaffinity>
7.3197083473

> <CNN_VS>
6.8986744881

> <CNNaffinity_variance>
0.1286299825

$$$$
[H]/C(C(=O)N([H])c1nc([H])c2nc([H])nc(N([H])c3c([H])c([H])c(F)c(Cl)c3[H])c2c1[H])=C(/[H])C([H])([H])N(C([H])([H])[H])C([H])([H])[H]


 30 32  0  0  0  0  0  0  0  0999 V2000
   -1.1934  -53.8180  -21.6430 C   0  0  0  0  0  0  0  0  0  0  0  0
   -0.4706  -52.9376  -22.4420 C   0  0  0  0  0  0  0  0  0  0  0  0
   -0.2054  -53.2797  -23.7268 C   0  0  0  0  0  0  0  0  0  0  0  0
    0.5208  -52.4306  -24.5690 C   0  0  0  0  0  0  0  0  0  0  0  0
    0.7059  -52.9058  -25.8069 N   0  0  0  0  0  0  0  0  0  0  0  0
    0.2681  -54.0772  -26.2755 C   0  0  0  0  0  0  0  0  0  0  0  0
   -0.4258  -54.8704  -25.4433 N   0  0  0  0  0  0  0  0  0  0  0  0
   -0.6780  -54.5002  -24.1670 C   0  0  0  0  0  0  0  0  0  0  0  0
   -1.3955  -55.3707  -23.3704 C   0  0  0  0  0  0  0  0  0  0  0  0
   -1.6359  -54.9946  -22.1071 N   0  0  0  0  0  0  0  0  0  0  0  0
   -0.4090  -53.0172  -19.4266 C   0  0  0  0  0  0  0  0  0  0  0  0
    0.7697  -53.0402  -19.8887 O   0  0  0  0  0  0  0  0  0  0  0  0
   -1.4432  -53.4101  -20.2883 N   0  0  0  0  0  0  0  0  0  0  0  0
   -2.4198  -53.4029  -19.9407 H   0  0  0  0  0  0  0  0  0  0  0  0
   -0.1501  -51.5640  -17.4640 C   0  0  0  0  0  0  0  0  0  0  0  0
   -0.6818  -52.6040  -18.0667 C   0  0  0  0  0  0  0  0  0  0  0  0
   -0.4739  -51.1913  -16.0566 C   0  0  0  0  0  0  0  0  0  0  0  0
    0.4428  -52.2849  -14.1470 C   0  0  0  0  0  0  0  0  0  0  0  0
    0.6994  -51.3336  -15.1901 N   0  0  0  0  0  0  0  0  0  0  0  0
    0.9885  -50.0308  -14.5956 C   0  0  0  0  0  0  0  0  0  0  0  0
    1.0074  -51.1891  -24.1221 N   0  0  0  0  0  0  0  0  0  0  0  0
    0.6488  -50.3162  -24.6341 H   0  0  0  0  0  0  0  0  0  0  0  0
    1.9197  -50.9292  -23.0841 C   0  0  0  0  0  0  0  0  0  0  0  0
    3.0730  -51.6000  -22.8064 C   0  0  0  0  0  0  0  0  0  0  0  0
    3.9331  -51.2991  -21.7493 C   0  0  0  0  0  0  0  0  0  0  0  0
    3.5789  -50.2499  -20.9414 C   0  0  0  0  0  0  0  0  0  0  0  0
    4.3770  -49.9044  -19.8906 F   0  0  0  0  0  0  0  0  0  0  0  0
    2.4480  -49.5285  -21.1470 C   0  0  0  0  0  0  0  0  0  0  0  0
    2.0178  -48.1777  -20.0911 Cl  0  0  0  0  0  0  0  0  0  0  0  0
    1.6329  -49.8669  -22.2047 C   0  0  0  0  0  0  0  0  0  0  0  0
 18 19  1  0  0  0
 19 20  1  0  0  0
 19 17  1  0  0  0
 17 15  1  0  0  0
 15 16  2  0  0  0
 16 11  1  0  0  0
 11 12  2  0  0  0
 11 13  1  0  0  0
 13  1  1  0  0  0
  1  2  2  0  0  0
  2  3  1  0  0  0
  3  4  2  0  0  0
  4 21  1  0  0  0
 21 23  1  0  0  0
 23 24  2  0  0  0
 24 25  1  0  0  0
 25 26  2  0  0  0
 26 27  1  0  0  0
 26 28  1  0  0  0
 28 29  1  0  0  0
 28 30  2  0  0  0
  4  5  1  0  0  0
  5  6  2  0  0  0
  6  7  1  0  0  0
  7  8  2  0  0  0
  8  9  1  0  0  0
  9 10  2  0  0  0
 10  1  1  0  0  0
  8  3  1  0  0  0
 30 23  1  0  0  0
 13 14  1  0  0  0
 21 22  1  0  0  0
M  END
> <minimizedAffinity>
-7.65335

> <CNNscore>
0.8305535913

> <CNNaffinity>
7.0118393898

> <CNN_VS>
5.8237085342

> <CNNaffinity_variance>
0.0329927579

$$$$
[H]/C(C(=O)N([H])c1nc([H])c2nc([H])nc(N([H])c3c([H])c([H])c(F)c(Cl)c3[H])c2c1[H])=C(/[H])C([H])([H])N(C([H])([H])[H])C([H])([H])[H]


 30 32  0  0  0  0  0  0  0  0999 V2000
   -0.4729  -53.8276  -20.9978 C   0  0  0  0  0  0  0  0  0  0  0  0
    0.5016  -53.3085  -21.8444 C   0  0  0  0  0  0  0  0  0  0  0  0
    0.4018  -53.5303  -23.1783 C   0  0  0  0  0  0  0  0  0  0  0  0
    1.3581  -53.0329  -24.0704 C   0  0  0  0  0  0  0  0  0  0  0  0
    1.1271  -53.3359  -25.3538 N   0  0  0  0  0  0  0  0  0  0  0  0
    0.0981  -54.0456  -25.8237 C   0  0  0  0  0  0  0  0  0  0  0  0
   -0.8031  -54.5096  -24.9430 N   0  0  0  0  0  0  0  0  0  0  0  0
   -0.6789  -54.2690  -23.6177 C   0  0  0  0  0  0  0  0  0  0  0  0
   -1.6440  -54.7818  -22.7735 C   0  0  0  0  0  0  0  0  0  0  0  0
   -1.5082  -54.5400  -21.4627 N   0  0  0  0  0  0  0  0  0  0  0  0
   -0.1842  -52.2673  -19.0868 C   0  0  0  0  0  0  0  0  0  0  0  0
   -0.1991  -51.3165  -19.9228 O   0  0  0  0  0  0  0  0  0  0  0  0
   -0.3180  -53.5682  -19.5931 N   0  0  0  0  0  0  0  0  0  0  0  0
   -0.3094  -54.3693  -18.9352 H   0  0  0  0  0  0  0  0  0  0  0  0
   -1.0187  -51.9477  -16.7995 C   0  0  0  0  0  0  0  0  0  0  0  0
   -0.0350  -52.0264  -17.6676 C   0  0  0  0  0  0  0  0  0  0  0  0
   -0.7972  -51.6962  -15.3461 C   0  0  0  0  0  0  0  0  0  0  0  0
   -1.2421  -49.9687  -13.7649 C   0  0  0  0  0  0  0  0  0  0  0  0
   -1.8032  -50.7745  -14.8111 N   0  0  0  0  0  0  0  0  0  0  0  0
   -2.9067  -51.5660  -14.2725 C   0  0  0  0  0  0  0  0  0  0  0  0
    2.4623  -52.2842  -23.6253 N   0  0  0  0  0  0  0  0  0  0  0  0
    3.3213  -52.8379  -23.2962 H   0  0  0  0  0  0  0  0  0  0  0  0
    2.5964  -50.8869  -23.5440 C   0  0  0  0  0  0  0  0  0  0  0  0
    3.1544  -50.0524  -24.4656 C   0  0  0  0  0  0  0  0  0  0  0  0
    3.2688  -48.6691  -24.3198 C   0  0  0  0  0  0  0  0  0  0  0  0
    2.7793  -48.1255  -23.1605 C   0  0  0  0  0  0  0  0  0  0  0  0
    2.8602  -46.7793  -22.9564 F   0  0  0  0  0  0  0  0  0  0  0  0
    2.2078  -48.8839  -22.1911 C   0  0  0  0  0  0  0  0  0  0  0  0
    1.5813  -48.1553  -20.7073 Cl  0  0  0  0  0  0  0  0  0  0  0  0
    2.1197  -50.2450  -22.3844 C   0  0  0  0  0  0  0  0  0  0  0  0
 18 19  1  0  0  0
 19 20  1  0  0  0
 19 17  1  0  0  0
 17 15  1  0  0  0
 15 16  2  0  0  0
 16 11  1  0  0  0
 11 12  2  0  0  0
 11 13  1  0  0  0
 13  1  1  0  0  0
  1  2  2  0  0  0
  2  3  1  0  0  0
  3  4  2  0  0  0
  4 21  1  0  0  0
 21 23  1  0  0  0
 23 24  2  0  0  0
 24 25  1  0  0  0
 25 26  2  0  0  0
 26 27  1  0  0  0
 26 28  1  0  0  0
 28 29  1  0  0  0
 28 30  2  0  0  0
  4  5  1  0  0  0
  5  6  2  0  0  0
  6  7  1  0  0  0
  7  8  2  0  0  0
  8  9  1  0  0  0
  9 10  2  0  0  0
 10  1  1  0  0  0
  8  3  1  0  0  0
 30 23  1  0  0  0
 13 14  1  0  0  0
 21 22  1  0  0  0
M  END
> <minimizedAffinity>
-6.98536

> <CNNscore>
0.8069221377

> <CNNaffinity>
7.1589698792

> <CNN_VS>
5.7767314911

> <CNNaffinity_variance>
0.1212708727

$$$$
[H]/C(C(=O)N([H])c1nc([H])c2nc([H])nc(N([H])c3c([H])c([H])c(F)c(Cl)c3[H])c2c1[H])=C(/[H])C([H])([H])N(C([H])([H])[H])C([H])([H])[H]


 30 32  0  0  0  0  0  0  0  0999 V2000
   -0.5930  -53.7305  -20.6216 C   0  0  0  0  0  0  0  0  0  0  0  0
    0.3845  -53.1198  -21.4009 C   0  0  0  0  0  0  0  0  0  0  0  0
    0.3590  -53.2930  -22.7454 C   0  0  0  0  0  0  0  0  0  0  0  0
    1.3218  -52.7031  -23.5716 C   0  0  0  0  0  0  0  0  0  0  0  0
    1.1683  -52.9673  -24.8751 N   0  0  0  0  0  0  0  0  0  0  0  0
    0.2075  -53.7181  -25.4198 C   0  0  0  0  0  0  0  0  0  0  0  0
   -0.7020  -54.2709  -24.6009 N   0  0  0  0  0  0  0  0  0  0  0  0
   -0.6529  -54.0771  -23.2632 C   0  0  0  0  0  0  0  0  0  0  0  0
   -1.6214  -54.6809  -22.4857 C   0  0  0  0  0  0  0  0  0  0  0  0
   -1.5601  -54.4846  -21.1617 N   0  0  0  0  0  0  0  0  0  0  0  0
   -0.3231  -52.2459  -18.6488 C   0  0  0  0  0  0  0  0  0  0  0  0
   -0.2081  -51.2758  -19.4544 O   0  0  0  0  0  0  0  0  0  0  0  0
   -0.5181  -53.5194  -19.2025 N   0  0  0  0  0  0  0  0  0  0  0  0
   -0.6157  -54.3351  -18.5702 H   0  0  0  0  0  0  0  0  0  0  0  0
   -1.2571  -51.6835  -16.4483 C   0  0  0  0  0  0  0  0  0  0  0  0
   -0.2563  -52.0530  -17.2160 C   0  0  0  0  0  0  0  0  0  0  0  0
   -1.1219  -51.5017  -14.9741 C   0  0  0  0  0  0  0  0  0  0  0  0
    0.4684  -52.5273  -13.5243 C   0  0  0  0  0  0  0  0  0  0  0  0
    0.2837  -51.5547  -14.5628 N   0  0  0  0  0  0  0  0  0  0  0  0
    0.6629  -50.2355  -14.0625 C   0  0  0  0  0  0  0  0  0  0  0  0
    2.3562  -51.9079  -23.0467 N   0  0  0  0  0  0  0  0  0  0  0  0
    3.2514  -52.4171  -22.7433 H   0  0  0  0  0  0  0  0  0  0  0  0
    2.3777  -50.5151  -22.8549 C   0  0  0  0  0  0  0  0  0  0  0  0
    1.7246  -49.8001  -21.8960 C   0  0  0  0  0  0  0  0  0  0  0  0
    1.7773  -48.4115  -21.7655 C   0  0  0  0  0  0  0  0  0  0  0  0
    2.5461  -47.7322  -22.6746 C   0  0  0  0  0  0  0  0  0  0  0  0
    2.6397  -46.3733  -22.6017 F   0  0  0  0  0  0  0  0  0  0  0  0
    3.2295  -48.3662  -23.6608 C   0  0  0  0  0  0  0  0  0  0  0  0
    4.2168  -47.4648  -24.8174 Cl  0  0  0  0  0  0  0  0  0  0  0  0
    3.1437  -49.7384  -23.7459 C   0  0  0  0  0  0  0  0  0  0  0  0
 18 19  1  0  0  0
 19 20  1  0  0  0
 19 17  1  0  0  0
 17 15  1  0  0  0
 15 16  2  0  0  0
 16 11  1  0  0  0
 11 12  2  0  0  0
 11 13  1  0  0  0
 13  1  1  0  0  0
  1  2  2  0  0  0
  2  3  1  0  0  0
  3  4  2  0  0  0
  4 21  1  0  0  0
 21 23  1  0  0  0
 23 24  2  0  0  0
 24 25  1  0  0  0
 25 26  2  0  0  0
 26 27  1  0  0  0
 26 28  1  0  0  0
 28 29  1  0  0  0
 28 30  2  0  0  0
  4  5  1  0  0  0
  5  6  2  0  0  0
  6  7  1  0  0  0
  7  8  2  0  0  0
  8  9  1  0  0  0
  9 10  2  0  0  0
 10  1  1  0  0  0
  8  3  1  0  0  0
 30 23  1  0  0  0
 13 14  1  0  0  0
 21 22  1  0  0  0
M  END
> <minimizedAffinity>
-7.22668

> <CNNscore>
0.7531998754

> <CNNaffinity>
7.0496559143

> <CNN_VS>
5.3098001480

> <CNNaffinity_variance>
0.2130841017

$$$$
[H]/C(C(=O)N([H])c1nc([H])c2nc([H])nc(N([H])c3c([H])c([H])c(F)c(Cl)c3[H])c2c1[H])=C(/[H])C([H])([H])N(C([H])([H])[H])C([H])([H])[H]


 30 32  0  0  0  0  0  0  0  0999 V2000
    1.5573  -52.0573  -20.7617 C   0  0  0  0  0  0  0  0  0  0  0  0
    1.1865  -52.1969  -22.0955 C   0  0  0  0  0  0  0  0  0  0  0  0
    0.2817  -53.1491  -22.4318 C   0  0  0  0  0  0  0  0  0  0  0  0
   -0.1205  -53.3316  -23.7594 C   0  0  0  0  0  0  0  0  0  0  0  0
   -1.0156  -54.3114  -23.9360 N   0  0  0  0  0  0  0  0  0  0  0  0
   -1.5294  -55.0916  -22.9817 C   0  0  0  0  0  0  0  0  0  0  0  0
   -1.1237  -54.8924  -21.7173 N   0  0  0  0  0  0  0  0  0  0  0  0
   -0.2220  -53.9317  -21.4116 C   0  0  0  0  0  0  0  0  0  0  0  0
    0.1487  -53.7890  -20.0890 C   0  0  0  0  0  0  0  0  0  0  0  0
    1.0453  -52.8364  -19.7993 N   0  0  0  0  0  0  0  0  0  0  0  0
    2.1430  -49.7296  -20.1227 C   0  0  0  0  0  0  0  0  0  0  0  0
    0.9029  -49.4747  -20.0998 O   0  0  0  0  0  0  0  0  0  0  0  0
    2.5225  -51.0370  -20.4593 N   0  0  0  0  0  0  0  0  0  0  0  0
    3.5303  -51.2785  -20.4875 H   0  0  0  0  0  0  0  0  0  0  0  0
    2.9266  -47.4191  -19.8436 C   0  0  0  0  0  0  0  0  0  0  0  0
    3.1305  -48.7172  -19.8156 C   0  0  0  0  0  0  0  0  0  0  0  0
    3.9898  -46.4258  -19.5156 C   0  0  0  0  0  0  0  0  0  0  0  0
    3.7033  -46.1587  -21.8671 C   0  0  0  0  0  0  0  0  0  0  0  0
    4.3995  -45.6787  -20.7080 N   0  0  0  0  0  0  0  0  0  0  0  0
    5.8361  -45.8682  -20.8941 C   0  0  0  0  0  0  0  0  0  0  0  0
    0.3943  -52.5393  -24.8011 N   0  0  0  0  0  0  0  0  0  0  0  0
    1.0560  -51.7416  -24.5205 H   0  0  0  0  0  0  0  0  0  0  0  0
    0.1527  -52.6451  -26.1822 C   0  0  0  0  0  0  0  0  0  0  0  0
   -0.9432  -52.2134  -26.8677 C   0  0  0  0  0  0  0  0  0  0  0  0
   -1.1293  -52.3597  -28.2432 C   0  0  0  0  0  0  0  0  0  0  0  0
   -0.1283  -52.9842  -28.9411 C   0  0  0  0  0  0  0  0  0  0  0  0
   -0.2488  -53.1584  -30.2886 F   0  0  0  0  0  0  0  0  0  0  0  0
    0.9964  -53.4440  -28.3370 C   0  0  0  0  0  0  0  0  0  0  0  0
    2.2733  -54.2423  -29.2629 Cl  0  0  0  0  0  0  0  0  0  0  0  0
    1.1308  -53.2746  -26.9765 C   0  0  0  0  0  0  0  0  0  0  0  0
 18 19  1  0  0  0
 19 20  1  0  0  0
 19 17  1  0  0  0
 17 15  1  0  0  0
 15 16  2  0  0  0
 16 11  1  0  0  0
 11 12  2  0  0  0
 11 13  1  0  0  0
 13  1  1  0  0  0
  1  2  2  0  0  0
  2  3  1  0  0  0
  3  4  2  0  0  0
  4 21  1  0  0  0
 21 23  1  0  0  0
 23 24  2  0  0  0
 24 25  1  0  0  0
 25 26  2  0  0  0
 26 27  1  0  0  0
 26 28  1  0  0  0
 28 29  1  0  0  0
 28 30  2  0  0  0
  4  5  1  0  0  0
  5  6  2  0  0  0
  6  7  1  0  0  0
  7  8  2  0  0  0
  8  9  1  0  0  0
  9 10  2  0  0  0
 10  1  1  0  0  0
  8  3  1  0  0  0
 30 23  1  0  0  0
 13 14  1  0  0  0
 21 22  1  0  0  0
M  END
> <minimizedAffinity>
-7.03935

> <CNNscore>
0.6468297243

> <CNNaffinity>
6.9832139015

> <CNN_VS>
4.5169501305

> <CNNaffinity_variance>
0.3310089707

$$$$
[H]/C(C(=O)N([H])c1nc([H])c2nc([H])nc(N([H])c3c([H])c([H])c(F)c(Cl)c3[H])c2c1[H])=C(/[H])C([H])([H])N(C([H])([H])[H])C([H])([H])[H]


 30 32  0  0  0  0  0  0  0  0999 V2000
    1.9674  -50.7198  -23.0058 C   0  0  0  0  0  0  0  0  0  0  0  0
    1.2673  -51.8602  -23.3870 C   0  0  0  0  0  0  0  0  0  0  0  0
    0.3786  -52.4079  -22.5219 C   0  0  0  0  0  0  0  0  0  0  0  0
   -0.3469  -53.5565  -22.8569 C   0  0  0  0  0  0  0  0  0  0  0  0
   -1.1820  -53.9812  -21.9004 N   0  0  0  0  0  0  0  0  0  0  0  0
   -1.3650  -53.4149  -20.7049 C   0  0  0  0  0  0  0  0  0  0  0  0
   -0.6542  -52.3139  -20.4126 N   0  0  0  0  0  0  0  0  0  0  0  0
    0.2228  -51.7880  -21.2979 C   0  0  0  0  0  0  0  0  0  0  0  0
    0.9196  -50.6558  -20.9241 C   0  0  0  0  0  0  0  0  0  0  0  0
    1.7881  -50.1464  -21.8080 N   0  0  0  0  0  0  0  0  0  0  0  0
    2.6286  -50.1551  -25.3324 C   0  0  0  0  0  0  0  0  0  0  0  0
    1.5195  -50.6331  -25.7128 O   0  0  0  0  0  0  0  0  0  0  0  0
    2.9003  -50.1820  -23.9569 N   0  0  0  0  0  0  0  0  0  0  0  0
    3.7999  -49.7987  -23.6126 H   0  0  0  0  0  0  0  0  0  0  0  0
    3.5173  -48.4035  -26.8063 C   0  0  0  0  0  0  0  0  0  0  0  0
    3.5791  -49.6037  -26.2743 C   0  0  0  0  0  0  0  0  0  0  0  0
    4.5316  -47.8941  -27.7739 C   0  0  0  0  0  0  0  0  0  0  0  0
    6.3068  -47.0480  -26.4264 C   0  0  0  0  0  0  0  0  0  0  0  0
    5.8926  -48.1235  -27.2810 N   0  0  0  0  0  0  0  0  0  0  0  0
    6.7885  -48.1982  -28.4326 C   0  0  0  0  0  0  0  0  0  0  0  0
   -0.1869  -54.1927  -24.1008 N   0  0  0  0  0  0  0  0  0  0  0  0
    0.0933  -55.2290  -24.0817 H   0  0  0  0  0  0  0  0  0  0  0  0
   -0.3391  -53.6479  -25.3882 C   0  0  0  0  0  0  0  0  0  0  0  0
   -1.3113  -52.7951  -25.8180 C   0  0  0  0  0  0  0  0  0  0  0  0
   -1.4148  -52.2974  -27.1178 C   0  0  0  0  0  0  0  0  0  0  0  0
   -0.4618  -52.7046  -28.0151 C   0  0  0  0  0  0  0  0  0  0  0  0
   -0.5063  -52.2541  -29.3018 F   0  0  0  0  0  0  0  0  0  0  0  0
    0.5409  -53.5516  -27.6706 C   0  0  0  0  0  0  0  0  0  0  0  0
    1.7589  -54.0570  -28.8478 Cl  0  0  0  0  0  0  0  0  0  0  0  0
    0.5976  -54.0141  -26.3742 C   0  0  0  0  0  0  0  0  0  0  0  0
 18 19  1  0  0  0
 19 20  1  0  0  0
 19 17  1  0  0  0
 17 15  1  0  0  0
 15 16  2  0  0  0
 16 11  1  0  0  0
 11 12  2  0  0  0
 11 13  1  0  0  0
 13  1  1  0  0  0
  1  2  2  0  0  0
  2  3  1  0  0  0
  3  4  2  0  0  0
  4 21  1  0  0  0
 21 23  1  0  0  0
 23 24  2  0  0  0
 24 25  1  0  0  0
 25 26  2  0  0  0
 26 27  1  0  0  0
 26 28  1  0  0  0
 28 29  1  0  0  0
 28 30  2  0  0  0
  4  5  1  0  0  0
  5  6  2  0  0  0
  6  7  1  0  0  0
  7  8  2  0  0  0
  8  9  1  0  0  0
  9 10  2  0  0  0
 10  1  1  0  0  0
  8  3  1  0  0  0
 30 23  1  0  0  0
 13 14  1  0  0  0
 21 22  1  0  0  0
M  END
> <minimizedAffinity>
-7.03237

> <CNNscore>
0.6015359163

> <CNNaffinity>
6.9630904198

> <CNN_VS>
4.1885490417

> <CNNaffinity_variance>
0.2744989991

$$$$
[H]/C(C(=O)N([H])c1nc([H])c2nc([H])nc(N([H])c3c([H])c([H])c(F)c(Cl)c3[H])c2c1[H])=C(/[H])C([H])([H])N(C([H])([H])[H])C([H])([H])[H]


 30 32  0  0  0  0  0  0  0  0999 V2000
   -1.0379  -53.5150  -21.8084 C   0  0  0  0  0  0  0  0  0  0  0  0
   -0.3858  -52.7830  -22.7957 C   0  0  0  0  0  0  0  0  0  0  0  0
   -0.2140  -53.3366  -24.0214 C   0  0  0  0  0  0  0  0  0  0  0  0
    0.4386  -52.6426  -25.0462 C   0  0  0  0  0  0  0  0  0  0  0  0
    0.5353  -53.3193  -26.1974 N   0  0  0  0  0  0  0  0  0  0  0  0
    0.0756  -54.5516  -26.4288 C   0  0  0  0  0  0  0  0  0  0  0  0
   -0.5461  -55.1920  -25.4256 N   0  0  0  0  0  0  0  0  0  0  0  0
   -0.7059  -54.6124  -24.2140 C   0  0  0  0  0  0  0  0  0  0  0  0
   -1.3530  -55.3350  -23.2310 C   0  0  0  0  0  0  0  0  0  0  0  0
   -1.5020  -54.7517  -22.0341 N   0  0  0  0  0  0  0  0  0  0  0  0
   -0.1785  -52.9197  -19.5553 C   0  0  0  0  0  0  0  0  0  0  0  0
    0.8858  -53.5393  -19.8500 O   0  0  0  0  0  0  0  0  0  0  0  0
   -1.1898  -52.8849  -20.5261 N   0  0  0  0  0  0  0  0  0  0  0  0
   -2.0740  -52.3861  -20.3162 H   0  0  0  0  0  0  0  0  0  0  0  0
   -1.2461  -52.5971  -17.3675 C   0  0  0  0  0  0  0  0  0  0  0  0
   -0.3485  -52.2737  -18.2714 C   0  0  0  0  0  0  0  0  0  0  0  0
   -1.3696  -51.8894  -16.0604 C   0  0  0  0  0  0  0  0  0  0  0  0
   -2.9946  -51.5749  -14.3448 C   0  0  0  0  0  0  0  0  0  0  0  0
   -2.7693  -51.5737  -15.7618 N   0  0  0  0  0  0  0  0  0  0  0  0
   -3.6101  -52.5925  -16.3858 C   0  0  0  0  0  0  0  0  0  0  0  0
    0.9447  -51.3450  -24.8516 N   0  0  0  0  0  0  0  0  0  0  0  0
    0.3615  -50.5341  -25.2454 H   0  0  0  0  0  0  0  0  0  0  0  0
    2.1328  -50.9568  -24.2074 C   0  0  0  0  0  0  0  0  0  0  0  0
    2.3077  -49.9125  -23.3496 C   0  0  0  0  0  0  0  0  0  0  0  0
    3.5208  -49.5706  -22.7499 C   0  0  0  0  0  0  0  0  0  0  0  0
    4.6050  -50.3517  -23.0553 C   0  0  0  0  0  0  0  0  0  0  0  0
    5.8198  -50.0708  -22.5021 F   0  0  0  0  0  0  0  0  0  0  0  0
    4.5186  -51.4107  -23.8995 C   0  0  0  0  0  0  0  0  0  0  0  0
    5.9330  -52.4034  -24.2724 Cl  0  0  0  0  0  0  0  0  0  0  0  0
    3.2977  -51.7055  -24.4652 C   0  0  0  0  0  0  0  0  0  0  0  0
 18 19  1  0  0  0
 19 20  1  0  0  0
 19 17  1  0  0  0
 17 15  1  0  0  0
 15 16  2  0  0  0
 16 11  1  0  0  0
 11 12  2  0  0  0
 11 13  1  0  0  0
 13  1  1  0  0  0
  1  2  2  0  0  0
  2  3  1  0  0  0
  3  4  2  0  0  0
  4 21  1  0  0  0
 21 23  1  0  0  0
 23 24  2  0  0  0
 24 25  1  0  0  0
 25 26  2  0  0  0
 26 27  1  0  0  0
 26 28  1  0  0  0
 28 29  1  0  0  0
 28 30  2  0  0  0
  4  5  1  0  0  0
  5  6  2  0  0  0
  6  7  1  0  0  0
  7  8  2  0  0  0
  8  9  1  0  0  0
  9 10  2  0  0  0
 10  1  1  0  0  0
  8  3  1  0  0  0
 30 23  1  0  0  0
 13 14  1  0  0  0
 21 22  1  0  0  0
M  END
> <minimizedAffinity>
-7.73878

> <CNNscore>
0.5464272499

> <CNNaffinity>
6.8987722397

> <CNN_VS>
3.7696771622

> <CNNaffinity_variance>
0.0451668277

$$$$
[H]/C(C(=O)N([H])c1nc([H])c2nc([H])nc(N([H])c3c([H])c([H])c(F)c(Cl)c3[H])c2c1[H])=C(/[H])C([H])([H])N(C([H])([H])[H])C([H])([H])[H]


 30 32  0  0  0  0  0  0  0  0999 V2000
    1.1890  -51.1259  -23.8533 C   0  0  0  0  0  0  0  0  0  0  0  0
    1.0190  -51.8556  -22.6810 C   0  0  0  0  0  0  0  0  0  0  0  0
    0.2263  -52.9554  -22.6982 C   0  0  0  0  0  0  0  0  0  0  0  0
    0.0206  -53.7201  -21.5447 C   0  0  0  0  0  0  0  0  0  0  0  0
   -0.7889  -54.7726  -21.7164 N   0  0  0  0  0  0  0  0  0  0  0  0
   -1.3871  -55.1298  -22.8557 C   0  0  0  0  0  0  0  0  0  0  0  0
   -1.1705  -54.3760  -23.9456 N   0  0  0  0  0  0  0  0  0  0  0  0
   -0.3710  -53.2859  -23.8986 C   0  0  0  0  0  0  0  0  0  0  0  0
   -0.1990  -52.5588  -25.0599 C   0  0  0  0  0  0  0  0  0  0  0  0
    0.5921  -51.4791  -24.9999 N   0  0  0  0  0  0  0  0  0  0  0  0
    3.3596  -49.9821  -24.2401 C   0  0  0  0  0  0  0  0  0  0  0  0
    3.7920  -51.0695  -24.7236 O   0  0  0  0  0  0  0  0  0  0  0  0
    2.0349  -49.9669  -23.7802 N   0  0  0  0  0  0  0  0  0  0  0  0
    1.6502  -49.0922  -23.3782 H   0  0  0  0  0  0  0  0  0  0  0  0
    3.7685  -47.5806  -23.9306 C   0  0  0  0  0  0  0  0  0  0  0  0
    4.1941  -48.8022  -24.1630 C   0  0  0  0  0  0  0  0  0  0  0  0
    4.6829  -46.4041  -23.8637 C   0  0  0  0  0  0  0  0  0  0  0  0
    3.8844  -45.2332  -21.9470 C   0  0  0  0  0  0  0  0  0  0  0  0
    3.9775  -45.2147  -23.3786 N   0  0  0  0  0  0  0  0  0  0  0  0
    2.6331  -45.2165  -23.9504 C   0  0  0  0  0  0  0  0  0  0  0  0
    0.6238  -53.3832  -20.3198 N   0  0  0  0  0  0  0  0  0  0  0  0
    1.6669  -53.6145  -20.2144 H   0  0  0  0  0  0  0  0  0  0  0  0
    0.0378  -52.7812  -19.1923 C   0  0  0  0  0  0  0  0  0  0  0  0
   -0.9977  -53.2549  -18.4435 C   0  0  0  0  0  0  0  0  0  0  0  0
   -1.5441  -52.6009  -17.3381 C   0  0  0  0  0  0  0  0  0  0  0  0
   -0.9877  -51.3967  -16.9929 C   0  0  0  0  0  0  0  0  0  0  0  0
   -1.4758  -50.7070  -15.9221 F   0  0  0  0  0  0  0  0  0  0  0  0
    0.0460  -50.8530  -17.6839 C   0  0  0  0  0  0  0  0  0  0  0  0
    0.7467  -49.2997  -17.2136 Cl  0  0  0  0  0  0  0  0  0  0  0  0
    0.5485  -51.5392  -18.7675 C   0  0  0  0  0  0  0  0  0  0  0  0
 18 19  1  0  0  0
 19 20  1  0  0  0
 19 17  1  0  0  0
 17 15  1  0  0  0
 15 16  2  0  0  0
 16 11  1  0  0  0
 11 12  2  0  0  0
 11 13  1  0  0  0
 13  1  1  0  0  0
  1  2  2  0  0  0
  2  3  1  0  0  0
  3  4  2  0  0  0
  4 21  1  0  0  0
 21 23  1  0  0  0
 23 24  2  0  0  0
 24 25  1  0  0  0
 25 26  2  0  0  0
 26 27  1  0  0  0
 26 28  1  0  0  0
 28 29  1  0  0  0
 28 30  2  0  0  0
  4  5  1  0  0  0
  5  6  2  0  0  0
  6  7  1  0  0  0
  7  8  2  0  0  0
  8  9  1  0  0  0
  9 10  2  0  0  0
 10  1  1  0  0  0
  8  3  1  0  0  0
 30 23  1  0  0  0
 13 14  1  0  0  0
 21 22  1  0  0  0
M  END
> <minimizedAffinity>
-6.77337

> <CNNscore>
0.5025109053

> <CNNaffinity>
6.7725296021

> <CNN_VS>
3.4032700062

> <CNNaffinity_variance>
0.2678917944

$$$$
[H]c1nc(N([H])c2c([H])c([H])c3c(c([H])nn3C([H])([H])c3c([H])c([H])c([H])c(F)c3[H])c2[H])c2c(O[C@@]([H])(C(=O)N(C([H])([H])[H])C([H])([H])[H])C([H])([H])[H])c([H])c([H])c([H])c2n1


 37 41  0  0  0  0  0  0  0  0999 V2000
   -0.2594  -52.7880  -17.9209 N   0  0  0  0  0  0  0  0  0  0  0  0
    0.6103  -53.1273  -17.5404 H   0  0  0  0  0  0  0  0  0  0  0  0
   -0.4519  -50.4373  -16.2374 C   0  0  0  0  0  0  0  0  0  0  0  0
   -0.6622  -49.3100  -15.4339 C   0  0  0  0  0  0  0  0  0  0  0  0
   -1.8751  -49.0431  -14.8254 C   0  0  0  0  0  0  0  0  0  0  0  0
   -2.9265  -49.9081  -15.0058 C   0  0  0  0  0  0  0  0  0  0  0  0
   -2.7475  -51.0227  -15.7902 C   0  0  0  0  0  0  0  0  0  0  0  0
   -3.7784  -51.8664  -15.9461 N   0  0  0  0  0  0  0  0  0  0  0  0
   -3.6716  -52.9872  -16.6909 C   0  0  0  0  0  0  0  0  0  0  0  0
   -2.5189  -53.2173  -17.2570 N   0  0  0  0  0  0  0  0  0  0  0  0
   -1.3966  -52.4386  -17.1765 C   0  0  0  0  0  0  0  0  0  0  0  0
   -1.5279  -51.2850  -16.3993 C   0  0  0  0  0  0  0  0  0  0  0  0
    0.7569  -50.6541  -16.8056 O   0  0  0  0  0  0  0  0  0  0  0  0
    2.4119  -49.1335  -17.6065 C   0  0  0  0  0  0  0  0  0  0  0  0
    1.9968  -50.0733  -16.5070 C   0  0  0  0  0  0  0  0  0  0  0  0
    3.0237  -51.0138  -16.0766 C   0  0  0  0  0  0  0  0  0  0  0  0
    3.9003  -51.3889  -16.8953 O   0  0  0  0  0  0  0  0  0  0  0  0
    3.0833  -51.5345  -14.7595 N   0  0  0  0  0  0  0  0  0  0  0  0
    4.1418  -52.4769  -14.3746 C   0  0  0  0  0  0  0  0  0  0  0  0
    2.1416  -51.2018  -13.7119 C   0  0  0  0  0  0  0  0  0  0  0  0
   -0.2665  -52.6438  -19.3372 C   0  0  0  0  0  0  0  0  0  0  0  0
    0.0510  -51.5042  -20.0184 C   0  0  0  0  0  0  0  0  0  0  0  0
    0.0578  -51.4286  -21.3986 C   0  0  0  0  0  0  0  0  0  0  0  0
   -0.2685  -52.5427  -22.1291 C   0  0  0  0  0  0  0  0  0  0  0  0
   -0.3399  -52.7342  -23.4605 N   0  0  0  0  0  0  0  0  0  0  0  0
   -0.7061  -54.0010  -23.6491 N   0  0  0  0  0  0  0  0  0  0  0  0
   -0.8726  -54.6320  -22.4747 C   0  0  0  0  0  0  0  0  0  0  0  0
   -0.5959  -53.7111  -21.4883 C   0  0  0  0  0  0  0  0  0  0  0  0
   -0.5945  -53.7596  -20.1160 C   0  0  0  0  0  0  0  0  0  0  0  0
   -0.0550  -51.7252  -24.4421 C   0  0  0  0  0  0  0  0  0  0  0  0
   -0.3931  -52.0761  -25.8184 C   0  0  0  0  0  0  0  0  0  0  0  0
    0.6135  -52.3761  -26.7091 C   0  0  0  0  0  0  0  0  0  0  0  0
    0.3230  -52.7174  -28.0247 C   0  0  0  0  0  0  0  0  0  0  0  0
   -0.9683  -52.7659  -28.4751 C   0  0  0  0  0  0  0  0  0  0  0  0
   -1.9838  -52.4687  -27.5962 C   0  0  0  0  0  0  0  0  0  0  0  0
   -3.2585  -52.5204  -28.0547 F   0  0  0  0  0  0  0  0  0  0  0  0
   -1.6890  -52.1259  -26.2737 C   0  0  0  0  0  0  0  0  0  0  0  0
 14 15  1  0  0  0
 15 13  1  0  0  0
 13  3  1  0  0  0
  3  4  2  0  0  0
  4  5  1  0  0  0
  5  6  2  0  0  0
  6  7  1  0  0  0
  7  8  2  0  0  0
  8  9  1  0  0  0
  9 10  2  0  0  0
 10 11  1  0  0  0
 11  1  1  0  0  0
  1 21  1  0  0  0
 21 22  2  0  0  0
 22 23  1  0  0  0
 23 24  2  0  0  0
 24 25  1  0  0  0
 25 30  1  0  0  0
 30 31  1  0  0  0
 31 32  2  0  0  0
 32 33  1  0  0  0
 33 34  2  0  0  0
 34 35  1  0  0  0
 35 36  1  0  0  0
 35 37  2  0  0  0
 25 26  1  0  0  0
 26 27  2  0  0  0
 27 28  1  0  0  0
 28 29  2  0  0  0
 11 12  2  0  0  0
 15 16  1  0  0  0
 16 17  2  0  0  0
 16 18  1  0  0  0
 18 19  1  0  0  0
 18 20  1  0  0  0
 12  3  1  0  0  0
 12  7  1  0  0  0
 29 21  1  0  0  0
 28 24  1  0  0  0
 37 31  1  0  0  0
  1  2  1  0  0  0
M  END
> <minimizedAffinity>
-9.42367

> <CNNscore>
0.7009443641

> <CNNaffinity>
7.3488645554

> <CNN_VS>
5.1511449814

> <CNNaffinity_variance>
0.0779298693

$$$$
[H]c1nc(N([H])c2c([H])c([H])c3c(c([H])nn3C([H])([H])c3c([H])c([H])c([H])c(F)c3[H])c2[H])c2c(O[C@@]([H])(C(=O)N(C([H])([H])[H])C([H])([H])[H])C([H])([H])[H])c([H])c([H])c([H])c2n1


 37 41  0  0  0  0  0  0  0  0999 V2000
    0.3018  -52.9546  -18.8512 N   0  0  0  0  0  0  0  0  0  0  0  0
    1.2316  -53.2943  -18.6608 H   0  0  0  0  0  0  0  0  0  0  0  0
    0.6497  -50.6827  -17.0864 C   0  0  0  0  0  0  0  0  0  0  0  0
    0.7005  -49.5833  -16.2207 C   0  0  0  0  0  0  0  0  0  0  0  0
   -0.3436  -49.2484  -15.3779 C   0  0  0  0  0  0  0  0  0  0  0  0
   -1.4836  -50.0142  -15.3768 C   0  0  0  0  0  0  0  0  0  0  0  0
   -1.5602  -51.0993  -16.2173 C   0  0  0  0  0  0  0  0  0  0  0  0
   -2.6736  -51.8468  -16.1956 N   0  0  0  0  0  0  0  0  0  0  0  0
   -2.8137  -52.9341  -16.9833 C   0  0  0  0  0  0  0  0  0  0  0  0
   -1.8170  -53.2296  -17.7717 N   0  0  0  0  0  0  0  0  0  0  0  0
   -0.6347  -52.5505  -17.8873 C   0  0  0  0  0  0  0  0  0  0  0  0
   -0.5094  -51.4302  -17.0619 C   0  0  0  0  0  0  0  0  0  0  0  0
    1.7019  -50.9695  -17.8875 O   0  0  0  0  0  0  0  0  0  0  0  0
    1.5508  -49.1052  -19.3688 C   0  0  0  0  0  0  0  0  0  0  0  0
    2.4493  -50.1181  -18.7123 C   0  0  0  0  0  0  0  0  0  0  0  0
    3.3762  -50.7964  -19.6097 C   0  0  0  0  0  0  0  0  0  0  0  0
    3.2529  -52.0313  -19.8073 O   0  0  0  0  0  0  0  0  0  0  0  0
    4.4265  -50.1211  -20.2810 N   0  0  0  0  0  0  0  0  0  0  0  0
    5.3313  -50.8502  -21.1789 C   0  0  0  0  0  0  0  0  0  0  0  0
    4.6969  -48.7055  -20.1475 C   0  0  0  0  0  0  0  0  0  0  0  0
   -0.0234  -52.8722  -20.2348 C   0  0  0  0  0  0  0  0  0  0  0  0
   -0.0853  -51.7212  -20.9662 C   0  0  0  0  0  0  0  0  0  0  0  0
   -0.3762  -51.7018  -22.3173 C   0  0  0  0  0  0  0  0  0  0  0  0
   -0.6166  -52.8869  -22.9648 C   0  0  0  0  0  0  0  0  0  0  0  0
   -0.9192  -53.1425  -24.2522 N   0  0  0  0  0  0  0  0  0  0  0  0
   -1.0567  -54.4630  -24.3615 N   0  0  0  0  0  0  0  0  0  0  0  0
   -0.8504  -55.0661  -23.1788 C   0  0  0  0  0  0  0  0  0  0  0  0
   -0.5667  -54.0697  -22.2709 C   0  0  0  0  0  0  0  0  0  0  0  0
   -0.2750  -54.0612  -20.9291 C   0  0  0  0  0  0  0  0  0  0  0  0
   -1.0479  -52.1380  -25.2707 C   0  0  0  0  0  0  0  0  0  0  0  0
   -0.5159  -52.5017  -26.5807 C   0  0  0  0  0  0  0  0  0  0  0  0
   -1.3624  -52.5557  -27.6658 C   0  0  0  0  0  0  0  0  0  0  0  0
   -0.8850  -52.8951  -28.9261 C   0  0  0  0  0  0  0  0  0  0  0  0
    0.4370  -53.1855  -29.1281 C   0  0  0  0  0  0  0  0  0  0  0  0
    1.2939  -53.1353  -28.0533 C   0  0  0  0  0  0  0  0  0  0  0  0
    2.6008  -53.4250  -28.2666 F   0  0  0  0  0  0  0  0  0  0  0  0
    0.8113  -52.7937  -26.7869 C   0  0  0  0  0  0  0  0  0  0  0  0
 14 15  1  0  0  0
 15 13  1  0  0  0
 13  3  1  0  0  0
  3  4  2  0  0  0
  4  5  1  0  0  0
  5  6  2  0  0  0
  6  7  1  0  0  0
  7  8  2  0  0  0
  8  9  1  0  0  0
  9 10  2  0  0  0
 10 11  1  0  0  0
 11  1  1  0  0  0
  1 21  1  0  0  0
 21 22  2  0  0  0
 22 23  1  0  0  0
 23 24  2  0  0  0
 24 25  1  0  0  0
 25 30  1  0  0  0
 30 31  1  0  0  0
 31 32  2  0  0  0
 32 33  1  0  0  0
 33 34  2  0  0  0
 34 35  1  0  0  0
 35 36  1  0  0  0
 35 37  2  0  0  0
 25 26  1  0  0  0
 26 27  2  0  0  0
 27 28  1  0  0  0
 28 29  2  0  0  0
 11 12  2  0  0  0
 15 16  1  0  0  0
 16 17  2  0  0  0
 16 18  1  0  0  0
 18 19  1  0  0  0
 18 20  1  0  0  0
 12  3  1  0  0  0
 12  7  1  0  0  0
 29 21  1  0  0  0
 28 24  1  0  0  0
 37 31  1  0  0  0
  1  2  1  0  0  0
M  END
> <minimizedAffinity>
-9.36706

> <CNNscore>
0.6690400243

> <CNNaffinity>
7.3839440346

> <CNN_VS>
4.9401540756

> <CNNaffinity_variance>
0.1254079640

$$$$
[H]c1nc(N([H])c2c([H])c([H])c3c(c([H])nn3C([H])([H])c3c([H])c([H])c([H])c(F)c3[H])c2[H])c2c(O[C@@]([H])(C(=O)N(C([H])([H])[H])C([H])([H])[H])C([H])([H])[H])c([H])c([H])c([H])c2n1


 37 41  0  0  0  0  0  0  0  0999 V2000
    0.3089  -51.2798  -22.7294 N   0  0  0  0  0  0  0  0  0  0  0  0
    0.3215  -50.6522  -23.5182 H   0  0  0  0  0  0  0  0  0  0  0  0
    0.3444  -53.1664  -24.9286 C   0  0  0  0  0  0  0  0  0  0  0  0
    0.3397  -54.1630  -25.9122 C   0  0  0  0  0  0  0  0  0  0  0  0
   -0.2301  -55.4070  -25.7113 C   0  0  0  0  0  0  0  0  0  0  0  0
   -0.8196  -55.6935  -24.5044 C   0  0  0  0  0  0  0  0  0  0  0  0
   -0.8289  -54.7332  -23.5209 C   0  0  0  0  0  0  0  0  0  0  0  0
   -1.4206  -55.0213  -22.3523 N   0  0  0  0  0  0  0  0  0  0  0  0
   -1.4795  -54.1231  -21.3463 C   0  0  0  0  0  0  0  0  0  0  0  0
   -0.9335  -52.9571  -21.5575 N   0  0  0  0  0  0  0  0  0  0  0  0
   -0.3023  -52.5427  -22.6986 C   0  0  0  0  0  0  0  0  0  0  0  0
   -0.2545  -53.4864  -23.7278 C   0  0  0  0  0  0  0  0  0  0  0  0
    0.9115  -51.9636  -25.1787 O   0  0  0  0  0  0  0  0  0  0  0  0
    2.2301  -52.1564  -27.1578 C   0  0  0  0  0  0  0  0  0  0  0  0
    2.1634  -51.6695  -25.7356 C   0  0  0  0  0  0  0  0  0  0  0  0
    3.3028  -52.0341  -24.9029 C   0  0  0  0  0  0  0  0  0  0  0  0
    3.3658  -53.1898  -24.4136 O   0  0  0  0  0  0  0  0  0  0  0  0
    4.3599  -51.1350  -24.6132 N   0  0  0  0  0  0  0  0  0  0  0  0
    5.4884  -51.5532  -23.7717 C   0  0  0  0  0  0  0  0  0  0  0  0
    4.4223  -49.7727  -25.0981 C   0  0  0  0  0  0  0  0  0  0  0  0
    1.0117  -50.8036  -21.5864 C   0  0  0  0  0  0  0  0  0  0  0  0
    0.4352  -50.3160  -20.4491 C   0  0  0  0  0  0  0  0  0  0  0  0
    1.1668  -49.8951  -19.3545 C   0  0  0  0  0  0  0  0  0  0  0  0
    2.5359  -49.9645  -19.4007 C   0  0  0  0  0  0  0  0  0  0  0  0
    3.4672  -49.6234  -18.4892 N   0  0  0  0  0  0  0  0  0  0  0  0
    4.6543  -49.8875  -19.0330 N   0  0  0  0  0  0  0  0  0  0  0  0
    4.5135  -50.3902  -20.2709 C   0  0  0  0  0  0  0  0  0  0  0  0
    3.1605  -50.4466  -20.5234 C   0  0  0  0  0  0  0  0  0  0  0  0
    2.4102  -50.8588  -21.5971 C   0  0  0  0  0  0  0  0  0  0  0  0
    3.1729  -49.0879  -17.1894 C   0  0  0  0  0  0  0  0  0  0  0  0
    2.9042  -50.0772  -16.1499 C   0  0  0  0  0  0  0  0  0  0  0  0
    1.7006  -50.0490  -15.4811 C   0  0  0  0  0  0  0  0  0  0  0  0
    1.4142  -50.9795  -14.4892 C   0  0  0  0  0  0  0  0  0  0  0  0
    2.3163  -51.9500  -14.1470 C   0  0  0  0  0  0  0  0  0  0  0  0
    3.5224  -51.9901  -14.8069 C   0  0  0  0  0  0  0  0  0  0  0  0
    4.4072  -52.9563  -14.4587 F   0  0  0  0  0  0  0  0  0  0  0  0
    3.8080  -51.0532  -15.8040 C   0  0  0  0  0  0  0  0  0  0  0  0
 14 15  1  0  0  0
 15 13  1  0  0  0
 13  3  1  0  0  0
  3  4  2  0  0  0
  4  5  1  0  0  0
  5  6  2  0  0  0
  6  7  1  0  0  0
  7  8  2  0  0  0
  8  9  1  0  0  0
  9 10  2  0  0  0
 10 11  1  0  0  0
 11  1  1  0  0  0
  1 21  1  0  0  0
 21 22  2  0  0  0
 22 23  1  0  0  0
 23 24  2  0  0  0
 24 25  1  0  0  0
 25 30  1  0  0  0
 30 31  1  0  0  0
 31 32  2  0  0  0
 32 33  1  0  0  0
 33 34  2  0  0  0
 34 35  1  0  0  0
 35 36  1  0  0  0
 35 37  2  0  0  0
 25 26  1  0  0  0
 26 27  2  0  0  0
 27 28  1  0  0  0
 28 29  2  0  0  0
 11 12  2  0  0  0
 15 16  1  0  0  0
 16 17  2  0  0  0
 16 18  1  0  0  0
 18 19  1  0  0  0
 18 20  1  0  0  0
 12  3  1  0  0  0
 12  7  1  0  0  0
 29 21  1  0  0  0
 28 24  1  0  0  0
 37 31  1  0  0  0
  1  2  1  0  0  0
M  END
> <minimizedAffinity>
-7.94543

> <CNNscore>
0.5948404670

> <CNNaffinity>
7.3407897949

> <CNN_VS>
4.3665986061

> <CNNaffinity_variance>
0.0612264872

$$$$
[H]c1nc(N([H])c2c([H])c([H])c3c(c([H])nn3C([H])([H])c3c([H])c([H])c([H])c(F)c3[H])c2[H])c2c(O[C@@]([H])(C(=O)N(C([H])([H])[H])C([H])([H])[H])C([H])([H])[H])c([H])c([H])c([H])c2n1


 37 41  0  0  0  0  0  0  0  0999 V2000
    1.3626  -52.4741  -21.7980 N   0  0  0  0  0  0  0  0  0  0  0  0
    2.3326  -52.3006  -22.0106 H   0  0  0  0  0  0  0  0  0  0  0  0
    0.8343  -51.5889  -24.5062 C   0  0  0  0  0  0  0  0  0  0  0  0
    0.5367  -51.2691  -25.8366 C   0  0  0  0  0  0  0  0  0  0  0  0
   -0.3460  -52.0089  -26.6023 C   0  0  0  0  0  0  0  0  0  0  0  0
   -0.9647  -53.1044  -26.0514 C   0  0  0  0  0  0  0  0  0  0  0  0
   -0.6903  -53.4410  -24.7472 C   0  0  0  0  0  0  0  0  0  0  0  0
   -1.3123  -54.5046  -24.2175 N   0  0  0  0  0  0  0  0  0  0  0  0
   -1.1021  -54.8860  -22.9398 C   0  0  0  0  0  0  0  0  0  0  0  0
   -0.2638  -54.1747  -22.2372 N   0  0  0  0  0  0  0  0  0  0  0  0
    0.4312  -53.0742  -22.6593 C   0  0  0  0  0  0  0  0  0  0  0  0
    0.1974  -52.6953  -23.9836 C   0  0  0  0  0  0  0  0  0  0  0  0
    1.7022  -50.8283  -23.7995 O   0  0  0  0  0  0  0  0  0  0  0  0
    3.6963  -51.8720  -24.5913 C   0  0  0  0  0  0  0  0  0  0  0  0
    3.0776  -50.6392  -23.9898 C   0  0  0  0  0  0  0  0  0  0  0  0
    3.7837  -50.0919  -22.8381 C   0  0  0  0  0  0  0  0  0  0  0  0
    4.1976  -50.8683  -21.9409 O   0  0  0  0  0  0  0  0  0  0  0  0
    4.0301  -48.7051  -22.6776 N   0  0  0  0  0  0  0  0  0  0  0  0
    4.7505  -48.2045  -21.4999 C   0  0  0  0  0  0  0  0  0  0  0  0
    3.6087  -47.6915  -23.6210 C   0  0  0  0  0  0  0  0  0  0  0  0
    0.9675  -52.0824  -20.4875 C   0  0  0  0  0  0  0  0  0  0  0  0
    0.3061  -52.8715  -19.5911 C   0  0  0  0  0  0  0  0  0  0  0  0
   -0.0262  -52.4495  -18.3175 C   0  0  0  0  0  0  0  0  0  0  0  0
    0.3178  -51.1813  -17.9242 C   0  0  0  0  0  0  0  0  0  0  0  0
    0.1146  -50.5335  -16.7608 N   0  0  0  0  0  0  0  0  0  0  0  0
    0.6430  -49.3184  -16.8983 N   0  0  0  0  0  0  0  0  0  0  0  0
    1.1821  -49.1652  -18.1194 C   0  0  0  0  0  0  0  0  0  0  0  0
    0.9825  -50.3511  -18.7913 C   0  0  0  0  0  0  0  0  0  0  0  0
    1.3014  -50.7951  -20.0510 C   0  0  0  0  0  0  0  0  0  0  0  0
   -0.5472  -51.1021  -15.6200 C   0  0  0  0  0  0  0  0  0  0  0  0
   -1.9953  -50.9204  -15.5800 C   0  0  0  0  0  0  0  0  0  0  0  0
   -2.5190  -49.7534  -15.0697 C   0  0  0  0  0  0  0  0  0  0  0  0
   -3.8930  -49.5497  -15.0218 C   0  0  0  0  0  0  0  0  0  0  0  0
   -4.7660  -50.4994  -15.4787 C   0  0  0  0  0  0  0  0  0  0  0  0
   -4.2568  -51.6699  -15.9911 C   0  0  0  0  0  0  0  0  0  0  0  0
   -5.1320  -52.6025  -16.4404 F   0  0  0  0  0  0  0  0  0  0  0  0
   -2.8747  -51.8722  -16.0382 C   0  0  0  0  0  0  0  0  0  0  0  0
 14 15  1  0  0  0
 15 13  1  0  0  0
 13  3  1  0  0  0
  3  4  2  0  0  0
  4  5  1  0  0  0
  5  6  2  0  0  0
  6  7  1  0  0  0
  7  8  2  0  0  0
  8  9  1  0  0  0
  9 10  2  0  0  0
 10 11  1  0  0  0
 11  1  1  0  0  0
  1 21  1  0  0  0
 21 22  2  0  0  0
 22 23  1  0  0  0
 23 24  2  0  0  0
 24 25  1  0  0  0
 25 30  1  0  0  0
 30 31  1  0  0  0
 31 32  2  0  0  0
 32 33  1  0  0  0
 33 34  2  0  0  0
 34 35  1  0  0  0
 35 36  1  0  0  0
 35 37  2  0  0  0
 25 26  1  0  0  0
 26 27  2  0  0  0
 27 28  1  0  0  0
 28 29  2  0  0  0
 11 12  2  0  0  0
 15 16  1  0  0  0
 16 17  2  0  0  0
 16 18  1  0  0  0
 18 19  1  0  0  0
 18 20  1  0  0  0
 12  3  1  0  0  0
 12  7  1  0  0  0
 29 21  1  0  0  0
 28 24  1  0  0  0
 37 31  1  0  0  0
  1  2  1  0  0  0
M  END
> <minimizedAffinity>
-8.79432

> <CNNscore>
0.5364742279

> <CNNaffinity>
7.3109712601

> <CNN_VS>
3.9221477509

> <CNNaffinity_variance>
0.2603860497

$$$$
[H]c1nc(N([H])c2c([H])c([H])c3c(c([H])nn3C([H])([H])c3c([H])c([H])c([H])c(F)c3[H])c2[H])c2c(O[C@@]([H])(C(=O)N(C([H])([H])[H])C([H])([H])[H])C([H])([H])[H])c([H])c([H])c([H])c2n1


 37 41  0  0  0  0  0  0  0  0999 V2000
    0.6865  -51.9578  -22.9737 N   0  0  0  0  0  0  0  0  0  0  0  0
    1.2748  -51.2228  -23.3341 H   0  0  0  0  0  0  0  0  0  0  0  0
    1.1399  -52.3499  -25.8088 C   0  0  0  0  0  0  0  0  0  0  0  0
    1.3320  -52.6531  -27.1622 C   0  0  0  0  0  0  0  0  0  0  0  0
    0.8179  -53.7938  -27.7516 C   0  0  0  0  0  0  0  0  0  0  0  0
    0.0872  -54.6756  -26.9935 C   0  0  0  0  0  0  0  0  0  0  0  0
   -0.1163  -54.4025  -25.6617 C   0  0  0  0  0  0  0  0  0  0  0  0
   -0.8438  -55.2649  -24.9367 N   0  0  0  0  0  0  0  0  0  0  0  0
   -1.0956  -55.0550  -23.6272 C   0  0  0  0  0  0  0  0  0  0  0  0
   -0.5989  -53.9737  -23.0921 N   0  0  0  0  0  0  0  0  0  0  0  0
    0.1561  -53.0211  -23.7203 C   0  0  0  0  0  0  0  0  0  0  0  0
    0.4029  -53.2563  -25.0753 C   0  0  0  0  0  0  0  0  0  0  0  0
    1.6606  -51.2170  -25.2829 O   0  0  0  0  0  0  0  0  0  0  0  0
    3.9002  -51.7823  -24.6848 C   0  0  0  0  0  0  0  0  0  0  0  0
    2.9843  -50.7571  -25.2966 C   0  0  0  0  0  0  0  0  0  0  0  0
    3.1629  -49.3965  -24.8053 C   0  0  0  0  0  0  0  0  0  0  0  0
    3.0010  -49.1548  -23.5828 O   0  0  0  0  0  0  0  0  0  0  0  0
    3.5157  -48.3155  -25.6519 N   0  0  0  0  0  0  0  0  0  0  0  0
    3.6880  -46.9631  -25.1062 C   0  0  0  0  0  0  0  0  0  0  0  0
    3.7278  -48.4378  -27.0785 C   0  0  0  0  0  0  0  0  0  0  0  0
    0.4291  -51.8744  -21.5759 C   0  0  0  0  0  0  0  0  0  0  0  0
   -0.2047  -52.8258  -20.8297 C   0  0  0  0  0  0  0  0  0  0  0  0
   -0.4008  -52.7069  -19.4666 C   0  0  0  0  0  0  0  0  0  0  0  0
    0.0567  -51.5858  -18.8222 C   0  0  0  0  0  0  0  0  0  0  0  0
   -0.0057  -51.2271  -17.5254 N   0  0  0  0  0  0  0  0  0  0  0  0
    0.5873  -50.0385  -17.4248 N   0  0  0  0  0  0  0  0  0  0  0  0
    1.0308  -49.6209  -18.6223 C   0  0  0  0  0  0  0  0  0  0  0  0
    0.6988  -50.6017  -19.5309 C   0  0  0  0  0  0  0  0  0  0  0  0
    0.8813  -50.7448  -20.8843 C   0  0  0  0  0  0  0  0  0  0  0  0
   -0.6049  -52.0232  -16.4909 C   0  0  0  0  0  0  0  0  0  0  0  0
   -1.9789  -51.6708  -16.1452 C   0  0  0  0  0  0  0  0  0  0  0  0
   -3.0107  -52.4917  -16.5432 C   0  0  0  0  0  0  0  0  0  0  0  0
   -4.3286  -52.1849  -16.2262 C   0  0  0  0  0  0  0  0  0  0  0  0
   -4.6417  -51.0612  -15.5107 C   0  0  0  0  0  0  0  0  0  0  0  0
   -3.6211  -50.2323  -15.1066 C   0  0  0  0  0  0  0  0  0  0  0  0
   -3.9445  -49.1224  -14.3986 F   0  0  0  0  0  0  0  0  0  0  0  0
   -2.2966  -50.5430  -15.4267 C   0  0  0  0  0  0  0  0  0  0  0  0
 14 15  1  0  0  0
 15 13  1  0  0  0
 13  3  1  0  0  0
  3  4  2  0  0  0
  4  5  1  0  0  0
  5  6  2  0  0  0
  6  7  1  0  0  0
  7  8  2  0  0  0
  8  9  1  0  0  0
  9 10  2  0  0  0
 10 11  1  0  0  0
 11  1  1  0  0  0
  1 21  1  0  0  0
 21 22  2  0  0  0
 22 23  1  0  0  0
 23 24  2  0  0  0
 24 25  1  0  0  0
 25 30  1  0  0  0
 30 31  1  0  0  0
 31 32  2  0  0  0
 32 33  1  0  0  0
 33 34  2  0  0  0
 34 35  1  0  0  0
 35 36  1  0  0  0
 35 37  2  0  0  0
 25 26  1  0  0  0
 26 27  2  0  0  0
 27 28  1  0  0  0
 28 29  2  0  0  0
 11 12  2  0  0  0
 15 16  1  0  0  0
 16 17  2  0  0  0
 16 18  1  0  0  0
 18 19  1  0  0  0
 18 20  1  0  0  0
 12  3  1  0  0  0
 12  7  1  0  0  0
 29 21  1  0  0  0
 28 24  1  0  0  0
 37 31  1  0  0  0
  1  2  1  0  0  0
M  END
> <minimizedAffinity>
-9.37287

> <CNNscore>
0.5278035402

> <CNNaffinity>
7.3630170822

> <CNN_VS>
3.8862264156

> <CNNaffinity_variance>
0.1431363225

$$$$
[H]c1nc(N([H])c2c([H])c([H])c3c(c([H])nn3C([H])([H])c3c([H])c([H])c([H])c(F)c3[H])c2[H])c2c(O[C@@]([H])(C(=O)N(C([H])([H])[H])C([H])([H])[H])C([H])([H])[H])c([H])c([H])c([H])c2n1


 37 41  0  0  0  0  0  0  0  0999 V2000
    1.4464  -52.7413  -21.8970 N   0  0  0  0  0  0  0  0  0  0  0  0
    2.4418  -52.7899  -22.0481 H   0  0  0  0  0  0  0  0  0  0  0  0
    0.8948  -51.7039  -24.5459 C   0  0  0  0  0  0  0  0  0  0  0  0
    0.5798  -51.3071  -25.8513 C   0  0  0  0  0  0  0  0  0  0  0  0
   -0.3602  -51.9638  -26.6244 C   0  0  0  0  0  0  0  0  0  0  0  0
   -1.0210  -53.0508  -26.1067 C   0  0  0  0  0  0  0  0  0  0  0  0
   -0.7307  -53.4620  -24.8275 C   0  0  0  0  0  0  0  0  0  0  0  0
   -1.3938  -54.5160  -24.3293 N   0  0  0  0  0  0  0  0  0  0  0  0
   -1.1707  -54.9673  -23.0768 C   0  0  0  0  0  0  0  0  0  0  0  0
   -0.2781  -54.3338  -22.3667 N   0  0  0  0  0  0  0  0  0  0  0  0
    0.4626  -53.2517  -22.7578 C   0  0  0  0  0  0  0  0  0  0  0  0
    0.2145  -52.7994  -24.0563 C   0  0  0  0  0  0  0  0  0  0  0  0
    1.8196  -51.0229  -23.8302 O   0  0  0  0  0  0  0  0  0  0  0  0
    4.1452  -51.5306  -23.6666 C   0  0  0  0  0  0  0  0  0  0  0  0
    3.0990  -50.5951  -24.2096 C   0  0  0  0  0  0  0  0  0  0  0  0
    3.3602  -49.1786  -23.9864 C   0  0  0  0  0  0  0  0  0  0  0  0
    3.4946  -48.7526  -22.8118 O   0  0  0  0  0  0  0  0  0  0  0  0
    3.4718  -48.2431  -25.0457 N   0  0  0  0  0  0  0  0  0  0  0  0
    3.7403  -46.8264  -24.7677 C   0  0  0  0  0  0  0  0  0  0  0  0
    3.3339  -48.5825  -26.4460 C   0  0  0  0  0  0  0  0  0  0  0  0
    1.0656  -52.1163  -20.6758 C   0  0  0  0  0  0  0  0  0  0  0  0
    0.2309  -52.6532  -19.7385 C   0  0  0  0  0  0  0  0  0  0  0  0
   -0.0809  -52.0143  -18.5530 C   0  0  0  0  0  0  0  0  0  0  0  0
    0.4662  -50.7833  -18.2949 C   0  0  0  0  0  0  0  0  0  0  0  0
    0.3272  -49.9610  -17.2371 N   0  0  0  0  0  0  0  0  0  0  0  0
    1.0715  -48.8844  -17.4848 N   0  0  0  0  0  0  0  0  0  0  0  0
    1.6873  -48.9904  -18.6742 C   0  0  0  0  0  0  0  0  0  0  0  0
    1.3102  -50.2030  -19.2081 C   0  0  0  0  0  0  0  0  0  0  0  0
    1.6042  -50.8592  -20.3779 C   0  0  0  0  0  0  0  0  0  0  0  0
   -0.4800  -50.2501  -16.0849 C   0  0  0  0  0  0  0  0  0  0  0  0
    0.2369  -50.8038  -14.9399 C   0  0  0  0  0  0  0  0  0  0  0  0
    1.2534  -50.0777  -14.3599 C   0  0  0  0  0  0  0  0  0  0  0  0
    1.9518  -50.5766  -13.2667 C   0  0  0  0  0  0  0  0  0  0  0  0
    1.6524  -51.8010  -12.7339 C   0  0  0  0  0  0  0  0  0  0  0  0
    0.6394  -52.5370  -13.3031 C   0  0  0  0  0  0  0  0  0  0  0  0
    0.3527  -53.7481  -12.7660 F   0  0  0  0  0  0  0  0  0  0  0  0
   -0.0614  -52.0331  -14.4024 C   0  0  0  0  0  0  0  0  0  0  0  0
 14 15  1  0  0  0
 15 13  1  0  0  0
 13  3  1  0  0  0
  3  4  2  0  0  0
  4  5  1  0  0  0
  5  6  2  0  0  0
  6  7  1  0  0  0
  7  8  2  0  0  0
  8  9  1  0  0  0
  9 10  2  0  0  0
 10 11  1  0  0  0
 11  1  1  0  0  0
  1 21  1  0  0  0
 21 22  2  0  0  0
 22 23  1  0  0  0
 23 24  2  0  0  0
 24 25  1  0  0  0
 25 30  1  0  0  0
 30 31  1  0  0  0
 31 32  2  0  0  0
 32 33  1  0  0  0
 33 34  2  0  0  0
 34 35  1  0  0  0
 35 36  1  0  0  0
 35 37  2  0  0  0
 25 26  1  0  0  0
 26 27  2  0  0  0
 27 28  1  0  0  0
 28 29  2  0  0  0
 11 12  2  0  0  0
 15 16  1  0  0  0
 16 17  2  0  0  0
 16 18  1  0  0  0
 18 19  1  0  0  0
 18 20  1  0  0  0
 12  3  1  0  0  0
 12  7  1  0  0  0
 29 21  1  0  0  0
 28 24  1  0  0  0
 37 31  1  0  0  0
  1  2  1  0  0  0
M  END
> <minimizedAffinity>
-7.67979

> <CNNscore>
0.3694272339

> <CNNaffinity>
7.1537084579

> <CNN_VS>
2.6427748203

> <CNNaffinity_variance>
0.2583668828

$$$$
[H]c1nc(N([H])c2c([H])c([H])c3c(c([H])nn3C([H])([H])c3c([H])c([H])c([H])c(F)c3[H])c2[H])c2c(O[C@@]([H])(C(=O)N(C([H])([H])[H])C([H])([H])[H])C([H])([H])[H])c([H])c([H])c([H])c2n1


 37 41  0  0  0  0  0  0  0  0999 V2000
    1.0555  -50.1282  -19.8489 N   0  0  0  0  0  0  0  0  0  0  0  0
    0.7401  -50.2546  -18.8998 H   0  0  0  0  0  0  0  0  0  0  0  0
    3.4046  -49.0836  -18.5120 C   0  0  0  0  0  0  0  0  0  0  0  0
    4.5726  -48.5334  -17.9699 C   0  0  0  0  0  0  0  0  0  0  0  0
    5.2801  -47.5218  -18.5935 C   0  0  0  0  0  0  0  0  0  0  0  0
    4.8333  -47.0249  -19.7933 C   0  0  0  0  0  0  0  0  0  0  0  0
    3.6892  -47.5473  -20.3482 C   0  0  0  0  0  0  0  0  0  0  0  0
    3.2563  -47.0429  -21.5130 N   0  0  0  0  0  0  0  0  0  0  0  0
    2.1339  -47.4973  -22.1097 C   0  0  0  0  0  0  0  0  0  0  0  0
    1.4841  -48.4532  -21.5044 N   0  0  0  0  0  0  0  0  0  0  0  0
    1.8203  -49.0499  -20.3199 C   0  0  0  0  0  0  0  0  0  0  0  0
    2.9836  -48.5633  -19.7182 C   0  0  0  0  0  0  0  0  0  0  0  0
    2.7474  -50.0691  -17.8579 O   0  0  0  0  0  0  0  0  0  0  0  0
    1.5843  -48.5704  -16.4107 C   0  0  0  0  0  0  0  0  0  0  0  0
    1.9647  -49.9978  -16.6976 C   0  0  0  0  0  0  0  0  0  0  0  0
    2.4929  -50.7381  -15.5585 C   0  0  0  0  0  0  0  0  0  0  0  0
    3.7163  -50.6574  -15.2827 O   0  0  0  0  0  0  0  0  0  0  0  0
    1.6819  -51.5575  -14.7336 N   0  0  0  0  0  0  0  0  0  0  0  0
    2.2625  -52.2797  -13.5944 C   0  0  0  0  0  0  0  0  0  0  0  0
    0.2615  -51.7541  -14.9308 C   0  0  0  0  0  0  0  0  0  0  0  0
    0.6884  -51.1791  -20.7365 C   0  0  0  0  0  0  0  0  0  0  0  0
    1.3279  -51.4906  -21.9017 C   0  0  0  0  0  0  0  0  0  0  0  0
    0.9471  -52.5439  -22.7118 C   0  0  0  0  0  0  0  0  0  0  0  0
   -0.1216  -53.3189  -22.3395 C   0  0  0  0  0  0  0  0  0  0  0  0
   -0.6895  -54.3836  -22.9382 N   0  0  0  0  0  0  0  0  0  0  0  0
   -1.7028  -54.7672  -22.1631 N   0  0  0  0  0  0  0  0  0  0  0  0
   -1.8035  -53.9784  -21.0802 C   0  0  0  0  0  0  0  0  0  0  0  0
   -0.7965  -53.0433  -21.1770 C   0  0  0  0  0  0  0  0  0  0  0  0
   -0.3974  -51.9913  -20.3898 C   0  0  0  0  0  0  0  0  0  0  0  0
   -0.2372  -54.9562  -24.1752 C   0  0  0  0  0  0  0  0  0  0  0  0
   -0.3731  -54.0995  -25.3495 C   0  0  0  0  0  0  0  0  0  0  0  0
   -1.1502  -52.9649  -25.2756 C   0  0  0  0  0  0  0  0  0  0  0  0
   -1.2960  -52.1277  -26.3754 C   0  0  0  0  0  0  0  0  0  0  0  0
   -0.6738  -52.4035  -27.5626 C   0  0  0  0  0  0  0  0  0  0  0  0
    0.1055  -53.5334  -27.6508 C   0  0  0  0  0  0  0  0  0  0  0  0
    0.7164  -53.7953  -28.8322 F   0  0  0  0  0  0  0  0  0  0  0  0
    0.2505  -54.3737  -26.5433 C   0  0  0  0  0  0  0  0  0  0  0  0
 14 15  1  0  0  0
 15 13  1  0  0  0
 13  3  1  0  0  0
  3  4  2  0  0  0
  4  5  1  0  0  0
  5  6  2  0  0  0
  6  7  1  0  0  0
  7  8  2  0  0  0
  8  9  1  0  0  0
  9 10  2  0  0  0
 10 11  1  0  0  0
 11  1  1  0  0  0
  1 21  1  0  0  0
 21 22  2  0  0  0
 22 23  1  0  0  0
 23 24  2  0  0  0
 24 25  1  0  0  0
 25 30  1  0  0  0
 30 31  1  0  0  0
 31 32  2  0  0  0
 32 33  1  0  0  0
 33 34  2  0  0  0
 34 35  1  0  0  0
 35 36  1  0  0  0
 35 37  2  0  0  0
 25 26  1  0  0  0
 26 27  2  0  0  0
 27 28  1  0  0  0
 28 29  2  0  0  0
 11 12  2  0  0  0
 15 16  1  0  0  0
 16 17  2  0  0  0
 16 18  1  0  0  0
 18 19  1  0  0  0
 18 20  1  0  0  0
 12  3  1  0  0  0
 12  7  1  0  0  0
 29 21  1  0  0  0
 28 24  1  0  0  0
 37 31  1  0  0  0
  1  2  1  0  0  0
M  END
> <minimizedAffinity>
-7.69179

> <CNNscore>
0.3586549461

> <CNNaffinity>
7.1063489914

> <CNN_VS>
2.5487272739

> <CNNaffinity_variance>
0.1456142962

$$$$
[H]c1nc(N([H])c2c([H])c([H])c3c(c([H])nn3C([H])([H])c3c([H])c([H])c([H])c(F)c3[H])c2[H])c2c(O[C@@]([H])(C(=O)N(C([H])([H])[H])C([H])([H])[H])C([H])([H])[H])c([H])c([H])c([H])c2n1


 37 41  0  0  0  0  0  0  0  0999 V2000
    0.0374  -52.6600  -18.0842 N   0  0  0  0  0  0  0  0  0  0  0  0
    0.9322  -52.9755  -17.7436 H   0  0  0  0  0  0  0  0  0  0  0  0
   -0.0871  -50.2713  -16.4484 C   0  0  0  0  0  0  0  0  0  0  0  0
   -0.2648  -49.1270  -15.6613 C   0  0  0  0  0  0  0  0  0  0  0  0
   -1.4457  -48.8562  -14.9942 C   0  0  0  0  0  0  0  0  0  0  0  0
   -2.4965  -49.7345  -15.0967 C   0  0  0  0  0  0  0  0  0  0  0  0
   -2.3492  -50.8659  -15.8634 C   0  0  0  0  0  0  0  0  0  0  0  0
   -3.3784  -51.7221  -15.9431 N   0  0  0  0  0  0  0  0  0  0  0  0
   -3.3009  -52.8594  -16.6661 C   0  0  0  0  0  0  0  0  0  0  0  0
   -2.1783  -53.0930  -17.2886 N   0  0  0  0  0  0  0  0  0  0  0  0
   -1.0612  -52.3028  -17.2875 C   0  0  0  0  0  0  0  0  0  0  0  0
   -1.1618  -51.1321  -16.5316 C   0  0  0  0  0  0  0  0  0  0  0  0
    1.0913  -50.4912  -17.0763 O   0  0  0  0  0  0  0  0  0  0  0  0
    2.3434  -51.0484  -15.1233 C   0  0  0  0  0  0  0  0  0  0  0  0
    2.3856  -50.5504  -16.5426 C   0  0  0  0  0  0  0  0  0  0  0  0
    3.1886  -49.3525  -16.7541 C   0  0  0  0  0  0  0  0  0  0  0  0
    3.2313  -48.4713  -15.8592 O   0  0  0  0  0  0  0  0  0  0  0  0
    3.9352  -49.1288  -17.9382 N   0  0  0  0  0  0  0  0  0  0  0  0
    4.7324  -47.9062  -18.1005 C   0  0  0  0  0  0  0  0  0  0  0  0
    3.9780  -50.0471  -19.0562 C   0  0  0  0  0  0  0  0  0  0  0  0
   -0.0516  -52.5602  -19.5017 C   0  0  0  0  0  0  0  0  0  0  0  0
    0.2664  -51.4562  -20.2390 C   0  0  0  0  0  0  0  0  0  0  0  0
    0.1909  -51.4245  -21.6188 C   0  0  0  0  0  0  0  0  0  0  0  0
   -0.2221  -52.5470  -22.2901 C   0  0  0  0  0  0  0  0  0  0  0  0
   -0.3828  -52.7773  -23.6075 N   0  0  0  0  0  0  0  0  0  0  0  0
   -0.8080  -54.0337  -23.7306 N   0  0  0  0  0  0  0  0  0  0  0  0
   -0.9256  -54.6203  -22.5277 C   0  0  0  0  0  0  0  0  0  0  0  0
   -0.5536  -53.6806  -21.5915 C   0  0  0  0  0  0  0  0  0  0  0  0
   -0.4693  -53.6859  -20.2209 C   0  0  0  0  0  0  0  0  0  0  0  0
   -0.1209  -51.8119  -24.6381 C   0  0  0  0  0  0  0  0  0  0  0  0
   -0.2745  -52.2979  -26.0062 C   0  0  0  0  0  0  0  0  0  0  0  0
   -1.4844  -52.1493  -26.6474 C   0  0  0  0  0  0  0  0  0  0  0  0
   -1.6603  -52.5985  -27.9508 C   0  0  0  0  0  0  0  0  0  0  0  0
   -0.6401  -53.2006  -28.6361 C   0  0  0  0  0  0  0  0  0  0  0  0
    0.5737  -53.3555  -28.0080 C   0  0  0  0  0  0  0  0  0  0  0  0
    1.5760  -53.9534  -28.6976 F   0  0  0  0  0  0  0  0  0  0  0  0
    0.7480  -52.9029  -26.6972 C   0  0  0  0  0  0  0  0  0  0  0  0
 14 15  1  0  0  0
 15 13  1  0  0  0
 13  3  1  0  0  0
  3  4  2  0  0  0
  4  5  1  0  0  0
  5  6  2  0  0  0
  6  7  1  0  0  0
  7  8  2  0  0  0
  8  9  1  0  0  0
  9 10  2  0  0  0
 10 11  1  0  0  0
 11  1  1  0  0  0
  1 21  1  0  0  0
 21 22  2  0  0  0
 22 23  1  0  0  0
 23 24  2  0  0  0
 24 25  1  0  0  0
 25 30  1  0  0  0
 30 31  1  0  0  0
 31 32  2  0  0  0
 32 33  1  0  0  0
 33 34  2  0  0  0
 34 35  1  0  0  0
 35 36  1  0  0  0
 35 37  2  0  0  0
 25 26  1  0  0  0
 26 27  2  0  0  0
 27 28  1  0  0  0
 28 29  2  0  0  0
 11 12  2  0  0  0
 15 16  1  0  0  0
 16 17  2  0  0  0
 16 18  1  0  0  0
 18 19  1  0  0  0
 18 20  1  0  0  0
 12  3  1  0  0  0
 12  7  1  0  0  0
 29 21  1  0  0  0
 28 24  1  0  0  0
 37 31  1  0  0  0
  1  2  1  0  0  0
M  END
> <minimizedAffinity>
-8.78479

> <CNNscore>
0.3480454385

> <CNNaffinity>
7.0542116165

> <CNN_VS>
2.4551861286

> <CNNaffinity_variance>
0.0938003287

$$$$
[H]c1nc(N([H])c2c([H])c([H])c3c(c([H])nn3C([H])([H])c3c([H])c([H])c([H])c(F)c3[H])c2[H])c2c(O[C@@]([H])(C(=O)N(C([H])([H])[H])C([H])([H])[H])C([H])([H])[H])c([H])c([H])c([H])c2n1


 37 41  0  0  0  0  0  0  0  0999 V2000
    0.9012  -51.0711  -21.5804 N   0  0  0  0  0  0  0  0  0  0  0  0
    1.2449  -50.3811  -22.2301 H   0  0  0  0  0  0  0  0  0  0  0  0
    0.6107  -52.0578  -24.2895 C   0  0  0  0  0  0  0  0  0  0  0  0
    0.4525  -52.6417  -25.5523 C   0  0  0  0  0  0  0  0  0  0  0  0
   -0.1573  -53.8695  -25.7355 C   0  0  0  0  0  0  0  0  0  0  0  0
   -0.6328  -54.5573  -24.6460 C   0  0  0  0  0  0  0  0  0  0  0  0
   -0.4902  -54.0071  -23.3944 C   0  0  0  0  0  0  0  0  0  0  0  0
   -0.9719  -54.6829  -22.3409 N   0  0  0  0  0  0  0  0  0  0  0  0
   -0.8796  -54.1981  -21.0844 C   0  0  0  0  0  0  0  0  0  0  0  0
   -0.2986  -53.0395  -20.9353 N   0  0  0  0  0  0  0  0  0  0  0  0
    0.2317  -52.2557  -21.9237 C   0  0  0  0  0  0  0  0  0  0  0  0
    0.1236  -52.7747  -23.2164 C   0  0  0  0  0  0  0  0  0  0  0  0
    1.2106  -50.8512  -24.1661 O   0  0  0  0  0  0  0  0  0  0  0  0
    2.6471  -50.4643  -26.0315 C   0  0  0  0  0  0  0  0  0  0  0  0
    2.5053  -50.4603  -24.5334 C   0  0  0  0  0  0  0  0  0  0  0  0
    3.5753  -51.1347  -23.8090 C   0  0  0  0  0  0  0  0  0  0  0  0
    3.8230  -52.3418  -24.0555 O   0  0  0  0  0  0  0  0  0  0  0  0
    4.3625  -50.4859  -22.8246 N   0  0  0  0  0  0  0  0  0  0  0  0
    5.4324  -51.2094  -22.1259 C   0  0  0  0  0  0  0  0  0  0  0  0
    4.1904  -49.1043  -22.4290 C   0  0  0  0  0  0  0  0  0  0  0  0
    1.1723  -50.7798  -20.2134 C   0  0  0  0  0  0  0  0  0  0  0  0
    0.2616  -50.3194  -19.3066 C   0  0  0  0  0  0  0  0  0  0  0  0
    0.5724  -50.0824  -17.9807 C   0  0  0  0  0  0  0  0  0  0  0  0
    1.8514  -50.3155  -17.5436 C   0  0  0  0  0  0  0  0  0  0  0  0
    2.4077  -50.1671  -16.3258 N   0  0  0  0  0  0  0  0  0  0  0  0
    3.6846  -50.5299  -16.4380 N   0  0  0  0  0  0  0  0  0  0  0  0
    3.9667  -50.9088  -17.6958 C   0  0  0  0  0  0  0  0  0  0  0  0
    2.8017  -50.7776  -18.4191 C   0  0  0  0  0  0  0  0  0  0  0  0
    2.4667  -51.0054  -19.7311 C   0  0  0  0  0  0  0  0  0  0  0  0
    1.7028  -49.7074  -15.1620 C   0  0  0  0  0  0  0  0  0  0  0  0
    1.1020  -50.7530  -14.3391 C   0  0  0  0  0  0  0  0  0  0  0  0
    1.9150  -51.6259  -13.6507 C   0  0  0  0  0  0  0  0  0  0  0  0
    1.3728  -52.6292  -12.8563 C   0  0  0  0  0  0  0  0  0  0  0  0
    0.0183  -52.7809  -12.7335 C   0  0  0  0  0  0  0  0  0  0  0  0
   -0.8057  -51.9161  -13.4154 C   0  0  0  0  0  0  0  0  0  0  0  0
   -2.1454  -52.0769  -13.2853 F   0  0  0  0  0  0  0  0  0  0  0  0
   -0.2579  -50.9079  -14.2135 C   0  0  0  0  0  0  0  0  0  0  0  0
 14 15  1  0  0  0
 15 13  1  0  0  0
 13  3  1  0  0  0
  3  4  2  0  0  0
  4  5  1  0  0  0
  5  6  2  0  0  0
  6  7  1  0  0  0
  7  8  2  0  0  0
  8  9  1  0  0  0
  9 10  2  0  0  0
 10 11  1  0  0  0
 11  1  1  0  0  0
  1 21  1  0  0  0
 21 22  2  0  0  0
 22 23  1  0  0  0
 23 24  2  0  0  0
 24 25  1  0  0  0
 25 30  1  0  0  0
 30 31  1  0  0  0
 31 32  2  0  0  0
 32 33  1  0  0  0
 33 34  2  0  0  0
 34 35  1  0  0  0
 35 36  1  0  0  0
 35 37  2  0  0  0
 25 26  1  0  0  0
 26 27  2  0  0  0
 27 28  1  0  0  0
 28 29  2  0  0  0
 11 12  2  0  0  0
 15 16  1  0  0  0
 16 17  2  0  0  0
 16 18  1  0  0  0
 18 19  1  0  0  0
 18 20  1  0  0  0
 12  3  1  0  0  0
 12  7  1  0  0  0
 29 21  1  0  0  0
 28 24  1  0  0  0
 37 31  1  0  0  0
  1  2  1  0  0  0
M  END
> <minimizedAffinity>
-7.09171

> <CNNscore>
0.3301644623

> <CNNaffinity>
7.0489377975

> <CNN_VS>
2.3273086548

> <CNNaffinity_variance>
0.2546676993

$$$$
[H]c1nc(N([H])c2c([H])c([H])c3c(c([H])nn3C([H])([H])c3c([H])c([H])c([H])c(F)c3[H])c2[H])c2c(O[C@]([H])(C(=O)N(C([H])([H])[H])C([H])([H])[H])C([H])([H])[H])c([H])c([H])c([H])c2n1


 37 41  0  0  0  0  0  0  0  0999 V2000
   -0.0273  -53.0993  -18.4916 N   0  0  0  0  0  0  0  0  0  0  0  0
    0.8658  -53.4933  -18.2493 H   0  0  0  0  0  0  0  0  0  0  0  0
    0.2626  -50.7482  -16.7867 C   0  0  0  0  0  0  0  0  0  0  0  0
    0.3447  -49.6173  -15.9811 C   0  0  0  0  0  0  0  0  0  0  0  0
   -0.7363  -49.2312  -15.2236 C   0  0  0  0  0  0  0  0  0  0  0  0
   -1.8884  -49.9724  -15.2733 C   0  0  0  0  0  0  0  0  0  0  0  0
   -1.9965  -51.1055  -16.0694 C   0  0  0  0  0  0  0  0  0  0  0  0
   -3.1728  -51.7892  -16.0509 N   0  0  0  0  0  0  0  0  0  0  0  0
   -3.2369  -52.8800  -16.8202 C   0  0  0  0  0  0  0  0  0  0  0  0
   -2.2217  -53.2893  -17.5679 N   0  0  0  0  0  0  0  0  0  0  0  0
   -1.0208  -52.6453  -17.6271 C   0  0  0  0  0  0  0  0  0  0  0  0
   -0.9140  -51.5000  -16.8348 C   0  0  0  0  0  0  0  0  0  0  0  0
    1.3373  -51.1355  -17.5382 O   0  0  0  0  0  0  0  0  0  0  0  0
    3.6159  -50.8639  -16.9756 C   0  0  0  0  0  0  0  0  0  0  0  0
    2.4733  -50.3786  -17.8800 C   0  0  0  0  0  0  0  0  0  0  0  0
    2.9302  -50.6949  -19.2737 C   0  0  0  0  0  0  0  0  0  0  0  0
    3.3666  -51.8418  -19.4950 O   0  0  0  0  0  0  0  0  0  0  0  0
    2.8751  -49.7414  -20.3092 N   0  0  0  0  0  0  0  0  0  0  0  0
    3.3319  -50.0963  -21.6412 C   0  0  0  0  0  0  0  0  0  0  0  0
    2.3724  -48.3971  -20.1035 C   0  0  0  0  0  0  0  0  0  0  0  0
   -0.2389  -52.9918  -19.9075 C   0  0  0  0  0  0  0  0  0  0  0  0
   -0.1215  -51.8057  -20.5462 C   0  0  0  0  0  0  0  0  0  0  0  0
   -0.2920  -51.6864  -21.9346 C   0  0  0  0  0  0  0  0  0  0  0  0
   -0.5879  -52.8287  -22.6377 C   0  0  0  0  0  0  0  0  0  0  0  0
   -0.7989  -52.9852  -23.9563 N   0  0  0  0  0  0  0  0  0  0  0  0
   -1.0520  -54.2704  -24.1560 N   0  0  0  0  0  0  0  0  0  0  0  0
   -1.0128  -54.9611  -23.0071 C   0  0  0  0  0  0  0  0  0  0  0  0
   -0.7164  -54.0541  -22.0214 C   0  0  0  0  0  0  0  0  0  0  0  0
   -0.5393  -54.1228  -20.6530 C   0  0  0  0  0  0  0  0  0  0  0  0
   -0.7455  -51.9234  -24.9532 C   0  0  0  0  0  0  0  0  0  0  0  0
   -0.2482  -52.3933  -26.2678 C   0  0  0  0  0  0  0  0  0  0  0  0
    1.1042  -52.6408  -26.4374 C   0  0  0  0  0  0  0  0  0  0  0  0
    1.6107  -53.0825  -27.6414 C   0  0  0  0  0  0  0  0  0  0  0  0
    0.7926  -53.2974  -28.7302 C   0  0  0  0  0  0  0  0  0  0  0  0
   -0.5549  -53.0543  -28.5722 C   0  0  0  0  0  0  0  0  0  0  0  0
   -1.3530  -53.2677  -29.6464 F   0  0  0  0  0  0  0  0  0  0  0  0
   -1.0715  -52.6055  -27.3493 C   0  0  0  0  0  0  0  0  0  0  0  0
 14 15  1  0  0  0
 15 13  1  0  0  0
 13  3  1  0  0  0
  3  4  2  0  0  0
  4  5  1  0  0  0
  5  6  2  0  0  0
  6  7  1  0  0  0
  7  8  2  0  0  0
  8  9  1  0  0  0
  9 10  2  0  0  0
 10 11  1  0  0  0
 11  1  1  0  0  0
  1 21  1  0  0  0
 21 22  2  0  0  0
 22 23  1  0  0  0
 23 24  2  0  0  0
 24 25  1  0  0  0
 25 30  1  0  0  0
 30 31  1  0  0  0
 31 32  2  0  0  0
 32 33  1  0  0  0
 33 34  2  0  0  0
 34 35  1  0  0  0
 35 36  1  0  0  0
 35 37  2  0  0  0
 25 26  1  0  0  0
 26 27  2  0  0  0
 27 28  1  0  0  0
 28 29  2  0  0  0
 11 12  2  0  0  0
 15 16  1  0  0  0
 16 17  2  0  0  0
 16 18  1  0  0  0
 18 19  1  0  0  0
 18 20  1  0  0  0
 12  3  1  0  0  0
 12  7  1  0  0  0
 29 21  1  0  0  0
 28 24  1  0  0  0
 37 31  1  0  0  0
  1  2  1  0  0  0
M  END
> <minimizedAffinity>
-9.44906

> <CNNscore>
0.7491902113

> <CNNaffinity>
7.4945273399

> <CNN_VS>
5.6148266792

> <CNNaffinity_variance>
0.0926021039

$$$$
[H]c1nc(N([H])c2c([H])c([H])c3c(c([H])nn3C([H])([H])c3c([H])c([H])c([H])c(F)c3[H])c2[H])c2c(O[C@]([H])(C(=O)N(C([H])([H])[H])C([H])([H])[H])C([H])([H])[H])c([H])c([H])c([H])c2n1


 37 41  0  0  0  0  0  0  0  0999 V2000
    0.8348  -51.8532  -22.8367 N   0  0  0  0  0  0  0  0  0  0  0  0
    1.4615  -51.1490  -23.1877 H   0  0  0  0  0  0  0  0  0  0  0  0
    1.2516  -52.3122  -25.6888 C   0  0  0  0  0  0  0  0  0  0  0  0
    1.4464  -52.5875  -27.0382 C   0  0  0  0  0  0  0  0  0  0  0  0
    0.8656  -53.6974  -27.6057 C   0  0  0  0  0  0  0  0  0  0  0  0
    0.0966  -54.5233  -26.8273 C   0  0  0  0  0  0  0  0  0  0  0  0
   -0.1135  -54.2712  -25.4776 C   0  0  0  0  0  0  0  0  0  0  0  0
   -0.8996  -55.1363  -24.7812 N   0  0  0  0  0  0  0  0  0  0  0  0
   -1.0887  -54.8563  -23.4882 C   0  0  0  0  0  0  0  0  0  0  0  0
   -0.5483  -53.7995  -22.8982 N   0  0  0  0  0  0  0  0  0  0  0  0
    0.2473  -52.8996  -23.5443 C   0  0  0  0  0  0  0  0  0  0  0  0
    0.4678  -53.1573  -24.8992 C   0  0  0  0  0  0  0  0  0  0  0  0
    1.8256  -51.2073  -25.1234 O   0  0  0  0  0  0  0  0  0  0  0  0
    3.1032  -49.3651  -25.8689 C   0  0  0  0  0  0  0  0  0  0  0  0
    3.1565  -50.7661  -25.2418 C   0  0  0  0  0  0  0  0  0  0  0  0
    3.7749  -50.5554  -23.8911 C   0  0  0  0  0  0  0  0  0  0  0  0
    3.2718  -49.6863  -23.1518 O   0  0  0  0  0  0  0  0  0  0  0  0
    4.8857  -51.3046  -23.4562 N   0  0  0  0  0  0  0  0  0  0  0  0
    5.4493  -51.0610  -22.1402 C   0  0  0  0  0  0  0  0  0  0  0  0
    5.5033  -52.3285  -24.2763 C   0  0  0  0  0  0  0  0  0  0  0  0
    0.5705  -51.7332  -21.4308 C   0  0  0  0  0  0  0  0  0  0  0  0
   -0.0440  -52.7239  -20.7455 C   0  0  0  0  0  0  0  0  0  0  0  0
   -0.2815  -52.6390  -19.3644 C   0  0  0  0  0  0  0  0  0  0  0  0
    0.1345  -51.5006  -18.7182 C   0  0  0  0  0  0  0  0  0  0  0  0
    0.0276  -51.1730  -17.4185 N   0  0  0  0  0  0  0  0  0  0  0  0
    0.5726  -49.9735  -17.2775 N   0  0  0  0  0  0  0  0  0  0  0  0
    1.0340  -49.5053  -18.4465 C   0  0  0  0  0  0  0  0  0  0  0  0
    0.7626  -50.4703  -19.3830 C   0  0  0  0  0  0  0  0  0  0  0  0
    0.9753  -50.5987  -20.7420 C   0  0  0  0  0  0  0  0  0  0  0  0
   -0.5733  -52.0046  -16.3835 C   0  0  0  0  0  0  0  0  0  0  0  0
   -1.9656  -51.6095  -16.0647 C   0  0  0  0  0  0  0  0  0  0  0  0
   -3.0157  -52.4075  -16.4883 C   0  0  0  0  0  0  0  0  0  0  0  0
   -4.3264  -52.0810  -16.2114 C   0  0  0  0  0  0  0  0  0  0  0  0
   -4.6496  -50.9450  -15.5001 C   0  0  0  0  0  0  0  0  0  0  0  0
   -3.6122  -50.1439  -15.0737 C   0  0  0  0  0  0  0  0  0  0  0  0
   -3.9371  -49.0291  -14.3751 F   0  0  0  0  0  0  0  0  0  0  0  0
   -2.2795  -50.4741  -15.3541 C   0  0  0  0  0  0  0  0  0  0  0  0
 14 15  1  0  0  0
 15 13  1  0  0  0
 13  3  1  0  0  0
  3  4  2  0  0  0
  4  5  1  0  0  0
  5  6  2  0  0  0
  6  7  1  0  0  0
  7  8  2  0  0  0
  8  9  1  0  0  0
  9 10  2  0  0  0
 10 11  1  0  0  0
 11  1  1  0  0  0
  1 21  1  0  0  0
 21 22  2  0  0  0
 22 23  1  0  0  0
 23 24  2  0  0  0
 24 25  1  0  0  0
 25 30  1  0  0  0
 30 31  1  0  0  0
 31 32  2  0  0  0
 32 33  1  0  0  0
 33 34  2  0  0  0
 34 35  1  0  0  0
 35 36  1  0  0  0
 35 37  2  0  0  0
 25 26  1  0  0  0
 26 27  2  0  0  0
 27 28  1  0  0  0
 28 29  2  0  0  0
 11 12  2  0  0  0
 15 16  1  0  0  0
 16 17  2  0  0  0
 16 18  1  0  0  0
 18 19  1  0  0  0
 18 20  1  0  0  0
 12  3  1  0  0  0
 12  7  1  0  0  0
 29 21  1  0  0  0
 28 24  1  0  0  0
 37 31  1  0  0  0
  1  2  1  0  0  0
M  END
> <minimizedAffinity>
-9.45884

> <CNNscore>
0.6364971399

> <CNNaffinity>
7.4739470482

> <CNN_VS>
4.7571458817

> <CNNaffinity_variance>
0.1164492741

$$$$
[H]c1nc(N([H])c2c([H])c([H])c3c(c([H])nn3C([H])([H])c3c([H])c([H])c([H])c(F)c3[H])c2[H])c2c(O[C@]([H])(C(=O)N(C([H])([H])[H])C([H])([H])[H])C([H])([H])[H])c([H])c([H])c([H])c2n1


 37 41  0  0  0  0  0  0  0  0999 V2000
    1.2216  -52.4444  -21.6555 N   0  0  0  0  0  0  0  0  0  0  0  0
    2.1485  -52.0850  -21.8089 H   0  0  0  0  0  0  0  0  0  0  0  0
    0.7766  -51.5187  -24.3875 C   0  0  0  0  0  0  0  0  0  0  0  0
    0.5607  -51.1324  -25.7062 C   0  0  0  0  0  0  0  0  0  0  0  0
   -0.2167  -51.9091  -26.5329 C   0  0  0  0  0  0  0  0  0  0  0  0
   -0.7725  -53.0620  -26.0420 C   0  0  0  0  0  0  0  0  0  0  0  0
   -0.5723  -53.4703  -24.7295 C   0  0  0  0  0  0  0  0  0  0  0  0
   -1.1702  -54.6222  -24.3208 N   0  0  0  0  0  0  0  0  0  0  0  0
   -0.9648  -54.9782  -23.0492 C   0  0  0  0  0  0  0  0  0  0  0  0
   -0.2223  -54.2624  -22.2165 N   0  0  0  0  0  0  0  0  0  0  0  0
    0.4009  -53.1016  -22.5694 C   0  0  0  0  0  0  0  0  0  0  0  0
    0.2088  -52.6950  -23.8917 C   0  0  0  0  0  0  0  0  0  0  0  0
    1.5467  -50.7462  -23.5628 O   0  0  0  0  0  0  0  0  0  0  0  0
    2.7138  -48.7908  -22.9330 C   0  0  0  0  0  0  0  0  0  0  0  0
    2.6809  -49.9842  -23.8993 C   0  0  0  0  0  0  0  0  0  0  0  0
    3.9428  -50.7428  -23.6107 C   0  0  0  0  0  0  0  0  0  0  0  0
    3.8857  -51.6677  -22.7762 O   0  0  0  0  0  0  0  0  0  0  0  0
    5.1591  -50.4349  -24.2509 N   0  0  0  0  0  0  0  0  0  0  0  0
    6.3538  -51.1977  -23.9349 C   0  0  0  0  0  0  0  0  0  0  0  0
    5.2758  -49.3726  -25.2308 C   0  0  0  0  0  0  0  0  0  0  0  0
    0.7499  -52.2534  -20.3132 C   0  0  0  0  0  0  0  0  0  0  0  0
    1.3378  -51.3622  -19.4832 C   0  0  0  0  0  0  0  0  0  0  0  0
    0.8704  -51.1375  -18.1786 C   0  0  0  0  0  0  0  0  0  0  0  0
   -0.2194  -51.8622  -17.7617 C   0  0  0  0  0  0  0  0  0  0  0  0
   -0.8538  -51.8385  -16.5765 N   0  0  0  0  0  0  0  0  0  0  0  0
   -1.8441  -52.7157  -16.6520 N   0  0  0  0  0  0  0  0  0  0  0  0
   -1.8777  -53.3134  -17.8521 C   0  0  0  0  0  0  0  0  0  0  0  0
   -0.8436  -52.7795  -18.5784 C   0  0  0  0  0  0  0  0  0  0  0  0
   -0.3485  -52.9665  -19.8545 C   0  0  0  0  0  0  0  0  0  0  0  0
   -0.4995  -50.9919  -15.4444 C   0  0  0  0  0  0  0  0  0  0  0  0
   -1.3984  -49.8230  -15.2969 C   0  0  0  0  0  0  0  0  0  0  0  0
   -0.8743  -48.5436  -15.3827 C   0  0  0  0  0  0  0  0  0  0  0  0
   -1.6735  -47.4272  -15.2553 C   0  0  0  0  0  0  0  0  0  0  0  0
   -3.0305  -47.5354  -15.0367 C   0  0  0  0  0  0  0  0  0  0  0  0
   -3.5624  -48.8041  -14.9498 C   0  0  0  0  0  0  0  0  0  0  0  0
   -4.8967  -48.9030  -14.7349 F   0  0  0  0  0  0  0  0  0  0  0  0
   -2.7518  -49.9398  -15.0791 C   0  0  0  0  0  0  0  0  0  0  0  0
 14 15  1  0  0  0
 15 13  1  0  0  0
 13  3  1  0  0  0
  3  4  2  0  0  0
  4  5  1  0  0  0
  5  6  2  0  0  0
  6  7  1  0  0  0
  7  8  2  0  0  0
  8  9  1  0  0  0
  9 10  2  0  0  0
 10 11  1  0  0  0
 11  1  1  0  0  0
  1 21  1  0  0  0
 21 22  2  0  0  0
 22 23  1  0  0  0
 23 24  2  0  0  0
 24 25  1  0  0  0
 25 30  1  0  0  0
 30 31  1  0  0  0
 31 32  2  0  0  0
 32 33  1  0  0  0
 33 34  2  0  0  0
 34 35  1  0  0  0
 35 36  1  0  0  0
 35 37  2  0  0  0
 25 26  1  0  0  0
 26 27  2  0  0  0
 27 28  1  0  0  0
 28 29  2  0  0  0
 11 12  2  0  0  0
 15 16  1  0  0  0
 16 17  2  0  0  0
 16 18  1  0  0  0
 18 19  1  0  0  0
 18 20  1  0  0  0
 12  3  1  0  0  0
 12  7  1  0  0  0
 29 21  1  0  0  0
 28 24  1  0  0  0
 37 31  1  0  0  0
  1  2  1  0  0  0
M  END
> <minimizedAffinity>
-8.62373

> <CNNscore>
0.6056048870

> <CNNaffinity>
7.3167314529

> <CNN_VS>
4.4310483932

> <CNNaffinity_variance>
0.1213153377

$$$$
[H]c1nc(N([H])c2c([H])c([H])c3c(c([H])nn3C([H])([H])c3c([H])c([H])c([H])c(F)c3[H])c2[H])c2c(O[C@]([H])(C(=O)N(C([H])([H])[H])C([H])([H])[H])C([H])([H])[H])c([H])c([H])c([H])c2n1


 37 41  0  0  0  0  0  0  0  0999 V2000
    0.8258  -51.0567  -24.3025 N   0  0  0  0  0  0  0  0  0  0  0  0
    1.5152  -50.3243  -24.3005 H   0  0  0  0  0  0  0  0  0  0  0  0
    2.2921  -52.3165  -26.4892 C   0  0  0  0  0  0  0  0  0  0  0  0
    2.9481  -52.9547  -27.5366 C   0  0  0  0  0  0  0  0  0  0  0  0
    2.2233  -53.5630  -28.5345 C   0  0  0  0  0  0  0  0  0  0  0  0
    0.8538  -53.5313  -28.4827 C   0  0  0  0  0  0  0  0  0  0  0  0
    0.1745  -52.9010  -27.4480 C   0  0  0  0  0  0  0  0  0  0  0  0
   -1.1858  -52.9071  -27.4801 N   0  0  0  0  0  0  0  0  0  0  0  0
   -1.8055  -52.2818  -26.4747 C   0  0  0  0  0  0  0  0  0  0  0  0
   -1.1490  -51.6833  -25.4908 N   0  0  0  0  0  0  0  0  0  0  0  0
    0.2118  -51.6453  -25.4057 C   0  0  0  0  0  0  0  0  0  0  0  0
    0.8962  -52.2875  -26.4401 C   0  0  0  0  0  0  0  0  0  0  0  0
    3.0110  -51.7082  -25.4976 O   0  0  0  0  0  0  0  0  0  0  0  0
    3.2595  -49.5956  -26.5258 C   0  0  0  0  0  0  0  0  0  0  0  0
    3.9215  -50.6420  -25.6171 C   0  0  0  0  0  0  0  0  0  0  0  0
    4.1056  -49.9428  -24.3024 C   0  0  0  0  0  0  0  0  0  0  0  0
    3.2722  -49.0703  -23.9876 O   0  0  0  0  0  0  0  0  0  0  0  0
    5.1771  -50.2487  -23.4406 N   0  0  0  0  0  0  0  0  0  0  0  0
    5.3126  -49.5415  -22.1795 C   0  0  0  0  0  0  0  0  0  0  0  0
    6.1688  -51.2572  -23.7593 C   0  0  0  0  0  0  0  0  0  0  0  0
    0.4925  -51.5309  -22.9892 C   0  0  0  0  0  0  0  0  0  0  0  0
    1.0729  -51.0070  -21.8859 C   0  0  0  0  0  0  0  0  0  0  0  0
    0.7360  -51.4344  -20.5917 C   0  0  0  0  0  0  0  0  0  0  0  0
   -0.2158  -52.4179  -20.4764 C   0  0  0  0  0  0  0  0  0  0  0  0
   -0.7100  -52.9977  -19.3684 N   0  0  0  0  0  0  0  0  0  0  0  0
   -1.6033  -53.8914  -19.7670 N   0  0  0  0  0  0  0  0  0  0  0  0
   -1.7097  -53.9143  -21.1037 C   0  0  0  0  0  0  0  0  0  0  0  0
   -0.8278  -52.9762  -21.5773 C   0  0  0  0  0  0  0  0  0  0  0  0
   -0.4643  -52.5234  -22.8308 C   0  0  0  0  0  0  0  0  0  0  0  0
   -0.3211  -52.6770  -18.0010 C   0  0  0  0  0  0  0  0  0  0  0  0
   -1.4757  -52.3197  -17.1435 C   0  0  0  0  0  0  0  0  0  0  0  0
   -1.3823  -51.2316  -16.2913 C   0  0  0  0  0  0  0  0  0  0  0  0
   -2.4325  -50.8604  -15.4785 C   0  0  0  0  0  0  0  0  0  0  0  0
   -3.6225  -51.5565  -15.4782 C   0  0  0  0  0  0  0  0  0  0  0  0
   -3.7261  -52.6410  -16.3226 C   0  0  0  0  0  0  0  0  0  0  0  0
   -4.8985  -53.3206  -16.3173 F   0  0  0  0  0  0  0  0  0  0  0  0
   -2.6600  -53.0197  -17.1496 C   0  0  0  0  0  0  0  0  0  0  0  0
 14 15  1  0  0  0
 15 13  1  0  0  0
 13  3  1  0  0  0
  3  4  2  0  0  0
  4  5  1  0  0  0
  5  6  2  0  0  0
  6  7  1  0  0  0
  7  8  2  0  0  0
  8  9  1  0  0  0
  9 10  2  0  0  0
 10 11  1  0  0  0
 11  1  1  0  0  0
  1 21  1  0  0  0
 21 22  2  0  0  0
 22 23  1  0  0  0
 23 24  2  0  0  0
 24 25  1  0  0  0
 25 30  1  0  0  0
 30 31  1  0  0  0
 31 32  2  0  0  0
 32 33  1  0  0  0
 33 34  2  0  0  0
 34 35  1  0  0  0
 35 36  1  0  0  0
 35 37  2  0  0  0
 25 26  1  0  0  0
 26 27  2  0  0  0
 27 28  1  0  0  0
 28 29  2  0  0  0
 11 12  2  0  0  0
 15 16  1  0  0  0
 16 17  2  0  0  0
 16 18  1  0  0  0
 18 19  1  0  0  0
 18 20  1  0  0  0
 12  3  1  0  0  0
 12  7  1  0  0  0
 29 21  1  0  0  0
 28 24  1  0  0  0
 37 31  1  0  0  0
  1  2  1  0  0  0
M  END
> <minimizedAffinity>
-8.91693

> <CNNscore>
0.5763724446

> <CNNaffinity>
7.4248304367

> <CNN_VS>
4.2794675827

> <CNNaffinity_variance>
0.0949980989

$$$$
[H]c1nc(N([H])c2c([H])c([H])c3c(c([H])nn3C([H])([H])c3c([H])c([H])c([H])c(F)c3[H])c2[H])c2c(O[C@]([H])(C(=O)N(C([H])([H])[H])C([H])([H])[H])C([H])([H])[H])c([H])c([H])c([H])c2n1


 37 41  0  0  0  0  0  0  0  0999 V2000
    0.3422  -51.3521  -22.3654 N   0  0  0  0  0  0  0  0  0  0  0  0
    0.4204  -50.6359  -23.0673 H   0  0  0  0  0  0  0  0  0  0  0  0
    0.5001  -53.1214  -24.6812 C   0  0  0  0  0  0  0  0  0  0  0  0
    0.5705  -54.0095  -25.7494 C   0  0  0  0  0  0  0  0  0  0  0  0
   -0.0918  -55.2132  -25.6892 C   0  0  0  0  0  0  0  0  0  0  0  0
   -0.8180  -55.5232  -24.5687 C   0  0  0  0  0  0  0  0  0  0  0  0
   -0.9044  -54.6543  -23.4883 C   0  0  0  0  0  0  0  0  0  0  0  0
   -1.6559  -55.0361  -22.4203 N   0  0  0  0  0  0  0  0  0  0  0  0
   -1.7253  -54.1707  -21.4043 C   0  0  0  0  0  0  0  0  0  0  0  0
   -1.1030  -53.0004  -21.4171 N   0  0  0  0  0  0  0  0  0  0  0  0
   -0.3366  -52.5650  -22.4580 C   0  0  0  0  0  0  0  0  0  0  0  0
   -0.2406  -53.4420  -23.5408 C   0  0  0  0  0  0  0  0  0  0  0  0
    1.1553  -51.9226  -24.7405 O   0  0  0  0  0  0  0  0  0  0  0  0
    2.4742  -50.8515  -26.3823 C   0  0  0  0  0  0  0  0  0  0  0  0
    2.4969  -51.6851  -25.0924 C   0  0  0  0  0  0  0  0  0  0  0  0
    3.1697  -50.8040  -24.0814 C   0  0  0  0  0  0  0  0  0  0  0  0
    2.7063  -49.6592  -23.9097 O   0  0  0  0  0  0  0  0  0  0  0  0
    4.2874  -51.2385  -23.3423 N   0  0  0  0  0  0  0  0  0  0  0  0
    4.9045  -50.3464  -22.3767 C   0  0  0  0  0  0  0  0  0  0  0  0
    4.8602  -52.5609  -23.5023 C   0  0  0  0  0  0  0  0  0  0  0  0
    1.0545  -51.0474  -21.1568 C   0  0  0  0  0  0  0  0  0  0  0  0
    1.6330  -52.0218  -20.4188 C   0  0  0  0  0  0  0  0  0  0  0  0
    2.3616  -51.7406  -19.2522 C   0  0  0  0  0  0  0  0  0  0  0  0
    2.4708  -50.4245  -18.8746 C   0  0  0  0  0  0  0  0  0  0  0  0
    3.1030  -49.8938  -17.8131 N   0  0  0  0  0  0  0  0  0  0  0  0
    2.9252  -48.5822  -17.8750 N   0  0  0  0  0  0  0  0  0  0  0  0
    2.1954  -48.2374  -18.9461 C   0  0  0  0  0  0  0  0  0  0  0  0
    1.8942  -49.4051  -19.6002 C   0  0  0  0  0  0  0  0  0  0  0  0
    1.1871  -49.7300  -20.7416 C   0  0  0  0  0  0  0  0  0  0  0  0
    3.8414  -50.6451  -16.8061 C   0  0  0  0  0  0  0  0  0  0  0  0
    3.1165  -50.7457  -15.5174 C   0  0  0  0  0  0  0  0  0  0  0  0
    3.8107  -50.5858  -14.3293 C   0  0  0  0  0  0  0  0  0  0  0  0
    3.1769  -50.6675  -13.1075 C   0  0  0  0  0  0  0  0  0  0  0  0
    1.8233  -50.9122  -13.0146 C   0  0  0  0  0  0  0  0  0  0  0  0
    1.1229  -51.0728  -14.1908 C   0  0  0  0  0  0  0  0  0  0  0  0
   -0.2071  -51.3129  -14.0921 F   0  0  0  0  0  0  0  0  0  0  0  0
    1.7653  -50.9900  -15.4335 C   0  0  0  0  0  0  0  0  0  0  0  0
 14 15  1  0  0  0
 15 13  1  0  0  0
 13  3  1  0  0  0
  3  4  2  0  0  0
  4  5  1  0  0  0
  5  6  2  0  0  0
  6  7  1  0  0  0
  7  8  2  0  0  0
  8  9  1  0  0  0
  9 10  2  0  0  0
 10 11  1  0  0  0
 11  1  1  0  0  0
  1 21  1  0  0  0
 21 22  2  0  0  0
 22 23  1  0  0  0
 23 24  2  0  0  0
 24 25  1  0  0  0
 25 30  1  0  0  0
 30 31  1  0  0  0
 31 32  2  0  0  0
 32 33  1  0  0  0
 33 34  2  0  0  0
 34 35  1  0  0  0
 35 36  1  0  0  0
 35 37  2  0  0  0
 25 26  1  0  0  0
 26 27  2  0  0  0
 27 28  1  0  0  0
 28 29  2  0  0  0
 11 12  2  0  0  0
 15 16  1  0  0  0
 16 17  2  0  0  0
 16 18  1  0  0  0
 18 19  1  0  0  0
 18 20  1  0  0  0
 12  3  1  0  0  0
 12  7  1  0  0  0
 29 21  1  0  0  0
 28 24  1  0  0  0
 37 31  1  0  0  0
  1  2  1  0  0  0
M  END
> <minimizedAffinity>
-7.37745

> <CNNscore>
0.5486738086

> <CNNaffinity>
7.3080892563

> <CNN_VS>
4.0097570419

> <CNNaffinity_variance>
0.2032111883

$$$$
[H]c1nc(N([H])c2c([H])c([H])c3c(c([H])nn3C([H])([H])c3c([H])c([H])c([H])c(F)c3[H])c2[H])c2c(O[C@]([H])(C(=O)N(C([H])([H])[H])C([H])([H])[H])C([H])([H])[H])c([H])c([H])c([H])c2n1


 37 41  0  0  0  0  0  0  0  0999 V2000
    1.4336  -52.4119  -21.7960 N   0  0  0  0  0  0  0  0  0  0  0  0
    2.3939  -52.1982  -22.0058 H   0  0  0  0  0  0  0  0  0  0  0  0
    0.8016  -51.5233  -24.5033 C   0  0  0  0  0  0  0  0  0  0  0  0
    0.4922  -51.1547  -25.8084 C   0  0  0  0  0  0  0  0  0  0  0  0
   -0.3948  -51.9050  -26.5442 C   0  0  0  0  0  0  0  0  0  0  0  0
   -0.9663  -53.0143  -25.9765 C   0  0  0  0  0  0  0  0  0  0  0  0
   -0.6743  -53.4041  -24.6757 C   0  0  0  0  0  0  0  0  0  0  0  0
   -1.2947  -54.5118  -24.1864 N   0  0  0  0  0  0  0  0  0  0  0  0
   -0.9983  -54.8506  -22.9281 C   0  0  0  0  0  0  0  0  0  0  0  0
   -0.1487  -54.1589  -22.1819 N   0  0  0  0  0  0  0  0  0  0  0  0
    0.5023  -53.0425  -22.6180 C   0  0  0  0  0  0  0  0  0  0  0  0
    0.2174  -52.6551  -23.9293 C   0  0  0  0  0  0  0  0  0  0  0  0
    1.6809  -50.7767  -23.7690 O   0  0  0  0  0  0  0  0  0  0  0  0
    2.7887  -48.7136  -23.4547 C   0  0  0  0  0  0  0  0  0  0  0  0
    2.7873  -50.0394  -24.2301 C   0  0  0  0  0  0  0  0  0  0  0  0
    4.0752  -50.7065  -23.8463 C   0  0  0  0  0  0  0  0  0  0  0  0
    4.0210  -51.6437  -23.0254 O   0  0  0  0  0  0  0  0  0  0  0  0
    5.3122  -50.3015  -24.3847 N   0  0  0  0  0  0  0  0  0  0  0  0
    6.5315  -50.9782  -23.9789 C   0  0  0  0  0  0  0  0  0  0  0  0
    5.4270  -49.2211  -25.3448 C   0  0  0  0  0  0  0  0  0  0  0  0
    1.0379  -52.0229  -20.4720 C   0  0  0  0  0  0  0  0  0  0  0  0
    0.4001  -52.8854  -19.6486 C   0  0  0  0  0  0  0  0  0  0  0  0
    0.0347  -52.5343  -18.3393 C   0  0  0  0  0  0  0  0  0  0  0  0
    0.3481  -51.2672  -17.9117 C   0  0  0  0  0  0  0  0  0  0  0  0
    0.1112  -50.6883  -16.7214 N   0  0  0  0  0  0  0  0  0  0  0  0
    0.5968  -49.4573  -16.7883 N   0  0  0  0  0  0  0  0  0  0  0  0
    1.1454  -49.2123  -17.9873 C   0  0  0  0  0  0  0  0  0  0  0  0
    0.9960  -50.3610  -18.7222 C   0  0  0  0  0  0  0  0  0  0  0  0
    1.3363  -50.7515  -20.0029 C   0  0  0  0  0  0  0  0  0  0  0  0
   -0.5508  -51.3234  -15.5890 C   0  0  0  0  0  0  0  0  0  0  0  0
   -2.0132  -51.0838  -15.5694 C   0  0  0  0  0  0  0  0  0  0  0  0
   -2.5041  -49.9005  -15.0425 C   0  0  0  0  0  0  0  0  0  0  0  0
   -3.8564  -49.6335  -15.0070 C   0  0  0  0  0  0  0  0  0  0  0  0
   -4.7800  -50.5334  -15.4948 C   0  0  0  0  0  0  0  0  0  0  0  0
   -4.3022  -51.7141  -16.0215 C   0  0  0  0  0  0  0  0  0  0  0  0
   -5.2155  -52.5939  -16.4993 F   0  0  0  0  0  0  0  0  0  0  0  0
   -2.9282  -51.9872  -16.0586 C   0  0  0  0  0  0  0  0  0  0  0  0
 14 15  1  0  0  0
 15 13  1  0  0  0
 13  3  1  0  0  0
  3  4  2  0  0  0
  4  5  1  0  0  0
  5  6  2  0  0  0
  6  7  1  0  0  0
  7  8  2  0  0  0
  8  9  1  0  0  0
  9 10  2  0  0  0
 10 11  1  0  0  0
 11  1  1  0  0  0
  1 21  1  0  0  0
 21 22  2  0  0  0
 22 23  1  0  0  0
 23 24  2  0  0  0
 24 25  1  0  0  0
 25 30  1  0  0  0
 30 31  1  0  0  0
 31 32  2  0  0  0
 32 33  1  0  0  0
 33 34  2  0  0  0
 34 35  1  0  0  0
 35 36  1  0  0  0
 35 37  2  0  0  0
 25 26  1  0  0  0
 26 27  2  0  0  0
 27 28  1  0  0  0
 28 29  2  0  0  0
 11 12  2  0  0  0
 15 16  1  0  0  0
 16 17  2  0  0  0
 16 18  1  0  0  0
 18 19  1  0  0  0
 18 20  1  0  0  0
 12  3  1  0  0  0
 12  7  1  0  0  0
 29 21  1  0  0  0
 28 24  1  0  0  0
 37 31  1  0  0  0
  1  2  1  0  0  0
M  END
> <minimizedAffinity>
-8.68254

> <CNNscore>
0.5052868724

> <CNNaffinity>
7.3385758400

> <CNN_VS>
3.7080860138

> <CNNaffinity_variance>
0.3021743000

$$$$
[H]c1nc(N([H])c2c([H])c([H])c3c(c([H])nn3C([H])([H])c3c([H])c([H])c([H])c(F)c3[H])c2[H])c2c(O[C@]([H])(C(=O)N(C([H])([H])[H])C([H])([H])[H])C([H])([H])[H])c([H])c([H])c([H])c2n1


 37 41  0  0  0  0  0  0  0  0999 V2000
    0.1022  -53.0401  -18.5328 N   0  0  0  0  0  0  0  0  0  0  0  0
    1.0193  -53.3757  -18.2917 H   0  0  0  0  0  0  0  0  0  0  0  0
    0.3670  -50.6642  -16.8583 C   0  0  0  0  0  0  0  0  0  0  0  0
    0.4370  -49.5223  -16.0672 C   0  0  0  0  0  0  0  0  0  0  0  0
   -0.6459  -49.1418  -15.3097 C   0  0  0  0  0  0  0  0  0  0  0  0
   -1.7880  -49.8992  -15.3452 C   0  0  0  0  0  0  0  0  0  0  0  0
   -1.8839  -51.0435  -16.1268 C   0  0  0  0  0  0  0  0  0  0  0  0
   -3.0505  -51.7429  -16.0946 N   0  0  0  0  0  0  0  0  0  0  0  0
   -3.1029  -52.8440  -16.8501 C   0  0  0  0  0  0  0  0  0  0  0  0
   -2.0854  -53.2486  -17.5971 N   0  0  0  0  0  0  0  0  0  0  0  0
   -0.8937  -52.5890  -17.6695 C   0  0  0  0  0  0  0  0  0  0  0  0
   -0.7994  -51.4326  -16.8920 C   0  0  0  0  0  0  0  0  0  0  0  0
    1.4438  -51.0461  -17.6097 O   0  0  0  0  0  0  0  0  0  0  0  0
    3.5509  -51.0058  -16.5418 C   0  0  0  0  0  0  0  0  0  0  0  0
    2.7068  -50.4309  -17.6890 C   0  0  0  0  0  0  0  0  0  0  0  0
    3.4288  -50.8447  -18.9374 C   0  0  0  0  0  0  0  0  0  0  0  0
    3.2028  -51.9857  -19.3871 O   0  0  0  0  0  0  0  0  0  0  0  0
    4.3339  -49.9870  -19.5926 N   0  0  0  0  0  0  0  0  0  0  0  0
    5.0095  -50.4358  -20.7972 C   0  0  0  0  0  0  0  0  0  0  0  0
    4.6269  -48.6507  -19.1121 C   0  0  0  0  0  0  0  0  0  0  0  0
   -0.1456  -53.0209  -19.9467 C   0  0  0  0  0  0  0  0  0  0  0  0
    0.0309  -51.8951  -20.6746 C   0  0  0  0  0  0  0  0  0  0  0  0
   -0.1744  -51.8650  -22.0631 C   0  0  0  0  0  0  0  0  0  0  0  0
   -0.5676  -53.0320  -22.6714 C   0  0  0  0  0  0  0  0  0  0  0  0
   -0.8295  -53.2686  -23.9688 N   0  0  0  0  0  0  0  0  0  0  0  0
   -1.1742  -54.5444  -24.0659 N   0  0  0  0  0  0  0  0  0  0  0  0
   -1.1455  -55.1512  -22.8702 C   0  0  0  0  0  0  0  0  0  0  0  0
   -0.7586  -54.1979  -21.9627 C   0  0  0  0  0  0  0  0  0  0  0  0
   -0.5441  -54.1795  -20.5981 C   0  0  0  0  0  0  0  0  0  0  0  0
   -0.7363  -52.2880  -25.0428 C   0  0  0  0  0  0  0  0  0  0  0  0
    0.4514  -52.4913  -25.9057 C   0  0  0  0  0  0  0  0  0  0  0  0
    0.2824  -52.6674  -27.2693 C   0  0  0  0  0  0  0  0  0  0  0  0
    1.3586  -52.8560  -28.1105 C   0  0  0  0  0  0  0  0  0  0  0  0
    2.6510  -52.8776  -27.6310 C   0  0  0  0  0  0  0  0  0  0  0  0
    2.8304  -52.7032  -26.2755 C   0  0  0  0  0  0  0  0  0  0  0  0
    4.1032  -52.7256  -25.8111 F   0  0  0  0  0  0  0  0  0  0  0  0
    1.7380  -52.5113  -25.4190 C   0  0  0  0  0  0  0  0  0  0  0  0
 14 15  1  0  0  0
 15 13  1  0  0  0
 13  3  1  0  0  0
  3  4  2  0  0  0
  4  5  1  0  0  0
  5  6  2  0  0  0
  6  7  1  0  0  0
  7  8  2  0  0  0
  8  9  1  0  0  0
  9 10  2  0  0  0
 10 11  1  0  0  0
 11  1  1  0  0  0
  1 21  1  0  0  0
 21 22  2  0  0  0
 22 23  1  0  0  0
 23 24  2  0  0  0
 24 25  1  0  0  0
 25 30  1  0  0  0
 30 31  1  0  0  0
 31 32  2  0  0  0
 32 33  1  0  0  0
 33 34  2  0  0  0
 34 35  1  0  0  0
 35 36  1  0  0  0
 35 37  2  0  0  0
 25 26  1  0  0  0
 26 27  2  0  0  0
 27 28  1  0  0  0
 28 29  2  0  0  0
 11 12  2  0  0  0
 15 16  1  0  0  0
 16 17  2  0  0  0
 16 18  1  0  0  0
 18 19  1  0  0  0
 18 20  1  0  0  0
 12  3  1  0  0  0
 12  7  1  0  0  0
 29 21  1  0  0  0
 28 24  1  0  0  0
 37 31  1  0  0  0
  1  2  1  0  0  0
M  END
> <minimizedAffinity>
-9.22491

> <CNNscore>
0.4925455749

> <CNNaffinity>
7.2063074112

> <CNN_VS>
3.5494349003

> <CNNaffinity_variance>
0.1951711476

$$$$
[H]c1nc(N([H])c2c([H])c([H])c3c(c([H])nn3C([H])([H])c3c([H])c([H])c([H])c(F)c3[H])c2[H])c2c(O[C@]([H])(C(=O)N(C([H])([H])[H])C([H])([H])[H])C([H])([H])[H])c([H])c([H])c([H])c2n1


 37 41  0  0  0  0  0  0  0  0999 V2000
    0.4810  -51.3176  -22.1290 N   0  0  0  0  0  0  0  0  0  0  0  0
    0.8764  -50.7891  -22.8880 H   0  0  0  0  0  0  0  0  0  0  0  0
    0.5170  -53.0897  -24.4478 C   0  0  0  0  0  0  0  0  0  0  0  0
    0.5286  -53.9790  -25.5173 C   0  0  0  0  0  0  0  0  0  0  0  0
   -0.1751  -55.1580  -25.4404 C   0  0  0  0  0  0  0  0  0  0  0  0
   -0.8838  -55.4424  -24.3020 C   0  0  0  0  0  0  0  0  0  0  0  0
   -0.9118  -54.5718  -23.2200 C   0  0  0  0  0  0  0  0  0  0  0  0
   -1.6498  -54.9270  -22.1335 N   0  0  0  0  0  0  0  0  0  0  0  0
   -1.6625  -54.0604  -21.1162 C   0  0  0  0  0  0  0  0  0  0  0  0
   -0.9988  -52.9133  -21.1448 N   0  0  0  0  0  0  0  0  0  0  0  0
   -0.2433  -52.5052  -22.2045 C   0  0  0  0  0  0  0  0  0  0  0  0
   -0.2061  -53.3842  -23.2893 C   0  0  0  0  0  0  0  0  0  0  0  0
    1.2134  -51.9154  -24.5236 O   0  0  0  0  0  0  0  0  0  0  0  0
    2.4029  -50.9871  -26.3417 C   0  0  0  0  0  0  0  0  0  0  0  0
    2.5242  -51.7143  -24.9943 C   0  0  0  0  0  0  0  0  0  0  0  0
    3.2715  -50.7586  -24.1116 C   0  0  0  0  0  0  0  0  0  0  0  0
    2.7306  -49.6657  -23.8508 O   0  0  0  0  0  0  0  0  0  0  0  0
    4.5413  -51.0684  -23.5864 N   0  0  0  0  0  0  0  0  0  0  0  0
    5.2249  -50.1079  -22.7384 C   0  0  0  0  0  0  0  0  0  0  0  0
    5.2097  -52.3264  -23.8567 C   0  0  0  0  0  0  0  0  0  0  0  0
    0.7473  -50.7495  -20.8378 C   0  0  0  0  0  0  0  0  0  0  0  0
    0.1740  -51.2493  -19.7197 C   0  0  0  0  0  0  0  0  0  0  0  0
    0.4474  -50.7287  -18.4449 C   0  0  0  0  0  0  0  0  0  0  0  0
    1.3286  -49.6781  -18.3646 C   0  0  0  0  0  0  0  0  0  0  0  0
    1.7537  -49.0054  -17.2808 N   0  0  0  0  0  0  0  0  0  0  0  0
    2.5961  -48.0769  -17.7096 N   0  0  0  0  0  0  0  0  0  0  0  0
    2.7360  -48.1213  -19.0427 C   0  0  0  0  0  0  0  0  0  0  0  0
    1.9311  -49.1419  -19.4815 C   0  0  0  0  0  0  0  0  0  0  0  0
    1.6317  -49.6873  -20.7150 C   0  0  0  0  0  0  0  0  0  0  0  0
    1.3509  -49.2750  -15.9064 C   0  0  0  0  0  0  0  0  0  0  0  0
    0.2543  -48.3915  -15.4447 C   0  0  0  0  0  0  0  0  0  0  0  0
    0.5586  -47.2284  -14.7564 C   0  0  0  0  0  0  0  0  0  0  0  0
   -0.4288  -46.3750  -14.3114 C   0  0  0  0  0  0  0  0  0  0  0  0
   -1.7633  -46.6420  -14.5321 C   0  0  0  0  0  0  0  0  0  0  0  0
   -2.0771  -47.7967  -15.2162 C   0  0  0  0  0  0  0  0  0  0  0  0
   -3.3906  -48.0528  -15.4297 F   0  0  0  0  0  0  0  0  0  0  0  0
   -1.0750  -48.6652  -15.6694 C   0  0  0  0  0  0  0  0  0  0  0  0
 14 15  1  0  0  0
 15 13  1  0  0  0
 13  3  1  0  0  0
  3  4  2  0  0  0
  4  5  1  0  0  0
  5  6  2  0  0  0
  6  7  1  0  0  0
  7  8  2  0  0  0
  8  9  1  0  0  0
  9 10  2  0  0  0
 10 11  1  0  0  0
 11  1  1  0  0  0
  1 21  1  0  0  0
 21 22  2  0  0  0
 22 23  1  0  0  0
 23 24  2  0  0  0
 24 25  1  0  0  0
 25 30  1  0  0  0
 30 31  1  0  0  0
 31 32  2  0  0  0
 32 33  1  0  0  0
 33 34  2  0  0  0
 34 35  1  0  0  0
 35 36  1  0  0  0
 35 37  2  0  0  0
 25 26  1  0  0  0
 26 27  2  0  0  0
 27 28  1  0  0  0
 28 29  2  0  0  0
 11 12  2  0  0  0
 15 16  1  0  0  0
 16 17  2  0  0  0
 16 18  1  0  0  0
 18 19  1  0  0  0
 18 20  1  0  0  0
 12  3  1  0  0  0
 12  7  1  0  0  0
 29 21  1  0  0  0
 28 24  1  0  0  0
 37 31  1  0  0  0
  1  2  1  0  0  0
M  END
> <minimizedAffinity>
-7.96326

> <CNNscore>
0.4923543930

> <CNNaffinity>
7.2750334740

> <CNN_VS>
3.5818946362

> <CNNaffinity_variance>
0.1720025241

$$$$
[H]c1nc(N([H])c2c([H])c([H])c3c(c([H])nn3C([H])([H])c3c([H])c([H])c([H])c(F)c3[H])c2[H])c2c(O[C@]([H])(C(=O)N(C([H])([H])[H])C([H])([H])[H])C([H])([H])[H])c([H])c([H])c([H])c2n1


 37 41  0  0  0  0  0  0  0  0999 V2000
    0.9465  -51.4585  -23.5869 N   0  0  0  0  0  0  0  0  0  0  0  0
    1.5001  -50.7325  -24.0090 H   0  0  0  0  0  0  0  0  0  0  0  0
    1.4250  -52.1661  -26.3777 C   0  0  0  0  0  0  0  0  0  0  0  0
    1.6497  -52.5588  -27.6930 C   0  0  0  0  0  0  0  0  0  0  0  0
    1.0935  -53.7230  -28.1689 C   0  0  0  0  0  0  0  0  0  0  0  0
    0.3191  -54.4860  -27.3338 C   0  0  0  0  0  0  0  0  0  0  0  0
    0.0794  -54.1166  -26.0164 C   0  0  0  0  0  0  0  0  0  0  0  0
   -0.7101  -54.9262  -25.2597 N   0  0  0  0  0  0  0  0  0  0  0  0
   -0.9281  -54.5338  -24.0009 C   0  0  0  0  0  0  0  0  0  0  0  0
   -0.4120  -53.4210  -23.4985 N   0  0  0  0  0  0  0  0  0  0  0  0
    0.3855  -52.5720  -24.2082 C   0  0  0  0  0  0  0  0  0  0  0  0
    0.6358  -52.9474  -25.5300 C   0  0  0  0  0  0  0  0  0  0  0  0
    1.9745  -51.0072  -25.9036 O   0  0  0  0  0  0  0  0  0  0  0  0
    3.4124  -49.3190  -26.7188 C   0  0  0  0  0  0  0  0  0  0  0  0
    3.3283  -50.6234  -25.9124 C   0  0  0  0  0  0  0  0  0  0  0  0
    3.7898  -50.2497  -24.5345 C   0  0  0  0  0  0  0  0  0  0  0  0
    3.3363  -49.2009  -24.0353 O   0  0  0  0  0  0  0  0  0  0  0  0
    4.7034  -51.0443  -23.8147 N   0  0  0  0  0  0  0  0  0  0  0  0
    5.1209  -50.6377  -22.4845 C   0  0  0  0  0  0  0  0  0  0  0  0
    5.2555  -52.2738  -24.3494 C   0  0  0  0  0  0  0  0  0  0  0  0
    0.7670  -51.2905  -22.1725 C   0  0  0  0  0  0  0  0  0  0  0  0
    1.1311  -50.1465  -21.5502 C   0  0  0  0  0  0  0  0  0  0  0  0
    0.9334  -49.9507  -20.1741 C   0  0  0  0  0  0  0  0  0  0  0  0
    0.3505  -50.9729  -19.4655 C   0  0  0  0  0  0  0  0  0  0  0  0
    0.0560  -51.0396  -18.1552 N   0  0  0  0  0  0  0  0  0  0  0  0
   -0.4937  -52.2266  -17.9439 N   0  0  0  0  0  0  0  0  0  0  0  0
   -0.5686  -52.9398  -19.0772 C   0  0  0  0  0  0  0  0  0  0  0  0
   -0.0323  -52.1529  -20.0647 C   0  0  0  0  0  0  0  0  0  0  0  0
    0.1818  -52.3000  -21.4216 C   0  0  0  0  0  0  0  0  0  0  0  0
    0.3012  -49.9860  -17.1787 C   0  0  0  0  0  0  0  0  0  0  0  0
    1.0317  -50.4688  -15.9830 C   0  0  0  0  0  0  0  0  0  0  0  0
    0.3655  -50.5760  -14.7732 C   0  0  0  0  0  0  0  0  0  0  0  0
    1.0039  -51.0238  -13.6360 C   0  0  0  0  0  0  0  0  0  0  0  0
    2.3343  -51.3849  -13.6532 C   0  0  0  0  0  0  0  0  0  0  0  0
    3.0067  -51.2821  -14.8520 C   0  0  0  0  0  0  0  0  0  0  0  0
    4.3141  -51.6386  -14.8617 F   0  0  0  0  0  0  0  0  0  0  0  0
    2.3596  -50.8273  -16.0088 C   0  0  0  0  0  0  0  0  0  0  0  0
 14 15  1  0  0  0
 15 13  1  0  0  0
 13  3  1  0  0  0
  3  4  2  0  0  0
  4  5  1  0  0  0
  5  6  2  0  0  0
  6  7  1  0  0  0
  7  8  2  0  0  0
  8  9  1  0  0  0
  9 10  2  0  0  0
 10 11  1  0  0  0
 11  1  1  0  0  0
  1 21  1  0  0  0
 21 22  2  0  0  0
 22 23  1  0  0  0
 23 24  2  0  0  0
 24 25  1  0  0  0
 25 30  1  0  0  0
 30 31  1  0  0  0
 31 32  2  0  0  0
 32 33  1  0  0  0
 33 34  2  0  0  0
 34 35  1  0  0  0
 35 36  1  0  0  0
 35 37  2  0  0  0
 25 26  1  0  0  0
 26 27  2  0  0  0
 27 28  1  0  0  0
 28 29  2  0  0  0
 11 12  2  0  0  0
 15 16  1  0  0  0
 16 17  2  0  0  0
 16 18  1  0  0  0
 18 19  1  0  0  0
 18 20  1  0  0  0
 12  3  1  0  0  0
 12  7  1  0  0  0
 29 21  1  0  0  0
 28 24  1  0  0  0
 37 31  1  0  0  0
  1  2  1  0  0  0
M  END
> <minimizedAffinity>
-8.44099

> <CNNscore>
0.4131921530

> <CNNaffinity>
7.1700544357

> <CNN_VS>
2.9626102448

> <CNNaffinity_variance>
0.1009150147

$$$$
[H]/C(C(=O)N([H])c1c(OC([H])([H])C([H])([H])[H])c([H])c2nc([H])c(C#N)c(N([H])c3c([H])c([H])c(OC([H])([H])c4c([H])c([H])c([H])c([H])c4[H])c(Cl)c3[H])c2c1[H])=C(/[H])C([H])([H])N1C([H])([H])C([H])([H])OC([H])([H])C1([H])[H]


 45 49  0  0  0  0  0  0  0  0999 V2000
   -0.3239  -52.8795  -19.5311 C   0  0  0  0  0  0  0  0  0  0  0  0
   -0.7739  -53.9234  -20.2996 C   0  0  0  0  0  0  0  0  0  0  0  0
   -0.7310  -53.9599  -21.6653 C   0  0  0  0  0  0  0  0  0  0  0  0
   -1.1854  -55.0058  -22.4046 N   0  0  0  0  0  0  0  0  0  0  0  0
   -1.1211  -54.9898  -23.7542 C   0  0  0  0  0  0  0  0  0  0  0  0
   -0.5948  -53.9190  -24.4507 C   0  0  0  0  0  0  0  0  0  0  0  0
   -0.1331  -52.8539  -23.6815 C   0  0  0  0  0  0  0  0  0  0  0  0
   -0.1940  -52.8604  -22.2983 C   0  0  0  0  0  0  0  0  0  0  0  0
    0.2793  -51.7687  -21.5555 C   0  0  0  0  0  0  0  0  0  0  0  0
    0.2227  -51.7620  -20.1860 C   0  0  0  0  0  0  0  0  0  0  0  0
    0.6490  -50.7009  -19.3523 N   0  0  0  0  0  0  0  0  0  0  0  0
    1.9263  -50.6284  -18.7590 C   0  0  0  0  0  0  0  0  0  0  0  0
    2.8326  -51.4936  -18.8883 O   0  0  0  0  0  0  0  0  0  0  0  0
   -0.0101  -49.8932  -19.1469 H   0  0  0  0  0  0  0  0  0  0  0  0
    2.3025  -49.4906  -17.9157 C   0  0  0  0  0  0  0  0  0  0  0  0
    3.2572  -49.4962  -17.0104 C   0  0  0  0  0  0  0  0  0  0  0  0
    3.5456  -48.2523  -16.2068 C   0  0  0  0  0  0  0  0  0  0  0  0
    3.1708  -48.5062  -14.8540 N   0  0  0  0  0  0  0  0  0  0  0  0
    1.8591  -48.1544  -14.4742 C   0  0  0  0  0  0  0  0  0  0  0  0
    0.9889  -49.2239  -13.9219 C   0  0  0  0  0  0  0  0  0  0  0  0
    1.6489  -50.4358  -13.7406 O   0  0  0  0  0  0  0  0  0  0  0  0
    2.9216  -50.2477  -13.2064 C   0  0  0  0  0  0  0  0  0  0  0  0
    3.7921  -49.6146  -14.2356 C   0  0  0  0  0  0  0  0  0  0  0  0
   -0.5140  -53.8745  -25.8838 C   0  0  0  0  0  0  0  0  0  0  0  0
   -0.4413  -53.8227  -27.0367 N   0  0  0  0  0  0  0  0  0  0  0  0
    0.4016  -51.7265  -24.3147 N   0  0  0  0  0  0  0  0  0  0  0  0
   -0.2711  -51.0602  -24.7736 H   0  0  0  0  0  0  0  0  0  0  0  0
    1.8049  -51.4950  -24.3327 C   0  0  0  0  0  0  0  0  0  0  0  0
    2.7013  -52.5675  -24.3760 C   0  0  0  0  0  0  0  0  0  0  0  0
    4.0637  -52.3851  -24.3870 C   0  0  0  0  0  0  0  0  0  0  0  0
    4.6004  -51.1066  -24.3548 C   0  0  0  0  0  0  0  0  0  0  0  0
    3.7280  -50.0401  -24.3123 C   0  0  0  0  0  0  0  0  0  0  0  0
    4.4017  -48.4280  -24.2717 Cl  0  0  0  0  0  0  0  0  0  0  0  0
    2.3519  -50.2347  -24.3013 C   0  0  0  0  0  0  0  0  0  0  0  0
    5.9817  -50.9357  -24.3660 O   0  0  0  0  0  0  0  0  0  0  0  0
    6.7037  -51.2660  -23.2096 C   0  0  0  0  0  0  0  0  0  0  0  0
    6.5946  -50.2984  -22.1154 C   0  0  0  0  0  0  0  0  0  0  0  0
    5.6226  -50.4174  -21.1454 C   0  0  0  0  0  0  0  0  0  0  0  0
    5.4979  -49.5221  -20.1163 C   0  0  0  0  0  0  0  0  0  0  0  0
    6.3686  -48.4647  -20.0420 C   0  0  0  0  0  0  0  0  0  0  0  0
    7.3497  -48.3210  -20.9991 C   0  0  0  0  0  0  0  0  0  0  0  0
    7.4626  -49.2313  -22.0282 C   0  0  0  0  0  0  0  0  0  0  0  0
   -0.3741  -52.8598  -18.1606 O   0  0  0  0  0  0  0  0  0  0  0  0
   -1.4094  -51.5634  -16.3665 C   0  0  0  0  0  0  0  0  0  0  0  0
   -1.4776  -52.6914  -17.3401 C   0  0  0  0  0  0  0  0  0  0  0  0
 44 45  1  0  0  0
 45 43  1  0  0  0
 43  1  1  0  0  0
  1  2  2  0  0  0
  2  3  1  0  0  0
  3  4  2  0  0  0
  4  5  1  0  0  0
  5  6  2  0  0  0
  6 24  1  0  0  0
 24 25  3  0  0  0
  6  7  1  0  0  0
  7 26  1  0  0  0
 26 28  1  0  0  0
 28 29  2  0  0  0
 29 30  1  0  0  0
 30 31  2  0  0  0
 31 35  1  0  0  0
 35 36  1  0  0  0
 36 37  1  0  0  0
 37 38  2  0  0  0
 38 39  1  0  0  0
 39 40  2  0  0  0
 40 41  1  0  0  0
 41 42  2  0  0  0
 31 32  1  0  0  0
 32 33  1  0  0  0
 32 34  2  0  0  0
  7  8  2  0  0  0
  8  9  1  0  0  0
  9 10  2  0  0  0
 10 11  1  0  0  0
 11 12  1  0  0  0
 12 13  2  0  0  0
 12 15  1  0  0  0
 15 16  2  0  0  0
 16 17  1  0  0  0
 17 18  1  0  0  0
 18 19  1  0  0  0
 19 20  1  0  0  0
 20 21  1  0  0  0
 21 22  1  0  0  0
 22 23  1  0  0  0
 10  1  1  0  0  0
 23 18  1  0  0  0
  8  3  1  0  0  0
 34 28  1  0  0  0
 42 37  1  0  0  0
 26 27  1  0  0  0
 11 14  1  0  0  0
M  END
> <minimizedAffinity>
-7.69992

> <CNNscore>
0.4800072014

> <CNNaffinity>
7.5564985275

> <CNN_VS>
3.6271736622

> <CNNaffinity_variance>
0.1950474828

$$$$
[H]/C(C(=O)N([H])c1c(OC([H])([H])C([H])([H])[H])c([H])c2nc([H])c(C#N)c(N([H])c3c([H])c([H])c(OC([H])([H])c4c([H])c([H])c([H])c([H])c4[H])c(Cl)c3[H])c2c1[H])=C(/[H])C([H])([H])N1C([H])([H])C([H])([H])OC([H])([H])C1([H])[H]


 45 49  0  0  0  0  0  0  0  0999 V2000
   -0.2419  -53.0356  -19.4585 C   0  0  0  0  0  0  0  0  0  0  0  0
   -0.6826  -54.0285  -20.2969 C   0  0  0  0  0  0  0  0  0  0  0  0
   -0.6336  -53.9736  -21.6617 C   0  0  0  0  0  0  0  0  0  0  0  0
   -1.0787  -54.9704  -22.4711 N   0  0  0  0  0  0  0  0  0  0  0  0
   -1.0088  -54.8641  -23.8164 C   0  0  0  0  0  0  0  0  0  0  0  0
   -0.4858  -53.7464  -24.4376 C   0  0  0  0  0  0  0  0  0  0  0  0
   -0.0336  -52.7323  -23.5970 C   0  0  0  0  0  0  0  0  0  0  0  0
   -0.1004  -52.8314  -22.2176 C   0  0  0  0  0  0  0  0  0  0  0  0
    0.3634  -51.7890  -21.4015 C   0  0  0  0  0  0  0  0  0  0  0  0
    0.3009  -51.8739  -20.0349 C   0  0  0  0  0  0  0  0  0  0  0  0
    0.7174  -50.8684  -19.1304 N   0  0  0  0  0  0  0  0  0  0  0  0
    2.0289  -50.7573  -18.6240 C   0  0  0  0  0  0  0  0  0  0  0  0
    2.9791  -51.5356  -18.9033 O   0  0  0  0  0  0  0  0  0  0  0  0
    0.0230  -50.1358  -18.7987 H   0  0  0  0  0  0  0  0  0  0  0  0
    2.3912  -49.6803  -17.6987 C   0  0  0  0  0  0  0  0  0  0  0  0
    3.1677  -49.8107  -16.6445 C   0  0  0  0  0  0  0  0  0  0  0  0
    3.4640  -48.6172  -15.7705 C   0  0  0  0  0  0  0  0  0  0  0  0
    3.1413  -48.9664  -14.4255 N   0  0  0  0  0  0  0  0  0  0  0  0
    1.8081  -48.7656  -14.0121 C   0  0  0  0  0  0  0  0  0  0  0  0
    1.0596  -49.9404  -13.4969 C   0  0  0  0  0  0  0  0  0  0  0  0
    1.8409  -51.0864  -13.3797 O   0  0  0  0  0  0  0  0  0  0  0  0
    3.0979  -50.7944  -12.8552 C   0  0  0  0  0  0  0  0  0  0  0  0
    3.8816  -50.0324  -13.8666 C   0  0  0  0  0  0  0  0  0  0  0  0
   -0.3992  -53.6061  -25.8642 C   0  0  0  0  0  0  0  0  0  0  0  0
   -0.3279  -53.4755  -27.0109 N   0  0  0  0  0  0  0  0  0  0  0  0
    0.4971  -51.5623  -24.1512 N   0  0  0  0  0  0  0  0  0  0  0  0
   -0.1501  -50.9517  -24.7126 H   0  0  0  0  0  0  0  0  0  0  0  0
    1.8632  -51.2163  -23.9577 C   0  0  0  0  0  0  0  0  0  0  0  0
    2.2140  -49.9546  -23.4672 C   0  0  0  0  0  0  0  0  0  0  0  0
    3.5223  -49.5802  -23.2739 C   0  0  0  0  0  0  0  0  0  0  0  0
    4.5540  -50.4602  -23.5654 C   0  0  0  0  0  0  0  0  0  0  0  0
    4.2223  -51.7076  -24.0494 C   0  0  0  0  0  0  0  0  0  0  0  0
    5.5205  -52.8184  -24.4174 Cl  0  0  0  0  0  0  0  0  0  0  0  0
    2.8963  -52.0769  -24.2417 C   0  0  0  0  0  0  0  0  0  0  0  0
    5.8746  -50.0685  -23.3654 O   0  0  0  0  0  0  0  0  0  0  0  0
    6.2462  -48.7661  -23.7305 C   0  0  0  0  0  0  0  0  0  0  0  0
    6.5155  -48.5774  -25.1578 C   0  0  0  0  0  0  0  0  0  0  0  0
    7.7271  -48.9289  -25.7130 C   0  0  0  0  0  0  0  0  0  0  0  0
    8.0034  -48.7568  -27.0435 C   0  0  0  0  0  0  0  0  0  0  0  0
    7.0438  -48.2144  -27.8600 C   0  0  0  0  0  0  0  0  0  0  0  0
    5.8235  -47.8533  -27.3312 C   0  0  0  0  0  0  0  0  0  0  0  0
    5.5606  -48.0338  -25.9899 C   0  0  0  0  0  0  0  0  0  0  0  0
   -0.2981  -53.1076  -18.0899 O   0  0  0  0  0  0  0  0  0  0  0  0
   -2.5900  -53.0376  -17.2454 C   0  0  0  0  0  0  0  0  0  0  0  0
   -1.1987  -52.5001  -17.2303 C   0  0  0  0  0  0  0  0  0  0  0  0
 44 45  1  0  0  0
 45 43  1  0  0  0
 43  1  1  0  0  0
  1  2  2  0  0  0
  2  3  1  0  0  0
  3  4  2  0  0  0
  4  5  1  0  0  0
  5  6  2  0  0  0
  6 24  1  0  0  0
 24 25  3  0  0  0
  6  7  1  0  0  0
  7 26  1  0  0  0
 26 28  1  0  0  0
 28 29  2  0  0  0
 29 30  1  0  0  0
 30 31  2  0  0  0
 31 35  1  0  0  0
 35 36  1  0  0  0
 36 37  1  0  0  0
 37 38  2  0  0  0
 38 39  1  0  0  0
 39 40  2  0  0  0
 40 41  1  0  0  0
 41 42  2  0  0  0
 31 32  1  0  0  0
 32 33  1  0  0  0
 32 34  2  0  0  0
  7  8  2  0  0  0
  8  9  1  0  0  0
  9 10  2  0  0  0
 10 11  1  0  0  0
 11 12  1  0  0  0
 12 13  2  0  0  0
 12 15  1  0  0  0
 15 16  2  0  0  0
 16 17  1  0  0  0
 17 18  1  0  0  0
 18 19  1  0  0  0
 19 20  1  0  0  0
 20 21  1  0  0  0
 21 22  1  0  0  0
 22 23  1  0  0  0
 10  1  1  0  0  0
 23 18  1  0  0  0
  8  3  1  0  0  0
 34 28  1  0  0  0
 42 37  1  0  0  0
 26 27  1  0  0  0
 11 14  1  0  0  0
M  END
> <minimizedAffinity>
-7.32158

> <CNNscore>
0.4407083988

> <CNNaffinity>
7.5138726234

> <CNN_VS>
3.3114268780

> <CNNaffinity_variance>
0.1533108950

$$$$
[H]/C(C(=O)N([H])c1c(OC([H])([H])C([H])([H])[H])c([H])c2nc([H])c(C#N)c(N([H])c3c([H])c([H])c(OC([H])([H])c4c([H])c([H])c([H])c([H])c4[H])c(Cl)c3[H])c2c1[H])=C(/[H])C([H])([H])N1C([H])([H])C([H])([H])OC([H])([H])C1([H])[H]


 45 49  0  0  0  0  0  0  0  0999 V2000
    0.8050  -53.0054  -26.6232 C   0  0  0  0  0  0  0  0  0  0  0  0
    0.1755  -54.0734  -26.0350 C   0  0  0  0  0  0  0  0  0  0  0  0
   -0.3066  -54.0850  -24.7560 C   0  0  0  0  0  0  0  0  0  0  0  0
   -0.9253  -55.1571  -24.1950 N   0  0  0  0  0  0  0  0  0  0  0  0
   -1.3820  -55.1161  -22.9240 C   0  0  0  0  0  0  0  0  0  0  0  0
   -1.2463  -53.9924  -22.1317 C   0  0  0  0  0  0  0  0  0  0  0  0
   -0.6104  -52.9012  -22.7184 C   0  0  0  0  0  0  0  0  0  0  0  0
   -0.1392  -52.9326  -24.0199 C   0  0  0  0  0  0  0  0  0  0  0  0
    0.4982  -51.8145  -24.5778 C   0  0  0  0  0  0  0  0  0  0  0  0
    0.9710  -51.8337  -25.8643 C   0  0  0  0  0  0  0  0  0  0  0  0
    1.6486  -50.7694  -26.5054 N   0  0  0  0  0  0  0  0  0  0  0  0
    2.9847  -50.4085  -26.2349 C   0  0  0  0  0  0  0  0  0  0  0  0
    3.7294  -50.9759  -25.3921 O   0  0  0  0  0  0  0  0  0  0  0  0
    1.1471  -50.1926  -27.2435 H   0  0  0  0  0  0  0  0  0  0  0  0
    3.6257  -49.3007  -26.9484 C   0  0  0  0  0  0  0  0  0  0  0  0
    3.4005  -48.0227  -26.7311 C   0  0  0  0  0  0  0  0  0  0  0  0
    4.1306  -46.9776  -27.5379 C   0  0  0  0  0  0  0  0  0  0  0  0
    3.6147  -47.0091  -28.8675 N   0  0  0  0  0  0  0  0  0  0  0  0
    2.5924  -46.0900  -29.1817 C   0  0  0  0  0  0  0  0  0  0  0  0
    2.8293  -45.1504  -30.3072 C   0  0  0  0  0  0  0  0  0  0  0  0
    4.0163  -45.3950  -30.9918 O   0  0  0  0  0  0  0  0  0  0  0  0
    4.2197  -46.7592  -31.1872 C   0  0  0  0  0  0  0  0  0  0  0  0
    4.5242  -47.3979  -29.8768 C   0  0  0  0  0  0  0  0  0  0  0  0
   -1.7215  -53.9206  -20.7784 C   0  0  0  0  0  0  0  0  0  0  0  0
   -2.1101  -53.8464  -19.6919 N   0  0  0  0  0  0  0  0  0  0  0  0
   -0.4230  -51.7306  -21.9751 N   0  0  0  0  0  0  0  0  0  0  0  0
   -1.1031  -50.9424  -22.1272 H   0  0  0  0  0  0  0  0  0  0  0  0
    0.6499  -51.6173  -21.0482 C   0  0  0  0  0  0  0  0  0  0  0  0
    0.3962  -51.5130  -19.6769 C   0  0  0  0  0  0  0  0  0  0  0  0
    1.4050  -51.3945  -18.7509 C   0  0  0  0  0  0  0  0  0  0  0  0
    2.7310  -51.3742  -19.1571 C   0  0  0  0  0  0  0  0  0  0  0  0
    2.9955  -51.4764  -20.5061 C   0  0  0  0  0  0  0  0  0  0  0  0
    4.6656  -51.4513  -21.0205 Cl  0  0  0  0  0  0  0  0  0  0  0  0
    1.9685  -51.5958  -21.4349 C   0  0  0  0  0  0  0  0  0  0  0  0
    3.7431  -51.2533  -18.2092 O   0  0  0  0  0  0  0  0  0  0  0  0
    3.6277  -50.2507  -17.2349 C   0  0  0  0  0  0  0  0  0  0  0  0
    3.2853  -50.7290  -15.8936 C   0  0  0  0  0  0  0  0  0  0  0  0
    2.2533  -50.1680  -15.1724 C   0  0  0  0  0  0  0  0  0  0  0  0
    1.9185  -50.5948  -13.9147 C   0  0  0  0  0  0  0  0  0  0  0  0
    2.6328  -51.6179  -13.3446 C   0  0  0  0  0  0  0  0  0  0  0  0
    3.6703  -52.1966  -14.0430 C   0  0  0  0  0  0  0  0  0  0  0  0
    3.9943  -51.7561  -15.3085 C   0  0  0  0  0  0  0  0  0  0  0  0
    1.2825  -53.0108  -27.9091 O   0  0  0  0  0  0  0  0  0  0  0  0
   -0.6912  -52.6056  -29.2917 C   0  0  0  0  0  0  0  0  0  0  0  0
    0.6052  -53.3120  -29.0795 C   0  0  0  0  0  0  0  0  0  0  0  0
 44 45  1  0  0  0
 45 43  1  0  0  0
 43  1  1  0  0  0
  1  2  2  0  0  0
  2  3  1  0  0  0
  3  4  2  0  0  0
  4  5  1  0  0  0
  5  6  2  0  0  0
  6 24  1  0  0  0
 24 25  3  0  0  0
  6  7  1  0  0  0
  7 26  1  0  0  0
 26 28  1  0  0  0
 28 29  2  0  0  0
 29 30  1  0  0  0
 30 31  2  0  0  0
 31 35  1  0  0  0
 35 36  1  0  0  0
 36 37  1  0  0  0
 37 38  2  0  0  0
 38 39  1  0  0  0
 39 40  2  0  0  0
 40 41  1  0  0  0
 41 42  2  0  0  0
 31 32  1  0  0  0
 32 33  1  0  0  0
 32 34  2  0  0  0
  7  8  2  0  0  0
  8  9  1  0  0  0
  9 10  2  0  0  0
 10 11  1  0  0  0
 11 12  1  0  0  0
 12 13  2  0  0  0
 12 15  1  0  0  0
 15 16  2  0  0  0
 16 17  1  0  0  0
 17 18  1  0  0  0
 18 19  1  0  0  0
 19 20  1  0  0  0
 20 21  1  0  0  0
 21 22  1  0  0  0
 22 23  1  0  0  0
 10  1  1  0  0  0
 23 18  1  0  0  0
  8  3  1  0  0  0
 34 28  1  0  0  0
 42 37  1  0  0  0
 26 27  1  0  0  0
 11 14  1  0  0  0
M  END
> <minimizedAffinity>
-8.35152

> <CNNscore>
0.4069108069

> <CNNaffinity>
7.5516862869

> <CNN_VS>
3.0728628635

> <CNNaffinity_variance>
0.1166281849

$$$$
[H]/C(C(=O)N([H])c1c(OC([H])([H])C([H])([H])[H])c([H])c2nc([H])c(C#N)c(N([H])c3c([H])c([H])c(OC([H])([H])c4c([H])c([H])c([H])c([H])c4[H])c(Cl)c3[H])c2c1[H])=C(/[H])C([H])([H])N1C([H])([H])C([H])([H])OC([H])([H])C1([H])[H]


 45 49  0  0  0  0  0  0  0  0999 V2000
   -0.3442  -52.7048  -19.4284 C   0  0  0  0  0  0  0  0  0  0  0  0
   -0.7519  -53.7930  -20.1581 C   0  0  0  0  0  0  0  0  0  0  0  0
   -0.6926  -53.8833  -21.5206 C   0  0  0  0  0  0  0  0  0  0  0  0
   -1.1049  -54.9724  -22.2210 N   0  0  0  0  0  0  0  0  0  0  0  0
   -1.0261  -55.0090  -23.5694 C   0  0  0  0  0  0  0  0  0  0  0  0
   -0.5267  -53.9507  -24.3039 C   0  0  0  0  0  0  0  0  0  0  0  0
   -0.1080  -52.8409  -23.5743 C   0  0  0  0  0  0  0  0  0  0  0  0
   -0.1840  -52.7935  -22.1926 C   0  0  0  0  0  0  0  0  0  0  0  0
    0.2457  -51.6577  -21.4904 C   0  0  0  0  0  0  0  0  0  0  0  0
    0.1736  -51.5975  -20.1229 C   0  0  0  0  0  0  0  0  0  0  0  0
    0.5563  -50.4902  -19.3290 N   0  0  0  0  0  0  0  0  0  0  0  0
    1.8673  -50.2742  -18.8564 C   0  0  0  0  0  0  0  0  0  0  0  0
    2.8472  -51.0360  -19.0719 O   0  0  0  0  0  0  0  0  0  0  0  0
   -0.1655  -49.7580  -19.0609 H   0  0  0  0  0  0  0  0  0  0  0  0
    2.1930  -49.0962  -18.0481 C   0  0  0  0  0  0  0  0  0  0  0  0
    3.2270  -48.3048  -18.2371 C   0  0  0  0  0  0  0  0  0  0  0  0
    3.4486  -47.1195  -17.3304 C   0  0  0  0  0  0  0  0  0  0  0  0
    4.1709  -46.1329  -18.0652 N   0  0  0  0  0  0  0  0  0  0  0  0
    5.0950  -46.5955  -19.0247 C   0  0  0  0  0  0  0  0  0  0  0  0
    4.9159  -46.1476  -20.4294 C   0  0  0  0  0  0  0  0  0  0  0  0
    3.8992  -45.2098  -20.5858 O   0  0  0  0  0  0  0  0  0  0  0  0
    3.9183  -44.2627  -19.5645 C   0  0  0  0  0  0  0  0  0  0  0  0
    3.4974  -44.9115  -18.2918 C   0  0  0  0  0  0  0  0  0  0  0  0
   -0.4314  -53.9617  -25.7368 C   0  0  0  0  0  0  0  0  0  0  0  0
   -0.3625  -53.9546  -26.8910 N   0  0  0  0  0  0  0  0  0  0  0  0
    0.3973  -51.7233  -24.2477 N   0  0  0  0  0  0  0  0  0  0  0  0
   -0.2958  -51.0580  -24.6765 H   0  0  0  0  0  0  0  0  0  0  0  0
    1.7988  -51.5001  -24.3442 C   0  0  0  0  0  0  0  0  0  0  0  0
    2.6982  -52.5628  -24.2127 C   0  0  0  0  0  0  0  0  0  0  0  0
    4.0591  -52.3864  -24.2924 C   0  0  0  0  0  0  0  0  0  0  0  0
    4.5911  -51.1242  -24.5096 C   0  0  0  0  0  0  0  0  0  0  0  0
    3.7158  -50.0675  -24.6414 C   0  0  0  0  0  0  0  0  0  0  0  0
    4.3837  -48.4759  -24.9154 Cl  0  0  0  0  0  0  0  0  0  0  0  0
    2.3412  -50.2558  -24.5592 C   0  0  0  0  0  0  0  0  0  0  0  0
    5.9711  -50.9592  -24.5879 O   0  0  0  0  0  0  0  0  0  0  0  0
    6.7487  -51.3113  -23.4747 C   0  0  0  0  0  0  0  0  0  0  0  0
    7.1787  -50.1868  -22.6406 C   0  0  0  0  0  0  0  0  0  0  0  0
    7.1648  -50.2663  -21.2646 C   0  0  0  0  0  0  0  0  0  0  0  0
    7.5570  -49.2262  -20.4643 C   0  0  0  0  0  0  0  0  0  0  0  0
    7.9801  -48.0584  -21.0467 C   0  0  0  0  0  0  0  0  0  0  0  0
    8.0035  -47.9512  -22.4204 C   0  0  0  0  0  0  0  0  0  0  0  0
    7.6063  -49.0077  -23.2121 C   0  0  0  0  0  0  0  0  0  0  0  0
   -0.4103  -52.6313  -18.0604 O   0  0  0  0  0  0  0  0  0  0  0  0
   -1.6260  -51.5429  -16.2413 C   0  0  0  0  0  0  0  0  0  0  0  0
   -1.5334  -52.6385  -17.2493 C   0  0  0  0  0  0  0  0  0  0  0  0
 44 45  1  0  0  0
 45 43  1  0  0  0
 43  1  1  0  0  0
  1  2  2  0  0  0
  2  3  1  0  0  0
  3  4  2  0  0  0
  4  5  1  0  0  0
  5  6  2  0  0  0
  6 24  1  0  0  0
 24 25  3  0  0  0
  6  7  1  0  0  0
  7 26  1  0  0  0
 26 28  1  0  0  0
 28 29  2  0  0  0
 29 30  1  0  0  0
 30 31  2  0  0  0
 31 35  1  0  0  0
 35 36  1  0  0  0
 36 37  1  0  0  0
 37 38  2  0  0  0
 38 39  1  0  0  0
 39 40  2  0  0  0
 40 41  1  0  0  0
 41 42  2  0  0  0
 31 32  1  0  0  0
 32 33  1  0  0  0
 32 34  2  0  0  0
  7  8  2  0  0  0
  8  9  1  0  0  0
  9 10  2  0  0  0
 10 11  1  0  0  0
 11 12  1  0  0  0
 12 13  2  0  0  0
 12 15  1  0  0  0
 15 16  2  0  0  0
 16 17  1  0  0  0
 17 18  1  0  0  0
 18 19  1  0  0  0
 19 20  1  0  0  0
 20 21  1  0  0  0
 21 22  1  0  0  0
 22 23  1  0  0  0
 10  1  1  0  0  0
 23 18  1  0  0  0
  8  3  1  0  0  0
 34 28  1  0  0  0
 42 37  1  0  0  0
 26 27  1  0  0  0
 11 14  1  0  0  0
M  END
> <minimizedAffinity>
-7.50441

> <CNNscore>
0.3234745264

> <CNNaffinity>
7.3937821388

> <CNN_VS>
2.3917002678

> <CNNaffinity_variance>
0.1157800183

$$$$
[H]/C(C(=O)N([H])c1c(OC([H])([H])C([H])([H])[H])c([H])c2nc([H])c(C#N)c(N([H])c3c([H])c([H])c(OC([H])([H])c4c([H])c([H])c([H])c([H])c4[H])c(Cl)c3[H])c2c1[H])=C(/[H])C([H])([H])N1C([H])([H])C([H])([H])OC([H])([H])C1([H])[H]


 45 49  0  0  0  0  0  0  0  0999 V2000
    0.2942  -52.2066  -26.1417 C   0  0  0  0  0  0  0  0  0  0  0  0
   -0.6259  -52.7975  -25.3127 C   0  0  0  0  0  0  0  0  0  0  0  0
   -0.4729  -52.9504  -23.9632 C   0  0  0  0  0  0  0  0  0  0  0  0
   -1.3989  -53.5416  -23.1633 N   0  0  0  0  0  0  0  0  0  0  0  0
   -1.1965  -53.6692  -21.8334 C   0  0  0  0  0  0  0  0  0  0  0  0
   -0.0473  -53.2100  -21.2190 C   0  0  0  0  0  0  0  0  0  0  0  0
    0.8935  -52.6067  -22.0498 C   0  0  0  0  0  0  0  0  0  0  0  0
    0.6956  -52.4706  -23.4134 C   0  0  0  0  0  0  0  0  0  0  0  0
    1.6663  -51.8586  -24.2202 C   0  0  0  0  0  0  0  0  0  0  0  0
    1.4834  -51.7197  -25.5716 C   0  0  0  0  0  0  0  0  0  0  0  0
    2.4119  -51.1424  -26.4702 N   0  0  0  0  0  0  0  0  0  0  0  0
    2.9014  -49.8245  -26.3596 C   0  0  0  0  0  0  0  0  0  0  0  0
    2.5699  -49.0039  -25.4632 O   0  0  0  0  0  0  0  0  0  0  0  0
    2.7842  -51.7143  -27.2846 H   0  0  0  0  0  0  0  0  0  0  0  0
    3.8727  -49.2977  -27.3220 C   0  0  0  0  0  0  0  0  0  0  0  0
    3.9833  -48.0364  -27.6800 C   0  0  0  0  0  0  0  0  0  0  0  0
    5.0308  -47.6237  -28.6842 C   0  0  0  0  0  0  0  0  0  0  0  0
    4.4353  -47.6587  -29.9801 N   0  0  0  0  0  0  0  0  0  0  0  0
    3.4431  -46.6956  -30.2570 C   0  0  0  0  0  0  0  0  0  0  0  0
    3.6587  -45.7950  -31.4182 C   0  0  0  0  0  0  0  0  0  0  0  0
    4.7889  -46.1156  -32.1648 O   0  0  0  0  0  0  0  0  0  0  0  0
    4.9119  -47.4924  -32.3369 C   0  0  0  0  0  0  0  0  0  0  0  0
    5.2622  -48.1162  -31.0307 C   0  0  0  0  0  0  0  0  0  0  0  0
    0.1946  -53.3322  -19.8088 C   0  0  0  0  0  0  0  0  0  0  0  0
    0.3766  -53.4187  -18.6701 N   0  0  0  0  0  0  0  0  0  0  0  0
    2.0897  -52.1282  -21.5040 N   0  0  0  0  0  0  0  0  0  0  0  0
    2.9901  -52.4936  -21.9073 H   0  0  0  0  0  0  0  0  0  0  0  0
    2.0816  -51.1811  -20.4428 C   0  0  0  0  0  0  0  0  0  0  0  0
    1.2450  -50.0618  -20.4959 C   0  0  0  0  0  0  0  0  0  0  0  0
    1.2139  -49.1208  -19.4944 C   0  0  0  0  0  0  0  0  0  0  0  0
    2.0275  -49.2562  -18.3794 C   0  0  0  0  0  0  0  0  0  0  0  0
    2.8570  -50.3552  -18.3139 C   0  0  0  0  0  0  0  0  0  0  0  0
    3.8832  -50.5282  -16.9098 Cl  0  0  0  0  0  0  0  0  0  0  0  0
    2.8815  -51.3013  -19.3318 C   0  0  0  0  0  0  0  0  0  0  0  0
    1.9867  -48.2960  -17.3724 O   0  0  0  0  0  0  0  0  0  0  0  0
    1.7001  -48.7137  -16.0643 C   0  0  0  0  0  0  0  0  0  0  0  0
    0.2947  -49.0418  -15.8143 C   0  0  0  0  0  0  0  0  0  0  0  0
   -0.6152  -48.0730  -15.4490 C   0  0  0  0  0  0  0  0  0  0  0  0
   -1.9328  -48.3569  -15.2048 C   0  0  0  0  0  0  0  0  0  0  0  0
   -2.3703  -49.6515  -15.3255 C   0  0  0  0  0  0  0  0  0  0  0  0
   -1.4817  -50.6403  -15.6887 C   0  0  0  0  0  0  0  0  0  0  0  0
   -0.1588  -50.3380  -15.9319 C   0  0  0  0  0  0  0  0  0  0  0  0
    0.1240  -52.0608  -27.4948 O   0  0  0  0  0  0  0  0  0  0  0  0
   -0.4214  -52.9867  -29.6895 C   0  0  0  0  0  0  0  0  0  0  0  0
   -0.8477  -52.6217  -28.3075 C   0  0  0  0  0  0  0  0  0  0  0  0
 44 45  1  0  0  0
 45 43  1  0  0  0
 43  1  1  0  0  0
  1  2  2  0  0  0
  2  3  1  0  0  0
  3  4  2  0  0  0
  4  5  1  0  0  0
  5  6  2  0  0  0
  6 24  1  0  0  0
 24 25  3  0  0  0
  6  7  1  0  0  0
  7 26  1  0  0  0
 26 28  1  0  0  0
 28 29  2  0  0  0
 29 30  1  0  0  0
 30 31  2  0  0  0
 31 35  1  0  0  0
 35 36  1  0  0  0
 36 37  1  0  0  0
 37 38  2  0  0  0
 38 39  1  0  0  0
 39 40  2  0  0  0
 40 41  1  0  0  0
 41 42  2  0  0  0
 31 32  1  0  0  0
 32 33  1  0  0  0
 32 34  2  0  0  0
  7  8  2  0  0  0
  8  9  1  0  0  0
  9 10  2  0  0  0
 10 11  1  0  0  0
 11 12  1  0  0  0
 12 13  2  0  0  0
 12 15  1  0  0  0
 15 16  2  0  0  0
 16 17  1  0  0  0
 17 18  1  0  0  0
 18 19  1  0  0  0
 19 20  1  0  0  0
 20 21  1  0  0  0
 21 22  1  0  0  0
 22 23  1  0  0  0
 10  1  1  0  0  0
 23 18  1  0  0  0
  8  3  1  0  0  0
 34 28  1  0  0  0
 42 37  1  0  0  0
 26 27  1  0  0  0
 11 14  1  0  0  0
M  END
> <minimizedAffinity>
-6.94362

> <CNNscore>
0.3019819558

> <CNNaffinity>
7.3336877823

> <CNN_VS>
2.2146413326

> <CNNaffinity_variance>
0.1426892281

$$$$
[H]/C(C(=O)N([H])c1c(OC([H])([H])C([H])([H])[H])c([H])c2nc([H])c(C#N)c(N([H])c3c([H])c([H])c(OC([H])([H])c4c([H])c([H])c([H])c([H])c4[H])c(Cl)c3[H])c2c1[H])=C(/[H])C([H])([H])N1C([H])([H])C([H])([H])OC([H])([H])C1([H])[H]


 45 49  0  0  0  0  0  0  0  0999 V2000
    0.0097  -52.1144  -21.1733 C   0  0  0  0  0  0  0  0  0  0  0  0
   -0.4659  -52.8206  -22.2494 C   0  0  0  0  0  0  0  0  0  0  0  0
    0.1760  -52.9350  -23.4507 C   0  0  0  0  0  0  0  0  0  0  0  0
   -0.3172  -53.6393  -24.5031 N   0  0  0  0  0  0  0  0  0  0  0  0
    0.3580  -53.7186  -25.6708 C   0  0  0  0  0  0  0  0  0  0  0  0
    1.5759  -53.0936  -25.8578 C   0  0  0  0  0  0  0  0  0  0  0  0
    2.0699  -52.3750  -24.7719 C   0  0  0  0  0  0  0  0  0  0  0  0
    1.3862  -52.2878  -23.5711 C   0  0  0  0  0  0  0  0  0  0  0  0
    1.9136  -51.5534  -22.4986 C   0  0  0  0  0  0  0  0  0  0  0  0
    1.2456  -51.4576  -21.3054 C   0  0  0  0  0  0  0  0  0  0  0  0
    1.6814  -50.7217  -20.1779 N   0  0  0  0  0  0  0  0  0  0  0  0
    2.7555  -51.1092  -19.3503 C   0  0  0  0  0  0  0  0  0  0  0  0
    3.4464  -52.1511  -19.5045 O   0  0  0  0  0  0  0  0  0  0  0  0
    1.1918  -49.8154  -19.9174 H   0  0  0  0  0  0  0  0  0  0  0  0
    3.1590  -50.2890  -18.2051 C   0  0  0  0  0  0  0  0  0  0  0  0
    2.4466  -50.0990  -17.1153 C   0  0  0  0  0  0  0  0  0  0  0  0
    2.9799  -49.2284  -16.0046 C   0  0  0  0  0  0  0  0  0  0  0  0
    2.8536  -49.9505  -14.7809 N   0  0  0  0  0  0  0  0  0  0  0  0
    1.5867  -49.9479  -14.1614 C   0  0  0  0  0  0  0  0  0  0  0  0
    0.9404  -51.2600  -13.9035 C   0  0  0  0  0  0  0  0  0  0  0  0
    1.7532  -52.3472  -14.2114 O   0  0  0  0  0  0  0  0  0  0  0  0
    3.0647  -52.1379  -13.7909 C   0  0  0  0  0  0  0  0  0  0  0  0
    3.6854  -51.0843  -14.6408 C   0  0  0  0  0  0  0  0  0  0  0  0
    2.3151  -53.1604  -27.0871 C   0  0  0  0  0  0  0  0  0  0  0  0
    2.8992  -53.2024  -28.0842 N   0  0  0  0  0  0  0  0  0  0  0  0
    3.2915  -51.7027  -24.8879 N   0  0  0  0  0  0  0  0  0  0  0  0
    4.1715  -52.2658  -24.7641 H   0  0  0  0  0  0  0  0  0  0  0  0
    3.3348  -50.3081  -25.1645 C   0  0  0  0  0  0  0  0  0  0  0  0
    3.2479  -49.8416  -26.4800 C   0  0  0  0  0  0  0  0  0  0  0  0
    3.2935  -48.5029  -26.7883 C   0  0  0  0  0  0  0  0  0  0  0  0
    3.4300  -47.5561  -25.7840 C   0  0  0  0  0  0  0  0  0  0  0  0
    3.5165  -48.0022  -24.4825 C   0  0  0  0  0  0  0  0  0  0  0  0
    3.6883  -46.8112  -23.2150 Cl  0  0  0  0  0  0  0  0  0  0  0  0
    3.4695  -49.3580  -24.1807 C   0  0  0  0  0  0  0  0  0  0  0  0
    3.4752  -46.2036  -26.1097 O   0  0  0  0  0  0  0  0  0  0  0  0
    4.6295  -45.4771  -25.7815 C   0  0  0  0  0  0  0  0  0  0  0  0
    5.3948  -44.9820  -26.9279 C   0  0  0  0  0  0  0  0  0  0  0  0
    4.7760  -44.6382  -28.1105 C   0  0  0  0  0  0  0  0  0  0  0  0
    5.4713  -44.1783  -29.1973 C   0  0  0  0  0  0  0  0  0  0  0  0
    6.8348  -44.0530  -29.1134 C   0  0  0  0  0  0  0  0  0  0  0  0
    7.4796  -44.3903  -27.9430 C   0  0  0  0  0  0  0  0  0  0  0  0
    6.7651  -44.8510  -26.8577 C   0  0  0  0  0  0  0  0  0  0  0  0
   -0.6477  -52.0106  -19.9740 O   0  0  0  0  0  0  0  0  0  0  0  0
   -0.8611  -52.4511  -17.5799 C   0  0  0  0  0  0  0  0  0  0  0  0
   -0.7816  -52.9644  -18.9781 C   0  0  0  0  0  0  0  0  0  0  0  0
 44 45  1  0  0  0
 45 43  1  0  0  0
 43  1  1  0  0  0
  1  2  2  0  0  0
  2  3  1  0  0  0
  3  4  2  0  0  0
  4  5  1  0  0  0
  5  6  2  0  0  0
  6 24  1  0  0  0
 24 25  3  0  0  0
  6  7  1  0  0  0
  7 26  1  0  0  0
 26 28  1  0  0  0
 28 29  2  0  0  0
 29 30  1  0  0  0
 30 31  2  0  0  0
 31 35  1  0  0  0
 35 36  1  0  0  0
 36 37  1  0  0  0
 37 38  2  0  0  0
 38 39  1  0  0  0
 39 40  2  0  0  0
 40 41  1  0  0  0
 41 42  2  0  0  0
 31 32  1  0  0  0
 32 33  1  0  0  0
 32 34  2  0  0  0
  7  8  2  0  0  0
  8  9  1  0  0  0
  9 10  2  0  0  0
 10 11  1  0  0  0
 11 12  1  0  0  0
 12 13  2  0  0  0
 12 15  1  0  0  0
 15 16  2  0  0  0
 16 17  1  0  0  0
 17 18  1  0  0  0
 18 19  1  0  0  0
 19 20  1  0  0  0
 20 21  1  0  0  0
 21 22  1  0  0  0
 22 23  1  0  0  0
 10  1  1  0  0  0
 23 18  1  0  0  0
  8  3  1  0  0  0
 34 28  1  0  0  0
 42 37  1  0  0  0
 26 27  1  0  0  0
 11 14  1  0  0  0
M  END
> <minimizedAffinity>
-6.63728

> <CNNscore>
0.2327406257

> <CNNaffinity>
7.3590569496

> <CNN_VS>
1.7127515078

> <CNNaffinity_variance>
0.0362365693

$$$$
[H]/C(C(=O)N([H])c1c(OC([H])([H])C([H])([H])[H])c([H])c2nc([H])c(C#N)c(N([H])c3c([H])c([H])c(OC([H])([H])c4c([H])c([H])c([H])c([H])c4[H])c(Cl)c3[H])c2c1[H])=C(/[H])C([H])([H])N1C([H])([H])C([H])([H])OC([H])([H])C1([H])[H]


 45 49  0  0  0  0  0  0  0  0999 V2000
    0.1974  -52.0879  -19.4010 C   0  0  0  0  0  0  0  0  0  0  0  0
   -0.5840  -52.6722  -20.3659 C   0  0  0  0  0  0  0  0  0  0  0  0
   -0.1976  -52.8795  -21.6604 C   0  0  0  0  0  0  0  0  0  0  0  0
   -0.9914  -53.4592  -22.5988 N   0  0  0  0  0  0  0  0  0  0  0  0
   -0.5603  -53.6388  -23.8668 C   0  0  0  0  0  0  0  0  0  0  0  0
    0.6997  -53.2463  -24.2756 C   0  0  0  0  0  0  0  0  0  0  0  0
    1.5028  -52.6534  -23.3047 C   0  0  0  0  0  0  0  0  0  0  0  0
    1.0710  -52.4652  -22.0028 C   0  0  0  0  0  0  0  0  0  0  0  0
    1.9069  -51.8625  -21.0511 C   0  0  0  0  0  0  0  0  0  0  0  0
    1.4904  -51.6686  -19.7596 C   0  0  0  0  0  0  0  0  0  0  0  0
    2.2479  -51.0486  -18.7375 N   0  0  0  0  0  0  0  0  0  0  0  0
    2.2686  -49.6579  -18.5045 C   0  0  0  0  0  0  0  0  0  0  0  0
    1.6301  -48.8039  -19.1752 O   0  0  0  0  0  0  0  0  0  0  0  0
    2.8431  -51.6420  -18.0875 H   0  0  0  0  0  0  0  0  0  0  0  0
    3.0686  -49.0873  -17.4174 C   0  0  0  0  0  0  0  0  0  0  0  0
    2.8983  -47.8932  -16.8921 C   0  0  0  0  0  0  0  0  0  0  0  0
    3.7935  -47.4245  -15.7718 C   0  0  0  0  0  0  0  0  0  0  0  0
    4.3636  -46.1752  -16.1580 N   0  0  0  0  0  0  0  0  0  0  0  0
    5.6626  -46.2040  -16.7062 C   0  0  0  0  0  0  0  0  0  0  0  0
    5.8527  -45.6344  -18.0645 C   0  0  0  0  0  0  0  0  0  0  0  0
    4.7094  -45.0256  -18.5742 O   0  0  0  0  0  0  0  0  0  0  0  0
    4.0584  -44.2696  -17.6020 C   0  0  0  0  0  0  0  0  0  0  0  0
    3.4536  -45.1872  -16.5970 C   0  0  0  0  0  0  0  0  0  0  0  0
    1.1840  -53.4243  -25.6158 C   0  0  0  0  0  0  0  0  0  0  0  0
    1.5868  -53.5556  -26.6918 N   0  0  0  0  0  0  0  0  0  0  0  0
    2.7878  -52.2165  -23.6450 N   0  0  0  0  0  0  0  0  0  0  0  0
    3.5886  -52.8771  -23.4737 H   0  0  0  0  0  0  0  0  0  0  0  0
    2.9967  -50.9250  -24.2032 C   0  0  0  0  0  0  0  0  0  0  0  0
    3.3372  -50.7805  -25.5518 C   0  0  0  0  0  0  0  0  0  0  0  0
    3.5545  -49.5507  -26.1261 C   0  0  0  0  0  0  0  0  0  0  0  0
    3.4403  -48.3936  -25.3699 C   0  0  0  0  0  0  0  0  0  0  0  0
    3.1049  -48.5216  -24.0390 C   0  0  0  0  0  0  0  0  0  0  0  0
    2.9603  -47.0650  -23.0840 Cl  0  0  0  0  0  0  0  0  0  0  0  0
    2.8873  -49.7696  -23.4673 C   0  0  0  0  0  0  0  0  0  0  0  0
    3.6633  -47.1545  -25.9635 O   0  0  0  0  0  0  0  0  0  0  0  0
    4.4504  -47.1030  -27.1235 C   0  0  0  0  0  0  0  0  0  0  0  0
    3.7255  -46.7528  -28.3471 C   0  0  0  0  0  0  0  0  0  0  0  0
    4.1889  -47.1295  -29.5894 C   0  0  0  0  0  0  0  0  0  0  0  0
    3.5312  -46.8089  -30.7473 C   0  0  0  0  0  0  0  0  0  0  0  0
    2.3677  -46.0856  -30.6761 C   0  0  0  0  0  0  0  0  0  0  0  0
    1.8820  -45.6952  -29.4469 C   0  0  0  0  0  0  0  0  0  0  0  0
    2.5554  -46.0266  -28.2905 C   0  0  0  0  0  0  0  0  0  0  0  0
   -0.2064  -51.8881  -18.1055 O   0  0  0  0  0  0  0  0  0  0  0  0
   -1.9895  -51.9712  -16.4367 C   0  0  0  0  0  0  0  0  0  0  0  0
   -1.0276  -52.6855  -17.3251 C   0  0  0  0  0  0  0  0  0  0  0  0
 44 45  1  0  0  0
 45 43  1  0  0  0
 43  1  1  0  0  0
  1  2  2  0  0  0
  2  3  1  0  0  0
  3  4  2  0  0  0
  4  5  1  0  0  0
  5  6  2  0  0  0
  6 24  1  0  0  0
 24 25  3  0  0  0
  6  7  1  0  0  0
  7 26  1  0  0  0
 26 28  1  0  0  0
 28 29  2  0  0  0
 29 30  1  0  0  0
 30 31  2  0  0  0
 31 35  1  0  0  0
 35 36  1  0  0  0
 36 37  1  0  0  0
 37 38  2  0  0  0
 38 39  1  0  0  0
 39 40  2  0  0  0
 40 41  1  0  0  0
 41 42  2  0  0  0
 31 32  1  0  0  0
 32 33  1  0  0  0
 32 34  2  0  0  0
  7  8  2  0  0  0
  8  9  1  0  0  0
  9 10  2  0  0  0
 10 11  1  0  0  0
 11 12  1  0  0  0
 12 13  2  0  0  0
 12 15  1  0  0  0
 15 16  2  0  0  0
 16 17  1  0  0  0
 17 18  1  0  0  0
 18 19  1  0  0  0
 19 20  1  0  0  0
 20 21  1  0  0  0
 21 22  1  0  0  0
 22 23  1  0  0  0
 10  1  1  0  0  0
 23 18  1  0  0  0
  8  3  1  0  0  0
 34 28  1  0  0  0
 42 37  1  0  0  0
 26 27  1  0  0  0
 11 14  1  0  0  0
M  END
> <minimizedAffinity>
-6.94320

> <CNNscore>
0.2034674585

> <CNNaffinity>
7.3342919350

> <CNN_VS>
1.4922897816

> <CNNaffinity_variance>
0.0734616071

$$$$
[H]/C(C(=O)N([H])c1c(OC([H])([H])C([H])([H])[H])c([H])c2nc([H])c(C#N)c(N([H])c3c([H])c([H])c(OC([H])([H])c4c([H])c([H])c([H])c([H])c4[H])c(Cl)c3[H])c2c1[H])=C(/[H])C([H])([H])N1C([H])([H])C([H])([H])OC([H])([H])C1([H])[H]


 45 49  0  0  0  0  0  0  0  0999 V2000
    0.1062  -51.9637  -20.9716 C   0  0  0  0  0  0  0  0  0  0  0  0
   -0.3373  -52.7194  -22.0276 C   0  0  0  0  0  0  0  0  0  0  0  0
    0.3198  -52.8546  -23.2185 C   0  0  0  0  0  0  0  0  0  0  0  0
   -0.1416  -53.6082  -24.2509 N   0  0  0  0  0  0  0  0  0  0  0  0
    0.5474  -53.7062  -25.4091 C   0  0  0  0  0  0  0  0  0  0  0  0
    1.7480  -53.0515  -25.6059 C   0  0  0  0  0  0  0  0  0  0  0  0
    2.2095  -52.2825  -24.5405 C   0  0  0  0  0  0  0  0  0  0  0  0
    1.5114  -52.1758  -23.3496 C   0  0  0  0  0  0  0  0  0  0  0  0
    2.0059  -51.3904  -22.2977 C   0  0  0  0  0  0  0  0  0  0  0  0
    1.3233  -51.2749  -21.1146 C   0  0  0  0  0  0  0  0  0  0  0  0
    1.7256  -50.4889  -20.0086 N   0  0  0  0  0  0  0  0  0  0  0  0
    2.7366  -50.8648  -19.1002 C   0  0  0  0  0  0  0  0  0  0  0  0
    3.3932  -51.9385  -19.1542 O   0  0  0  0  0  0  0  0  0  0  0  0
    1.2588  -49.5514  -19.8293 H   0  0  0  0  0  0  0  0  0  0  0  0
    3.1091  -49.9925  -17.9832 C   0  0  0  0  0  0  0  0  0  0  0  0
    2.2973  -49.5848  -17.0315 C   0  0  0  0  0  0  0  0  0  0  0  0
    2.8093  -48.6854  -15.9337 C   0  0  0  0  0  0  0  0  0  0  0  0
    2.7112  -49.3966  -14.7011 N   0  0  0  0  0  0  0  0  0  0  0  0
    1.5827  -50.2238  -14.5249 C   0  0  0  0  0  0  0  0  0  0  0  0
    1.8176  -51.6636  -14.2461 C   0  0  0  0  0  0  0  0  0  0  0  0
    3.1617  -51.9820  -14.0749 O   0  0  0  0  0  0  0  0  0  0  0  0
    3.8189  -51.0223  -13.3083 C   0  0  0  0  0  0  0  0  0  0  0  0
    3.9351  -49.7652  -14.0983 C   0  0  0  0  0  0  0  0  0  0  0  0
    2.5014  -53.1372  -26.8256 C   0  0  0  0  0  0  0  0  0  0  0  0
    3.1121  -53.1890  -27.8061 N   0  0  0  0  0  0  0  0  0  0  0  0
    3.4117  -51.5781  -24.6680 N   0  0  0  0  0  0  0  0  0  0  0  0
    4.3058  -52.1037  -24.4911 H   0  0  0  0  0  0  0  0  0  0  0  0
    3.4177  -50.2013  -25.0252 C   0  0  0  0  0  0  0  0  0  0  0  0
    3.0975  -49.8036  -26.3271 C   0  0  0  0  0  0  0  0  0  0  0  0
    3.0994  -48.4844  -26.7129 C   0  0  0  0  0  0  0  0  0  0  0  0
    3.4256  -47.4885  -25.8043 C   0  0  0  0  0  0  0  0  0  0  0  0
    3.7431  -47.8664  -24.5172 C   0  0  0  0  0  0  0  0  0  0  0  0
    4.1543  -46.6135  -23.3703 Cl  0  0  0  0  0  0  0  0  0  0  0  0
    3.7385  -49.2032  -24.1367 C   0  0  0  0  0  0  0  0  0  0  0  0
    3.4241  -46.1563  -26.2078 O   0  0  0  0  0  0  0  0  0  0  0  0
    4.2744  -45.7767  -27.2569 C   0  0  0  0  0  0  0  0  0  0  0  0
    3.7224  -45.9686  -28.6000 C   0  0  0  0  0  0  0  0  0  0  0  0
    2.4233  -45.6187  -28.8996 C   0  0  0  0  0  0  0  0  0  0  0  0
    1.8839  -45.7938  -30.1464 C   0  0  0  0  0  0  0  0  0  0  0  0
    2.6592  -46.3377  -31.1389 C   0  0  0  0  0  0  0  0  0  0  0  0
    3.9614  -46.6973  -30.8668 C   0  0  0  0  0  0  0  0  0  0  0  0
    4.4898  -46.5138  -29.6067 C   0  0  0  0  0  0  0  0  0  0  0  0
   -0.5662  -51.8396  -19.7826 O   0  0  0  0  0  0  0  0  0  0  0  0
   -0.5741  -52.0740  -17.3502 C   0  0  0  0  0  0  0  0  0  0  0  0
   -0.5739  -52.7058  -18.7014 C   0  0  0  0  0  0  0  0  0  0  0  0
 44 45  1  0  0  0
 45 43  1  0  0  0
 43  1  1  0  0  0
  1  2  2  0  0  0
  2  3  1  0  0  0
  3  4  2  0  0  0
  4  5  1  0  0  0
  5  6  2  0  0  0
  6 24  1  0  0  0
 24 25  3  0  0  0
  6  7  1  0  0  0
  7 26  1  0  0  0
 26 28  1  0  0  0
 28 29  2  0  0  0
 29 30  1  0  0  0
 30 31  2  0  0  0
 31 35  1  0  0  0
 35 36  1  0  0  0
 36 37  1  0  0  0
 37 38  2  0  0  0
 38 39  1  0  0  0
 39 40  2  0  0  0
 40 41  1  0  0  0
 41 42  2  0  0  0
 31 32  1  0  0  0
 32 33  1  0  0  0
 32 34  2  0  0  0
  7  8  2  0  0  0
  8  9  1  0  0  0
  9 10  2  0  0  0
 10 11  1  0  0  0
 11 12  1  0  0  0
 12 13  2  0  0  0
 12 15  1  0  0  0
 15 16  2  0  0  0
 16 17  1  0  0  0
 17 18  1  0  0  0
 18 19  1  0  0  0
 19 20  1  0  0  0
 20 21  1  0  0  0
 21 22  1  0  0  0
 22 23  1  0  0  0
 10  1  1  0  0  0
 23 18  1  0  0  0
  8  3  1  0  0  0
 34 28  1  0  0  0
 42 37  1  0  0  0
 26 27  1  0  0  0
 11 14  1  0  0  0
M  END
> <minimizedAffinity>
-7.39749

> <CNNscore>
0.2031537592

> <CNNaffinity>
7.2729849815

> <CNN_VS>
1.4775342941

> <CNNaffinity_variance>
0.0645064265

$$$$
[H]/C(C(=O)N([H])c1c(OC([H])([H])C([H])([H])[H])c([H])c2nc([H])c(C#N)c(N([H])c3c([H])c([H])c(OC([H])([H])c4c([H])c([H])c([H])c([H])c4[H])c(Cl)c3[H])c2c1[H])=C(/[H])C([H])([H])N1C([H])([H])C([H])([H])OC([H])([H])C1([H])[H]


 45 49  0  0  0  0  0  0  0  0999 V2000
    0.0729  -52.3226  -21.4659 C   0  0  0  0  0  0  0  0  0  0  0  0
   -0.5742  -52.9121  -22.5226 C   0  0  0  0  0  0  0  0  0  0  0  0
   -0.0200  -53.1259  -23.7536 C   0  0  0  0  0  0  0  0  0  0  0  0
   -0.6830  -53.7107  -24.7857 N   0  0  0  0  0  0  0  0  0  0  0  0
   -0.0880  -53.8967  -25.9846 C   0  0  0  0  0  0  0  0  0  0  0  0
    1.2151  -53.5060  -26.2252 C   0  0  0  0  0  0  0  0  0  0  0  0
    1.8830  -52.9079  -25.1596 C   0  0  0  0  0  0  0  0  0  0  0  0
    1.2828  -52.7131  -23.9272 C   0  0  0  0  0  0  0  0  0  0  0  0
    1.9858  -52.1053  -22.8764 C   0  0  0  0  0  0  0  0  0  0  0  0
    1.4022  -51.9048  -21.6524 C   0  0  0  0  0  0  0  0  0  0  0  0
    2.0181  -51.2794  -20.5423 N   0  0  0  0  0  0  0  0  0  0  0  0
    1.9933  -49.8893  -20.3064 C   0  0  0  0  0  0  0  0  0  0  0  0
    1.4343  -49.0405  -21.0506 O   0  0  0  0  0  0  0  0  0  0  0  0
    2.5338  -51.8680  -19.8236 H   0  0  0  0  0  0  0  0  0  0  0  0
    2.6437  -49.3130  -19.1265 C   0  0  0  0  0  0  0  0  0  0  0  0
    3.8389  -48.7632  -19.1079 C   0  0  0  0  0  0  0  0  0  0  0  0
    4.3947  -48.2037  -17.8217 C   0  0  0  0  0  0  0  0  0  0  0  0
    5.4088  -47.2577  -18.1558 N   0  0  0  0  0  0  0  0  0  0  0  0
    5.7006  -46.2640  -17.1987 C   0  0  0  0  0  0  0  0  0  0  0  0
    7.0986  -46.1674  -16.7066 C   0  0  0  0  0  0  0  0  0  0  0  0
    7.9781  -47.0204  -17.3672 O   0  0  0  0  0  0  0  0  0  0  0  0
    7.7371  -47.0375  -18.7391 C   0  0  0  0  0  0  0  0  0  0  0  0
    6.4428  -47.7276  -18.9968 C   0  0  0  0  0  0  0  0  0  0  0  0
    1.8725  -53.6907  -27.4886 C   0  0  0  0  0  0  0  0  0  0  0  0
    2.4114  -53.8249  -28.5028 N   0  0  0  0  0  0  0  0  0  0  0  0
    3.2019  -52.4724  -25.3292 N   0  0  0  0  0  0  0  0  0  0  0  0
    3.9520  -53.2065  -25.4030 H   0  0  0  0  0  0  0  0  0  0  0  0
    3.5104  -51.0857  -25.3996 C   0  0  0  0  0  0  0  0  0  0  0  0
    2.7388  -50.2252  -26.1869 C   0  0  0  0  0  0  0  0  0  0  0  0
    3.0094  -48.8813  -26.2868 C   0  0  0  0  0  0  0  0  0  0  0  0
    4.0771  -48.3277  -25.5959 C   0  0  0  0  0  0  0  0  0  0  0  0
    4.8459  -49.1645  -24.8157 C   0  0  0  0  0  0  0  0  0  0  0  0
    6.1918  -48.4693  -23.9440 Cl  0  0  0  0  0  0  0  0  0  0  0  0
    4.5645  -50.5223  -24.7212 C   0  0  0  0  0  0  0  0  0  0  0  0
    4.3405  -46.9653  -25.7059 O   0  0  0  0  0  0  0  0  0  0  0  0
    3.4413  -46.0630  -25.1184 C   0  0  0  0  0  0  0  0  0  0  0  0
    3.7545  -45.6892  -23.7374 C   0  0  0  0  0  0  0  0  0  0  0  0
    3.3109  -46.4417  -22.6711 C   0  0  0  0  0  0  0  0  0  0  0  0
    3.5866  -46.1088  -21.3714 C   0  0  0  0  0  0  0  0  0  0  0  0
    4.3310  -44.9857  -21.1133 C   0  0  0  0  0  0  0  0  0  0  0  0
    4.7868  -44.2146  -22.1605 C   0  0  0  0  0  0  0  0  0  0  0  0
    4.5014  -44.5636  -23.4633 C   0  0  0  0  0  0  0  0  0  0  0  0
   -0.4986  -52.1163  -20.2362 O   0  0  0  0  0  0  0  0  0  0  0  0
   -0.7899  -52.5449  -17.8482 C   0  0  0  0  0  0  0  0  0  0  0  0
   -0.7887  -53.0476  -19.2525 C   0  0  0  0  0  0  0  0  0  0  0  0
 44 45  1  0  0  0
 45 43  1  0  0  0
 43  1  1  0  0  0
  1  2  2  0  0  0
  2  3  1  0  0  0
  3  4  2  0  0  0
  4  5  1  0  0  0
  5  6  2  0  0  0
  6 24  1  0  0  0
 24 25  3  0  0  0
  6  7  1  0  0  0
  7 26  1  0  0  0
 26 28  1  0  0  0
 28 29  2  0  0  0
 29 30  1  0  0  0
 30 31  2  0  0  0
 31 35  1  0  0  0
 35 36  1  0  0  0
 36 37  1  0  0  0
 37 38  2  0  0  0
 38 39  1  0  0  0
 39 40  2  0  0  0
 40 41  1  0  0  0
 41 42  2  0  0  0
 31 32  1  0  0  0
 32 33  1  0  0  0
 32 34  2  0  0  0
  7  8  2  0  0  0
  8  9  1  0  0  0
  9 10  2  0  0  0
 10 11  1  0  0  0
 11 12  1  0  0  0
 12 13  2  0  0  0
 12 15  1  0  0  0
 15 16  2  0  0  0
 16 17  1  0  0  0
 17 18  1  0  0  0
 18 19  1  0  0  0
 19 20  1  0  0  0
 20 21  1  0  0  0
 21 22  1  0  0  0
 22 23  1  0  0  0
 10  1  1  0  0  0
 23 18  1  0  0  0
  8  3  1  0  0  0
 34 28  1  0  0  0
 42 37  1  0  0  0
 26 27  1  0  0  0
 11 14  1  0  0  0
M  END
> <minimizedAffinity>
-6.37924

> <CNNscore>
0.1715356112

> <CNNaffinity>
7.2729477882

> <CNN_VS>
1.2475695610

> <CNNaffinity_variance>
0.1155348644

$$$$
[H]/C(C(=O)N([H])c1c(OC([H])([H])[H])c([H])c2nc([H])nc(N([H])c3c([H])c([H])c(F)c(Cl)c3[H])c2c1[H])=C(/[H])C([H])([H])N(C([H])([H])[H])C([H])([H])[H]


 32 34  0  0  0  0  0  0  0  0999 V2000
   -0.1710  -52.4960  -19.6083 C   0  0  0  0  0  0  0  0  0  0  0  0
   -0.9469  -53.5346  -20.0722 C   0  0  0  0  0  0  0  0  0  0  0  0
   -0.9440  -53.8992  -21.4021 C   0  0  0  0  0  0  0  0  0  0  0  0
   -1.6877  -54.9004  -21.8808 N   0  0  0  0  0  0  0  0  0  0  0  0
   -1.6548  -55.2202  -23.1877 C   0  0  0  0  0  0  0  0  0  0  0  0
   -0.9002  -54.5802  -24.0710 N   0  0  0  0  0  0  0  0  0  0  0  0
   -0.1199  -53.5450  -23.6221 C   0  0  0  0  0  0  0  0  0  0  0  0
   -0.1373  -53.1992  -22.2896 C   0  0  0  0  0  0  0  0  0  0  0  0
    0.6386  -52.1479  -21.7809 C   0  0  0  0  0  0  0  0  0  0  0  0
    0.6421  -51.7784  -20.4608 C   0  0  0  0  0  0  0  0  0  0  0  0
    1.4132  -50.7257  -19.9374 N   0  0  0  0  0  0  0  0  0  0  0  0
    2.7233  -50.8151  -19.4483 C   0  0  0  0  0  0  0  0  0  0  0  0
    3.3831  -51.8781  -19.4184 O   0  0  0  0  0  0  0  0  0  0  0  0
    0.9159  -49.7754  -19.9281 H   0  0  0  0  0  0  0  0  0  0  0  0
    3.3878  -49.6138  -18.9354 C   0  0  0  0  0  0  0  0  0  0  0  0
    4.0705  -48.7723  -19.6530 C   0  0  0  0  0  0  0  0  0  0  0  0
    4.7469  -47.5515  -19.1230 C   0  0  0  0  0  0  0  0  0  0  0  0
    4.1288  -46.3725  -19.5285 N   0  0  0  0  0  0  0  0  0  0  0  0
    3.4847  -45.5439  -18.5871 C   0  0  0  0  0  0  0  0  0  0  0  0
    3.9273  -46.1146  -20.9037 C   0  0  0  0  0  0  0  0  0  0  0  0
   -1.1916  -52.7079  -17.4399 C   0  0  0  0  0  0  0  0  0  0  0  0
   -0.2032  -52.1650  -18.2741 O   0  0  0  0  0  0  0  0  0  0  0  0
    0.7337  -52.8649  -24.5204 N   0  0  0  0  0  0  0  0  0  0  0  0
    1.5909  -52.3306  -24.2680 H   0  0  0  0  0  0  0  0  0  0  0  0
    0.4328  -52.8890  -25.9316 C   0  0  0  0  0  0  0  0  0  0  0  0
    1.4713  -53.0560  -26.8435 C   0  0  0  0  0  0  0  0  0  0  0  0
    1.1753  -53.0372  -28.1825 C   0  0  0  0  0  0  0  0  0  0  0  0
   -0.1116  -52.8588  -28.6315 C   0  0  0  0  0  0  0  0  0  0  0  0
   -0.3569  -52.8482  -29.9801 F   0  0  0  0  0  0  0  0  0  0  0  0
   -1.1320  -52.6946  -27.7525 C   0  0  0  0  0  0  0  0  0  0  0  0
   -2.7774  -52.4658  -28.3236 Cl  0  0  0  0  0  0  0  0  0  0  0  0
   -0.8449  -52.7109  -26.3739 C   0  0  0  0  0  0  0  0  0  0  0  0
 21 22  1  0  0  0
 22  1  1  0  0  0
  1  2  2  0  0  0
  2  3  1  0  0  0
  3  4  2  0  0  0
  4  5  1  0  0  0
  5  6  2  0  0  0
  6  7  1  0  0  0
  7 23  1  0  0  0
 23 25  1  0  0  0
 25 26  2  0  0  0
 26 27  1  0  0  0
 27 28  2  0  0  0
 28 29  1  0  0  0
 28 30  1  0  0  0
 30 31  1  0  0  0
 30 32  2  0  0  0
  7  8  2  0  0  0
  8  9  1  0  0  0
  9 10  2  0  0  0
 10 11  1  0  0  0
 11 12  1  0  0  0
 12 13  2  0  0  0
 12 15  1  0  0  0
 15 16  2  0  0  0
 16 17  1  0  0  0
 17 18  1  0  0  0
 18 19  1  0  0  0
 18 20  1  0  0  0
 10  1  1  0  0  0
  8  3  1  0  0  0
 32 25  1  0  0  0
 23 24  1  0  0  0
 11 14  1  0  0  0
M  END
> <minimizedAffinity>
-8.32673

> <CNNscore>
0.9854886532

> <CNNaffinity>
7.7393822670

> <CNN_VS>
7.6270732880

> <CNNaffinity_variance>
0.0568819419

$$$$
[H]/C(C(=O)N([H])c1c(OC([H])([H])[H])c([H])c2nc([H])nc(N([H])c3c([H])c([H])c(F)c(Cl)c3[H])c2c1[H])=C(/[H])C([H])([H])N(C([H])([H])[H])C([H])([H])[H]


 32 34  0  0  0  0  0  0  0  0999 V2000
   -0.2441  -52.5214  -19.5480 C   0  0  0  0  0  0  0  0  0  0  0  0
   -0.9380  -53.6013  -20.0464 C   0  0  0  0  0  0  0  0  0  0  0  0
   -0.9452  -53.8948  -21.3937 C   0  0  0  0  0  0  0  0  0  0  0  0
   -1.6109  -54.9336  -21.9057 N   0  0  0  0  0  0  0  0  0  0  0  0
   -1.5915  -55.1811  -23.2284 C   0  0  0  0  0  0  0  0  0  0  0  0
   -0.9264  -54.4299  -24.0959 N   0  0  0  0  0  0  0  0  0  0  0  0
   -0.2282  -53.3522  -23.6129 C   0  0  0  0  0  0  0  0  0  0  0  0
   -0.2337  -53.0789  -22.2636 C   0  0  0  0  0  0  0  0  0  0  0  0
    0.4606  -51.9887  -21.7198 C   0  0  0  0  0  0  0  0  0  0  0  0
    0.4733  -51.6893  -20.3822 C   0  0  0  0  0  0  0  0  0  0  0  0
    1.1632  -50.5990  -19.8235 N   0  0  0  0  0  0  0  0  0  0  0  0
    2.4309  -50.6314  -19.2274 C   0  0  0  0  0  0  0  0  0  0  0  0
    3.1212  -51.6696  -19.1179 O   0  0  0  0  0  0  0  0  0  0  0  0
    0.6352  -49.6669  -19.8779 H   0  0  0  0  0  0  0  0  0  0  0  0
    3.0103  -49.3966  -18.6915 C   0  0  0  0  0  0  0  0  0  0  0  0
    4.2730  -49.0895  -18.7184 C   0  0  0  0  0  0  0  0  0  0  0  0
    4.8566  -47.8304  -18.1681 C   0  0  0  0  0  0  0  0  0  0  0  0
    5.8860  -47.3232  -18.9553 N   0  0  0  0  0  0  0  0  0  0  0  0
    5.8748  -45.9733  -19.3618 C   0  0  0  0  0  0  0  0  0  0  0  0
    6.8177  -48.2007  -19.5551 C   0  0  0  0  0  0  0  0  0  0  0  0
   -1.3497  -52.6865  -17.4175 C   0  0  0  0  0  0  0  0  0  0  0  0
   -0.2629  -52.2643  -18.1974 O   0  0  0  0  0  0  0  0  0  0  0  0
    0.5314  -52.5513  -24.4958 N   0  0  0  0  0  0  0  0  0  0  0  0
    1.2658  -51.8649  -24.2249 H   0  0  0  0  0  0  0  0  0  0  0  0
    0.3074  -52.6639  -25.9170 C   0  0  0  0  0  0  0  0  0  0  0  0
   -0.8778  -52.1731  -26.4576 C   0  0  0  0  0  0  0  0  0  0  0  0
   -1.0941  -52.3227  -27.8036 C   0  0  0  0  0  0  0  0  0  0  0  0
   -0.1726  -52.9405  -28.6151 C   0  0  0  0  0  0  0  0  0  0  0  0
   -0.4344  -53.0653  -29.9549 F   0  0  0  0  0  0  0  0  0  0  0  0
    0.9859  -53.4234  -28.0999 C   0  0  0  0  0  0  0  0  0  0  0  0
    2.1651  -54.2139  -29.1347 Cl  0  0  0  0  0  0  0  0  0  0  0  0
    1.2233  -53.2782  -26.7194 C   0  0  0  0  0  0  0  0  0  0  0  0
 21 22  1  0  0  0
 22  1  1  0  0  0
  1  2  2  0  0  0
  2  3  1  0  0  0
  3  4  2  0  0  0
  4  5  1  0  0  0
  5  6  2  0  0  0
  6  7  1  0  0  0
  7 23  1  0  0  0
 23 25  1  0  0  0
 25 26  2  0  0  0
 26 27  1  0  0  0
 27 28  2  0  0  0
 28 29  1  0  0  0
 28 30  1  0  0  0
 30 31  1  0  0  0
 30 32  2  0  0  0
  7  8  2  0  0  0
  8  9  1  0  0  0
  9 10  2  0  0  0
 10 11  1  0  0  0
 11 12  1  0  0  0
 12 13  2  0  0  0
 12 15  1  0  0  0
 15 16  2  0  0  0
 16 17  1  0  0  0
 17 18  1  0  0  0
 18 19  1  0  0  0
 18 20  1  0  0  0
 10  1  1  0  0  0
  8  3  1  0  0  0
 32 25  1  0  0  0
 23 24  1  0  0  0
 11 14  1  0  0  0
M  END
> <minimizedAffinity>
-7.81310

> <CNNscore>
0.9582668543

> <CNNaffinity>
7.4080567360

> <CNN_VS>
7.0988950729

> <CNNaffinity_variance>
0.0136901019

$$$$
[H]/C(C(=O)N([H])c1c(OC([H])([H])[H])c([H])c2nc([H])nc(N([H])c3c([H])c([H])c(F)c(Cl)c3[H])c2c1[H])=C(/[H])C([H])([H])N(C([H])([H])[H])C([H])([H])[H]


 32 34  0  0  0  0  0  0  0  0999 V2000
   -0.6438  -52.8134  -19.1401 C   0  0  0  0  0  0  0  0  0  0  0  0
   -1.1483  -53.8443  -19.9008 C   0  0  0  0  0  0  0  0  0  0  0  0
   -0.9900  -53.8748  -21.2703 C   0  0  0  0  0  0  0  0  0  0  0  0
   -1.4704  -54.8601  -22.0337 N   0  0  0  0  0  0  0  0  0  0  0  0
   -1.2939  -54.8476  -23.3679 C   0  0  0  0  0  0  0  0  0  0  0  0
   -0.6464  -53.8802  -24.0035 N   0  0  0  0  0  0  0  0  0  0  0  0
   -0.1360  -52.8481  -23.2577 C   0  0  0  0  0  0  0  0  0  0  0  0
   -0.3044  -52.8390  -21.8913 C   0  0  0  0  0  0  0  0  0  0  0  0
    0.1947  -51.8066  -21.0843 C   0  0  0  0  0  0  0  0  0  0  0  0
    0.0422  -51.7679  -19.7226 C   0  0  0  0  0  0  0  0  0  0  0  0
    0.5355  -50.7387  -18.9016 N   0  0  0  0  0  0  0  0  0  0  0  0
    1.8347  -50.6329  -18.3872 C   0  0  0  0  0  0  0  0  0  0  0  0
    2.7389  -51.4704  -18.6048 O   0  0  0  0  0  0  0  0  0  0  0  0
   -0.1826  -49.9772  -18.6675 H   0  0  0  0  0  0  0  0  0  0  0  0
    2.1876  -49.4885  -17.5425 C   0  0  0  0  0  0  0  0  0  0  0  0
    2.7648  -49.5660  -16.3806 C   0  0  0  0  0  0  0  0  0  0  0  0
    3.1192  -48.3955  -15.5243 C   0  0  0  0  0  0  0  0  0  0  0  0
    3.4923  -48.7629  -14.2350 N   0  0  0  0  0  0  0  0  0  0  0  0
    3.9412  -50.0723  -13.9676 C   0  0  0  0  0  0  0  0  0  0  0  0
    3.1985  -47.9142  -13.1434 C   0  0  0  0  0  0  0  0  0  0  0  0
   -2.1168  -52.9045  -17.2399 C   0  0  0  0  0  0  0  0  0  0  0  0
   -0.8236  -52.8218  -17.7769 O   0  0  0  0  0  0  0  0  0  0  0  0
    0.6002  -51.8194  -23.8885 N   0  0  0  0  0  0  0  0  0  0  0  0
    0.2180  -50.9166  -24.2389 H   0  0  0  0  0  0  0  0  0  0  0  0
    2.0202  -51.9882  -24.0829 C   0  0  0  0  0  0  0  0  0  0  0  0
    2.4776  -52.5918  -25.2510 C   0  0  0  0  0  0  0  0  0  0  0  0
    3.8272  -52.7812  -25.4042 C   0  0  0  0  0  0  0  0  0  0  0  0
    4.7220  -52.3901  -24.4368 C   0  0  0  0  0  0  0  0  0  0  0  0
    6.0618  -52.6006  -24.6367 F   0  0  0  0  0  0  0  0  0  0  0  0
    4.2884  -51.8013  -23.2940 C   0  0  0  0  0  0  0  0  0  0  0  0
    5.4298  -51.3010  -22.0559 Cl  0  0  0  0  0  0  0  0  0  0  0  0
    2.9054  -51.5998  -23.1209 C   0  0  0  0  0  0  0  0  0  0  0  0
 21 22  1  0  0  0
 22  1  1  0  0  0
  1  2  2  0  0  0
  2  3  1  0  0  0
  3  4  2  0  0  0
  4  5  1  0  0  0
  5  6  2  0  0  0
  6  7  1  0  0  0
  7 23  1  0  0  0
 23 25  1  0  0  0
 25 26  2  0  0  0
 26 27  1  0  0  0
 27 28  2  0  0  0
 28 29  1  0  0  0
 28 30  1  0  0  0
 30 31  1  0  0  0
 30 32  2  0  0  0
  7  8  2  0  0  0
  8  9  1  0  0  0
  9 10  2  0  0  0
 10 11  1  0  0  0
 11 12  1  0  0  0
 12 13  2  0  0  0
 12 15  1  0  0  0
 15 16  2  0  0  0
 16 17  1  0  0  0
 17 18  1  0  0  0
 18 19  1  0  0  0
 18 20  1  0  0  0
 10  1  1  0  0  0
  8  3  1  0  0  0
 32 25  1  0  0  0
 23 24  1  0  0  0
 11 14  1  0  0  0
M  END
> <minimizedAffinity>
-7.18554

> <CNNscore>
0.8132595420

> <CNNaffinity>
6.9958267212

> <CNN_VS>
5.6894226074

> <CNNaffinity_variance>
0.0319081992

$$$$
[H]/C(C(=O)N([H])c1c(OC([H])([H])[H])c([H])c2nc([H])nc(N([H])c3c([H])c([H])c(F)c(Cl)c3[H])c2c1[H])=C(/[H])C([H])([H])N(C([H])([H])[H])C([H])([H])[H]


 32 34  0  0  0  0  0  0  0  0999 V2000
    0.1165  -52.3910  -26.1361 C   0  0  0  0  0  0  0  0  0  0  0  0
   -0.5932  -53.4592  -25.6349 C   0  0  0  0  0  0  0  0  0  0  0  0
   -0.5647  -53.7788  -24.2938 C   0  0  0  0  0  0  0  0  0  0  0  0
   -1.2406  -54.8101  -23.7799 N   0  0  0  0  0  0  0  0  0  0  0  0
   -1.1818  -55.0865  -22.4641 C   0  0  0  0  0  0  0  0  0  0  0  0
   -0.4664  -54.3722  -21.6055 N   0  0  0  0  0  0  0  0  0  0  0  0
    0.2435  -53.3032  -22.0907 C   0  0  0  0  0  0  0  0  0  0  0  0
    0.1991  -53.0013  -23.4332 C   0  0  0  0  0  0  0  0  0  0  0  0
    0.9083  -51.9221  -23.9797 C   0  0  0  0  0  0  0  0  0  0  0  0
    0.8859  -51.5970  -25.3112 C   0  0  0  0  0  0  0  0  0  0  0  0
    1.5930  -50.5195  -25.8729 N   0  0  0  0  0  0  0  0  0  0  0  0
    2.9777  -50.3114  -25.8177 C   0  0  0  0  0  0  0  0  0  0  0  0
    3.7746  -51.0860  -25.2421 O   0  0  0  0  0  0  0  0  0  0  0  0
    0.9778  -49.8067  -26.3868 H   0  0  0  0  0  0  0  0  0  0  0  0
    3.5580  -49.1292  -26.4605 C   0  0  0  0  0  0  0  0  0  0  0  0
    4.0106  -49.0860  -27.6781 C   0  0  0  0  0  0  0  0  0  0  0  0
    4.6029  -47.8783  -28.3257 C   0  0  0  0  0  0  0  0  0  0  0  0
    4.4909  -47.8993  -29.7126 N   0  0  0  0  0  0  0  0  0  0  0  0
    5.3082  -48.7525  -30.4819 C   0  0  0  0  0  0  0  0  0  0  0  0
    3.7404  -46.9034  -30.3782 C   0  0  0  0  0  0  0  0  0  0  0  0
    0.5973  -53.0074  -28.4115 C   0  0  0  0  0  0  0  0  0  0  0  0
    0.0603  -52.1065  -27.4802 O   0  0  0  0  0  0  0  0  0  0  0  0
    0.9831  -52.4875  -21.2044 N   0  0  0  0  0  0  0  0  0  0  0  0
    1.9056  -52.0463  -21.4003 H   0  0  0  0  0  0  0  0  0  0  0  0
    0.4477  -52.2068  -19.8940 C   0  0  0  0  0  0  0  0  0  0  0  0
   -0.4559  -53.1001  -19.3251 C   0  0  0  0  0  0  0  0  0  0  0  0
   -0.9865  -52.8003  -18.0965 C   0  0  0  0  0  0  0  0  0  0  0  0
   -0.6452  -51.6488  -17.4280 C   0  0  0  0  0  0  0  0  0  0  0  0
   -1.2023  -51.3940  -16.2016 F   0  0  0  0  0  0  0  0  0  0  0  0
    0.2339  -50.7703  -17.9722 C   0  0  0  0  0  0  0  0  0  0  0  0
    0.6714  -49.2976  -17.1202 Cl  0  0  0  0  0  0  0  0  0  0  0  0
    0.7877  -51.0630  -19.2336 C   0  0  0  0  0  0  0  0  0  0  0  0
 21 22  1  0  0  0
 22  1  1  0  0  0
  1  2  2  0  0  0
  2  3  1  0  0  0
  3  4  2  0  0  0
  4  5  1  0  0  0
  5  6  2  0  0  0
  6  7  1  0  0  0
  7 23  1  0  0  0
 23 25  1  0  0  0
 25 26  2  0  0  0
 26 27  1  0  0  0
 27 28  2  0  0  0
 28 29  1  0  0  0
 28 30  1  0  0  0
 30 31  1  0  0  0
 30 32  2  0  0  0
  7  8  2  0  0  0
  8  9  1  0  0  0
  9 10  2  0  0  0
 10 11  1  0  0  0
 11 12  1  0  0  0
 12 13  2  0  0  0
 12 15  1  0  0  0
 15 16  2  0  0  0
 16 17  1  0  0  0
 17 18  1  0  0  0
 18 19  1  0  0  0
 18 20  1  0  0  0
 10  1  1  0  0  0
  8  3  1  0  0  0
 32 25  1  0  0  0
 23 24  1  0  0  0
 11 14  1  0  0  0
M  END
> <minimizedAffinity>
-7.56856

> <CNNscore>
0.4291245639

> <CNNaffinity>
6.8481788635

> <CNN_VS>
2.9387216568

> <CNNaffinity_variance>
0.1485023946

$$$$
[H]/C(C(=O)N([H])c1c(OC([H])([H])[H])c([H])c2nc([H])nc(N([H])c3c([H])c([H])c(F)c(Cl)c3[H])c2c1[H])=C(/[H])C([H])([H])N(C([H])([H])[H])C([H])([H])[H]


 32 34  0  0  0  0  0  0  0  0999 V2000
    0.7531  -52.3941  -25.7715 C   0  0  0  0  0  0  0  0  0  0  0  0
   -0.2158  -53.3395  -25.5194 C   0  0  0  0  0  0  0  0  0  0  0  0
   -0.4595  -53.8001  -24.2428 C   0  0  0  0  0  0  0  0  0  0  0  0
   -1.3907  -54.7178  -23.9687 N   0  0  0  0  0  0  0  0  0  0  0  0
   -1.5928  -55.1400  -22.7069 C   0  0  0  0  0  0  0  0  0  0  0  0
   -0.8991  -54.6859  -21.6716 N   0  0  0  0  0  0  0  0  0  0  0  0
    0.0677  -53.7417  -21.9078 C   0  0  0  0  0  0  0  0  0  0  0  0
    0.2928  -53.2949  -23.1904 C   0  0  0  0  0  0  0  0  0  0  0  0
    1.2704  -52.3339  -23.4855 C   0  0  0  0  0  0  0  0  0  0  0  0
    1.5196  -51.8702  -24.7512 C   0  0  0  0  0  0  0  0  0  0  0  0
    2.4973  -50.9088  -25.0618 N   0  0  0  0  0  0  0  0  0  0  0  0
    3.8843  -51.0568  -24.9278 C   0  0  0  0  0  0  0  0  0  0  0  0
    4.4345  -52.0968  -24.5011 O   0  0  0  0  0  0  0  0  0  0  0  0
    2.1044  -49.9834  -25.4357 H   0  0  0  0  0  0  0  0  0  0  0  0
    4.7694  -49.9495  -25.2997 C   0  0  0  0  0  0  0  0  0  0  0  0
    5.3692  -49.1573  -24.4619 C   0  0  0  0  0  0  0  0  0  0  0  0
    6.2679  -48.0296  -24.8482 C   0  0  0  0  0  0  0  0  0  0  0  0
    5.6146  -47.0466  -25.5856 N   0  0  0  0  0  0  0  0  0  0  0  0
    6.0238  -46.7518  -26.9021 C   0  0  0  0  0  0  0  0  0  0  0  0
    4.7042  -46.1718  -24.9501 C   0  0  0  0  0  0  0  0  0  0  0  0
    1.0300  -52.8892  -28.1096 C   0  0  0  0  0  0  0  0  0  0  0  0
    0.9638  -51.9616  -27.0596 O   0  0  0  0  0  0  0  0  0  0  0  0
    0.7997  -53.1970  -20.8282 N   0  0  0  0  0  0  0  0  0  0  0  0
    1.1817  -53.7252  -20.0165 H   0  0  0  0  0  0  0  0  0  0  0  0
    1.0730  -51.7802  -20.8072 C   0  0  0  0  0  0  0  0  0  0  0  0
    0.0085  -50.8851  -20.7471 C   0  0  0  0  0  0  0  0  0  0  0  0
    0.2819  -49.5413  -20.7678 C   0  0  0  0  0  0  0  0  0  0  0  0
    1.5713  -49.0715  -20.8457 C   0  0  0  0  0  0  0  0  0  0  0  0
    1.7933  -47.7188  -20.8628 F   0  0  0  0  0  0  0  0  0  0  0  0
    2.6170  -49.9339  -20.9053 C   0  0  0  0  0  0  0  0  0  0  0  0
    4.2658  -49.3361  -21.0056 Cl  0  0  0  0  0  0  0  0  0  0  0  0
    2.3534  -51.3172  -20.8855 C   0  0  0  0  0  0  0  0  0  0  0  0
 21 22  1  0  0  0
 22  1  1  0  0  0
  1  2  2  0  0  0
  2  3  1  0  0  0
  3  4  2  0  0  0
  4  5  1  0  0  0
  5  6  2  0  0  0
  6  7  1  0  0  0
  7 23  1  0  0  0
 23 25  1  0  0  0
 25 26  2  0  0  0
 26 27  1  0  0  0
 27 28  2  0  0  0
 28 29  1  0  0  0
 28 30  1  0  0  0
 30 31  1  0  0  0
 30 32  2  0  0  0
  7  8  2  0  0  0
  8  9  1  0  0  0
  9 10  2  0  0  0
 10 11  1  0  0  0
 11 12  1  0  0  0
 12 13  2  0  0  0
 12 15  1  0  0  0
 15 16  2  0  0  0
 16 17  1  0  0  0
 17 18  1  0  0  0
 18 19  1  0  0  0
 18 20  1  0  0  0
 10  1  1  0  0  0
  8  3  1  0  0  0
 32 25  1  0  0  0
 23 24  1  0  0  0
 11 14  1  0  0  0
M  END
> <minimizedAffinity>
-6.36915

> <CNNscore>
0.4113459587

> <CNNaffinity>
6.8830652237

> <CNN_VS>
2.8313210011

> <CNNaffinity_variance>
0.3705561161

$$$$
[H]/C(C(=O)N([H])c1c(OC([H])([H])[H])c([H])c2nc([H])nc(N([H])c3c([H])c([H])c(F)c(Cl)c3[H])c2c1[H])=C(/[H])C([H])([H])N(C([H])([H])[H])C([H])([H])[H]


 32 34  0  0  0  0  0  0  0  0999 V2000
    1.6878  -52.2814  -22.4563 C   0  0  0  0  0  0  0  0  0  0  0  0
    0.6881  -53.1613  -22.1066 C   0  0  0  0  0  0  0  0  0  0  0  0
    0.0146  -53.0489  -20.9086 C   0  0  0  0  0  0  0  0  0  0  0  0
   -0.9572  -53.8888  -20.5418 N   0  0  0  0  0  0  0  0  0  0  0  0
   -1.5864  -53.7423  -19.3612 C   0  0  0  0  0  0  0  0  0  0  0  0
   -1.2936  -52.7773  -18.4995 N   0  0  0  0  0  0  0  0  0  0  0  0
   -0.3015  -51.8917  -18.8364 C   0  0  0  0  0  0  0  0  0  0  0  0
    0.3566  -52.0219  -20.0386 C   0  0  0  0  0  0  0  0  0  0  0  0
    1.3794  -51.1456  -20.4286 C   0  0  0  0  0  0  0  0  0  0  0  0
    2.0543  -51.2496  -21.6172 C   0  0  0  0  0  0  0  0  0  0  0  0
    3.0825  -50.3797  -22.0203 N   0  0  0  0  0  0  0  0  0  0  0  0
    3.0008  -49.3968  -23.0157 C   0  0  0  0  0  0  0  0  0  0  0  0
    1.9684  -49.1704  -23.6859 O   0  0  0  0  0  0  0  0  0  0  0  0
    4.0060  -50.5111  -21.4906 H   0  0  0  0  0  0  0  0  0  0  0  0
    4.1730  -48.5694  -23.3137 C   0  0  0  0  0  0  0  0  0  0  0  0
    5.2959  -49.0096  -23.7981 C   0  0  0  0  0  0  0  0  0  0  0  0
    6.4872  -48.1608  -24.0970 C   0  0  0  0  0  0  0  0  0  0  0  0
    6.5773  -47.0458  -23.2691 N   0  0  0  0  0  0  0  0  0  0  0  0
    6.6147  -45.7488  -23.8202 C   0  0  0  0  0  0  0  0  0  0  0  0
    6.8763  -47.2046  -21.8967 C   0  0  0  0  0  0  0  0  0  0  0  0
    1.6255  -52.8689  -24.7886 C   0  0  0  0  0  0  0  0  0  0  0  0
    2.3342  -52.4289  -23.6609 O   0  0  0  0  0  0  0  0  0  0  0  0
    0.0121  -50.8211  -17.9683 N   0  0  0  0  0  0  0  0  0  0  0  0
   -0.0651  -49.8070  -18.1908 H   0  0  0  0  0  0  0  0  0  0  0  0
    0.4830  -51.1110  -16.6353 C   0  0  0  0  0  0  0  0  0  0  0  0
   -0.4166  -51.5920  -15.6880 C   0  0  0  0  0  0  0  0  0  0  0  0
    0.0366  -51.8255  -14.4149 C   0  0  0  0  0  0  0  0  0  0  0  0
    1.3458  -51.5954  -14.0648 C   0  0  0  0  0  0  0  0  0  0  0  0
    1.7509  -51.8449  -12.7791 F   0  0  0  0  0  0  0  0  0  0  0  0
    2.2318  -51.1264  -14.9789 C   0  0  0  0  0  0  0  0  0  0  0  0
    3.9054  -50.8310  -14.5339 Cl  0  0  0  0  0  0  0  0  0  0  0  0
    1.7824  -50.8810  -16.2908 C   0  0  0  0  0  0  0  0  0  0  0  0
 21 22  1  0  0  0
 22  1  1  0  0  0
  1  2  2  0  0  0
  2  3  1  0  0  0
  3  4  2  0  0  0
  4  5  1  0  0  0
  5  6  2  0  0  0
  6  7  1  0  0  0
  7 23  1  0  0  0
 23 25  1  0  0  0
 25 26  2  0  0  0
 26 27  1  0  0  0
 27 28  2  0  0  0
 28 29  1  0  0  0
 28 30  1  0  0  0
 30 31  1  0  0  0
 30 32  2  0  0  0
  7  8  2  0  0  0
  8  9  1  0  0  0
  9 10  2  0  0  0
 10 11  1  0  0  0
 11 12  1  0  0  0
 12 13  2  0  0  0
 12 15  1  0  0  0
 15 16  2  0  0  0
 16 17  1  0  0  0
 17 18  1  0  0  0
 18 19  1  0  0  0
 18 20  1  0  0  0
 10  1  1  0  0  0
  8  3  1  0  0  0
 32 25  1  0  0  0
 23 24  1  0  0  0
 11 14  1  0  0  0
M  END
> <minimizedAffinity>
-4.57376

> <CNNscore>
0.3711551726

> <CNNaffinity>
6.4289445877

> <CNN_VS>
2.3861360550

> <CNNaffinity_variance>
0.4787038267

$$$$
[H]/C(C(=O)N([H])c1c(OC([H])([H])[H])c([H])c2nc([H])nc(N([H])c3c([H])c([H])c(F)c(Cl)c3[H])c2c1[H])=C(/[H])C([H])([H])N(C([H])([H])[H])C([H])([H])[H]


 32 34  0  0  0  0  0  0  0  0999 V2000
    0.6976  -51.9221  -24.8280 C   0  0  0  0  0  0  0  0  0  0  0  0
   -0.2608  -52.7889  -24.3526 C   0  0  0  0  0  0  0  0  0  0  0  0
   -0.2990  -53.1653  -23.0266 C   0  0  0  0  0  0  0  0  0  0  0  0
   -1.2150  -54.0059  -22.5378 N   0  0  0  0  0  0  0  0  0  0  0  0
   -1.2129  -54.3474  -21.2361 C   0  0  0  0  0  0  0  0  0  0  0  0
   -0.3235  -53.8849  -20.3676 N   0  0  0  0  0  0  0  0  0  0  0  0
    0.6355  -53.0181  -20.8270 C   0  0  0  0  0  0  0  0  0  0  0  0
    0.6537  -52.6546  -22.1548 C   0  0  0  0  0  0  0  0  0  0  0  0
    1.6138  -51.7750  -22.6750 C   0  0  0  0  0  0  0  0  0  0  0  0
    1.6596  -51.3953  -23.9914 C   0  0  0  0  0  0  0  0  0  0  0  0
    2.6171  -50.5161  -24.5269 N   0  0  0  0  0  0  0  0  0  0  0  0
    3.0088  -49.2825  -23.9899 C   0  0  0  0  0  0  0  0  0  0  0  0
    2.5362  -48.8018  -22.9354 O   0  0  0  0  0  0  0  0  0  0  0  0
    3.0712  -50.8576  -25.4366 H   0  0  0  0  0  0  0  0  0  0  0  0
    4.0277  -48.4846  -24.6777 C   0  0  0  0  0  0  0  0  0  0  0  0
    4.9752  -48.9656  -25.4261 C   0  0  0  0  0  0  0  0  0  0  0  0
    6.0115  -48.1466  -26.1219 C   0  0  0  0  0  0  0  0  0  0  0  0
    5.5292  -47.5285  -27.2716 N   0  0  0  0  0  0  0  0  0  0  0  0
    5.0194  -48.2995  -28.3362 C   0  0  0  0  0  0  0  0  0  0  0  0
    5.7655  -46.1519  -27.4884 C   0  0  0  0  0  0  0  0  0  0  0  0
   -0.0537  -52.3133  -27.0800 C   0  0  0  0  0  0  0  0  0  0  0  0
    0.6998  -51.5721  -26.1578 O   0  0  0  0  0  0  0  0  0  0  0  0
    1.5753  -52.4654  -19.9273 N   0  0  0  0  0  0  0  0  0  0  0  0
    2.5834  -52.7167  -19.8608 H   0  0  0  0  0  0  0  0  0  0  0  0
    1.1453  -51.4495  -18.9969 C   0  0  0  0  0  0  0  0  0  0  0  0
    1.7829  -50.2120  -19.0017 C   0  0  0  0  0  0  0  0  0  0  0  0
    1.3900  -49.2703  -18.0854 C   0  0  0  0  0  0  0  0  0  0  0  0
    0.3914  -49.5254  -17.1759 C   0  0  0  0  0  0  0  0  0  0  0  0
    0.0339  -48.5511  -16.2802 F   0  0  0  0  0  0  0  0  0  0  0  0
   -0.2371  -50.7276  -17.1611 C   0  0  0  0  0  0  0  0  0  0  0  0
   -1.5133  -51.0564  -15.9996 Cl  0  0  0  0  0  0  0  0  0  0  0  0
    0.1547  -51.7059  -18.0953 C   0  0  0  0  0  0  0  0  0  0  0  0
 21 22  1  0  0  0
 22  1  1  0  0  0
  1  2  2  0  0  0
  2  3  1  0  0  0
  3  4  2  0  0  0
  4  5  1  0  0  0
  5  6  2  0  0  0
  6  7  1  0  0  0
  7 23  1  0  0  0
 23 25  1  0  0  0
 25 26  2  0  0  0
 26 27  1  0  0  0
 27 28  2  0  0  0
 28 29  1  0  0  0
 28 30  1  0  0  0
 30 31  1  0  0  0
 30 32  2  0  0  0
  7  8  2  0  0  0
  8  9  1  0  0  0
  9 10  2  0  0  0
 10 11  1  0  0  0
 11 12  1  0  0  0
 12 13  2  0  0  0
 12 15  1  0  0  0
 15 16  2  0  0  0
 16 17  1  0  0  0
 17 18  1  0  0  0
 18 19  1  0  0  0
 18 20  1  0  0  0
 10  1  1  0  0  0
  8  3  1  0  0  0
 32 25  1  0  0  0
 23 24  1  0  0  0
 11 14  1  0  0  0
M  END
> <minimizedAffinity>
-6.46737

> <CNNscore>
0.3268056512

> <CNNaffinity>
6.6865463257

> <CNN_VS>
2.1852011681

> <CNNaffinity_variance>
0.3198854923

$$$$
[H]/C(C(=O)N([H])c1c(OC([H])([H])[H])c([H])c2nc([H])nc(N([H])c3c([H])c([H])c(F)c(Cl)c3[H])c2c1[H])=C(/[H])C([H])([H])N(C([H])([H])[H])C([H])([H])[H]


 32 34  0  0  0  0  0  0  0  0999 V2000
    0.0724  -52.7543  -24.4938 C   0  0  0  0  0  0  0  0  0  0  0  0
   -0.8378  -53.2726  -23.6000 C   0  0  0  0  0  0  0  0  0  0  0  0
   -0.5919  -53.2813  -22.2432 C   0  0  0  0  0  0  0  0  0  0  0  0
   -1.4548  -53.7793  -21.3533 N   0  0  0  0  0  0  0  0  0  0  0  0
   -1.1719  -53.7687  -20.0376 C   0  0  0  0  0  0  0  0  0  0  0  0
   -0.0443  -53.2752  -19.5434 N   0  0  0  0  0  0  0  0  0  0  0  0
    0.8705  -52.7530  -20.4224 C   0  0  0  0  0  0  0  0  0  0  0  0
    0.6033  -52.7532  -21.7729 C   0  0  0  0  0  0  0  0  0  0  0  0
    1.5057  -52.2346  -22.7126 C   0  0  0  0  0  0  0  0  0  0  0  0
    1.2698  -52.2218  -24.0629 C   0  0  0  0  0  0  0  0  0  0  0  0
    2.1658  -51.7070  -25.0162 N   0  0  0  0  0  0  0  0  0  0  0  0
    2.7777  -50.4467  -24.9902 C   0  0  0  0  0  0  0  0  0  0  0  0
    2.5920  -49.6024  -24.0852 O   0  0  0  0  0  0  0  0  0  0  0  0
    2.3779  -52.3739  -25.8291 H   0  0  0  0  0  0  0  0  0  0  0  0
    3.6927  -50.0640  -26.0690 C   0  0  0  0  0  0  0  0  0  0  0  0
    3.5390  -49.0378  -26.8517 C   0  0  0  0  0  0  0  0  0  0  0  0
    4.4744  -48.6554  -27.9507 C   0  0  0  0  0  0  0  0  0  0  0  0
    4.2696  -47.3568  -28.4068 N   0  0  0  0  0  0  0  0  0  0  0  0
    5.2837  -46.6810  -29.1156 C   0  0  0  0  0  0  0  0  0  0  0  0
    3.1507  -46.6171  -27.9606 C   0  0  0  0  0  0  0  0  0  0  0  0
   -1.4036  -52.1927  -26.3089 C   0  0  0  0  0  0  0  0  0  0  0  0
   -0.2123  -52.7649  -25.8390 O   0  0  0  0  0  0  0  0  0  0  0  0
    2.0654  -52.1755  -19.9358 N   0  0  0  0  0  0  0  0  0  0  0  0
    2.8230  -52.6719  -19.4224 H   0  0  0  0  0  0  0  0  0  0  0  0
    2.3054  -50.7688  -20.1510 C   0  0  0  0  0  0  0  0  0  0  0  0
    1.2477  -49.8730  -20.0221 C   0  0  0  0  0  0  0  0  0  0  0  0
    1.4821  -48.5443  -20.2683 C   0  0  0  0  0  0  0  0  0  0  0  0
    2.7266  -48.0901  -20.6349 C   0  0  0  0  0  0  0  0  0  0  0  0
    2.9110  -46.7522  -20.8697 F   0  0  0  0  0  0  0  0  0  0  0  0
    3.7652  -48.9535  -20.7643 C   0  0  0  0  0  0  0  0  0  0  0  0
    5.3565  -48.3758  -21.2332 Cl  0  0  0  0  0  0  0  0  0  0  0  0
    3.5411  -50.3214  -20.5154 C   0  0  0  0  0  0  0  0  0  0  0  0
 21 22  1  0  0  0
 22  1  1  0  0  0
  1  2  2  0  0  0
  2  3  1  0  0  0
  3  4  2  0  0  0
  4  5  1  0  0  0
  5  6  2  0  0  0
  6  7  1  0  0  0
  7 23  1  0  0  0
 23 25  1  0  0  0
 25 26  2  0  0  0
 26 27  1  0  0  0
 27 28  2  0  0  0
 28 29  1  0  0  0
 28 30  1  0  0  0
 30 31  1  0  0  0
 30 32  2  0  0  0
  7  8  2  0  0  0
  8  9  1  0  0  0
  9 10  2  0  0  0
 10 11  1  0  0  0
 11 12  1  0  0  0
 12 13  2  0  0  0
 12 15  1  0  0  0
 15 16  2  0  0  0
 16 17  1  0  0  0
 17 18  1  0  0  0
 18 19  1  0  0  0
 18 20  1  0  0  0
 10  1  1  0  0  0
  8  3  1  0  0  0
 32 25  1  0  0  0
 23 24  1  0  0  0
 11 14  1  0  0  0
M  END
> <minimizedAffinity>
-6.11987

> <CNNscore>
0.3185211718

> <CNNaffinity>
6.5875015259

> <CNN_VS>
2.0982587337

> <CNNaffinity_variance>
0.0673767999

$$$$
[H]/C(C(=O)N([H])c1c(OC([H])([H])[H])c([H])c2nc([H])nc(N([H])c3c([H])c([H])c(F)c(Cl)c3[H])c2c1[H])=C(/[H])C([H])([H])N(C([H])([H])[H])C([H])([H])[H]


 32 34  0  0  0  0  0  0  0  0999 V2000
    1.3261  -52.0667  -23.9541 C   0  0  0  0  0  0  0  0  0  0  0  0
    0.6614  -53.1275  -23.3808 C   0  0  0  0  0  0  0  0  0  0  0  0
    0.2388  -53.0900  -22.0687 C   0  0  0  0  0  0  0  0  0  0  0  0
   -0.4058  -54.1043  -21.4855 N   0  0  0  0  0  0  0  0  0  0  0  0
   -0.7981  -54.0247  -20.2006 C   0  0  0  0  0  0  0  0  0  0  0  0
   -0.5782  -52.9597  -19.4411 N   0  0  0  0  0  0  0  0  0  0  0  0
    0.0807  -51.8943  -20.0003 C   0  0  0  0  0  0  0  0  0  0  0  0
    0.4921  -51.9529  -21.3128 C   0  0  0  0  0  0  0  0  0  0  0  0
    1.1715  -50.8930  -21.9303 C   0  0  0  0  0  0  0  0  0  0  0  0
    1.5953  -50.9214  -23.2337 C   0  0  0  0  0  0  0  0  0  0  0  0
    2.2787  -49.8674  -23.8650 N   0  0  0  0  0  0  0  0  0  0  0  0
    2.5931  -48.6227  -23.3034 C   0  0  0  0  0  0  0  0  0  0  0  0
    2.2919  -48.2914  -22.1346 O   0  0  0  0  0  0  0  0  0  0  0  0
    2.5728  -50.0737  -24.8757 H   0  0  0  0  0  0  0  0  0  0  0  0
    3.3152  -47.6295  -24.1032 C   0  0  0  0  0  0  0  0  0  0  0  0
    3.8990  -46.5690  -23.6301 C   0  0  0  0  0  0  0  0  0  0  0  0
    4.6310  -45.5599  -24.4516 C   0  0  0  0  0  0  0  0  0  0  0  0
    5.9912  -45.8341  -24.5578 N   0  0  0  0  0  0  0  0  0  0  0  0
    6.8785  -45.4526  -23.5309 C   0  0  0  0  0  0  0  0  0  0  0  0
    6.5316  -46.2727  -25.7881 C   0  0  0  0  0  0  0  0  0  0  0  0
    1.8109  -53.3923  -25.9025 C   0  0  0  0  0  0  0  0  0  0  0  0
    1.7301  -52.1450  -25.2661 O   0  0  0  0  0  0  0  0  0  0  0  0
    0.2961  -50.7215  -19.2411 N   0  0  0  0  0  0  0  0  0  0  0  0
   -0.1884  -49.8090  -19.3693 H   0  0  0  0  0  0  0  0  0  0  0  0
    1.2661  -50.7434  -18.1727 C   0  0  0  0  0  0  0  0  0  0  0  0
    2.6077  -50.9532  -18.4791 C   0  0  0  0  0  0  0  0  0  0  0  0
    3.5124  -51.0109  -17.4500 C   0  0  0  0  0  0  0  0  0  0  0  0
    3.1210  -50.8670  -16.1403 C   0  0  0  0  0  0  0  0  0  0  0  0
    4.0633  -50.9317  -15.1467 F   0  0  0  0  0  0  0  0  0  0  0  0
    1.8164  -50.6626  -15.8290 C   0  0  0  0  0  0  0  0  0  0  0  0
    1.3133  -50.4789  -14.1559 Cl  0  0  0  0  0  0  0  0  0  0  0  0
    0.8744  -50.6012  -16.8742 C   0  0  0  0  0  0  0  0  0  0  0  0
 21 22  1  0  0  0
 22  1  1  0  0  0
  1  2  2  0  0  0
  2  3  1  0  0  0
  3  4  2  0  0  0
  4  5  1  0  0  0
  5  6  2  0  0  0
  6  7  1  0  0  0
  7 23  1  0  0  0
 23 25  1  0  0  0
 25 26  2  0  0  0
 26 27  1  0  0  0
 27 28  2  0  0  0
 28 29  1  0  0  0
 28 30  1  0  0  0
 30 31  1  0  0  0
 30 32  2  0  0  0
  7  8  2  0  0  0
  8  9  1  0  0  0
  9 10  2  0  0  0
 10 11  1  0  0  0
 11 12  1  0  0  0
 12 13  2  0  0  0
 12 15  1  0  0  0
 15 16  2  0  0  0
 16 17  1  0  0  0
 17 18  1  0  0  0
 18 19  1  0  0  0
 18 20  1  0  0  0
 10  1  1  0  0  0
  8  3  1  0  0  0
 32 25  1  0  0  0
 23 24  1  0  0  0
 11 14  1  0  0  0
M  END
> <minimizedAffinity>
-5.45696

> <CNNscore>
0.2493065447

> <CNNaffinity>
6.4709372520

> <CNN_VS>
1.6132470369

> <CNNaffinity_variance>
0.4545236528

$$$$
[H]/C(C(=O)N([H])c1c(OC([H])([H])[H])c([H])c2nc([H])nc(N([H])c3c([H])c([H])c(F)c(Cl)c3[H])c2c1[H])=C(/[H])C([H])([H])N1C([H])([H])C([H])([H])C([H])([H])C1([H])[H]


 34 37  0  0  0  0  0  0  0  0999 V2000
   -0.0906  -52.3050  -19.4396 C   0  0  0  0  0  0  0  0  0  0  0  0
   -0.8355  -53.3645  -19.8807 C   0  0  0  0  0  0  0  0  0  0  0  0
   -0.8081  -53.7209  -21.2113 C   0  0  0  0  0  0  0  0  0  0  0  0
   -1.5302  -54.7613  -21.6736 N   0  0  0  0  0  0  0  0  0  0  0  0
   -1.5207  -55.1300  -22.9617 C   0  0  0  0  0  0  0  0  0  0  0  0
   -0.7626  -54.4311  -23.8063 N   0  0  0  0  0  0  0  0  0  0  0  0
    0.0036  -53.3776  -23.4867 C   0  0  0  0  0  0  0  0  0  0  0  0
   -0.0353  -53.0261  -22.1313 C   0  0  0  0  0  0  0  0  0  0  0  0
    0.7118  -51.9639  -21.6902 C   0  0  0  0  0  0  0  0  0  0  0  0
    0.6988  -51.5900  -20.3611 C   0  0  0  0  0  0  0  0  0  0  0  0
    1.4415  -50.5172  -19.8569 N   0  0  0  0  0  0  0  0  0  0  0  0
    2.7442  -50.5392  -19.3137 C   0  0  0  0  0  0  0  0  0  0  0  0
    3.4413  -51.5539  -19.2035 O   0  0  0  0  0  0  0  0  0  0  0  0
    0.9465  -49.5445  -19.8901 H   0  0  0  0  0  0  0  0  0  0  0  0
    3.3633  -49.2782  -18.8267 C   0  0  0  0  0  0  0  0  0  0  0  0
    2.7651  -48.4613  -18.0098 C   0  0  0  0  0  0  0  0  0  0  0  0
    3.3775  -47.2225  -17.5336 C   0  0  0  0  0  0  0  0  0  0  0  0
    2.9030  -46.8041  -16.2377 N   0  0  0  0  0  0  0  0  0  0  0  0
    3.8556  -45.9538  -15.5562 C   0  0  0  0  0  0  0  0  0  0  0  0
    4.6043  -46.7863  -14.5708 C   0  0  0  0  0  0  0  0  0  0  0  0
    4.0127  -48.1527  -14.6391 C   0  0  0  0  0  0  0  0  0  0  0  0
    2.7437  -47.9807  -15.4096 C   0  0  0  0  0  0  0  0  0  0  0  0
   -1.0870  -52.5508  -17.2665 C   0  0  0  0  0  0  0  0  0  0  0  0
   -0.1126  -51.9327  -18.0782 O   0  0  0  0  0  0  0  0  0  0  0  0
    0.7432  -52.6777  -24.4557 N   0  0  0  0  0  0  0  0  0  0  0  0
    1.5986  -52.0970  -24.2210 H   0  0  0  0  0  0  0  0  0  0  0  0
    0.4005  -52.6904  -25.8404 C   0  0  0  0  0  0  0  0  0  0  0  0
    1.4407  -52.8733  -26.7746 C   0  0  0  0  0  0  0  0  0  0  0  0
    1.2503  -52.9368  -28.1259 C   0  0  0  0  0  0  0  0  0  0  0  0
   -0.0415  -52.8128  -28.5894 C   0  0  0  0  0  0  0  0  0  0  0  0
   -0.2999  -52.8675  -29.9375 F   0  0  0  0  0  0  0  0  0  0  0  0
   -1.0916  -52.6337  -27.7280 C   0  0  0  0  0  0  0  0  0  0  0  0
   -2.7466  -52.4707  -28.2616 Cl  0  0  0  0  0  0  0  0  0  0  0  0
   -0.8633  -52.5737  -26.3504 C   0  0  0  0  0  0  0  0  0  0  0  0
 23 24  1  0  0  0
 24  1  1  0  0  0
  1  2  2  0  0  0
  2  3  1  0  0  0
  3  4  2  0  0  0
  4  5  1  0  0  0
  5  6  2  0  0  0
  6  7  1  0  0  0
  7 25  1  0  0  0
 25 27  1  0  0  0
 27 28  2  0  0  0
 28 29  1  0  0  0
 29 30  2  0  0  0
 30 31  1  0  0  0
 30 32  1  0  0  0
 32 33  1  0  0  0
 32 34  2  0  0  0
  7  8  2  0  0  0
  8  9  1  0  0  0
  9 10  2  0  0  0
 10 11  1  0  0  0
 11 12  1  0  0  0
 12 13  2  0  0  0
 12 15  1  0  0  0
 15 16  2  0  0  0
 16 17  1  0  0  0
 17 18  1  0  0  0
 18 19  1  0  0  0
 19 20  1  0  0  0
 20 21  1  0  0  0
 21 22  1  0  0  0
 10  1  1  0  0  0
 22 18  1  0  0  0
  8  3  1  0  0  0
 34 27  1  0  0  0
 25 26  1  0  0  0
 11 14  1  0  0  0
M  END
> <minimizedAffinity>
-8.36164

> <CNNscore>
0.9638077617

> <CNNaffinity>
7.6048269272

> <CNN_VS>
7.3295912743

> <CNNaffinity_variance>
0.1077711731

$$$$
[H]/C(C(=O)N([H])c1c(OC([H])([H])[H])c([H])c2nc([H])nc(N([H])c3c([H])c([H])c(F)c(Cl)c3[H])c2c1[H])=C(/[H])C([H])([H])N1C([H])([H])C([H])([H])C([H])([H])C1([H])[H]


 34 37  0  0  0  0  0  0  0  0999 V2000
    0.1796  -52.1753  -19.4191 C   0  0  0  0  0  0  0  0  0  0  0  0
   -0.6011  -53.2319  -19.8015 C   0  0  0  0  0  0  0  0  0  0  0  0
   -0.6558  -53.6055  -21.1265 C   0  0  0  0  0  0  0  0  0  0  0  0
   -1.4148  -54.6435  -21.5316 N   0  0  0  0  0  0  0  0  0  0  0  0
   -1.4849  -55.0288  -22.8129 C   0  0  0  0  0  0  0  0  0  0  0  0
   -0.7704  -54.3494  -23.7099 N   0  0  0  0  0  0  0  0  0  0  0  0
    0.0244  -53.3007  -23.4500 C   0  0  0  0  0  0  0  0  0  0  0  0
    0.0688  -52.9314  -22.0995 C   0  0  0  0  0  0  0  0  0  0  0  0
    0.8518  -51.8722  -21.7173 C   0  0  0  0  0  0  0  0  0  0  0  0
    0.9209  -51.4811  -20.3949 C   0  0  0  0  0  0  0  0  0  0  0  0
    1.7033  -50.4104  -19.9496 N   0  0  0  0  0  0  0  0  0  0  0  0
    1.5538  -49.0391  -20.2496 C   0  0  0  0  0  0  0  0  0  0  0  0
    0.6718  -48.5726  -20.9790 O   0  0  0  0  0  0  0  0  0  0  0  0
    2.5310  -50.6746  -19.2884 H   0  0  0  0  0  0  0  0  0  0  0  0
    2.4997  -48.0486  -19.6709 C   0  0  0  0  0  0  0  0  0  0  0  0
    3.6151  -47.7090  -20.2479 C   0  0  0  0  0  0  0  0  0  0  0  0
    4.5423  -46.7348  -19.6752 C   0  0  0  0  0  0  0  0  0  0  0  0
    5.8529  -46.7617  -20.2762 N   0  0  0  0  0  0  0  0  0  0  0  0
    6.2461  -48.0982  -20.6685 C   0  0  0  0  0  0  0  0  0  0  0  0
    7.1537  -48.6456  -19.6191 C   0  0  0  0  0  0  0  0  0  0  0  0
    7.3450  -47.5570  -18.6190 C   0  0  0  0  0  0  0  0  0  0  0  0
    6.8165  -46.3288  -19.2866 C   0  0  0  0  0  0  0  0  0  0  0  0
   -0.8302  -52.1855  -17.2383 C   0  0  0  0  0  0  0  0  0  0  0  0
    0.2416  -51.7853  -18.0640 O   0  0  0  0  0  0  0  0  0  0  0  0
    0.7130  -52.6217  -24.4700 N   0  0  0  0  0  0  0  0  0  0  0  0
    1.5679  -52.0213  -24.2889 H   0  0  0  0  0  0  0  0  0  0  0  0
    0.3148  -52.6838  -25.8384 C   0  0  0  0  0  0  0  0  0  0  0  0
    1.3061  -52.9670  -26.8005 C   0  0  0  0  0  0  0  0  0  0  0  0
    1.0586  -53.0862  -28.1387 C   0  0  0  0  0  0  0  0  0  0  0  0
   -0.2427  -52.9168  -28.5592 C   0  0  0  0  0  0  0  0  0  0  0  0
   -0.5575  -53.0235  -29.8921 F   0  0  0  0  0  0  0  0  0  0  0  0
   -1.2469  -52.6404  -27.6692 C   0  0  0  0  0  0  0  0  0  0  0  0
   -2.9115  -52.4163  -28.1479 Cl  0  0  0  0  0  0  0  0  0  0  0  0
   -0.9608  -52.5253  -26.3060 C   0  0  0  0  0  0  0  0  0  0  0  0
 23 24  1  0  0  0
 24  1  1  0  0  0
  1  2  2  0  0  0
  2  3  1  0  0  0
  3  4  2  0  0  0
  4  5  1  0  0  0
  5  6  2  0  0  0
  6  7  1  0  0  0
  7 25  1  0  0  0
 25 27  1  0  0  0
 27 28  2  0  0  0
 28 29  1  0  0  0
 29 30  2  0  0  0
 30 31  1  0  0  0
 30 32  1  0  0  0
 32 33  1  0  0  0
 32 34  2  0  0  0
  7  8  2  0  0  0
  8  9  1  0  0  0
  9 10  2  0  0  0
 10 11  1  0  0  0
 11 12  1  0  0  0
 12 13  2  0  0  0
 12 15  1  0  0  0
 15 16  2  0  0  0
 16 17  1  0  0  0
 17 18  1  0  0  0
 18 19  1  0  0  0
 19 20  1  0  0  0
 20 21  1  0  0  0
 21 22  1  0  0  0
 10  1  1  0  0  0
 22 18  1  0  0  0
  8  3  1  0  0  0
 34 27  1  0  0  0
 25 26  1  0  0  0
 11 14  1  0  0  0
M  END
> <minimizedAffinity>
-8.25910

> <CNNscore>
0.9623460770

> <CNNaffinity>
7.7374563217

> <CNN_VS>
7.4461107254

> <CNNaffinity_variance>
0.1174532771

$$$$
[H]/C(C(=O)N([H])c1c(OC([H])([H])[H])c([H])c2nc([H])nc(N([H])c3c([H])c([H])c(F)c(Cl)c3[H])c2c1[H])=C(/[H])C([H])([H])N1C([H])([H])C([H])([H])C([H])([H])C1([H])[H]


 34 37  0  0  0  0  0  0  0  0999 V2000
   -0.1063  -51.9961  -19.3756 C   0  0  0  0  0  0  0  0  0  0  0  0
   -0.6254  -53.2043  -19.7536 C   0  0  0  0  0  0  0  0  0  0  0  0
   -0.7100  -53.5314  -21.0894 C   0  0  0  0  0  0  0  0  0  0  0  0
   -1.2152  -54.7151  -21.4908 N   0  0  0  0  0  0  0  0  0  0  0  0
   -1.3075  -55.0590  -22.7824 C   0  0  0  0  0  0  0  0  0  0  0  0
   -0.8788  -54.1861  -23.6939 N   0  0  0  0  0  0  0  0  0  0  0  0
   -0.3559  -52.9774  -23.4392 C   0  0  0  0  0  0  0  0  0  0  0  0
   -0.2776  -52.6581  -22.0776 C   0  0  0  0  0  0  0  0  0  0  0  0
    0.2431  -51.4468  -21.6998 C   0  0  0  0  0  0  0  0  0  0  0  0
    0.3369  -51.0990  -20.3668 C   0  0  0  0  0  0  0  0  0  0  0  0
    0.8600  -49.8791  -19.9255 N   0  0  0  0  0  0  0  0  0  0  0  0
    2.2157  -49.4989  -19.8242 C   0  0  0  0  0  0  0  0  0  0  0  0
    3.1716  -50.2223  -20.1251 O   0  0  0  0  0  0  0  0  0  0  0  0
    0.1232  -49.1324  -19.6227 H   0  0  0  0  0  0  0  0  0  0  0  0
    2.5677  -48.1430  -19.3257 C   0  0  0  0  0  0  0  0  0  0  0  0
    3.5433  -47.4359  -19.8164 C   0  0  0  0  0  0  0  0  0  0  0  0
    3.8859  -46.1033  -19.3231 C   0  0  0  0  0  0  0  0  0  0  0  0
    5.2558  -45.7288  -19.5737 N   0  0  0  0  0  0  0  0  0  0  0  0
    6.1291  -46.8798  -19.6601 C   0  0  0  0  0  0  0  0  0  0  0  0
    6.8293  -47.0348  -18.3523 C   0  0  0  0  0  0  0  0  0  0  0  0
    6.3943  -45.8889  -17.5039 C   0  0  0  0  0  0  0  0  0  0  0  0
    5.7262  -44.9454  -18.4510 C   0  0  0  0  0  0  0  0  0  0  0  0
   -0.9181  -52.2912  -17.1329 C   0  0  0  0  0  0  0  0  0  0  0  0
   -0.0158  -51.6524  -18.0095 O   0  0  0  0  0  0  0  0  0  0  0  0
    0.0362  -52.1071  -24.4710 N   0  0  0  0  0  0  0  0  0  0  0  0
    0.4437  -51.1450  -24.2912 H   0  0  0  0  0  0  0  0  0  0  0  0
   -0.0845  -52.4482  -25.8509 C   0  0  0  0  0  0  0  0  0  0  0  0
   -1.3026  -52.1546  -26.4977 C   0  0  0  0  0  0  0  0  0  0  0  0
   -1.5424  -52.3986  -27.8202 C   0  0  0  0  0  0  0  0  0  0  0  0
   -0.5234  -52.9663  -28.5539 C   0  0  0  0  0  0  0  0  0  0  0  0
   -0.7012  -53.2373  -29.8888 F   0  0  0  0  0  0  0  0  0  0  0  0
    0.6815  -53.2726  -27.9784 C   0  0  0  0  0  0  0  0  0  0  0  0
    2.0054  -53.9926  -28.8611 Cl  0  0  0  0  0  0  0  0  0  0  0  0
    0.8954  -53.0097  -26.6224 C   0  0  0  0  0  0  0  0  0  0  0  0
 23 24  1  0  0  0
 24  1  1  0  0  0
  1  2  2  0  0  0
  2  3  1  0  0  0
  3  4  2  0  0  0
  4  5  1  0  0  0
  5  6  2  0  0  0
  6  7  1  0  0  0
  7 25  1  0  0  0
 25 27  1  0  0  0
 27 28  2  0  0  0
 28 29  1  0  0  0
 29 30  2  0  0  0
 30 31  1  0  0  0
 30 32  1  0  0  0
 32 33  1  0  0  0
 32 34  2  0  0  0
  7  8  2  0  0  0
  8  9  1  0  0  0
  9 10  2  0  0  0
 10 11  1  0  0  0
 11 12  1  0  0  0
 12 13  2  0  0  0
 12 15  1  0  0  0
 15 16  2  0  0  0
 16 17  1  0  0  0
 17 18  1  0  0  0
 18 19  1  0  0  0
 19 20  1  0  0  0
 20 21  1  0  0  0
 21 22  1  0  0  0
 10  1  1  0  0  0
 22 18  1  0  0  0
  8  3  1  0  0  0
 34 27  1  0  0  0
 25 26  1  0  0  0
 11 14  1  0  0  0
M  END
> <minimizedAffinity>
-7.81497

> <CNNscore>
0.8676273227

> <CNNaffinity>
7.4475049973

> <CNN_VS>
6.4616589546

> <CNNaffinity_variance>
0.2298338413

$$$$
[H]/C(C(=O)N([H])c1c(OC([H])([H])[H])c([H])c2nc([H])nc(N([H])c3c([H])c([H])c(F)c(Cl)c3[H])c2c1[H])=C(/[H])C([H])([H])N1C([H])([H])C([H])([H])C([H])([H])C1([H])[H]


 34 37  0  0  0  0  0  0  0  0999 V2000
   -0.5775  -52.8435  -19.5221 C   0  0  0  0  0  0  0  0  0  0  0  0
   -1.0107  -53.9298  -20.2321 C   0  0  0  0  0  0  0  0  0  0  0  0
   -0.8609  -53.9637  -21.6013 C   0  0  0  0  0  0  0  0  0  0  0  0
   -1.2767  -55.0216  -22.3262 N   0  0  0  0  0  0  0  0  0  0  0  0
   -1.1419  -55.0811  -23.6579 C   0  0  0  0  0  0  0  0  0  0  0  0
   -0.5725  -54.0461  -24.2754 N   0  0  0  0  0  0  0  0  0  0  0  0
   -0.1144  -52.9332  -23.6833 C   0  0  0  0  0  0  0  0  0  0  0  0
   -0.2746  -52.9122  -22.2919 C   0  0  0  0  0  0  0  0  0  0  0  0
    0.1601  -51.8228  -21.5812 C   0  0  0  0  0  0  0  0  0  0  0  0
    0.0197  -51.7684  -20.2086 C   0  0  0  0  0  0  0  0  0  0  0  0
    0.4459  -50.6841  -19.4345 N   0  0  0  0  0  0  0  0  0  0  0  0
    1.7266  -50.4557  -18.8865 C   0  0  0  0  0  0  0  0  0  0  0  0
    2.6927  -51.2148  -19.0206 O   0  0  0  0  0  0  0  0  0  0  0  0
   -0.3107  -49.9233  -19.2321 H   0  0  0  0  0  0  0  0  0  0  0  0
    1.9792  -49.2296  -18.0842 C   0  0  0  0  0  0  0  0  0  0  0  0
    2.1038  -49.2400  -16.7893 C   0  0  0  0  0  0  0  0  0  0  0  0
    2.3520  -48.0321  -16.0045 C   0  0  0  0  0  0  0  0  0  0  0  0
    1.6255  -47.9925  -14.7594 N   0  0  0  0  0  0  0  0  0  0  0  0
    0.4653  -47.1302  -14.8317 C   0  0  0  0  0  0  0  0  0  0  0  0
    0.8158  -45.8213  -14.2082 C   0  0  0  0  0  0  0  0  0  0  0  0
    2.2089  -45.9591  -13.6959 C   0  0  0  0  0  0  0  0  0  0  0  0
    2.4900  -47.4261  -13.7458 C   0  0  0  0  0  0  0  0  0  0  0  0
   -2.0154  -53.0651  -17.6093 C   0  0  0  0  0  0  0  0  0  0  0  0
   -0.7268  -52.8000  -18.1192 O   0  0  0  0  0  0  0  0  0  0  0  0
    0.4398  -51.8743  -24.4232 N   0  0  0  0  0  0  0  0  0  0  0  0
   -0.1261  -51.2820  -25.0963 H   0  0  0  0  0  0  0  0  0  0  0  0
    1.8158  -51.5097  -24.3299 C   0  0  0  0  0  0  0  0  0  0  0  0
    2.1395  -50.1387  -24.3935 C   0  0  0  0  0  0  0  0  0  0  0  0
    3.4102  -49.6490  -24.2862 C   0  0  0  0  0  0  0  0  0  0  0  0
    4.4269  -50.5615  -24.1053 C   0  0  0  0  0  0  0  0  0  0  0  0
    5.7272  -50.1334  -23.9907 F   0  0  0  0  0  0  0  0  0  0  0  0
    4.1714  -51.9056  -24.0355 C   0  0  0  0  0  0  0  0  0  0  0  0
    5.4212  -53.1041  -23.8078 Cl  0  0  0  0  0  0  0  0  0  0  0  0
    2.8596  -52.3747  -24.1483 C   0  0  0  0  0  0  0  0  0  0  0  0
 23 24  1  0  0  0
 24  1  1  0  0  0
  1  2  2  0  0  0
  2  3  1  0  0  0
  3  4  2  0  0  0
  4  5  1  0  0  0
  5  6  2  0  0  0
  6  7  1  0  0  0
  7 25  1  0  0  0
 25 27  1  0  0  0
 27 28  2  0  0  0
 28 29  1  0  0  0
 29 30  2  0  0  0
 30 31  1  0  0  0
 30 32  1  0  0  0
 32 33  1  0  0  0
 32 34  2  0  0  0
  7  8  2  0  0  0
  8  9  1  0  0  0
  9 10  2  0  0  0
 10 11  1  0  0  0
 11 12  1  0  0  0
 12 13  2  0  0  0
 12 15  1  0  0  0
 15 16  2  0  0  0
 16 17  1  0  0  0
 17 18  1  0  0  0
 18 19  1  0  0  0
 19 20  1  0  0  0
 20 21  1  0  0  0
 21 22  1  0  0  0
 10  1  1  0  0  0
 22 18  1  0  0  0
  8  3  1  0  0  0
 34 27  1  0  0  0
 25 26  1  0  0  0
 11 14  1  0  0  0
M  END
> <minimizedAffinity>
-6.77055

> <CNNscore>
0.7150330544

> <CNNaffinity>
6.9557633400

> <CNN_VS>
4.9736008644

> <CNNaffinity_variance>
0.0311995111

$$$$
[H]/C(C(=O)N([H])c1c(OC([H])([H])[H])c([H])c2nc([H])nc(N([H])c3c([H])c([H])c(F)c(Cl)c3[H])c2c1[H])=C(/[H])C([H])([H])N1C([H])([H])C([H])([H])C([H])([H])C1([H])[H]


 34 37  0  0  0  0  0  0  0  0999 V2000
    0.4345  -51.6098  -19.0612 C   0  0  0  0  0  0  0  0  0  0  0  0
   -0.2360  -52.7725  -19.3268 C   0  0  0  0  0  0  0  0  0  0  0  0
   -0.4450  -53.1662  -20.6306 C   0  0  0  0  0  0  0  0  0  0  0  0
   -1.1006  -54.3076  -20.9218 N   0  0  0  0  0  0  0  0  0  0  0  0
   -1.3161  -54.7145  -22.1800 C   0  0  0  0  0  0  0  0  0  0  0  0
   -0.8581  -53.9501  -23.1713 N   0  0  0  0  0  0  0  0  0  0  0  0
   -0.1920  -52.7946  -23.0289 C   0  0  0  0  0  0  0  0  0  0  0  0
    0.0117  -52.4064  -21.6985 C   0  0  0  0  0  0  0  0  0  0  0  0
    0.6840  -51.2408  -21.4334 C   0  0  0  0  0  0  0  0  0  0  0  0
    0.9042  -50.8278  -20.1344 C   0  0  0  0  0  0  0  0  0  0  0  0
    1.5842  -49.6501  -19.8068 N   0  0  0  0  0  0  0  0  0  0  0  0
    2.9639  -49.3783  -19.9307 C   0  0  0  0  0  0  0  0  0  0  0  0
    3.8002  -50.1778  -20.3656 O   0  0  0  0  0  0  0  0  0  0  0  0
    0.9656  -48.8449  -19.4055 H   0  0  0  0  0  0  0  0  0  0  0  0
    3.4953  -48.0511  -19.5222 C   0  0  0  0  0  0  0  0  0  0  0  0
    3.4788  -47.0083  -20.2998 C   0  0  0  0  0  0  0  0  0  0  0  0
    4.0025  -45.7053  -19.8940 C   0  0  0  0  0  0  0  0  0  0  0  0
    4.0575  -44.7446  -20.9681 N   0  0  0  0  0  0  0  0  0  0  0  0
    3.7661  -45.3447  -22.2525 C   0  0  0  0  0  0  0  0  0  0  0  0
    5.0580  -45.6034  -22.9517 C   0  0  0  0  0  0  0  0  0  0  0  0
    6.1304  -45.0687  -22.0651 C   0  0  0  0  0  0  0  0  0  0  0  0
    5.4099  -44.2358  -21.0549 C   0  0  0  0  0  0  0  0  0  0  0  0
   -0.4895  -51.0483  -16.9150 C   0  0  0  0  0  0  0  0  0  0  0  0
    0.6532  -51.1985  -17.7288 O   0  0  0  0  0  0  0  0  0  0  0  0
    0.2214  -52.0358  -24.1375 N   0  0  0  0  0  0  0  0  0  0  0  0
    0.8291  -51.1714  -24.0514 H   0  0  0  0  0  0  0  0  0  0  0  0
   -0.1465  -52.3674  -25.4753 C   0  0  0  0  0  0  0  0  0  0  0  0
   -1.4414  -52.0157  -25.9087 C   0  0  0  0  0  0  0  0  0  0  0  0
   -1.9123  -52.2449  -27.1704 C   0  0  0  0  0  0  0  0  0  0  0  0
   -1.0594  -52.8577  -28.0626 C   0  0  0  0  0  0  0  0  0  0  0  0
   -1.4727  -53.1166  -29.3468 F   0  0  0  0  0  0  0  0  0  0  0  0
    0.2099  -53.2213  -27.6972 C   0  0  0  0  0  0  0  0  0  0  0  0
    1.3306  -54.0001  -28.7870 Cl  0  0  0  0  0  0  0  0  0  0  0  0
    0.6619  -52.9721  -26.3983 C   0  0  0  0  0  0  0  0  0  0  0  0
 23 24  1  0  0  0
 24  1  1  0  0  0
  1  2  2  0  0  0
  2  3  1  0  0  0
  3  4  2  0  0  0
  4  5  1  0  0  0
  5  6  2  0  0  0
  6  7  1  0  0  0
  7 25  1  0  0  0
 25 27  1  0  0  0
 27 28  2  0  0  0
 28 29  1  0  0  0
 29 30  2  0  0  0
 30 31  1  0  0  0
 30 32  1  0  0  0
 32 33  1  0  0  0
 32 34  2  0  0  0
  7  8  2  0  0  0
  8  9  1  0  0  0
  9 10  2  0  0  0
 10 11  1  0  0  0
 11 12  1  0  0  0
 12 13  2  0  0  0
 12 15  1  0  0  0
 15 16  2  0  0  0
 16 17  1  0  0  0
 17 18  1  0  0  0
 18 19  1  0  0  0
 19 20  1  0  0  0
 20 21  1  0  0  0
 21 22  1  0  0  0
 10  1  1  0  0  0
 22 18  1  0  0  0
  8  3  1  0  0  0
 34 27  1  0  0  0
 25 26  1  0  0  0
 11 14  1  0  0  0
M  END
> <minimizedAffinity>
-7.54600

> <CNNscore>
0.6771611571

> <CNNaffinity>
7.3479599953

> <CNN_VS>
4.9757533073

> <CNNaffinity_variance>
0.3222948313

$$$$
[H]/C(C(=O)N([H])c1c(OC([H])([H])[H])c([H])c2nc([H])nc(N([H])c3c([H])c([H])c(F)c(Cl)c3[H])c2c1[H])=C(/[H])C([H])([H])N1C([H])([H])C([H])([H])C([H])([H])C1([H])[H]


 34 37  0  0  0  0  0  0  0  0999 V2000
    0.6233  -52.0588  -20.2106 C   0  0  0  0  0  0  0  0  0  0  0  0
   -0.6357  -52.5467  -19.9897 C   0  0  0  0  0  0  0  0  0  0  0  0
   -1.2114  -53.4075  -20.8986 C   0  0  0  0  0  0  0  0  0  0  0  0
   -2.4495  -53.9053  -20.7059 N   0  0  0  0  0  0  0  0  0  0  0  0
   -3.0320  -54.7448  -21.5724 C   0  0  0  0  0  0  0  0  0  0  0  0
   -2.3479  -55.0921  -22.6624 N   0  0  0  0  0  0  0  0  0  0  0  0
   -1.1133  -54.6756  -22.9809 C   0  0  0  0  0  0  0  0  0  0  0  0
   -0.5415  -53.8002  -22.0489 C   0  0  0  0  0  0  0  0  0  0  0  0
    0.7207  -53.3118  -22.2712 C   0  0  0  0  0  0  0  0  0  0  0  0
    1.3161  -52.4480  -21.3734 C   0  0  0  0  0  0  0  0  0  0  0  0
    2.5999  -51.9212  -21.5492 N   0  0  0  0  0  0  0  0  0  0  0  0
    3.4245  -52.0006  -22.6922 C   0  0  0  0  0  0  0  0  0  0  0  0
    3.1133  -52.5712  -23.7435 O   0  0  0  0  0  0  0  0  0  0  0  0
    3.0098  -51.3830  -20.6922 H   0  0  0  0  0  0  0  0  0  0  0  0
    4.7704  -51.3688  -22.6779 C   0  0  0  0  0  0  0  0  0  0  0  0
    5.0585  -50.3248  -21.9571 C   0  0  0  0  0  0  0  0  0  0  0  0
    6.3830  -49.7069  -21.9462 C   0  0  0  0  0  0  0  0  0  0  0  0
    6.3644  -48.2948  -22.2383 N   0  0  0  0  0  0  0  0  0  0  0  0
    5.0813  -47.8597  -22.7473 C   0  0  0  0  0  0  0  0  0  0  0  0
    5.1769  -47.7595  -24.2324 C   0  0  0  0  0  0  0  0  0  0  0  0
    6.5885  -48.0828  -24.5857 C   0  0  0  0  0  0  0  0  0  0  0  0
    7.3272  -48.0343  -23.2874 C   0  0  0  0  0  0  0  0  0  0  0  0
    1.6596  -49.9324  -19.7860 C   0  0  0  0  0  0  0  0  0  0  0  0
    1.2209  -51.1763  -19.2851 O   0  0  0  0  0  0  0  0  0  0  0  0
   -0.4837  -55.0679  -24.1749 N   0  0  0  0  0  0  0  0  0  0  0  0
   -0.1343  -56.0540  -24.3465 H   0  0  0  0  0  0  0  0  0  0  0  0
   -0.2606  -54.1662  -25.2576 C   0  0  0  0  0  0  0  0  0  0  0  0
    1.0483  -53.6778  -25.4488 C   0  0  0  0  0  0  0  0  0  0  0  0
    1.4078  -52.8350  -26.4621 C   0  0  0  0  0  0  0  0  0  0  0  0
    0.4213  -52.4472  -27.3426 C   0  0  0  0  0  0  0  0  0  0  0  0
    0.7178  -51.6005  -28.3830 F   0  0  0  0  0  0  0  0  0  0  0  0
   -0.8677  -52.8905  -27.2061 C   0  0  0  0  0  0  0  0  0  0  0  0
   -2.1554  -52.4304  -28.2925 Cl  0  0  0  0  0  0  0  0  0  0  0  0
   -1.2031  -53.7529  -26.1586 C   0  0  0  0  0  0  0  0  0  0  0  0
 23 24  1  0  0  0
 24  1  1  0  0  0
  1  2  2  0  0  0
  2  3  1  0  0  0
  3  4  2  0  0  0
  4  5  1  0  0  0
  5  6  2  0  0  0
  6  7  1  0  0  0
  7 25  1  0  0  0
 25 27  1  0  0  0
 27 28  2  0  0  0
 28 29  1  0  0  0
 29 30  2  0  0  0
 30 31  1  0  0  0
 30 32  1  0  0  0
 32 33  1  0  0  0
 32 34  2  0  0  0
  7  8  2  0  0  0
  8  9  1  0  0  0
  9 10  2  0  0  0
 10 11  1  0  0  0
 11 12  1  0  0  0
 12 13  2  0  0  0
 12 15  1  0  0  0
 15 16  2  0  0  0
 16 17  1  0  0  0
 17 18  1  0  0  0
 18 19  1  0  0  0
 19 20  1  0  0  0
 20 21  1  0  0  0
 21 22  1  0  0  0
 10  1  1  0  0  0
 22 18  1  0  0  0
  8  3  1  0  0  0
 34 27  1  0  0  0
 25 26  1  0  0  0
 11 14  1  0  0  0
M  END
> <minimizedAffinity>
-3.35759

> <CNNscore>
0.6131315231

> <CNNaffinity>
7.2723822594

> <CNN_VS>
4.4589266777

> <CNNaffinity_variance>
0.2204248458

$$$$
[H]/C(C(=O)N([H])c1c(OC([H])([H])[H])c([H])c2nc([H])nc(N([H])c3c([H])c([H])c(F)c(Cl)c3[H])c2c1[H])=C(/[H])C([H])([H])N1C([H])([H])C([H])([H])C([H])([H])C1([H])[H]


 34 37  0  0  0  0  0  0  0  0999 V2000
   -0.3166  -52.1856  -19.2954 C   0  0  0  0  0  0  0  0  0  0  0  0
   -0.8689  -53.3384  -19.7833 C   0  0  0  0  0  0  0  0  0  0  0  0
   -0.8418  -53.5977  -21.1363 C   0  0  0  0  0  0  0  0  0  0  0  0
   -1.3764  -54.7260  -21.6448 N   0  0  0  0  0  0  0  0  0  0  0  0
   -1.3624  -55.0036  -22.9555 C   0  0  0  0  0  0  0  0  0  0  0  0
   -0.7939  -54.1199  -23.7755 N   0  0  0  0  0  0  0  0  0  0  0  0
   -0.2257  -52.9612  -23.4099 C   0  0  0  0  0  0  0  0  0  0  0  0
   -0.2620  -52.7104  -22.0322 C   0  0  0  0  0  0  0  0  0  0  0  0
    0.2920  -51.5546  -21.5442 C   0  0  0  0  0  0  0  0  0  0  0  0
    0.2757  -51.2751  -20.1921 C   0  0  0  0  0  0  0  0  0  0  0  0
    0.8264  -50.1138  -19.6402 N   0  0  0  0  0  0  0  0  0  0  0  0
    2.1788  -49.7090  -19.6352 C   0  0  0  0  0  0  0  0  0  0  0  0
    3.1055  -50.3522  -20.1402 O   0  0  0  0  0  0  0  0  0  0  0  0
    0.1172  -49.4409  -19.1541 H   0  0  0  0  0  0  0  0  0  0  0  0
    2.5639  -48.4266  -18.9888 C   0  0  0  0  0  0  0  0  0  0  0  0
    3.4355  -47.6064  -19.4990 C   0  0  0  0  0  0  0  0  0  0  0  0
    3.8112  -46.3467  -18.8599 C   0  0  0  0  0  0  0  0  0  0  0  0
    5.1033  -46.3858  -18.2207 N   0  0  0  0  0  0  0  0  0  0  0  0
    5.2838  -45.2942  -17.2876 C   0  0  0  0  0  0  0  0  0  0  0  0
    6.0914  -44.2345  -17.9580 C   0  0  0  0  0  0  0  0  0  0  0  0
    6.4476  -44.7659  -19.3044 C   0  0  0  0  0  0  0  0  0  0  0  0
    6.1197  -46.2225  -19.2383 C   0  0  0  0  0  0  0  0  0  0  0  0
   -1.3800  -52.5034  -17.1638 C   0  0  0  0  0  0  0  0  0  0  0  0
   -0.3398  -51.9115  -17.9110 O   0  0  0  0  0  0  0  0  0  0  0  0
    0.3182  -52.0721  -24.3531 N   0  0  0  0  0  0  0  0  0  0  0  0
   -0.2670  -51.5812  -25.0883 H   0  0  0  0  0  0  0  0  0  0  0  0
    1.7089  -51.7578  -24.3994 C   0  0  0  0  0  0  0  0  0  0  0  0
    2.6179  -52.8191  -24.5890 C   0  0  0  0  0  0  0  0  0  0  0  0
    3.9710  -52.6570  -24.6835 C   0  0  0  0  0  0  0  0  0  0  0  0
    4.4630  -51.3735  -24.5857 C   0  0  0  0  0  0  0  0  0  0  0  0
    5.8145  -51.1432  -24.6722 F   0  0  0  0  0  0  0  0  0  0  0  0
    3.6269  -50.3040  -24.4016 C   0  0  0  0  0  0  0  0  0  0  0  0
    4.1970  -48.6583  -24.2710 Cl  0  0  0  0  0  0  0  0  0  0  0  0
    2.2466  -50.5034  -24.3095 C   0  0  0  0  0  0  0  0  0  0  0  0
 23 24  1  0  0  0
 24  1  1  0  0  0
  1  2  2  0  0  0
  2  3  1  0  0  0
  3  4  2  0  0  0
  4  5  1  0  0  0
  5  6  2  0  0  0
  6  7  1  0  0  0
  7 25  1  0  0  0
 25 27  1  0  0  0
 27 28  2  0  0  0
 28 29  1  0  0  0
 29 30  2  0  0  0
 30 31  1  0  0  0
 30 32  1  0  0  0
 32 33  1  0  0  0
 32 34  2  0  0  0
  7  8  2  0  0  0
  8  9  1  0  0  0
  9 10  2  0  0  0
 10 11  1  0  0  0
 11 12  1  0  0  0
 12 13  2  0  0  0
 12 15  1  0  0  0
 15 16  2  0  0  0
 16 17  1  0  0  0
 17 18  1  0  0  0
 18 19  1  0  0  0
 19 20  1  0  0  0
 20 21  1  0  0  0
 21 22  1  0  0  0
 10  1  1  0  0  0
 22 18  1  0  0  0
  8  3  1  0  0  0
 34 27  1  0  0  0
 25 26  1  0  0  0
 11 14  1  0  0  0
M  END
> <minimizedAffinity>
-6.84447

> <CNNscore>
0.6020661592

> <CNNaffinity>
6.8011274338

> <CNN_VS>
4.0947284698

> <CNNaffinity_variance>
0.0771820396

$$$$
[H]/C(C(=O)N([H])c1c(OC([H])([H])[H])c([H])c2nc([H])nc(N([H])c3c([H])c([H])c(F)c(Cl)c3[H])c2c1[H])=C(/[H])C([H])([H])N1C([H])([H])C([H])([H])C([H])([H])C1([H])[H]


 34 37  0  0  0  0  0  0  0  0999 V2000
    1.2929  -52.6987  -25.4181 C   0  0  0  0  0  0  0  0  0  0  0  0
    0.4434  -53.7706  -25.3815 C   0  0  0  0  0  0  0  0  0  0  0  0
   -0.2717  -54.0456  -24.2364 C   0  0  0  0  0  0  0  0  0  0  0  0
   -1.1173  -55.0937  -24.1723 N   0  0  0  0  0  0  0  0  0  0  0  0
   -1.8255  -55.3826  -23.0724 C   0  0  0  0  0  0  0  0  0  0  0  0
   -1.6775  -54.5936  -22.0084 N   0  0  0  0  0  0  0  0  0  0  0  0
   -0.8752  -53.5215  -21.9309 C   0  0  0  0  0  0  0  0  0  0  0  0
   -0.1537  -53.2552  -23.1016 C   0  0  0  0  0  0  0  0  0  0  0  0
    0.6975  -52.1804  -23.1372 C   0  0  0  0  0  0  0  0  0  0  0  0
    1.4235  -51.8870  -24.2746 C   0  0  0  0  0  0  0  0  0  0  0  0
    2.3040  -50.8040  -24.3666 N   0  0  0  0  0  0  0  0  0  0  0  0
    3.5682  -50.6555  -23.7564 C   0  0  0  0  0  0  0  0  0  0  0  0
    4.0970  -51.4990  -23.0239 O   0  0  0  0  0  0  0  0  0  0  0  0
    1.9655  -49.9732  -24.9890 H   0  0  0  0  0  0  0  0  0  0  0  0
    4.3561  -49.4147  -23.9810 C   0  0  0  0  0  0  0  0  0  0  0  0
    3.8096  -48.2482  -24.1627 C   0  0  0  0  0  0  0  0  0  0  0  0
    4.5882  -47.0310  -24.3833 C   0  0  0  0  0  0  0  0  0  0  0  0
    4.1117  -45.8960  -23.6320 N   0  0  0  0  0  0  0  0  0  0  0  0
    2.6788  -45.9368  -23.4316 C   0  0  0  0  0  0  0  0  0  0  0  0
    2.0406  -45.0357  -24.4343 C   0  0  0  0  0  0  0  0  0  0  0  0
    3.1529  -44.3991  -25.1957 C   0  0  0  0  0  0  0  0  0  0  0  0
    4.3808  -44.6976  -24.3979 C   0  0  0  0  0  0  0  0  0  0  0  0
    1.6187  -53.0546  -27.7724 C   0  0  0  0  0  0  0  0  0  0  0  0
    2.0296  -52.4095  -26.5869 O   0  0  0  0  0  0  0  0  0  0  0  0
   -0.7563  -52.7684  -20.7500 N   0  0  0  0  0  0  0  0  0  0  0  0
   -1.4904  -52.7742  -19.9851 H   0  0  0  0  0  0  0  0  0  0  0  0
    0.3663  -51.9294  -20.4840 C   0  0  0  0  0  0  0  0  0  0  0  0
    1.5342  -52.5339  -19.9749 C   0  0  0  0  0  0  0  0  0  0  0  0
    2.6890  -51.8558  -19.7054 C   0  0  0  0  0  0  0  0  0  0  0  0
    2.6985  -50.4998  -19.9507 C   0  0  0  0  0  0  0  0  0  0  0  0
    3.8288  -49.7603  -19.7003 F   0  0  0  0  0  0  0  0  0  0  0  0
    1.5933  -49.8592  -20.4455 C   0  0  0  0  0  0  0  0  0  0  0  0
    1.5511  -48.1444  -20.7738 Cl  0  0  0  0  0  0  0  0  0  0  0  0
    0.4269  -50.5820  -20.7113 C   0  0  0  0  0  0  0  0  0  0  0  0
 23 24  1  0  0  0
 24  1  1  0  0  0
  1  2  2  0  0  0
  2  3  1  0  0  0
  3  4  2  0  0  0
  4  5  1  0  0  0
  5  6  2  0  0  0
  6  7  1  0  0  0
  7 25  1  0  0  0
 25 27  1  0  0  0
 27 28  2  0  0  0
 28 29  1  0  0  0
 29 30  2  0  0  0
 30 31  1  0  0  0
 30 32  1  0  0  0
 32 33  1  0  0  0
 32 34  2  0  0  0
  7  8  2  0  0  0
  8  9  1  0  0  0
  9 10  2  0  0  0
 10 11  1  0  0  0
 11 12  1  0  0  0
 12 13  2  0  0  0
 12 15  1  0  0  0
 15 16  2  0  0  0
 16 17  1  0  0  0
 17 18  1  0  0  0
 18 19  1  0  0  0
 19 20  1  0  0  0
 20 21  1  0  0  0
 21 22  1  0  0  0
 10  1  1  0  0  0
 22 18  1  0  0  0
  8  3  1  0  0  0
 34 27  1  0  0  0
 25 26  1  0  0  0
 11 14  1  0  0  0
M  END
> <minimizedAffinity>
-7.16966

> <CNNscore>
0.5999737978

> <CNNaffinity>
7.2383127213

> <CNN_VS>
4.3427977562

> <CNNaffinity_variance>
0.1882458627

$$$$
[H]/C(C(=O)N([H])c1c(OC([H])([H])[H])c([H])c2nc([H])nc(N([H])c3c([H])c([H])c(F)c(Cl)c3[H])c2c1[H])=C(/[H])C([H])([H])N1C([H])([H])C([H])([H])C([H])([H])C1([H])[H]


 34 37  0  0  0  0  0  0  0  0999 V2000
   -0.4966  -52.0799  -18.2925 C   0  0  0  0  0  0  0  0  0  0  0  0
   -1.0501  -53.1595  -18.9249 C   0  0  0  0  0  0  0  0  0  0  0  0
   -0.8589  -53.3398  -20.2774 C   0  0  0  0  0  0  0  0  0  0  0  0
   -1.3907  -54.3952  -20.9262 N   0  0  0  0  0  0  0  0  0  0  0  0
   -1.2191  -54.5952  -22.2399 C   0  0  0  0  0  0  0  0  0  0  0  0
   -0.4916  -53.7075  -22.9176 N   0  0  0  0  0  0  0  0  0  0  0  0
    0.0944  -52.6159  -22.4037 C   0  0  0  0  0  0  0  0  0  0  0  0
   -0.1098  -52.4449  -21.0285 C   0  0  0  0  0  0  0  0  0  0  0  0
    0.4457  -51.3623  -20.3956 C   0  0  0  0  0  0  0  0  0  0  0  0
    0.2664  -51.1627  -19.0411 C   0  0  0  0  0  0  0  0  0  0  0  0
    0.8105  -50.0782  -18.3451 N   0  0  0  0  0  0  0  0  0  0  0  0
    2.0442  -50.0126  -17.6621 C   0  0  0  0  0  0  0  0  0  0  0  0
    2.8514  -50.9450  -17.5806 O   0  0  0  0  0  0  0  0  0  0  0  0
    0.2003  -49.1728  -18.3319 H   0  0  0  0  0  0  0  0  0  0  0  0
    2.4438  -48.7548  -16.9773 C   0  0  0  0  0  0  0  0  0  0  0  0
    3.6071  -48.5872  -16.4196 C   0  0  0  0  0  0  0  0  0  0  0  0
    3.9958  -47.3489  -15.7473 C   0  0  0  0  0  0  0  0  0  0  0  0
    4.6720  -47.5608  -14.4913 N   0  0  0  0  0  0  0  0  0  0  0  0
    4.2323  -48.7722  -13.8324 C   0  0  0  0  0  0  0  0  0  0  0  0
    3.2429  -48.3995  -12.7803 C   0  0  0  0  0  0  0  0  0  0  0  0
    3.1617  -46.9111  -12.7876 C   0  0  0  0  0  0  0  0  0  0  0  0
    4.3340  -46.4694  -13.6026 C   0  0  0  0  0  0  0  0  0  0  0  0
   -1.9841  -52.1259  -16.4055 C   0  0  0  0  0  0  0  0  0  0  0  0
   -0.6873  -51.8870  -16.9073 O   0  0  0  0  0  0  0  0  0  0  0  0
    0.8144  -51.7139  -23.2061 N   0  0  0  0  0  0  0  0  0  0  0  0
    0.3753  -50.8551  -23.6462 H   0  0  0  0  0  0  0  0  0  0  0  0
    2.2009  -51.8822  -23.4966 C   0  0  0  0  0  0  0  0  0  0  0  0
    2.5475  -52.5362  -24.6968 C   0  0  0  0  0  0  0  0  0  0  0  0
    3.8332  -52.7365  -25.1128 C   0  0  0  0  0  0  0  0  0  0  0  0
    4.8418  -52.2658  -24.3003 C   0  0  0  0  0  0  0  0  0  0  0  0
    6.1562  -52.4359  -24.6616 F   0  0  0  0  0  0  0  0  0  0  0  0
    4.5643  -51.6225  -23.1230 C   0  0  0  0  0  0  0  0  0  0  0  0
    5.8029  -51.0070  -22.0567 Cl  0  0  0  0  0  0  0  0  0  0  0  0
    3.2377  -51.4329  -22.7259 C   0  0  0  0  0  0  0  0  0  0  0  0
 23 24  1  0  0  0
 24  1  1  0  0  0
  1  2  2  0  0  0
  2  3  1  0  0  0
  3  4  2  0  0  0
  4  5  1  0  0  0
  5  6  2  0  0  0
  6  7  1  0  0  0
  7 25  1  0  0  0
 25 27  1  0  0  0
 27 28  2  0  0  0
 28 29  1  0  0  0
 29 30  2  0  0  0
 30 31  1  0  0  0
 30 32  1  0  0  0
 32 33  1  0  0  0
 32 34  2  0  0  0
  7  8  2  0  0  0
  8  9  1  0  0  0
  9 10  2  0  0  0
 10 11  1  0  0  0
 11 12  1  0  0  0
 12 13  2  0  0  0
 12 15  1  0  0  0
 15 16  2  0  0  0
 16 17  1  0  0  0
 17 18  1  0  0  0
 18 19  1  0  0  0
 19 20  1  0  0  0
 20 21  1  0  0  0
 21 22  1  0  0  0
 10  1  1  0  0  0
 22 18  1  0  0  0
  8  3  1  0  0  0
 34 27  1  0  0  0
 25 26  1  0  0  0
 11 14  1  0  0  0
M  END
> <minimizedAffinity>
-6.79680

> <CNNscore>
0.5927749872

> <CNNaffinity>
6.7987222672

> <CNN_VS>
4.0301127434

> <CNNaffinity_variance>
0.0605213121

$$$$
[H]/C(C(=O)N([H])c1c(OC([H])([H])C([H])([H])[H])c([H])c2nc([H])c(C#N)c(N([H])c3c([H])c([H])c(OC([H])([H])c4nc([H])c([H])c([H])c4[H])c(Cl)c3[H])c2c1[H])=C(/[H])C([H])([H])N1C([H])([H])C([H])([H])OC([H])([H])C1([H])[H]


 45 49  0  0  0  0  0  0  0  0999 V2000
   -0.1715  -52.1607  -19.0475 C   0  0  0  0  0  0  0  0  0  0  0  0
   -0.6994  -53.2588  -19.6887 C   0  0  0  0  0  0  0  0  0  0  0  0
   -0.6150  -53.4358  -21.0172 C   0  0  0  0  0  0  0  0  0  0  0  0
   -1.0939  -54.5754  -21.6166 N   0  0  0  0  0  0  0  0  0  0  0  0
   -1.0062  -54.8118  -22.9014 C   0  0  0  0  0  0  0  0  0  0  0  0
   -0.4042  -53.9102  -23.8220 C   0  0  0  0  0  0  0  0  0  0  0  0
    0.0873  -52.7528  -23.2475 C   0  0  0  0  0  0  0  0  0  0  0  0
   -0.0096  -52.5448  -21.9040 C   0  0  0  0  0  0  0  0  0  0  0  0
    0.5212  -51.4362  -21.2611 C   0  0  0  0  0  0  0  0  0  0  0  0
    0.4784  -51.2064  -19.9280 C   0  0  0  0  0  0  0  0  0  0  0  0
    1.0169  -50.1775  -19.1774 N   0  0  0  0  0  0  0  0  0  0  0  0
    1.5490  -49.1773  -18.4786 C   0  0  0  0  0  0  0  0  0  0  0  0
    2.2896  -48.2153  -18.9579 O   0  0  0  0  0  0  0  0  0  0  0  0
    1.8834  -49.9186  -20.2181 H   0  0  0  0  0  0  0  0  0  0  0  0
    1.3477  -49.0441  -16.9677 C   0  0  0  0  0  0  0  0  0  0  0  0
    2.2368  -48.3667  -16.3216 C   0  0  0  0  0  0  0  0  0  0  0  0
    2.1768  -48.1569  -14.8309 C   0  0  0  0  0  0  0  0  0  0  0  0
    2.4116  -46.7921  -14.6089 N   0  0  0  0  0  0  0  0  0  0  0  0
    2.9871  -46.3692  -13.3820 C   0  0  0  0  0  0  0  0  0  0  0  0
    2.1192  -45.1942  -12.8581 C   0  0  0  0  0  0  0  0  0  0  0  0
    1.4220  -44.6515  -13.9252 O   0  0  0  0  0  0  0  0  0  0  0  0
    2.0777  -44.4885  -15.1008 C   0  0  0  0  0  0  0  0  0  0  0  0
    2.5019  -45.8776  -15.6308 C   0  0  0  0  0  0  0  0  0  0  0  0
   -0.3521  -54.2404  -25.2152 C   0  0  0  0  0  0  0  0  0  0  0  0
   -0.2788  -54.5089  -26.3365 N   0  0  0  0  0  0  0  0  0  0  0  0
    0.5384  -51.7082  -24.1573 N   0  0  0  0  0  0  0  0  0  0  0  0
   -0.1410  -51.3190  -24.8062 H   0  0  0  0  0  0  0  0  0  0  0  0
    1.9233  -51.3238  -24.0342 C   0  0  0  0  0  0  0  0  0  0  0  0
    2.2408  -50.0180  -23.9320 C   0  0  0  0  0  0  0  0  0  0  0  0
    3.5840  -49.6914  -23.8315 C   0  0  0  0  0  0  0  0  0  0  0  0
    4.6148  -50.5403  -23.8311 C   0  0  0  0  0  0  0  0  0  0  0  0
    4.2512  -51.9372  -23.9474 C   0  0  0  0  0  0  0  0  0  0  0  0
    5.5371  -53.0976  -23.9640 Cl  0  0  0  0  0  0  0  0  0  0  0  0
    2.9298  -52.3047  -24.0444 C   0  0  0  0  0  0  0  0  0  0  0  0
    5.9374  -50.2851  -23.7437 O   0  0  0  0  0  0  0  0  0  0  0  0
    6.8765  -49.8491  -24.6263 C   0  0  0  0  0  0  0  0  0  0  0  0
    6.7122  -48.5103  -25.2281 C   0  0  0  0  0  0  0  0  0  0  0  0
    6.4731  -47.3611  -24.5189 C   0  0  0  0  0  0  0  0  0  0  0  0
    6.3596  -46.1086  -25.0906 C   0  0  0  0  0  0  0  0  0  0  0  0
    6.4980  -46.0258  -26.4833 C   0  0  0  0  0  0  0  0  0  0  0  0
    6.7315  -47.1668  -27.1525 C   0  0  0  0  0  0  0  0  0  0  0  0
    6.8418  -48.4129  -26.5898 N   0  0  0  0  0  0  0  0  0  0  0  0
   -0.2274  -51.9820  -17.6876 O   0  0  0  0  0  0  0  0  0  0  0  0
   -1.5201  -51.5614  -15.6696 C   0  0  0  0  0  0  0  0  0  0  0  0
   -1.3533  -52.3916  -16.9331 C   0  0  0  0  0  0  0  0  0  0  0  0
 44 45  1  0  0  0
 45 43  1  0  0  0
 43  1  1  0  0  0
  1  2  2  0  0  0
  2  3  1  0  0  0
  3  4  2  0  0  0
  4  5  1  0  0  0
  5  6  2  0  0  0
  6 24  1  0  0  0
 24 25  3  0  0  0
  6  7  1  0  0  0
  7 26  1  0  0  0
 26 28  1  0  0  0
 28 29  2  0  0  0
 29 30  1  0  0  0
 30 31  2  0  0  0
 31 35  1  0  0  0
 35 36  1  0  0  0
 36 37  1  0  0  0
 37 38  2  0  0  0
 38 39  1  0  0  0
 39 40  2  0  0  0
 40 41  1  0  0  0
 41 42  2  0  0  0
 31 32  1  0  0  0
 32 33  1  0  0  0
 32 34  2  0  0  0
  7  8  2  0  0  0
  8  9  1  0  0  0
  9 10  2  0  0  0
 10 11  1  0  0  0
 11 12  1  0  0  0
 12 13  2  0  0  0
 12 15  1  0  0  0
 15 16  2  0  0  0
 16 17  1  0  0  0
 17 18  1  0  0  0
 18 19  1  0  0  0
 19 20  1  0  0  0
 20 21  1  0  0  0
 21 22  1  0  0  0
 22 23  1  0  0  0
 10  1  1  0  0  0
 23 18  1  0  0  0
  8  3  1  0  0  0
 34 28  1  0  0  0
 42 37  1  0  0  0
 26 27  1  0  0  0
 11 14  1  0  0  0
M  END
> <minimizedAffinity>
-6.87866

> <CNNscore>
0.5850115418

> <CNNaffinity>
7.6027579308

> <CNN_VS>
4.4477009773

> <CNNaffinity_variance>
0.0695811436

$$$$
[H]/C(C(=O)N([H])c1c(OC([H])([H])C([H])([H])[H])c([H])c2nc([H])c(C#N)c(N([H])c3c([H])c([H])c(OC([H])([H])c4nc([H])c([H])c([H])c4[H])c(Cl)c3[H])c2c1[H])=C(/[H])C([H])([H])N1C([H])([H])C([H])([H])OC([H])([H])C1([H])[H]


 45 49  0  0  0  0  0  0  0  0999 V2000
   -0.4126  -52.7173  -19.4679 C   0  0  0  0  0  0  0  0  0  0  0  0
   -0.8312  -53.7835  -20.2319 C   0  0  0  0  0  0  0  0  0  0  0  0
   -0.7145  -53.8104  -21.5694 C   0  0  0  0  0  0  0  0  0  0  0  0
   -1.0811  -54.9178  -22.2951 N   0  0  0  0  0  0  0  0  0  0  0  0
   -0.9564  -55.0078  -23.5953 C   0  0  0  0  0  0  0  0  0  0  0  0
   -0.4267  -53.9639  -24.4031 C   0  0  0  0  0  0  0  0  0  0  0  0
   -0.0488  -52.8351  -23.7001 C   0  0  0  0  0  0  0  0  0  0  0  0
   -0.1809  -52.7803  -22.3447 C   0  0  0  0  0  0  0  0  0  0  0  0
    0.2396  -51.7036  -21.5779 C   0  0  0  0  0  0  0  0  0  0  0  0
    0.1595  -51.6213  -20.2293 C   0  0  0  0  0  0  0  0  0  0  0  0
    0.5936  -50.6343  -19.3635 N   0  0  0  0  0  0  0  0  0  0  0  0
    0.9885  -49.6896  -18.5130 C   0  0  0  0  0  0  0  0  0  0  0  0
    0.4241  -49.3993  -17.3725 O   0  0  0  0  0  0  0  0  0  0  0  0
   -0.6335  -50.6923  -18.7377 H   0  0  0  0  0  0  0  0  0  0  0  0
    2.1976  -48.7955  -18.7956 C   0  0  0  0  0  0  0  0  0  0  0  0
    2.6957  -48.8525  -19.9853 C   0  0  0  0  0  0  0  0  0  0  0  0
    3.8900  -48.0375  -20.4085 C   0  0  0  0  0  0  0  0  0  0  0  0
    5.0059  -48.8814  -20.3100 N   0  0  0  0  0  0  0  0  0  0  0  0
    5.9117  -48.7244  -19.2283 C   0  0  0  0  0  0  0  0  0  0  0  0
    7.3398  -48.7035  -19.8353 C   0  0  0  0  0  0  0  0  0  0  0  0
    7.2978  -49.3073  -21.0815 O   0  0  0  0  0  0  0  0  0  0  0  0
    6.5597  -50.4362  -21.2204 C   0  0  0  0  0  0  0  0  0  0  0  0
    5.0762  -50.0979  -20.9458 C   0  0  0  0  0  0  0  0  0  0  0  0
   -0.3276  -54.1385  -25.8218 C   0  0  0  0  0  0  0  0  0  0  0  0
   -0.2439  -54.3102  -26.9612 N   0  0  0  0  0  0  0  0  0  0  0  0
    0.3175  -51.6641  -24.4855 N   0  0  0  0  0  0  0  0  0  0  0  0
   -0.4274  -51.1591  -24.9592 H   0  0  0  0  0  0  0  0  0  0  0  0
    1.7216  -51.3340  -24.5024 C   0  0  0  0  0  0  0  0  0  0  0  0
    2.1153  -50.1426  -24.9945 C   0  0  0  0  0  0  0  0  0  0  0  0
    3.4745  -49.8721  -25.0066 C   0  0  0  0  0  0  0  0  0  0  0  0
    4.4531  -50.6765  -24.5838 C   0  0  0  0  0  0  0  0  0  0  0  0
    4.0082  -51.9529  -24.0645 C   0  0  0  0  0  0  0  0  0  0  0  0
    5.2229  -53.0543  -23.5061 Cl  0  0  0  0  0  0  0  0  0  0  0  0
    2.6681  -52.2592  -24.0298 C   0  0  0  0  0  0  0  0  0  0  0  0
    5.7877  -50.4744  -24.5758 O   0  0  0  0  0  0  0  0  0  0  0  0
    6.5892  -49.4388  -24.9448 C   0  0  0  0  0  0  0  0  0  0  0  0
    6.0756  -48.0617  -24.7990 C   0  0  0  0  0  0  0  0  0  0  0  0
    5.7416  -47.2397  -25.8446 C   0  0  0  0  0  0  0  0  0  0  0  0
    5.2257  -45.9670  -25.6941 C   0  0  0  0  0  0  0  0  0  0  0  0
    5.0406  -45.5023  -24.3843 C   0  0  0  0  0  0  0  0  0  0  0  0
    5.3763  -46.3281  -23.3797 C   0  0  0  0  0  0  0  0  0  0  0  0
    5.8917  -47.5911  -23.5240 N   0  0  0  0  0  0  0  0  0  0  0  0
   -0.5015  -52.6896  -18.0984 O   0  0  0  0  0  0  0  0  0  0  0  0
   -1.8482  -51.8461  -16.2557 C   0  0  0  0  0  0  0  0  0  0  0  0
   -1.7474  -52.8012  -17.4352 C   0  0  0  0  0  0  0  0  0  0  0  0
 44 45  1  0  0  0
 45 43  1  0  0  0
 43  1  1  0  0  0
  1  2  2  0  0  0
  2  3  1  0  0  0
  3  4  2  0  0  0
  4  5  1  0  0  0
  5  6  2  0  0  0
  6 24  1  0  0  0
 24 25  3  0  0  0
  6  7  1  0  0  0
  7 26  1  0  0  0
 26 28  1  0  0  0
 28 29  2  0  0  0
 29 30  1  0  0  0
 30 31  2  0  0  0
 31 35  1  0  0  0
 35 36  1  0  0  0
 36 37  1  0  0  0
 37 38  2  0  0  0
 38 39  1  0  0  0
 39 40  2  0  0  0
 40 41  1  0  0  0
 41 42  2  0  0  0
 31 32  1  0  0  0
 32 33  1  0  0  0
 32 34  2  0  0  0
  7  8  2  0  0  0
  8  9  1  0  0  0
  9 10  2  0  0  0
 10 11  1  0  0  0
 11 12  1  0  0  0
 12 13  2  0  0  0
 12 15  1  0  0  0
 15 16  2  0  0  0
 16 17  1  0  0  0
 17 18  1  0  0  0
 18 19  1  0  0  0
 19 20  1  0  0  0
 20 21  1  0  0  0
 21 22  1  0  0  0
 22 23  1  0  0  0
 10  1  1  0  0  0
 23 18  1  0  0  0
  8  3  1  0  0  0
 34 28  1  0  0  0
 42 37  1  0  0  0
 26 27  1  0  0  0
 11 14  1  0  0  0
M  END
> <minimizedAffinity>
-7.45489

> <CNNscore>
0.4893882275

> <CNNaffinity>
7.7893829346

> <CNN_VS>
3.8120322227

> <CNNaffinity_variance>
0.2911295295

$$$$
[H]/C(C(=O)N([H])c1c(OC([H])([H])C([H])([H])[H])c([H])c2nc([H])c(C#N)c(N([H])c3c([H])c([H])c(OC([H])([H])c4nc([H])c([H])c([H])c4[H])c(Cl)c3[H])c2c1[H])=C(/[H])C([H])([H])N1C([H])([H])C([H])([H])OC([H])([H])C1([H])[H]


 45 49  0  0  0  0  0  0  0  0999 V2000
   -0.6984  -52.7761  -19.1816 C   0  0  0  0  0  0  0  0  0  0  0  0
   -1.1442  -53.7960  -19.9920 C   0  0  0  0  0  0  0  0  0  0  0  0
   -0.9379  -53.8142  -21.3188 C   0  0  0  0  0  0  0  0  0  0  0  0
   -1.3378  -54.8797  -22.0882 N   0  0  0  0  0  0  0  0  0  0  0  0
   -1.1309  -54.9619  -23.3784 C   0  0  0  0  0  0  0  0  0  0  0  0
   -0.4678  -53.9519  -24.1289 C   0  0  0  0  0  0  0  0  0  0  0  0
   -0.0535  -52.8656  -23.3809 C   0  0  0  0  0  0  0  0  0  0  0  0
   -0.2742  -52.8187  -22.0367 C   0  0  0  0  0  0  0  0  0  0  0  0
    0.1740  -51.7884  -21.2232 C   0  0  0  0  0  0  0  0  0  0  0  0
    0.0077  -51.7182  -19.8819 C   0  0  0  0  0  0  0  0  0  0  0  0
    0.4557  -50.7797  -18.9704 N   0  0  0  0  0  0  0  0  0  0  0  0
    0.8637  -49.8819  -18.0765 C   0  0  0  0  0  0  0  0  0  0  0  0
    0.2909  -49.6228  -16.9326 O   0  0  0  0  0  0  0  0  0  0  0  0
   -0.7815  -50.8292  -18.3641 H   0  0  0  0  0  0  0  0  0  0  0  0
    2.1006  -49.0108  -18.3057 C   0  0  0  0  0  0  0  0  0  0  0  0
    2.7677  -48.6632  -17.2564 C   0  0  0  0  0  0  0  0  0  0  0  0
    4.0014  -47.8011  -17.3240 C   0  0  0  0  0  0  0  0  0  0  0  0
    4.0903  -47.1322  -16.0944 N   0  0  0  0  0  0  0  0  0  0  0  0
    5.3263  -46.5603  -15.6939 C   0  0  0  0  0  0  0  0  0  0  0  0
    5.5809  -47.0146  -14.2320 C   0  0  0  0  0  0  0  0  0  0  0  0
    4.3702  -47.3826  -13.6679 O   0  0  0  0  0  0  0  0  0  0  0  0
    3.2865  -46.6069  -13.9176 C   0  0  0  0  0  0  0  0  0  0  0  0
    2.9895  -46.6403  -15.4346 C   0  0  0  0  0  0  0  0  0  0  0  0
   -0.2848  -54.1148  -25.5405 C   0  0  0  0  0  0  0  0  0  0  0  0
   -0.1423  -54.2770  -26.6755 N   0  0  0  0  0  0  0  0  0  0  0  0
    0.4554  -51.7165  -24.1177 N   0  0  0  0  0  0  0  0  0  0  0  0
   -0.1675  -51.2673  -24.7844 H   0  0  0  0  0  0  0  0  0  0  0  0
    1.8098  -51.3251  -23.8127 C   0  0  0  0  0  0  0  0  0  0  0  0
    2.0566  -50.0689  -23.3915 C   0  0  0  0  0  0  0  0  0  0  0  0
    3.3737  -49.7299  -23.1247 C   0  0  0  0  0  0  0  0  0  0  0  0
    4.4428  -50.5208  -23.2467 C   0  0  0  0  0  0  0  0  0  0  0  0
    4.1554  -51.8638  -23.7058 C   0  0  0  0  0  0  0  0  0  0  0  0
    5.4949  -52.9450  -23.8979 Cl  0  0  0  0  0  0  0  0  0  0  0  0
    2.8617  -52.2427  -23.9770 C   0  0  0  0  0  0  0  0  0  0  0  0
    5.7436  -50.2488  -23.0104 O   0  0  0  0  0  0  0  0  0  0  0  0
    6.5222  -50.2501  -21.8947 C   0  0  0  0  0  0  0  0  0  0  0  0
    6.6081  -49.0131  -21.0923 C   0  0  0  0  0  0  0  0  0  0  0  0
    6.0535  -47.8114  -21.4511 C   0  0  0  0  0  0  0  0  0  0  0  0
    6.1080  -46.6710  -20.6731 C   0  0  0  0  0  0  0  0  0  0  0  0
    6.7775  -46.7656  -19.4449 C   0  0  0  0  0  0  0  0  0  0  0  0
    7.3111  -47.9543  -19.1191 C   0  0  0  0  0  0  0  0  0  0  0  0
    7.2624  -49.0883  -19.8893 N   0  0  0  0  0  0  0  0  0  0  0  0
   -0.8792  -52.7598  -17.8210 O   0  0  0  0  0  0  0  0  0  0  0  0
   -2.3635  -51.8559  -16.1179 C   0  0  0  0  0  0  0  0  0  0  0  0
   -2.1686  -52.8591  -17.2445 C   0  0  0  0  0  0  0  0  0  0  0  0
 44 45  1  0  0  0
 45 43  1  0  0  0
 43  1  1  0  0  0
  1  2  2  0  0  0
  2  3  1  0  0  0
  3  4  2  0  0  0
  4  5  1  0  0  0
  5  6  2  0  0  0
  6 24  1  0  0  0
 24 25  3  0  0  0
  6  7  1  0  0  0
  7 26  1  0  0  0
 26 28  1  0  0  0
 28 29  2  0  0  0
 29 30  1  0  0  0
 30 31  2  0  0  0
 31 35  1  0  0  0
 35 36  1  0  0  0
 36 37  1  0  0  0
 37 38  2  0  0  0
 38 39  1  0  0  0
 39 40  2  0  0  0
 40 41  1  0  0  0
 41 42  2  0  0  0
 31 32  1  0  0  0
 32 33  1  0  0  0
 32 34  2  0  0  0
  7  8  2  0  0  0
  8  9  1  0  0  0
  9 10  2  0  0  0
 10 11  1  0  0  0
 11 12  1  0  0  0
 12 13  2  0  0  0
 12 15  1  0  0  0
 15 16  2  0  0  0
 16 17  1  0  0  0
 17 18  1  0  0  0
 18 19  1  0  0  0
 19 20  1  0  0  0
 20 21  1  0  0  0
 21 22  1  0  0  0
 22 23  1  0  0  0
 10  1  1  0  0  0
 23 18  1  0  0  0
  8  3  1  0  0  0
 34 28  1  0  0  0
 42 37  1  0  0  0
 26 27  1  0  0  0
 11 14  1  0  0  0
M  END
> <minimizedAffinity>
-7.30634

> <CNNscore>
0.4760235846

> <CNNaffinity>
7.5944738388

> <CNN_VS>
3.6151485443

> <CNNaffinity_variance>
0.1941378415

$$$$
[H]/C(C(=O)N([H])c1c(OC([H])([H])C([H])([H])[H])c([H])c2nc([H])c(C#N)c(N([H])c3c([H])c([H])c(OC([H])([H])c4nc([H])c([H])c([H])c4[H])c(Cl)c3[H])c2c1[H])=C(/[H])C([H])([H])N1C([H])([H])C([H])([H])OC([H])([H])C1([H])[H]


 45 49  0  0  0  0  0  0  0  0999 V2000
    0.1552  -53.2554  -24.9356 C   0  0  0  0  0  0  0  0  0  0  0  0
   -0.7445  -53.7747  -24.0320 C   0  0  0  0  0  0  0  0  0  0  0  0
   -0.6558  -53.5566  -22.7099 C   0  0  0  0  0  0  0  0  0  0  0  0
   -1.6084  -54.0342  -21.8428 N   0  0  0  0  0  0  0  0  0  0  0  0
   -1.5868  -53.8213  -20.5512 C   0  0  0  0  0  0  0  0  0  0  0  0
   -0.5694  -53.0700  -19.9006 C   0  0  0  0  0  0  0  0  0  0  0  0
    0.4046  -52.5760  -20.7482 C   0  0  0  0  0  0  0  0  0  0  0  0
    0.3441  -52.8062  -22.0903 C   0  0  0  0  0  0  0  0  0  0  0  0
    1.2535  -52.2837  -22.9980 C   0  0  0  0  0  0  0  0  0  0  0  0
    1.2119  -52.4578  -24.3396 C   0  0  0  0  0  0  0  0  0  0  0  0
    2.0212  -51.9440  -25.3362 N   0  0  0  0  0  0  0  0  0  0  0  0
    2.7881  -51.4681  -26.3145 C   0  0  0  0  0  0  0  0  0  0  0  0
    2.7382  -51.8219  -27.5699 O   0  0  0  0  0  0  0  0  0  0  0  0
    1.6703  -53.0179  -26.1265 H   0  0  0  0  0  0  0  0  0  0  0  0
    3.8659  -50.4118  -26.0616 C   0  0  0  0  0  0  0  0  0  0  0  0
    3.4558  -49.2164  -25.7978 C   0  0  0  0  0  0  0  0  0  0  0  0
    4.3986  -48.0710  -25.5350 C   0  0  0  0  0  0  0  0  0  0  0  0
    3.7650  -46.9137  -26.0106 N   0  0  0  0  0  0  0  0  0  0  0  0
    4.1285  -45.6469  -25.4829 C   0  0  0  0  0  0  0  0  0  0  0  0
    2.8093  -44.9120  -25.1251 C   0  0  0  0  0  0  0  0  0  0  0  0
    1.7764  -45.4821  -25.8514 O   0  0  0  0  0  0  0  0  0  0  0  0
    2.0041  -45.7921  -27.1516 C   0  0  0  0  0  0  0  0  0  0  0  0
    3.1140  -46.8664  -27.2201 C   0  0  0  0  0  0  0  0  0  0  0  0
   -0.6145  -52.8860  -18.4804 C   0  0  0  0  0  0  0  0  0  0  0  0
   -0.6659  -52.7104  -17.3397 N   0  0  0  0  0  0  0  0  0  0  0  0
    1.5715  -51.9671  -20.1238 N   0  0  0  0  0  0  0  0  0  0  0  0
    2.0565  -52.4991  -19.4056 H   0  0  0  0  0  0  0  0  0  0  0  0
    1.9270  -50.6542  -20.6042 C   0  0  0  0  0  0  0  0  0  0  0  0
    1.0212  -49.6582  -20.5391 C   0  0  0  0  0  0  0  0  0  0  0  0
    1.3983  -48.4167  -21.0260 C   0  0  0  0  0  0  0  0  0  0  0  0
    2.5760  -48.0945  -21.5668 C   0  0  0  0  0  0  0  0  0  0  0  0
    3.5317  -49.1805  -21.6320 C   0  0  0  0  0  0  0  0  0  0  0  0
    5.0796  -48.8403  -22.3309 Cl  0  0  0  0  0  0  0  0  0  0  0  0
    3.1997  -50.4269  -21.1554 C   0  0  0  0  0  0  0  0  0  0  0  0
    2.9988  -46.9123  -22.0625 O   0  0  0  0  0  0  0  0  0  0  0  0
    3.7281  -45.8814  -21.5562 C   0  0  0  0  0  0  0  0  0  0  0  0
    4.2347  -45.9875  -20.1729 C   0  0  0  0  0  0  0  0  0  0  0  0
    3.4708  -45.8121  -19.0476 C   0  0  0  0  0  0  0  0  0  0  0  0
    3.9483  -45.9520  -17.7587 C   0  0  0  0  0  0  0  0  0  0  0  0
    5.3003  -46.2925  -17.6106 C   0  0  0  0  0  0  0  0  0  0  0  0
    6.0247  -46.4579  -18.7295 C   0  0  0  0  0  0  0  0  0  0  0  0
    5.5560  -46.3171  -20.0109 N   0  0  0  0  0  0  0  0  0  0  0  0
    0.0594  -53.4485  -26.2913 O   0  0  0  0  0  0  0  0  0  0  0  0
   -0.5120  -52.7279  -28.5440 C   0  0  0  0  0  0  0  0  0  0  0  0
   -0.8952  -52.7532  -27.0722 C   0  0  0  0  0  0  0  0  0  0  0  0
 44 45  1  0  0  0
 45 43  1  0  0  0
 43  1  1  0  0  0
  1  2  2  0  0  0
  2  3  1  0  0  0
  3  4  2  0  0  0
  4  5  1  0  0  0
  5  6  2  0  0  0
  6 24  1  0  0  0
 24 25  3  0  0  0
  6  7  1  0  0  0
  7 26  1  0  0  0
 26 28  1  0  0  0
 28 29  2  0  0  0
 29 30  1  0  0  0
 30 31  2  0  0  0
 31 35  1  0  0  0
 35 36  1  0  0  0
 36 37  1  0  0  0
 37 38  2  0  0  0
 38 39  1  0  0  0
 39 40  2  0  0  0
 40 41  1  0  0  0
 41 42  2  0  0  0
 31 32  1  0  0  0
 32 33  1  0  0  0
 32 34  2  0  0  0
  7  8  2  0  0  0
  8  9  1  0  0  0
  9 10  2  0  0  0
 10 11  1  0  0  0
 11 12  1  0  0  0
 12 13  2  0  0  0
 12 15  1  0  0  0
 15 16  2  0  0  0
 16 17  1  0  0  0
 17 18  1  0  0  0
 18 19  1  0  0  0
 19 20  1  0  0  0
 20 21  1  0  0  0
 21 22  1  0  0  0
 22 23  1  0  0  0
 10  1  1  0  0  0
 23 18  1  0  0  0
  8  3  1  0  0  0
 34 28  1  0  0  0
 42 37  1  0  0  0
 26 27  1  0  0  0
 11 14  1  0  0  0
M  END
> <minimizedAffinity>
-7.30777

> <CNNscore>
0.4610325098

> <CNNaffinity>
7.7678194046

> <CNN_VS>
3.5812172890

> <CNNaffinity_variance>
0.1065082103

$$$$
[H]/C(C(=O)N([H])c1c(OC([H])([H])C([H])([H])[H])c([H])c2nc([H])c(C#N)c(N([H])c3c([H])c([H])c(OC([H])([H])c4nc([H])c([H])c([H])c4[H])c(Cl)c3[H])c2c1[H])=C(/[H])C([H])([H])N1C([H])([H])C([H])([H])OC([H])([H])C1([H])[H]


 45 49  0  0  0  0  0  0  0  0999 V2000
   -0.1427  -52.1482  -19.1365 C   0  0  0  0  0  0  0  0  0  0  0  0
   -0.7072  -53.2269  -19.7794 C   0  0  0  0  0  0  0  0  0  0  0  0
   -0.6142  -53.4135  -21.1060 C   0  0  0  0  0  0  0  0  0  0  0  0
   -1.1318  -54.5355  -21.7064 N   0  0  0  0  0  0  0  0  0  0  0  0
   -1.0385  -54.7813  -22.9890 C   0  0  0  0  0  0  0  0  0  0  0  0
   -0.3894  -53.9092  -23.9060 C   0  0  0  0  0  0  0  0  0  0  0  0
    0.1419  -52.7701  -23.3305 C   0  0  0  0  0  0  0  0  0  0  0  0
    0.0376  -52.5520  -21.9891 C   0  0  0  0  0  0  0  0  0  0  0  0
    0.6053  -51.4628  -21.3446 C   0  0  0  0  0  0  0  0  0  0  0  0
    0.5560  -51.2253  -20.0130 C   0  0  0  0  0  0  0  0  0  0  0  0
    1.1269  -50.2155  -19.2603 N   0  0  0  0  0  0  0  0  0  0  0  0
    1.6848  -49.2304  -18.5603 C   0  0  0  0  0  0  0  0  0  0  0  0
    2.2413  -48.1579  -19.0541 O   0  0  0  0  0  0  0  0  0  0  0  0
    1.7687  -49.7772  -20.3991 H   0  0  0  0  0  0  0  0  0  0  0  0
    1.7441  -49.2520  -17.0315 C   0  0  0  0  0  0  0  0  0  0  0  0
    0.6141  -49.2474  -16.4072 C   0  0  0  0  0  0  0  0  0  0  0  0
    0.5138  -49.2587  -14.9040 C   0  0  0  0  0  0  0  0  0  0  0  0
   -0.6477  -48.5447  -14.5749 N   0  0  0  0  0  0  0  0  0  0  0  0
   -0.7638  -47.9451  -13.2933 C   0  0  0  0  0  0  0  0  0  0  0  0
   -2.1553  -48.3432  -12.7335 C   0  0  0  0  0  0  0  0  0  0  0  0
   -2.9703  -48.7038  -13.7942 O   0  0  0  0  0  0  0  0  0  0  0  0
   -2.9252  -47.9497  -14.9202 C   0  0  0  0  0  0  0  0  0  0  0  0
   -1.5047  -48.0413  -15.5240 C   0  0  0  0  0  0  0  0  0  0  0  0
   -0.3342  -54.2478  -25.2971 C   0  0  0  0  0  0  0  0  0  0  0  0
   -0.3094  -54.5448  -26.4133 N   0  0  0  0  0  0  0  0  0  0  0  0
    0.6460  -51.7489  -24.2392 N   0  0  0  0  0  0  0  0  0  0  0  0
    0.0079  -51.3826  -24.9413 H   0  0  0  0  0  0  0  0  0  0  0  0
    2.0183  -51.3525  -24.0386 C   0  0  0  0  0  0  0  0  0  0  0  0
    2.3042  -50.0582  -23.7947 C   0  0  0  0  0  0  0  0  0  0  0  0
    3.6367  -49.7177  -23.6236 C   0  0  0  0  0  0  0  0  0  0  0  0
    4.6857  -50.5421  -23.6810 C   0  0  0  0  0  0  0  0  0  0  0  0
    4.3562  -51.9264  -23.9495 C   0  0  0  0  0  0  0  0  0  0  0  0
    5.6674  -53.0539  -24.0484 Cl  0  0  0  0  0  0  0  0  0  0  0  0
    3.0462  -52.3076  -24.1206 C   0  0  0  0  0  0  0  0  0  0  0  0
    5.9996  -50.2717  -23.5308 O   0  0  0  0  0  0  0  0  0  0  0  0
    6.8826  -49.4756  -24.1923 C   0  0  0  0  0  0  0  0  0  0  0  0
    6.7929  -48.0134  -24.0043 C   0  0  0  0  0  0  0  0  0  0  0  0
    6.9267  -47.3729  -22.7991 C   0  0  0  0  0  0  0  0  0  0  0  0
    6.8791  -46.0011  -22.6424 C   0  0  0  0  0  0  0  0  0  0  0  0
    6.6786  -45.2317  -23.7971 C   0  0  0  0  0  0  0  0  0  0  0  0
    6.5507  -45.8850  -24.9636 C   0  0  0  0  0  0  0  0  0  0  0  0
    6.5941  -47.2467  -25.1239 N   0  0  0  0  0  0  0  0  0  0  0  0
   -0.2075  -51.9609  -17.7782 O   0  0  0  0  0  0  0  0  0  0  0  0
   -2.0041  -51.7308  -16.1535 C   0  0  0  0  0  0  0  0  0  0  0  0
   -1.1354  -52.6692  -16.9769 C   0  0  0  0  0  0  0  0  0  0  0  0
 44 45  1  0  0  0
 45 43  1  0  0  0
 43  1  1  0  0  0
  1  2  2  0  0  0
  2  3  1  0  0  0
  3  4  2  0  0  0
  4  5  1  0  0  0
  5  6  2  0  0  0
  6 24  1  0  0  0
 24 25  3  0  0  0
  6  7  1  0  0  0
  7 26  1  0  0  0
 26 28  1  0  0  0
 28 29  2  0  0  0
 29 30  1  0  0  0
 30 31  2  0  0  0
 31 35  1  0  0  0
 35 36  1  0  0  0
 36 37  1  0  0  0
 37 38  2  0  0  0
 38 39  1  0  0  0
 39 40  2  0  0  0
 40 41  1  0  0  0
 41 42  2  0  0  0
 31 32  1  0  0  0
 32 33  1  0  0  0
 32 34  2  0  0  0
  7  8  2  0  0  0
  8  9  1  0  0  0
  9 10  2  0  0  0
 10 11  1  0  0  0
 11 12  1  0  0  0
 12 13  2  0  0  0
 12 15  1  0  0  0
 15 16  2  0  0  0
 16 17  1  0  0  0
 17 18  1  0  0  0
 18 19  1  0  0  0
 19 20  1  0  0  0
 20 21  1  0  0  0
 21 22  1  0  0  0
 22 23  1  0  0  0
 10  1  1  0  0  0
 23 18  1  0  0  0
  8  3  1  0  0  0
 34 28  1  0  0  0
 42 37  1  0  0  0
 26 27  1  0  0  0
 11 14  1  0  0  0
M  END
> <minimizedAffinity>
-7.16416

> <CNNscore>
0.4362572432

> <CNNaffinity>
7.6244940758

> <CNN_VS>
3.3262407780

> <CNNaffinity_variance>
0.1125187278

$$$$
[H]/C(C(=O)N([H])c1c(OC([H])([H])C([H])([H])[H])c([H])c2nc([H])c(C#N)c(N([H])c3c([H])c([H])c(OC([H])([H])c4nc([H])c([H])c([H])c4[H])c(Cl)c3[H])c2c1[H])=C(/[H])C([H])([H])N1C([H])([H])C([H])([H])OC([H])([H])C1([H])[H]


 45 49  0  0  0  0  0  0  0  0999 V2000
   -0.3945  -52.7385  -19.1115 C   0  0  0  0  0  0  0  0  0  0  0  0
   -0.8847  -53.7634  -19.8893 C   0  0  0  0  0  0  0  0  0  0  0  0
   -0.7717  -53.7793  -21.2274 C   0  0  0  0  0  0  0  0  0  0  0  0
   -1.2127  -54.8493  -21.9676 N   0  0  0  0  0  0  0  0  0  0  0  0
   -1.0959  -54.9293  -23.2692 C   0  0  0  0  0  0  0  0  0  0  0  0
   -0.4983  -53.9121  -24.0636 C   0  0  0  0  0  0  0  0  0  0  0  0
   -0.0446  -52.8212  -23.3457 C   0  0  0  0  0  0  0  0  0  0  0  0
   -0.1710  -52.7766  -21.9893 C   0  0  0  0  0  0  0  0  0  0  0  0
    0.3218  -51.7414  -21.2086 C   0  0  0  0  0  0  0  0  0  0  0  0
    0.2491  -51.6729  -19.8588 C   0  0  0  0  0  0  0  0  0  0  0  0
    0.7495  -50.7295  -18.9804 N   0  0  0  0  0  0  0  0  0  0  0  0
    1.2566  -49.8221  -18.1490 C   0  0  0  0  0  0  0  0  0  0  0  0
    2.4410  -49.2802  -18.2343 O   0  0  0  0  0  0  0  0  0  0  0  0
    2.0122  -51.0009  -19.4629 H   0  0  0  0  0  0  0  0  0  0  0  0
    0.4741  -49.2968  -16.9436 C   0  0  0  0  0  0  0  0  0  0  0  0
    1.1472  -48.6487  -16.0528 C   0  0  0  0  0  0  0  0  0  0  0  0
    0.5158  -48.0797  -14.8089 C   0  0  0  0  0  0  0  0  0  0  0  0
    1.5186  -47.3581  -14.1449 N   0  0  0  0  0  0  0  0  0  0  0  0
    1.5863  -45.9482  -14.2962 C   0  0  0  0  0  0  0  0  0  0  0  0
    3.0632  -45.6000  -14.6216 C   0  0  0  0  0  0  0  0  0  0  0  0
    3.8671  -46.6427  -14.1906 O   0  0  0  0  0  0  0  0  0  0  0  0
    3.5924  -47.2071  -12.9887 C   0  0  0  0  0  0  0  0  0  0  0  0
    2.1881  -47.8510  -13.0505 C   0  0  0  0  0  0  0  0  0  0  0  0
   -0.4128  -54.0730  -25.4847 C   0  0  0  0  0  0  0  0  0  0  0  0
   -0.3749  -54.2086  -26.6314 N   0  0  0  0  0  0  0  0  0  0  0  0
    0.3987  -51.6666  -24.1156 N   0  0  0  0  0  0  0  0  0  0  0  0
   -0.3135  -51.0828  -24.5469 H   0  0  0  0  0  0  0  0  0  0  0  0
    1.8256  -51.4650  -24.1793 C   0  0  0  0  0  0  0  0  0  0  0  0
    2.6482  -52.5299  -24.1024 C   0  0  0  0  0  0  0  0  0  0  0  0
    4.0124  -52.2903  -24.1517 C   0  0  0  0  0  0  0  0  0  0  0  0
    4.6115  -51.1019  -24.2622 C   0  0  0  0  0  0  0  0  0  0  0  0
    3.7093  -49.9717  -24.3376 C   0  0  0  0  0  0  0  0  0  0  0  0
    4.4145  -48.3955  -24.4723 Cl  0  0  0  0  0  0  0  0  0  0  0  0
    2.3486  -50.1658  -24.2973 C   0  0  0  0  0  0  0  0  0  0  0  0
    5.9273  -50.8045  -24.3083 O   0  0  0  0  0  0  0  0  0  0  0  0
    6.9584  -50.9400  -23.4311 C   0  0  0  0  0  0  0  0  0  0  0  0
    7.1944  -49.8641  -22.4472 C   0  0  0  0  0  0  0  0  0  0  0  0
    7.4476  -48.5554  -22.7692 C   0  0  0  0  0  0  0  0  0  0  0  0
    7.6285  -47.5506  -21.8384 C   0  0  0  0  0  0  0  0  0  0  0  0
    7.5469  -47.9093  -20.4855 C   0  0  0  0  0  0  0  0  0  0  0  0
    7.2980  -49.1977  -20.1991 C   0  0  0  0  0  0  0  0  0  0  0  0
    7.1209  -50.1993  -21.1194 N   0  0  0  0  0  0  0  0  0  0  0  0
   -0.4796  -52.7241  -17.7416 O   0  0  0  0  0  0  0  0  0  0  0  0
   -2.7837  -53.0352  -17.0239 C   0  0  0  0  0  0  0  0  0  0  0  0
   -1.5714  -52.1180  -17.0743 C   0  0  0  0  0  0  0  0  0  0  0  0
 44 45  1  0  0  0
 45 43  1  0  0  0
 43  1  1  0  0  0
  1  2  2  0  0  0
  2  3  1  0  0  0
  3  4  2  0  0  0
  4  5  1  0  0  0
  5  6  2  0  0  0
  6 24  1  0  0  0
 24 25  3  0  0  0
  6  7  1  0  0  0
  7 26  1  0  0  0
 26 28  1  0  0  0
 28 29  2  0  0  0
 29 30  1  0  0  0
 30 31  2  0  0  0
 31 35  1  0  0  0
 35 36  1  0  0  0
 36 37  1  0  0  0
 37 38  2  0  0  0
 38 39  1  0  0  0
 39 40  2  0  0  0
 40 41  1  0  0  0
 41 42  2  0  0  0
 31 32  1  0  0  0
 32 33  1  0  0  0
 32 34  2  0  0  0
  7  8  2  0  0  0
  8  9  1  0  0  0
  9 10  2  0  0  0
 10 11  1  0  0  0
 11 12  1  0  0  0
 12 13  2  0  0  0
 12 15  1  0  0  0
 15 16  2  0  0  0
 16 17  1  0  0  0
 17 18  1  0  0  0
 18 19  1  0  0  0
 19 20  1  0  0  0
 20 21  1  0  0  0
 21 22  1  0  0  0
 22 23  1  0  0  0
 10  1  1  0  0  0
 23 18  1  0  0  0
  8  3  1  0  0  0
 34 28  1  0  0  0
 42 37  1  0  0  0
 26 27  1  0  0  0
 11 14  1  0  0  0
M  END
> <minimizedAffinity>
-7.11747

> <CNNscore>
0.3499875367

> <CNNaffinity>
7.4867181778

> <CNN_VS>
2.6202580929

> <CNNaffinity_variance>
0.0539503582

$$$$
[H]/C(C(=O)N([H])c1c(OC([H])([H])C([H])([H])[H])c([H])c2nc([H])c(C#N)c(N([H])c3c([H])c([H])c(OC([H])([H])c4nc([H])c([H])c([H])c4[H])c(Cl)c3[H])c2c1[H])=C(/[H])C([H])([H])N1C([H])([H])C([H])([H])OC([H])([H])C1([H])[H]


 45 49  0  0  0  0  0  0  0  0999 V2000
   -0.4611  -52.6792  -19.5497 C   0  0  0  0  0  0  0  0  0  0  0  0
   -0.9547  -53.7406  -20.2746 C   0  0  0  0  0  0  0  0  0  0  0  0
   -0.7987  -53.8490  -21.6040 C   0  0  0  0  0  0  0  0  0  0  0  0
   -1.2456  -54.9542  -22.2867 N   0  0  0  0  0  0  0  0  0  0  0  0
   -1.0888  -55.1241  -23.5754 C   0  0  0  0  0  0  0  0  0  0  0  0
   -0.4370  -54.1783  -24.4141 C   0  0  0  0  0  0  0  0  0  0  0  0
    0.0239  -53.0541  -23.7547 C   0  0  0  0  0  0  0  0  0  0  0  0
   -0.1453  -52.9156  -22.4094 C   0  0  0  0  0  0  0  0  0  0  0  0
    0.3509  -51.8437  -21.6822 C   0  0  0  0  0  0  0  0  0  0  0  0
    0.2364  -51.6831  -20.3431 C   0  0  0  0  0  0  0  0  0  0  0  0
    0.7345  -50.6964  -19.5122 N   0  0  0  0  0  0  0  0  0  0  0  0
    1.2201  -49.7304  -18.7358 C   0  0  0  0  0  0  0  0  0  0  0  0
    1.6524  -48.5666  -19.1386 O   0  0  0  0  0  0  0  0  0  0  0  0
    1.2892  -50.0920  -20.6203 H   0  0  0  0  0  0  0  0  0  0  0  0
    1.3369  -49.8889  -17.2184 C   0  0  0  0  0  0  0  0  0  0  0  0
    0.3813  -49.3900  -16.5080 C   0  0  0  0  0  0  0  0  0  0  0  0
    0.3622  -49.4611  -15.0032 C   0  0  0  0  0  0  0  0  0  0  0  0
   -0.8618  -48.9136  -14.5919 N   0  0  0  0  0  0  0  0  0  0  0  0
   -1.1914  -48.8888  -13.2114 C   0  0  0  0  0  0  0  0  0  0  0  0
   -2.6350  -49.4436  -13.0823 C   0  0  0  0  0  0  0  0  0  0  0  0
   -3.2674  -49.3157  -14.3082 O   0  0  0  0  0  0  0  0  0  0  0  0
   -3.0828  -48.1680  -15.0063 C   0  0  0  0  0  0  0  0  0  0  0  0
   -1.5855  -48.0426  -15.3707 C   0  0  0  0  0  0  0  0  0  0  0  0
   -0.3100  -54.4362  -25.8178 C   0  0  0  0  0  0  0  0  0  0  0  0
   -0.2251  -54.6186  -26.9554 N   0  0  0  0  0  0  0  0  0  0  0  0
    0.5245  -51.9655  -24.5834 N   0  0  0  0  0  0  0  0  0  0  0  0
   -0.1418  -51.4750  -25.1747 H   0  0  0  0  0  0  0  0  0  0  0  0
    1.9355  -51.6882  -24.4699 C   0  0  0  0  0  0  0  0  0  0  0  0
    2.8034  -52.7122  -24.3489 C   0  0  0  0  0  0  0  0  0  0  0  0
    4.1483  -52.4009  -24.2266 C   0  0  0  0  0  0  0  0  0  0  0  0
    4.6873  -51.1792  -24.2087 C   0  0  0  0  0  0  0  0  0  0  0  0
    3.7366  -50.0942  -24.3343 C   0  0  0  0  0  0  0  0  0  0  0  0
    4.3615  -48.4789  -24.3092 Cl  0  0  0  0  0  0  0  0  0  0  0  0
    2.3935  -50.3594  -24.4630 C   0  0  0  0  0  0  0  0  0  0  0  0
    5.9807  -50.8129  -24.0861 O   0  0  0  0  0  0  0  0  0  0  0  0
    6.8489  -50.7447  -23.0408 C   0  0  0  0  0  0  0  0  0  0  0  0
    6.4251  -50.0364  -21.8161 C   0  0  0  0  0  0  0  0  0  0  0  0
    5.3815  -50.4221  -21.0143 C   0  0  0  0  0  0  0  0  0  0  0  0
    5.0193  -49.7727  -19.8499 C   0  0  0  0  0  0  0  0  0  0  0  0
    5.7749  -48.6507  -19.4813 C   0  0  0  0  0  0  0  0  0  0  0  0
    6.7908  -48.2955  -20.2850 C   0  0  0  0  0  0  0  0  0  0  0  0
    7.1523  -48.9350  -21.4434 N   0  0  0  0  0  0  0  0  0  0  0  0
   -0.5903  -52.5709  -18.1874 O   0  0  0  0  0  0  0  0  0  0  0  0
   -2.1295  -52.0284  -16.3827 C   0  0  0  0  0  0  0  0  0  0  0  0
   -1.7743  -52.9712  -17.5222 C   0  0  0  0  0  0  0  0  0  0  0  0
 44 45  1  0  0  0
 45 43  1  0  0  0
 43  1  1  0  0  0
  1  2  2  0  0  0
  2  3  1  0  0  0
  3  4  2  0  0  0
  4  5  1  0  0  0
  5  6  2  0  0  0
  6 24  1  0  0  0
 24 25  3  0  0  0
  6  7  1  0  0  0
  7 26  1  0  0  0
 26 28  1  0  0  0
 28 29  2  0  0  0
 29 30  1  0  0  0
 30 31  2  0  0  0
 31 35  1  0  0  0
 35 36  1  0  0  0
 36 37  1  0  0  0
 37 38  2  0  0  0
 38 39  1  0  0  0
 39 40  2  0  0  0
 40 41  1  0  0  0
 41 42  2  0  0  0
 31 32  1  0  0  0
 32 33  1  0  0  0
 32 34  2  0  0  0
  7  8  2  0  0  0
  8  9  1  0  0  0
  9 10  2  0  0  0
 10 11  1  0  0  0
 11 12  1  0  0  0
 12 13  2  0  0  0
 12 15  1  0  0  0
 15 16  2  0  0  0
 16 17  1  0  0  0
 17 18  1  0  0  0
 18 19  1  0  0  0
 19 20  1  0  0  0
 20 21  1  0  0  0
 21 22  1  0  0  0
 22 23  1  0  0  0
 10  1  1  0  0  0
 23 18  1  0  0  0
  8  3  1  0  0  0
 34 28  1  0  0  0
 42 37  1  0  0  0
 26 27  1  0  0  0
 11 14  1  0  0  0
M  END
> <minimizedAffinity>
-7.86143

> <CNNscore>
0.3371005654

> <CNNaffinity>
7.5038785934

> <CNN_VS>
2.5295617580

> <CNNaffinity_variance>
0.2918217778

$$$$
[H]/C(C(=O)N([H])c1c(OC([H])([H])C([H])([H])[H])c([H])c2nc([H])c(C#N)c(N([H])c3c([H])c([H])c(OC([H])([H])c4nc([H])c([H])c([H])c4[H])c(Cl)c3[H])c2c1[H])=C(/[H])C([H])([H])N1C([H])([H])C([H])([H])OC([H])([H])C1([H])[H]


 45 49  0  0  0  0  0  0  0  0999 V2000
   -0.3041  -52.3649  -19.5401 C   0  0  0  0  0  0  0  0  0  0  0  0
   -0.8113  -53.4759  -20.1758 C   0  0  0  0  0  0  0  0  0  0  0  0
   -0.6854  -53.6788  -21.4973 C   0  0  0  0  0  0  0  0  0  0  0  0
   -1.1448  -54.8304  -22.0889 N   0  0  0  0  0  0  0  0  0  0  0  0
   -1.0170  -55.0918  -23.3655 C   0  0  0  0  0  0  0  0  0  0  0  0
   -0.3870  -54.2077  -24.2843 C   0  0  0  0  0  0  0  0  0  0  0  0
    0.0859  -53.0388  -23.7176 C   0  0  0  0  0  0  0  0  0  0  0  0
   -0.0529  -52.8047  -22.3820 C   0  0  0  0  0  0  0  0  0  0  0  0
    0.4570  -51.6831  -21.7448 C   0  0  0  0  0  0  0  0  0  0  0  0
    0.3725  -51.4274  -20.4184 C   0  0  0  0  0  0  0  0  0  0  0  0
    0.8869  -50.3834  -19.6716 N   0  0  0  0  0  0  0  0  0  0  0  0
    1.3923  -49.3664  -18.9773 C   0  0  0  0  0  0  0  0  0  0  0  0
    1.9867  -48.3169  -19.4761 O   0  0  0  0  0  0  0  0  0  0  0  0
    1.6140  -49.9968  -20.7774 H   0  0  0  0  0  0  0  0  0  0  0  0
    1.3356  -49.3179  -17.4490 C   0  0  0  0  0  0  0  0  0  0  0  0
    2.4543  -49.4675  -16.8221 C   0  0  0  0  0  0  0  0  0  0  0  0
    2.5543  -49.4512  -15.3189 C   0  0  0  0  0  0  0  0  0  0  0  0
    2.7461  -50.7809  -14.9160 N   0  0  0  0  0  0  0  0  0  0  0  0
    1.6474  -51.5288  -14.4172 C   0  0  0  0  0  0  0  0  0  0  0  0
    2.1203  -52.2021  -13.1014 C   0  0  0  0  0  0  0  0  0  0  0  0
    3.5044  -52.2606  -13.1091 O   0  0  0  0  0  0  0  0  0  0  0  0
    4.1232  -52.6083  -14.2644 C   0  0  0  0  0  0  0  0  0  0  0  0
    3.8126  -51.5386  -15.3369 C   0  0  0  0  0  0  0  0  0  0  0  0
   -0.2913  -54.5650  -25.6685 C   0  0  0  0  0  0  0  0  0  0  0  0
   -0.1912  -54.8736  -26.7774 N   0  0  0  0  0  0  0  0  0  0  0  0
    0.5647  -52.0117  -24.6331 N   0  0  0  0  0  0  0  0  0  0  0  0
   -0.1151  -51.5695  -25.2467 H   0  0  0  0  0  0  0  0  0  0  0  0
    1.9757  -51.7196  -24.5661 C   0  0  0  0  0  0  0  0  0  0  0  0
    2.8558  -52.7327  -24.4408 C   0  0  0  0  0  0  0  0  0  0  0  0
    4.2007  -52.4070  -24.3641 C   0  0  0  0  0  0  0  0  0  0  0  0
    4.7289  -51.1808  -24.3947 C   0  0  0  0  0  0  0  0  0  0  0  0
    3.7653  -50.1076  -24.5240 C   0  0  0  0  0  0  0  0  0  0  0  0
    4.3761  -48.4871  -24.5606 Cl  0  0  0  0  0  0  0  0  0  0  0  0
    2.4217  -50.3875  -24.6084 C   0  0  0  0  0  0  0  0  0  0  0  0
    6.0218  -50.8005  -24.3178 O   0  0  0  0  0  0  0  0  0  0  0  0
    6.9004  -50.6398  -23.2916 C   0  0  0  0  0  0  0  0  0  0  0  0
    6.4098  -50.0557  -22.0269 C   0  0  0  0  0  0  0  0  0  0  0  0
    5.4108  -50.5929  -21.2562 C   0  0  0  0  0  0  0  0  0  0  0  0
    4.9872  -50.0574  -20.0552 C   0  0  0  0  0  0  0  0  0  0  0  0
    5.6277  -48.8912  -19.6131 C   0  0  0  0  0  0  0  0  0  0  0  0
    6.6022  -48.3869  -20.3877 C   0  0  0  0  0  0  0  0  0  0  0  0
    7.0241  -48.9130  -21.5822 N   0  0  0  0  0  0  0  0  0  0  0  0
   -0.4025  -52.1597  -18.1864 O   0  0  0  0  0  0  0  0  0  0  0  0
   -1.9358  -51.8842  -16.3173 C   0  0  0  0  0  0  0  0  0  0  0  0
   -1.4031  -52.7956  -17.4123 C   0  0  0  0  0  0  0  0  0  0  0  0
 44 45  1  0  0  0
 45 43  1  0  0  0
 43  1  1  0  0  0
  1  2  2  0  0  0
  2  3  1  0  0  0
  3  4  2  0  0  0
  4  5  1  0  0  0
  5  6  2  0  0  0
  6 24  1  0  0  0
 24 25  3  0  0  0
  6  7  1  0  0  0
  7 26  1  0  0  0
 26 28  1  0  0  0
 28 29  2  0  0  0
 29 30  1  0  0  0
 30 31  2  0  0  0
 31 35  1  0  0  0
 35 36  1  0  0  0
 36 37  1  0  0  0
 37 38  2  0  0  0
 38 39  1  0  0  0
 39 40  2  0  0  0
 40 41  1  0  0  0
 41 42  2  0  0  0
 31 32  1  0  0  0
 32 33  1  0  0  0
 32 34  2  0  0  0
  7  8  2  0  0  0
  8  9  1  0  0  0
  9 10  2  0  0  0
 10 11  1  0  0  0
 11 12  1  0  0  0
 12 13  2  0  0  0
 12 15  1  0  0  0
 15 16  2  0  0  0
 16 17  1  0  0  0
 17 18  1  0  0  0
 18 19  1  0  0  0
 19 20  1  0  0  0
 20 21  1  0  0  0
 21 22  1  0  0  0
 22 23  1  0  0  0
 10  1  1  0  0  0
 23 18  1  0  0  0
  8  3  1  0  0  0
 34 28  1  0  0  0
 42 37  1  0  0  0
 26 27  1  0  0  0
 11 14  1  0  0  0
M  END
> <minimizedAffinity>
-8.15136

> <CNNscore>
0.3151454031

> <CNNaffinity>
7.4894800186

> <CNN_VS>
2.3602752686

> <CNNaffinity_variance>
0.3248180449

$$$$
[H]/C(C(=O)N([H])c1c(OC([H])([H])C([H])([H])[H])c([H])c2nc([H])c(C#N)c(N([H])c3c([H])c([H])c(OC([H])([H])c4nc([H])c([H])c([H])c4[H])c(Cl)c3[H])c2c1[H])=C(/[H])C([H])([H])N1C([H])([H])C([H])([H])OC([H])([H])C1([H])[H]


 45 49  0  0  0  0  0  0  0  0999 V2000
   -0.6216  -52.7597  -19.2605 C   0  0  0  0  0  0  0  0  0  0  0  0
   -1.0771  -53.7967  -20.0434 C   0  0  0  0  0  0  0  0  0  0  0  0
   -0.9041  -53.8337  -21.3745 C   0  0  0  0  0  0  0  0  0  0  0  0
   -1.3121  -54.9153  -22.1169 N   0  0  0  0  0  0  0  0  0  0  0  0
   -1.1370  -55.0158  -23.4105 C   0  0  0  0  0  0  0  0  0  0  0  0
   -0.5035  -54.0112  -24.1931 C   0  0  0  0  0  0  0  0  0  0  0  0
   -0.0817  -52.9092  -23.4729 C   0  0  0  0  0  0  0  0  0  0  0  0
   -0.2690  -52.8432  -22.1244 C   0  0  0  0  0  0  0  0  0  0  0  0
    0.1889  -51.7958  -21.3387 C   0  0  0  0  0  0  0  0  0  0  0  0
    0.0557  -51.7060  -19.9948 C   0  0  0  0  0  0  0  0  0  0  0  0
    0.5168  -50.7489  -19.1097 N   0  0  0  0  0  0  0  0  0  0  0  0
    0.9363  -49.8306  -18.2422 C   0  0  0  0  0  0  0  0  0  0  0  0
    0.3213  -49.4704  -17.1487 O   0  0  0  0  0  0  0  0  0  0  0  0
   -0.7519  -50.6830  -18.5742 H   0  0  0  0  0  0  0  0  0  0  0  0
    2.2404  -49.0565  -18.4451 C   0  0  0  0  0  0  0  0  0  0  0  0
    2.6863  -48.3952  -17.4299 C   0  0  0  0  0  0  0  0  0  0  0  0
    3.9524  -47.5802  -17.4807 C   0  0  0  0  0  0  0  0  0  0  0  0
    3.7575  -46.4841  -16.6276 N   0  0  0  0  0  0  0  0  0  0  0  0
    4.1904  -46.5594  -15.2777 C   0  0  0  0  0  0  0  0  0  0  0  0
    3.0092  -46.0712  -14.3974 C   0  0  0  0  0  0  0  0  0  0  0  0
    2.1646  -45.3015  -15.1807 O   0  0  0  0  0  0  0  0  0  0  0  0
    2.7226  -44.4216  -16.0485 C   0  0  0  0  0  0  0  0  0  0  0  0
    3.5479  -45.2081  -17.0930 C   0  0  0  0  0  0  0  0  0  0  0  0
   -0.3544  -54.1946  -25.6063 C   0  0  0  0  0  0  0  0  0  0  0  0
   -0.2267  -54.3120  -26.7485 N   0  0  0  0  0  0  0  0  0  0  0  0
    0.3965  -51.7668  -24.2401 N   0  0  0  0  0  0  0  0  0  0  0  0
   -0.2973  -51.1666  -24.6789 H   0  0  0  0  0  0  0  0  0  0  0  0
    1.8284  -51.6000  -24.2908 C   0  0  0  0  0  0  0  0  0  0  0  0
    2.6268  -52.6572  -24.0430 C   0  0  0  0  0  0  0  0  0  0  0  0
    3.9964  -52.4496  -24.0865 C   0  0  0  0  0  0  0  0  0  0  0  0
    4.6223  -51.2985  -24.3444 C   0  0  0  0  0  0  0  0  0  0  0  0
    3.7457  -50.1751  -24.6020 C   0  0  0  0  0  0  0  0  0  0  0  0
    4.4863  -48.6451  -24.9349 Cl  0  0  0  0  0  0  0  0  0  0  0  0
    2.3807  -50.3389  -24.5737 C   0  0  0  0  0  0  0  0  0  0  0  0
    5.9448  -51.0325  -24.3941 O   0  0  0  0  0  0  0  0  0  0  0  0
    6.9112  -50.8640  -23.4514 C   0  0  0  0  0  0  0  0  0  0  0  0
    6.6701  -49.9019  -22.3571 C   0  0  0  0  0  0  0  0  0  0  0  0
    6.0574  -50.2098  -21.1695 C   0  0  0  0  0  0  0  0  0  0  0  0
    5.8722  -49.3095  -20.1381 C   0  0  0  0  0  0  0  0  0  0  0  0
    6.3442  -48.0042  -20.3356 C   0  0  0  0  0  0  0  0  0  0  0  0
    6.9399  -47.7305  -21.5079 C   0  0  0  0  0  0  0  0  0  0  0  0
    7.1232  -48.6199  -22.5360 N   0  0  0  0  0  0  0  0  0  0  0  0
   -0.7682  -52.7237  -17.8962 O   0  0  0  0  0  0  0  0  0  0  0  0
   -2.1791  -51.8606  -16.1116 C   0  0  0  0  0  0  0  0  0  0  0  0
   -2.0424  -52.8173  -17.2861 C   0  0  0  0  0  0  0  0  0  0  0  0
 44 45  1  0  0  0
 45 43  1  0  0  0
 43  1  1  0  0  0
  1  2  2  0  0  0
  2  3  1  0  0  0
  3  4  2  0  0  0
  4  5  1  0  0  0
  5  6  2  0  0  0
  6 24  1  0  0  0
 24 25  3  0  0  0
  6  7  1  0  0  0
  7 26  1  0  0  0
 26 28  1  0  0  0
 28 29  2  0  0  0
 29 30  1  0  0  0
 30 31  2  0  0  0
 31 35  1  0  0  0
 35 36  1  0  0  0
 36 37  1  0  0  0
 37 38  2  0  0  0
 38 39  1  0  0  0
 39 40  2  0  0  0
 40 41  1  0  0  0
 41 42  2  0  0  0
 31 32  1  0  0  0
 32 33  1  0  0  0
 32 34  2  0  0  0
  7  8  2  0  0  0
  8  9  1  0  0  0
  9 10  2  0  0  0
 10 11  1  0  0  0
 11 12  1  0  0  0
 12 13  2  0  0  0
 12 15  1  0  0  0
 15 16  2  0  0  0
 16 17  1  0  0  0
 17 18  1  0  0  0
 18 19  1  0  0  0
 19 20  1  0  0  0
 20 21  1  0  0  0
 21 22  1  0  0  0
 22 23  1  0  0  0
 10  1  1  0  0  0
 23 18  1  0  0  0
  8  3  1  0  0  0
 34 28  1  0  0  0
 42 37  1  0  0  0
 26 27  1  0  0  0
 11 14  1  0  0  0
M  END
> <minimizedAffinity>
-7.49819

> <CNNscore>
0.3146854341

> <CNNaffinity>
7.4635457993

> <CNN_VS>
2.3486690521

> <CNNaffinity_variance>
0.1588217318

$$$$
[H]c1nc(N([H])c2c([H])c([H])c3c(c([H])nn3C([H])([H])c3c([H])c([H])c([H])c([H])c3[H])c2[H])c2c(O[C@@]([H])(C(=O)N(C([H])([H])[H])C([H])([H])[H])C([H])([H])[H])c([H])c([H])c([H])c2n1


 36 40  0  0  0  0  0  0  0  0999 V2000
    0.6083  -50.7436  -17.0500 C   0  0  0  0  0  0  0  0  0  0  0  0
    0.6540  -49.6911  -16.1412 C   0  0  0  0  0  0  0  0  0  0  0  0
   -0.4162  -49.4420  -15.3255 C   0  0  0  0  0  0  0  0  0  0  0  0
   -1.5339  -50.2272  -15.4013 C   0  0  0  0  0  0  0  0  0  0  0  0
   -1.6144  -51.2745  -16.2863 C   0  0  0  0  0  0  0  0  0  0  0  0
   -2.7377  -52.0359  -16.3176 N   0  0  0  0  0  0  0  0  0  0  0  0
   -2.7911  -53.0621  -17.1804 C   0  0  0  0  0  0  0  0  0  0  0  0
   -1.7738  -53.3272  -17.9836 N   0  0  0  0  0  0  0  0  0  0  0  0
   -0.6039  -52.5978  -18.0077 C   0  0  0  0  0  0  0  0  0  0  0  0
   -0.5403  -51.5438  -17.1236 C   0  0  0  0  0  0  0  0  0  0  0  0
    0.3678  -52.9191  -18.9599 N   0  0  0  0  0  0  0  0  0  0  0  0
    1.3303  -53.1448  -18.7971 H   0  0  0  0  0  0  0  0  0  0  0  0
    0.0206  -52.9126  -20.3636 C   0  0  0  0  0  0  0  0  0  0  0  0
    0.0316  -51.7858  -21.1268 C   0  0  0  0  0  0  0  0  0  0  0  0
   -0.2763  -51.8241  -22.4956 C   0  0  0  0  0  0  0  0  0  0  0  0
   -0.6032  -53.0177  -23.1104 C   0  0  0  0  0  0  0  0  0  0  0  0
   -0.9325  -53.3476  -24.3722 N   0  0  0  0  0  0  0  0  0  0  0  0
   -1.1423  -54.6477  -24.3855 N   0  0  0  0  0  0  0  0  0  0  0  0
   -0.9631  -55.1837  -23.1785 C   0  0  0  0  0  0  0  0  0  0  0  0
   -0.6113  -54.1481  -22.3258 C   0  0  0  0  0  0  0  0  0  0  0  0
   -0.3096  -54.1148  -20.9841 C   0  0  0  0  0  0  0  0  0  0  0  0
   -1.0431  -52.4311  -25.5177 C   0  0  0  0  0  0  0  0  0  0  0  0
    0.2016  -52.5630  -26.2980 C   0  0  0  0  0  0  0  0  0  0  0  0
    0.2334  -53.3534  -27.4191 C   0  0  0  0  0  0  0  0  0  0  0  0
    1.4351  -53.4592  -28.1348 C   0  0  0  0  0  0  0  0  0  0  0  0
    2.5663  -52.7856  -27.7270 C   0  0  0  0  0  0  0  0  0  0  0  0
    2.5283  -51.9948  -26.6026 C   0  0  0  0  0  0  0  0  0  0  0  0
    1.3465  -51.8925  -25.9011 C   0  0  0  0  0  0  0  0  0  0  0  0
    1.6655  -51.0047  -17.8631 O   0  0  0  0  0  0  0  0  0  0  0  0
    1.4633  -49.2019  -19.4428 C   0  0  0  0  0  0  0  0  0  0  0  0
    2.3991  -50.0650  -18.5817 C   0  0  0  0  0  0  0  0  0  0  0  0
    3.3596  -50.7616  -19.5141 C   0  0  0  0  0  0  0  0  0  0  0  0
    3.2031  -51.9877  -19.6758 O   0  0  0  0  0  0  0  0  0  0  0  0
    4.3899  -50.0483  -20.1716 N   0  0  0  0  0  0  0  0  0  0  0  0
    4.5533  -48.6300  -19.9629 C   0  0  0  0  0  0  0  0  0  0  0  0
    5.2768  -50.7554  -21.0547 C   0  0  0  0  0  0  0  0  0  0  0  0
 30 31  1  0  0  0
 31 29  1  0  0  0
 29  1  1  0  0  0
  1  2  2  0  0  0
  2  3  1  0  0  0
  3  4  2  0  0  0
  4  5  1  0  0  0
  5  6  2  0  0  0
  6  7  1  0  0  0
  7  8  2  0  0  0
  8  9  1  0  0  0
  9 11  1  0  0  0
 11 13  1  0  0  0
 13 14  2  0  0  0
 14 15  1  0  0  0
 15 16  2  0  0  0
 16 17  1  0  0  0
 17 22  1  0  0  0
 22 23  1  0  0  0
 23 24  2  0  0  0
 24 25  1  0  0  0
 25 26  2  0  0  0
 26 27  1  0  0  0
 27 28  2  0  0  0
 17 18  1  0  0  0
 18 19  2  0  0  0
 19 20  1  0  0  0
 20 21  2  0  0  0
  9 10  2  0  0  0
 31 32  1  0  0  0
 32 33  2  0  0  0
 32 34  1  0  0  0
 34 35  1  0  0  0
 34 36  1  0  0  0
 10  1  1  0  0  0
 10  5  1  0  0  0
 21 13  1  0  0  0
 20 16  1  0  0  0
 28 23  1  0  0  0
 11 12  1  0  0  0
M  END
> <minimizedAffinity>
-8.70881

> <CNNscore>
0.6924282312

> <CNNaffinity>
7.2794547081

> <CNN_VS>
5.0405001640

> <CNNaffinity_variance>
0.1640887707

$$$$
[H]c1nc(N([H])c2c([H])c([H])c3c(c([H])nn3C([H])([H])c3c([H])c([H])c([H])c([H])c3[H])c2[H])c2c(O[C@@]([H])(C(=O)N(C([H])([H])[H])C([H])([H])[H])C([H])([H])[H])c([H])c([H])c([H])c2n1


 36 40  0  0  0  0  0  0  0  0999 V2000
    0.8486  -51.5469  -24.3675 C   0  0  0  0  0  0  0  0  0  0  0  0
    0.6526  -51.1853  -25.6966 C   0  0  0  0  0  0  0  0  0  0  0  0
   -0.1643  -51.9353  -26.4984 C   0  0  0  0  0  0  0  0  0  0  0  0
   -0.7908  -53.0426  -25.9952 C   0  0  0  0  0  0  0  0  0  0  0  0
   -0.6205  -53.4295  -24.6884 C   0  0  0  0  0  0  0  0  0  0  0  0
   -1.2727  -54.5272  -24.2279 N   0  0  0  0  0  0  0  0  0  0  0  0
   -1.1031  -54.8808  -22.9447 C   0  0  0  0  0  0  0  0  0  0  0  0
   -0.3180  -54.1775  -22.1450 N   0  0  0  0  0  0  0  0  0  0  0  0
    0.3752  -53.0539  -22.5429 C   0  0  0  0  0  0  0  0  0  0  0  0
    0.2048  -52.6832  -23.8582 C   0  0  0  0  0  0  0  0  0  0  0  0
    1.2419  -52.4426  -21.6323 N   0  0  0  0  0  0  0  0  0  0  0  0
    2.2030  -52.1978  -21.7749 H   0  0  0  0  0  0  0  0  0  0  0  0
    0.7723  -52.1285  -20.3013 C   0  0  0  0  0  0  0  0  0  0  0  0
    0.0488  -52.9976  -19.5439 C   0  0  0  0  0  0  0  0  0  0  0  0
   -0.3590  -52.6714  -18.2412 C   0  0  0  0  0  0  0  0  0  0  0  0
   -0.0348  -51.4473  -17.6879 C   0  0  0  0  0  0  0  0  0  0  0  0
   -0.2823  -50.8778  -16.4947 N   0  0  0  0  0  0  0  0  0  0  0  0
    0.2754  -49.6849  -16.5170 N   0  0  0  0  0  0  0  0  0  0  0  0
    0.8798  -49.4501  -17.6814 C   0  0  0  0  0  0  0  0  0  0  0  0
    0.6959  -50.5788  -18.4659 C   0  0  0  0  0  0  0  0  0  0  0  0
    1.0979  -50.8949  -19.7428 C   0  0  0  0  0  0  0  0  0  0  0  0
   -1.0366  -51.4709  -15.3795 C   0  0  0  0  0  0  0  0  0  0  0  0
   -2.3646  -50.8291  -15.3668 C   0  0  0  0  0  0  0  0  0  0  0  0
   -2.4942  -49.5177  -14.9846 C   0  0  0  0  0  0  0  0  0  0  0  0
   -3.7727  -48.9406  -14.9803 C   0  0  0  0  0  0  0  0  0  0  0  0
   -4.8822  -49.6693  -15.3513 C   0  0  0  0  0  0  0  0  0  0  0  0
   -4.7460  -50.9833  -15.7335 C   0  0  0  0  0  0  0  0  0  0  0  0
   -3.4889  -51.5481  -15.7369 C   0  0  0  0  0  0  0  0  0  0  0  0
    1.6540  -50.8087  -23.5592 O   0  0  0  0  0  0  0  0  0  0  0  0
    3.7485  -51.8159  -24.1795 C   0  0  0  0  0  0  0  0  0  0  0  0
    3.0020  -50.5355  -23.7730 C   0  0  0  0  0  0  0  0  0  0  0  0
    3.6346  -50.0259  -22.5012 C   0  0  0  0  0  0  0  0  0  0  0  0
    4.0412  -50.8801  -21.6893 O   0  0  0  0  0  0  0  0  0  0  0  0
    3.7570  -48.6389  -22.2483 N   0  0  0  0  0  0  0  0  0  0  0  0
    3.2730  -47.6705  -23.2020 C   0  0  0  0  0  0  0  0  0  0  0  0
    4.3720  -48.2027  -21.0245 C   0  0  0  0  0  0  0  0  0  0  0  0
 30 31  1  0  0  0
 31 29  1  0  0  0
 29  1  1  0  0  0
  1  2  2  0  0  0
  2  3  1  0  0  0
  3  4  2  0  0  0
  4  5  1  0  0  0
  5  6  2  0  0  0
  6  7  1  0  0  0
  7  8  2  0  0  0
  8  9  1  0  0  0
  9 11  1  0  0  0
 11 13  1  0  0  0
 13 14  2  0  0  0
 14 15  1  0  0  0
 15 16  2  0  0  0
 16 17  1  0  0  0
 17 22  1  0  0  0
 22 23  1  0  0  0
 23 24  2  0  0  0
 24 25  1  0  0  0
 25 26  2  0  0  0
 26 27  1  0  0  0
 27 28  2  0  0  0
 17 18  1  0  0  0
 18 19  2  0  0  0
 19 20  1  0  0  0
 20 21  2  0  0  0
  9 10  2  0  0  0
 31 32  1  0  0  0
 32 33  2  0  0  0
 32 34  1  0  0  0
 34 35  1  0  0  0
 34 36  1  0  0  0
 10  1  1  0  0  0
 10  5  1  0  0  0
 21 13  1  0  0  0
 20 16  1  0  0  0
 28 23  1  0  0  0
 11 12  1  0  0  0
M  END
> <minimizedAffinity>
-8.88068

> <CNNscore>
0.5974512100

> <CNNaffinity>
7.1726846695

> <CNN_VS>
4.2853293419

> <CNNaffinity_variance>
0.2029516250

$$$$
[H]c1nc(N([H])c2c([H])c([H])c3c(c([H])nn3C([H])([H])c3c([H])c([H])c([H])c([H])c3[H])c2[H])c2c(O[C@@]([H])(C(=O)N(C([H])([H])[H])C([H])([H])[H])C([H])([H])[H])c([H])c([H])c([H])c2n1


 36 40  0  0  0  0  0  0  0  0999 V2000
    0.9835  -51.7015  -24.1190 C   0  0  0  0  0  0  0  0  0  0  0  0
    0.8108  -51.2423  -25.4210 C   0  0  0  0  0  0  0  0  0  0  0  0
   -0.0590  -51.8797  -26.2636 C   0  0  0  0  0  0  0  0  0  0  0  0
   -0.7613  -52.9700  -25.8280 C   0  0  0  0  0  0  0  0  0  0  0  0
   -0.6161  -53.4512  -24.5497 C   0  0  0  0  0  0  0  0  0  0  0  0
   -1.3434  -54.5274  -24.1560 N   0  0  0  0  0  0  0  0  0  0  0  0
   -1.1965  -54.9738  -22.8992 C   0  0  0  0  0  0  0  0  0  0  0  0
   -0.3618  -54.3805  -22.0615 N   0  0  0  0  0  0  0  0  0  0  0  0
    0.4084  -53.2855  -22.3914 C   0  0  0  0  0  0  0  0  0  0  0  0
    0.2619  -52.8199  -23.6791 C   0  0  0  0  0  0  0  0  0  0  0  0
    1.3183  -52.7966  -21.4494 N   0  0  0  0  0  0  0  0  0  0  0  0
    2.3137  -52.7282  -21.5411 H   0  0  0  0  0  0  0  0  0  0  0  0
    0.8396  -52.3513  -20.1597 C   0  0  0  0  0  0  0  0  0  0  0  0
    1.3833  -51.3002  -19.4874 C   0  0  0  0  0  0  0  0  0  0  0  0
    0.8684  -50.8735  -18.2534 C   0  0  0  0  0  0  0  0  0  0  0  0
   -0.2136  -51.5158  -17.6822 C   0  0  0  0  0  0  0  0  0  0  0  0
   -0.9019  -51.3301  -16.5416 N   0  0  0  0  0  0  0  0  0  0  0  0
   -1.8474  -52.2465  -16.5116 N   0  0  0  0  0  0  0  0  0  0  0  0
   -1.8049  -53.0274  -17.5909 C   0  0  0  0  0  0  0  0  0  0  0  0
   -0.7517  -52.5774  -18.3728 C   0  0  0  0  0  0  0  0  0  0  0  0
   -0.2503  -52.9983  -19.5826 C   0  0  0  0  0  0  0  0  0  0  0  0
   -0.6449  -50.3037  -15.5194 C   0  0  0  0  0  0  0  0  0  0  0  0
    0.5572  -50.7258  -14.7763 C   0  0  0  0  0  0  0  0  0  0  0  0
    0.5745  -51.9290  -14.1169 C   0  0  0  0  0  0  0  0  0  0  0  0
    1.7330  -52.2968  -13.4167 C   0  0  0  0  0  0  0  0  0  0  0  0
    2.8367  -51.4718  -13.3867 C   0  0  0  0  0  0  0  0  0  0  0  0
    2.8135  -50.2672  -14.0495 C   0  0  0  0  0  0  0  0  0  0  0  0
    1.6742  -49.9080  -14.7367 C   0  0  0  0  0  0  0  0  0  0  0  0
    1.8409  -51.0755  -23.2706 O   0  0  0  0  0  0  0  0  0  0  0  0
    3.8594  -52.1508  -24.0161 C   0  0  0  0  0  0  0  0  0  0  0  0
    3.2007  -50.8681  -23.4841 C   0  0  0  0  0  0  0  0  0  0  0  0
    3.8805  -50.5147  -22.1841 C   0  0  0  0  0  0  0  0  0  0  0  0
    4.2336  -51.4614  -21.4540 O   0  0  0  0  0  0  0  0  0  0  0  0
    4.1033  -49.1663  -21.8166 N   0  0  0  0  0  0  0  0  0  0  0  0
    3.6796  -48.0885  -22.6771 C   0  0  0  0  0  0  0  0  0  0  0  0
    4.7600  -48.8803  -20.5703 C   0  0  0  0  0  0  0  0  0  0  0  0
 30 31  1  0  0  0
 31 29  1  0  0  0
 29  1  1  0  0  0
  1  2  2  0  0  0
  2  3  1  0  0  0
  3  4  2  0  0  0
  4  5  1  0  0  0
  5  6  2  0  0  0
  6  7  1  0  0  0
  7  8  2  0  0  0
  8  9  1  0  0  0
  9 11  1  0  0  0
 11 13  1  0  0  0
 13 14  2  0  0  0
 14 15  1  0  0  0
 15 16  2  0  0  0
 16 17  1  0  0  0
 17 22  1  0  0  0
 22 23  1  0  0  0
 23 24  2  0  0  0
 24 25  1  0  0  0
 25 26  2  0  0  0
 26 27  1  0  0  0
 27 28  2  0  0  0
 17 18  1  0  0  0
 18 19  2  0  0  0
 19 20  1  0  0  0
 20 21  2  0  0  0
  9 10  2  0  0  0
 31 32  1  0  0  0
 32 33  2  0  0  0
 32 34  1  0  0  0
 34 35  1  0  0  0
 34 36  1  0  0  0
 10  1  1  0  0  0
 10  5  1  0  0  0
 21 13  1  0  0  0
 20 16  1  0  0  0
 28 23  1  0  0  0
 11 12  1  0  0  0
M  END
> <minimizedAffinity>
-8.08514

> <CNNscore>
0.5622484684

> <CNNaffinity>
7.1927652359

> <CNN_VS>
4.0441212654

> <CNNaffinity_variance>
0.1215016469

$$$$
[H]c1nc(N([H])c2c([H])c([H])c3c(c([H])nn3C([H])([H])c3c([H])c([H])c([H])c([H])c3[H])c2[H])c2c(O[C@@]([H])(C(=O)N(C([H])([H])[H])C([H])([H])[H])C([H])([H])[H])c([H])c([H])c([H])c2n1


 36 40  0  0  0  0  0  0  0  0999 V2000
    0.7978  -50.9242  -18.0981 C   0  0  0  0  0  0  0  0  0  0  0  0
    0.3979  -50.6919  -16.7859 C   0  0  0  0  0  0  0  0  0  0  0  0
   -0.6456  -51.3979  -16.2515 C   0  0  0  0  0  0  0  0  0  0  0  0
   -1.2982  -52.3341  -17.0060 C   0  0  0  0  0  0  0  0  0  0  0  0
   -0.9310  -52.5897  -18.3046 C   0  0  0  0  0  0  0  0  0  0  0  0
   -1.5979  -53.5372  -19.0117 N   0  0  0  0  0  0  0  0  0  0  0  0
   -1.2151  -53.7808  -20.2745 C   0  0  0  0  0  0  0  0  0  0  0  0
   -0.2115  -53.1134  -20.8201 N   0  0  0  0  0  0  0  0  0  0  0  0
    0.5097  -52.1385  -20.1637 C   0  0  0  0  0  0  0  0  0  0  0  0
    0.1243  -51.8839  -18.8664 C   0  0  0  0  0  0  0  0  0  0  0  0
    1.4929  -51.4405  -20.8709 N   0  0  0  0  0  0  0  0  0  0  0  0
    2.1382  -50.7635  -20.5114 H   0  0  0  0  0  0  0  0  0  0  0  0
    1.6288  -51.6469  -22.2956 C   0  0  0  0  0  0  0  0  0  0  0  0
    1.2828  -52.8085  -22.9148 C   0  0  0  0  0  0  0  0  0  0  0  0
    1.3946  -52.9597  -24.3057 C   0  0  0  0  0  0  0  0  0  0  0  0
    1.8644  -51.9241  -25.0908 C   0  0  0  0  0  0  0  0  0  0  0  0
    2.0707  -51.7868  -26.4129 N   0  0  0  0  0  0  0  0  0  0  0  0
    2.5339  -50.5688  -26.6035 N   0  0  0  0  0  0  0  0  0  0  0  0
    2.6396  -49.9012  -25.4548 C   0  0  0  0  0  0  0  0  0  0  0  0
    2.2112  -50.7564  -24.4506 C   0  0  0  0  0  0  0  0  0  0  0  0
    2.1026  -50.6041  -23.0879 C   0  0  0  0  0  0  0  0  0  0  0  0
    1.8307  -52.8042  -27.4481 C   0  0  0  0  0  0  0  0  0  0  0  0
    0.4036  -52.7221  -27.8117 C   0  0  0  0  0  0  0  0  0  0  0  0
    0.0061  -52.9517  -29.1047 C   0  0  0  0  0  0  0  0  0  0  0  0
   -1.3587  -52.8611  -29.4159 C   0  0  0  0  0  0  0  0  0  0  0  0
   -2.2887  -52.5485  -28.4479 C   0  0  0  0  0  0  0  0  0  0  0  0
   -1.8842  -52.3196  -27.1536 C   0  0  0  0  0  0  0  0  0  0  0  0
   -0.5429  -52.4091  -26.8504 C   0  0  0  0  0  0  0  0  0  0  0  0
    1.8350  -50.2331  -18.6399 O   0  0  0  0  0  0  0  0  0  0  0  0
    1.6040  -48.4138  -20.1965 C   0  0  0  0  0  0  0  0  0  0  0  0
    1.9258  -48.8492  -18.7581 C   0  0  0  0  0  0  0  0  0  0  0  0
    3.3315  -48.3947  -18.4503 C   0  0  0  0  0  0  0  0  0  0  0  0
    3.4639  -47.5167  -17.5753 O   0  0  0  0  0  0  0  0  0  0  0  0
    4.4447  -48.9450  -19.1290 N   0  0  0  0  0  0  0  0  0  0  0  0
    4.2638  -49.9563  -20.1420 C   0  0  0  0  0  0  0  0  0  0  0  0
    5.7648  -48.4833  -18.7967 C   0  0  0  0  0  0  0  0  0  0  0  0
 30 31  1  0  0  0
 31 29  1  0  0  0
 29  1  1  0  0  0
  1  2  2  0  0  0
  2  3  1  0  0  0
  3  4  2  0  0  0
  4  5  1  0  0  0
  5  6  2  0  0  0
  6  7  1  0  0  0
  7  8  2  0  0  0
  8  9  1  0  0  0
  9 11  1  0  0  0
 11 13  1  0  0  0
 13 14  2  0  0  0
 14 15  1  0  0  0
 15 16  2  0  0  0
 16 17  1  0  0  0
 17 22  1  0  0  0
 22 23  1  0  0  0
 23 24  2  0  0  0
 24 25  1  0  0  0
 25 26  2  0  0  0
 26 27  1  0  0  0
 27 28  2  0  0  0
 17 18  1  0  0  0
 18 19  2  0  0  0
 19 20  1  0  0  0
 20 21  2  0  0  0
  9 10  2  0  0  0
 31 32  1  0  0  0
 32 33  2  0  0  0
 32 34  1  0  0  0
 34 35  1  0  0  0
 34 36  1  0  0  0
 10  1  1  0  0  0
 10  5  1  0  0  0
 21 13  1  0  0  0
 20 16  1  0  0  0
 28 23  1  0  0  0
 11 12  1  0  0  0
M  END
> <minimizedAffinity>
-8.30166

> <CNNscore>
0.5537387729

> <CNNaffinity>
7.3068070412

> <CNN_VS>
4.0460624695

> <CNNaffinity_variance>
0.2531585991

$$$$
[H]c1nc(N([H])c2c([H])c([H])c3c(c([H])nn3C([H])([H])c3c([H])c([H])c([H])c([H])c3[H])c2[H])c2c(O[C@@]([H])(C(=O)N(C([H])([H])[H])C([H])([H])[H])C([H])([H])[H])c([H])c([H])c([H])c2n1


 36 40  0  0  0  0  0  0  0  0999 V2000
    1.1487  -52.1373  -25.4334 C   0  0  0  0  0  0  0  0  0  0  0  0
    1.3262  -52.3901  -26.7900 C   0  0  0  0  0  0  0  0  0  0  0  0
    0.7705  -53.5038  -27.3588 C   0  0  0  0  0  0  0  0  0  0  0  0
    0.0387  -54.3716  -26.5951 C   0  0  0  0  0  0  0  0  0  0  0  0
   -0.1571  -54.1542  -25.2532 C   0  0  0  0  0  0  0  0  0  0  0  0
   -0.9017  -55.0346  -24.5370 N   0  0  0  0  0  0  0  0  0  0  0  0
   -1.0918  -54.7970  -23.2301 C   0  0  0  0  0  0  0  0  0  0  0  0
   -0.5658  -53.7303  -22.6507 N   0  0  0  0  0  0  0  0  0  0  0  0
    0.2007  -52.7954  -23.3138 C   0  0  0  0  0  0  0  0  0  0  0  0
    0.3989  -53.0309  -24.6561 C   0  0  0  0  0  0  0  0  0  0  0  0
    0.7752  -51.7548  -22.5781 N   0  0  0  0  0  0  0  0  0  0  0  0
    1.3614  -51.0175  -22.9196 H   0  0  0  0  0  0  0  0  0  0  0  0
    0.5671  -51.6924  -21.1486 C   0  0  0  0  0  0  0  0  0  0  0  0
    1.1921  -50.7889  -20.3451 C   0  0  0  0  0  0  0  0  0  0  0  0
    0.9375  -50.7344  -18.9660 C   0  0  0  0  0  0  0  0  0  0  0  0
    0.0379  -51.6053  -18.3813 C   0  0  0  0  0  0  0  0  0  0  0  0
   -0.3944  -51.7780  -17.1193 N   0  0  0  0  0  0  0  0  0  0  0  0
   -1.2652  -52.7657  -17.1448 N   0  0  0  0  0  0  0  0  0  0  0  0
   -1.4202  -53.2483  -18.3775 C   0  0  0  0  0  0  0  0  0  0  0  0
   -0.5852  -52.5138  -19.2060 C   0  0  0  0  0  0  0  0  0  0  0  0
   -0.3387  -52.5700  -20.5581 C   0  0  0  0  0  0  0  0  0  0  0  0
    0.0284  -51.0139  -15.9354 C   0  0  0  0  0  0  0  0  0  0  0  0
   -1.0570  -50.0651  -15.6235 C   0  0  0  0  0  0  0  0  0  0  0  0
   -0.8394  -48.7132  -15.7132 C   0  0  0  0  0  0  0  0  0  0  0  0
   -1.8928  -47.8396  -15.4053 C   0  0  0  0  0  0  0  0  0  0  0  0
   -3.1253  -48.3212  -15.0196 C   0  0  0  0  0  0  0  0  0  0  0  0
   -3.3373  -49.6772  -14.9316 C   0  0  0  0  0  0  0  0  0  0  0  0
   -2.3009  -50.5334  -15.2346 C   0  0  0  0  0  0  0  0  0  0  0  0
    1.6915  -51.0329  -24.8566 O   0  0  0  0  0  0  0  0  0  0  0  0
    4.0198  -51.5746  -24.5879 C   0  0  0  0  0  0  0  0  0  0  0  0
    2.9797  -50.5483  -25.0645 C   0  0  0  0  0  0  0  0  0  0  0  0
    3.1917  -49.2843  -24.2681 C   0  0  0  0  0  0  0  0  0  0  0  0
    2.7620  -49.2734  -23.0980 O   0  0  0  0  0  0  0  0  0  0  0  0
    3.8495  -48.1649  -24.8312 N   0  0  0  0  0  0  0  0  0  0  0  0
    4.3326  -48.2010  -26.1903 C   0  0  0  0  0  0  0  0  0  0  0  0
    4.0325  -46.9852  -24.0306 C   0  0  0  0  0  0  0  0  0  0  0  0
 30 31  1  0  0  0
 31 29  1  0  0  0
 29  1  1  0  0  0
  1  2  2  0  0  0
  2  3  1  0  0  0
  3  4  2  0  0  0
  4  5  1  0  0  0
  5  6  2  0  0  0
  6  7  1  0  0  0
  7  8  2  0  0  0
  8  9  1  0  0  0
  9 11  1  0  0  0
 11 13  1  0  0  0
 13 14  2  0  0  0
 14 15  1  0  0  0
 15 16  2  0  0  0
 16 17  1  0  0  0
 17 22  1  0  0  0
 22 23  1  0  0  0
 23 24  2  0  0  0
 24 25  1  0  0  0
 25 26  2  0  0  0
 26 27  1  0  0  0
 27 28  2  0  0  0
 17 18  1  0  0  0
 18 19  2  0  0  0
 19 20  1  0  0  0
 20 21  2  0  0  0
  9 10  2  0  0  0
 31 32  1  0  0  0
 32 33  2  0  0  0
 32 34  1  0  0  0
 34 35  1  0  0  0
 34 36  1  0  0  0
 10  1  1  0  0  0
 10  5  1  0  0  0
 21 13  1  0  0  0
 20 16  1  0  0  0
 28 23  1  0  0  0
 11 12  1  0  0  0
M  END
> <minimizedAffinity>
-8.47839

> <CNNscore>
0.5246325731

> <CNNaffinity>
7.2000417709

> <CNN_VS>
3.7773764133

> <CNNaffinity_variance>
0.1815601289

$$$$
[H]c1nc(N([H])c2c([H])c([H])c3c(c([H])nn3C([H])([H])c3c([H])c([H])c([H])c([H])c3[H])c2[H])c2c(O[C@@]([H])(C(=O)N(C([H])([H])[H])C([H])([H])[H])C([H])([H])[H])c([H])c([H])c([H])c2n1


 36 40  0  0  0  0  0  0  0  0999 V2000
    1.0674  -51.7589  -24.4455 C   0  0  0  0  0  0  0  0  0  0  0  0
    0.8940  -51.3206  -25.7546 C   0  0  0  0  0  0  0  0  0  0  0  0
   -0.0124  -51.9405  -26.5713 C   0  0  0  0  0  0  0  0  0  0  0  0
   -0.7507  -52.9927  -26.1028 C   0  0  0  0  0  0  0  0  0  0  0  0
   -0.6060  -53.4523  -24.8166 C   0  0  0  0  0  0  0  0  0  0  0  0
   -1.3694  -54.4903  -24.3899 N   0  0  0  0  0  0  0  0  0  0  0  0
   -1.2220  -54.9158  -23.1259 C   0  0  0  0  0  0  0  0  0  0  0  0
   -0.3525  -54.3387  -22.3126 N   0  0  0  0  0  0  0  0  0  0  0  0
    0.4555  -53.2822  -22.6765 C   0  0  0  0  0  0  0  0  0  0  0  0
    0.3087  -52.8383  -23.9719 C   0  0  0  0  0  0  0  0  0  0  0  0
    1.3974  -52.8103  -21.7578 N   0  0  0  0  0  0  0  0  0  0  0  0
    2.3956  -52.8673  -21.8237 H   0  0  0  0  0  0  0  0  0  0  0  0
    0.9487  -52.1856  -20.5334 C   0  0  0  0  0  0  0  0  0  0  0  0
    0.0880  -52.7842  -19.6655 C   0  0  0  0  0  0  0  0  0  0  0  0
   -0.2971  -52.1618  -18.4680 C   0  0  0  0  0  0  0  0  0  0  0  0
    0.1908  -50.9124  -18.1355 C   0  0  0  0  0  0  0  0  0  0  0  0
    0.0025  -50.0969  -17.0825 N   0  0  0  0  0  0  0  0  0  0  0  0
    0.7299  -49.0202  -17.2974 N   0  0  0  0  0  0  0  0  0  0  0  0
    1.3888  -49.0988  -18.4532 C   0  0  0  0  0  0  0  0  0  0  0  0
    1.0589  -50.3192  -19.0232 C   0  0  0  0  0  0  0  0  0  0  0  0
    1.4392  -50.9262  -20.1975 C   0  0  0  0  0  0  0  0  0  0  0  0
   -0.8563  -50.3548  -15.9162 C   0  0  0  0  0  0  0  0  0  0  0  0
    0.0265  -50.7910  -14.8180 C   0  0  0  0  0  0  0  0  0  0  0  0
    0.3537  -52.1164  -14.6799 C   0  0  0  0  0  0  0  0  0  0  0  0
    1.1922  -52.4964  -13.6216 C   0  0  0  0  0  0  0  0  0  0  0  0
    1.6823  -51.5633  -12.7335 C   0  0  0  0  0  0  0  0  0  0  0  0
    1.3510  -50.2363  -12.8771 C   0  0  0  0  0  0  0  0  0  0  0  0
    0.5270  -49.8654  -13.9176 C   0  0  0  0  0  0  0  0  0  0  0  0
    1.9611  -51.1498  -23.6226 O   0  0  0  0  0  0  0  0  0  0  0  0
    3.9557  -52.2330  -24.4192 C   0  0  0  0  0  0  0  0  0  0  0  0
    3.3116  -50.9425  -23.8883 C   0  0  0  0  0  0  0  0  0  0  0  0
    4.0359  -50.5625  -22.6202 C   0  0  0  0  0  0  0  0  0  0  0  0
    4.3259  -51.4864  -21.8351 O   0  0  0  0  0  0  0  0  0  0  0  0
    4.3674  -49.2153  -22.3412 N   0  0  0  0  0  0  0  0  0  0  0  0
    4.0152  -48.1636  -23.2640 C   0  0  0  0  0  0  0  0  0  0  0  0
    5.0627  -48.9039  -21.1222 C   0  0  0  0  0  0  0  0  0  0  0  0
 30 31  1  0  0  0
 31 29  1  0  0  0
 29  1  1  0  0  0
  1  2  2  0  0  0
  2  3  1  0  0  0
  3  4  2  0  0  0
  4  5  1  0  0  0
  5  6  2  0  0  0
  6  7  1  0  0  0
  7  8  2  0  0  0
  8  9  1  0  0  0
  9 11  1  0  0  0
 11 13  1  0  0  0
 13 14  2  0  0  0
 14 15  1  0  0  0
 15 16  2  0  0  0
 16 17  1  0  0  0
 17 22  1  0  0  0
 22 23  1  0  0  0
 23 24  2  0  0  0
 24 25  1  0  0  0
 25 26  2  0  0  0
 26 27  1  0  0  0
 27 28  2  0  0  0
 17 18  1  0  0  0
 18 19  2  0  0  0
 19 20  1  0  0  0
 20 21  2  0  0  0
  9 10  2  0  0  0
 31 32  1  0  0  0
 32 33  2  0  0  0
 32 34  1  0  0  0
 34 35  1  0  0  0
 34 36  1  0  0  0
 10  1  1  0  0  0
 10  5  1  0  0  0
 21 13  1  0  0  0
 20 16  1  0  0  0
 28 23  1  0  0  0
 11 12  1  0  0  0
M  END
> <minimizedAffinity>
-7.60990

> <CNNscore>
0.5168353319

> <CNNaffinity>
7.1711044312

> <CNN_VS>
3.7062802315

> <CNNaffinity_variance>
0.2197808325

$$$$
[H]c1nc(N([H])c2c([H])c([H])c3c(c([H])nn3C([H])([H])c3c([H])c([H])c([H])c([H])c3[H])c2[H])c2c(O[C@@]([H])(C(=O)N(C([H])([H])[H])C([H])([H])[H])C([H])([H])[H])c([H])c([H])c([H])c2n1


 36 40  0  0  0  0  0  0  0  0999 V2000
    1.3747  -52.2416  -25.9459 C   0  0  0  0  0  0  0  0  0  0  0  0
    1.5249  -52.6087  -27.2795 C   0  0  0  0  0  0  0  0  0  0  0  0
    0.8979  -53.7270  -27.7581 C   0  0  0  0  0  0  0  0  0  0  0  0
    0.1214  -54.4869  -26.9266 C   0  0  0  0  0  0  0  0  0  0  0  0
   -0.0494  -54.1549  -25.6049 C   0  0  0  0  0  0  0  0  0  0  0  0
   -0.8400  -54.9302  -24.8197 N   0  0  0  0  0  0  0  0  0  0  0  0
   -1.0042  -54.5813  -23.5345 C   0  0  0  0  0  0  0  0  0  0  0  0
   -0.4095  -53.5072  -23.0415 N   0  0  0  0  0  0  0  0  0  0  0  0
    0.4066  -52.6749  -23.7781 C   0  0  0  0  0  0  0  0  0  0  0  0
    0.5787  -53.0250  -25.0989 C   0  0  0  0  0  0  0  0  0  0  0  0
    1.0495  -51.6177  -23.1276 N   0  0  0  0  0  0  0  0  0  0  0  0
    1.6998  -50.9646  -23.5206 H   0  0  0  0  0  0  0  0  0  0  0  0
    0.8201  -51.4037  -21.7160 C   0  0  0  0  0  0  0  0  0  0  0  0
    1.1751  -50.2593  -21.0704 C   0  0  0  0  0  0  0  0  0  0  0  0
    0.9034  -50.0725  -19.7061 C   0  0  0  0  0  0  0  0  0  0  0  0
    0.2634  -51.0550  -18.9749 C   0  0  0  0  0  0  0  0  0  0  0  0
   -0.1181  -51.1489  -17.6885 N   0  0  0  0  0  0  0  0  0  0  0  0
   -0.6942  -52.3245  -17.5449 N   0  0  0  0  0  0  0  0  0  0  0  0
   -0.7047  -53.0062  -18.6901 C   0  0  0  0  0  0  0  0  0  0  0  0
   -0.0883  -52.2066  -19.6409 C   0  0  0  0  0  0  0  0  0  0  0  0
    0.1757  -52.3933  -20.9779 C   0  0  0  0  0  0  0  0  0  0  0  0
    0.0759  -50.1352  -16.6401 C   0  0  0  0  0  0  0  0  0  0  0  0
    0.4476  -50.8545  -15.4073 C   0  0  0  0  0  0  0  0  0  0  0  0
    1.7444  -51.2554  -15.2060 C   0  0  0  0  0  0  0  0  0  0  0  0
    2.0617  -51.9409  -14.0240 C   0  0  0  0  0  0  0  0  0  0  0  0
    1.0960  -52.2105  -13.0783 C   0  0  0  0  0  0  0  0  0  0  0  0
   -0.2019  -51.8062  -13.2855 C   0  0  0  0  0  0  0  0  0  0  0  0
   -0.5112  -51.1328  -14.4475 C   0  0  0  0  0  0  0  0  0  0  0  0
    1.9884  -51.1313  -25.4587 O   0  0  0  0  0  0  0  0  0  0  0  0
    4.1862  -52.0055  -25.0202 C   0  0  0  0  0  0  0  0  0  0  0  0
    3.3452  -50.8353  -25.5546 C   0  0  0  0  0  0  0  0  0  0  0  0
    3.6707  -49.6231  -24.7170 C   0  0  0  0  0  0  0  0  0  0  0  0
    3.4673  -48.5068  -25.2333 O   0  0  0  0  0  0  0  0  0  0  0  0
    4.1842  -49.7553  -23.4049 N   0  0  0  0  0  0  0  0  0  0  0  0
    4.4161  -51.0592  -22.8324 C   0  0  0  0  0  0  0  0  0  0  0  0
    4.4737  -48.5704  -22.6443 C   0  0  0  0  0  0  0  0  0  0  0  0
 30 31  1  0  0  0
 31 29  1  0  0  0
 29  1  1  0  0  0
  1  2  2  0  0  0
  2  3  1  0  0  0
  3  4  2  0  0  0
  4  5  1  0  0  0
  5  6  2  0  0  0
  6  7  1  0  0  0
  7  8  2  0  0  0
  8  9  1  0  0  0
  9 11  1  0  0  0
 11 13  1  0  0  0
 13 14  2  0  0  0
 14 15  1  0  0  0
 15 16  2  0  0  0
 16 17  1  0  0  0
 17 22  1  0  0  0
 22 23  1  0  0  0
 23 24  2  0  0  0
 24 25  1  0  0  0
 25 26  2  0  0  0
 26 27  1  0  0  0
 27 28  2  0  0  0
 17 18  1  0  0  0
 18 19  2  0  0  0
 19 20  1  0  0  0
 20 21  2  0  0  0
  9 10  2  0  0  0
 31 32  1  0  0  0
 32 33  2  0  0  0
 32 34  1  0  0  0
 34 35  1  0  0  0
 34 36  1  0  0  0
 10  1  1  0  0  0
 10  5  1  0  0  0
 21 13  1  0  0  0
 20 16  1  0  0  0
 28 23  1  0  0  0
 11 12  1  0  0  0
M  END
> <minimizedAffinity>
-7.98214

> <CNNscore>
0.5052973628

> <CNNaffinity>
7.2207045555

> <CNN_VS>
3.6486029625

> <CNNaffinity_variance>
0.1008671373

$$$$
[H]c1nc(N([H])c2c([H])c([H])c3c(c([H])nn3C([H])([H])c3c([H])c([H])c([H])c([H])c3[H])c2[H])c2c(O[C@@]([H])(C(=O)N(C([H])([H])[H])C([H])([H])[H])C([H])([H])[H])c([H])c([H])c([H])c2n1


 36 40  0  0  0  0  0  0  0  0999 V2000
   -0.0382  -51.4754  -20.5508 C   0  0  0  0  0  0  0  0  0  0  0  0
   -0.1685  -51.5689  -19.1687 C   0  0  0  0  0  0  0  0  0  0  0  0
   -0.6257  -52.7263  -18.5994 C   0  0  0  0  0  0  0  0  0  0  0  0
   -0.9557  -53.7948  -19.3876 C   0  0  0  0  0  0  0  0  0  0  0  0
   -0.8400  -53.7384  -20.7550 C   0  0  0  0  0  0  0  0  0  0  0  0
   -1.1657  -54.8273  -21.4970 N   0  0  0  0  0  0  0  0  0  0  0  0
   -1.0333  -54.7559  -22.8303 C   0  0  0  0  0  0  0  0  0  0  0  0
   -0.5961  -53.6503  -23.4107 N   0  0  0  0  0  0  0  0  0  0  0  0
   -0.2480  -52.5074  -22.7222 C   0  0  0  0  0  0  0  0  0  0  0  0
   -0.3792  -52.5732  -21.3529 C   0  0  0  0  0  0  0  0  0  0  0  0
    0.1190  -51.3714  -23.4495 N   0  0  0  0  0  0  0  0  0  0  0  0
   -0.4860  -50.6709  -23.8331 H   0  0  0  0  0  0  0  0  0  0  0  0
    1.5141  -51.1347  -23.7467 C   0  0  0  0  0  0  0  0  0  0  0  0
    1.9842  -49.9434  -24.2077 C   0  0  0  0  0  0  0  0  0  0  0  0
    3.3513  -49.7390  -24.4507 C   0  0  0  0  0  0  0  0  0  0  0  0
    4.2649  -50.7515  -24.2277 C   0  0  0  0  0  0  0  0  0  0  0  0
    5.6000  -50.8388  -24.3670 N   0  0  0  0  0  0  0  0  0  0  0  0
    5.9442  -52.0562  -24.0009 N   0  0  0  0  0  0  0  0  0  0  0  0
    4.8838  -52.7717  -23.6267 C   0  0  0  0  0  0  0  0  0  0  0  0
    3.7748  -51.9503  -23.7629 C   0  0  0  0  0  0  0  0  0  0  0  0
    2.4358  -52.1544  -23.5229 C   0  0  0  0  0  0  0  0  0  0  0  0
    6.5031  -49.7794  -24.8427 C   0  0  0  0  0  0  0  0  0  0  0  0
    6.4062  -48.6652  -23.8811 C   0  0  0  0  0  0  0  0  0  0  0  0
    6.2231  -47.3809  -24.3283 C   0  0  0  0  0  0  0  0  0  0  0  0
    6.1394  -46.3451  -23.3861 C   0  0  0  0  0  0  0  0  0  0  0  0
    6.2380  -46.6035  -22.0359 C   0  0  0  0  0  0  0  0  0  0  0  0
    6.4214  -47.8927  -21.5936 C   0  0  0  0  0  0  0  0  0  0  0  0
    6.5033  -48.9087  -22.5212 C   0  0  0  0  0  0  0  0  0  0  0  0
    0.4184  -50.3334  -21.1289 O   0  0  0  0  0  0  0  0  0  0  0  0
    1.3553  -48.1430  -21.4619 C   0  0  0  0  0  0  0  0  0  0  0  0
    1.0772  -49.2926  -20.4805 C   0  0  0  0  0  0  0  0  0  0  0  0
    2.4078  -49.7713  -19.9537 C   0  0  0  0  0  0  0  0  0  0  0  0
    3.1937  -50.2786  -20.7776 O   0  0  0  0  0  0  0  0  0  0  0  0
    2.7413  -49.6468  -18.5840 N   0  0  0  0  0  0  0  0  0  0  0  0
    1.8112  -49.0608  -17.6495 C   0  0  0  0  0  0  0  0  0  0  0  0
    4.0236  -50.1126  -18.1311 C   0  0  0  0  0  0  0  0  0  0  0  0
 30 31  1  0  0  0
 31 29  1  0  0  0
 29  1  1  0  0  0
  1  2  2  0  0  0
  2  3  1  0  0  0
  3  4  2  0  0  0
  4  5  1  0  0  0
  5  6  2  0  0  0
  6  7  1  0  0  0
  7  8  2  0  0  0
  8  9  1  0  0  0
  9 11  1  0  0  0
 11 13  1  0  0  0
 13 14  2  0  0  0
 14 15  1  0  0  0
 15 16  2  0  0  0
 16 17  1  0  0  0
 17 22  1  0  0  0
 22 23  1  0  0  0
 23 24  2  0  0  0
 24 25  1  0  0  0
 25 26  2  0  0  0
 26 27  1  0  0  0
 27 28  2  0  0  0
 17 18  1  0  0  0
 18 19  2  0  0  0
 19 20  1  0  0  0
 20 21  2  0  0  0
  9 10  2  0  0  0
 31 32  1  0  0  0
 32 33  2  0  0  0
 32 34  1  0  0  0
 34 35  1  0  0  0
 34 36  1  0  0  0
 10  1  1  0  0  0
 10  5  1  0  0  0
 21 13  1  0  0  0
 20 16  1  0  0  0
 28 23  1  0  0  0
 11 12  1  0  0  0
M  END
> <minimizedAffinity>
-6.40550

> <CNNscore>
0.4520317018

> <CNNaffinity>
6.7593727112

> <CNN_VS>
3.0554506779

> <CNNaffinity_variance>
0.0857392251

$$$$
[H]c1nc(N([H])c2c([H])c([H])c3c(c([H])nn3C([H])([H])c3c([H])c([H])c([H])c([H])c3[H])c2[H])c2c(O[C@@]([H])(C(=O)N(C([H])([H])[H])C([H])([H])[H])C([H])([H])[H])c([H])c([H])c([H])c2n1


 36 40  0  0  0  0  0  0  0  0999 V2000
    0.0788  -53.3986  -24.1401 C   0  0  0  0  0  0  0  0  0  0  0  0
   -0.1906  -54.5141  -24.9266 C   0  0  0  0  0  0  0  0  0  0  0  0
   -0.8754  -55.5756  -24.4002 C   0  0  0  0  0  0  0  0  0  0  0  0
   -1.2972  -55.5426  -23.0991 C   0  0  0  0  0  0  0  0  0  0  0  0
   -1.0490  -54.4583  -22.2934 C   0  0  0  0  0  0  0  0  0  0  0  0
   -1.4981  -54.4630  -21.0125 N   0  0  0  0  0  0  0  0  0  0  0  0
   -1.2565  -53.3886  -20.2459 C   0  0  0  0  0  0  0  0  0  0  0  0
   -0.5951  -52.3477  -20.7251 N   0  0  0  0  0  0  0  0  0  0  0  0
   -0.1092  -52.2733  -22.0135 C   0  0  0  0  0  0  0  0  0  0  0  0
   -0.3549  -53.3714  -22.8075 C   0  0  0  0  0  0  0  0  0  0  0  0
    0.6495  -51.1584  -22.3812 N   0  0  0  0  0  0  0  0  0  0  0  0
    0.7648  -50.7749  -23.2996 H   0  0  0  0  0  0  0  0  0  0  0  0
    1.4071  -50.4479  -21.3751 C   0  0  0  0  0  0  0  0  0  0  0  0
    0.8351  -49.6103  -20.4675 C   0  0  0  0  0  0  0  0  0  0  0  0
    1.5983  -48.9656  -19.4817 C   0  0  0  0  0  0  0  0  0  0  0  0
    2.9637  -49.1649  -19.4063 C   0  0  0  0  0  0  0  0  0  0  0  0
    3.9225  -48.6943  -18.5887 N   0  0  0  0  0  0  0  0  0  0  0  0
    5.0592  -49.2292  -18.9842 N   0  0  0  0  0  0  0  0  0  0  0  0
    4.8818  -50.0336  -20.0320 C   0  0  0  0  0  0  0  0  0  0  0  0
    3.5279  -50.0132  -20.3312 C   0  0  0  0  0  0  0  0  0  0  0  0
    2.7833  -50.6474  -21.2985 C   0  0  0  0  0  0  0  0  0  0  0  0
    3.7386  -47.7568  -17.4699 C   0  0  0  0  0  0  0  0  0  0  0  0
    3.0031  -48.4808  -16.4162 C   0  0  0  0  0  0  0  0  0  0  0  0
    1.8926  -47.9188  -15.8386 C   0  0  0  0  0  0  0  0  0  0  0  0
    1.2199  -48.6337  -14.8365 C   0  0  0  0  0  0  0  0  0  0  0  0
    1.6589  -49.8767  -14.4342 C   0  0  0  0  0  0  0  0  0  0  0  0
    2.7725  -50.4348  -15.0169 C   0  0  0  0  0  0  0  0  0  0  0  0
    3.4317  -49.7306  -16.0012 C   0  0  0  0  0  0  0  0  0  0  0  0
    0.7543  -52.3360  -24.6515 O   0  0  0  0  0  0  0  0  0  0  0  0
    2.1572  -50.9836  -26.0621 C   0  0  0  0  0  0  0  0  0  0  0  0
    1.2821  -52.2408  -25.9360 C   0  0  0  0  0  0  0  0  0  0  0  0
    0.1671  -52.1204  -26.9458 C   0  0  0  0  0  0  0  0  0  0  0  0
   -0.8039  -51.4033  -26.6344 O   0  0  0  0  0  0  0  0  0  0  0  0
    0.2279  -52.7948  -28.1884 N   0  0  0  0  0  0  0  0  0  0  0  0
    1.3606  -53.6236  -28.5223 C   0  0  0  0  0  0  0  0  0  0  0  0
   -0.8568  -52.6444  -29.1197 C   0  0  0  0  0  0  0  0  0  0  0  0
 30 31  1  0  0  0
 31 29  1  0  0  0
 29  1  1  0  0  0
  1  2  2  0  0  0
  2  3  1  0  0  0
  3  4  2  0  0  0
  4  5  1  0  0  0
  5  6  2  0  0  0
  6  7  1  0  0  0
  7  8  2  0  0  0
  8  9  1  0  0  0
  9 11  1  0  0  0
 11 13  1  0  0  0
 13 14  2  0  0  0
 14 15  1  0  0  0
 15 16  2  0  0  0
 16 17  1  0  0  0
 17 22  1  0  0  0
 22 23  1  0  0  0
 23 24  2  0  0  0
 24 25  1  0  0  0
 25 26  2  0  0  0
 26 27  1  0  0  0
 27 28  2  0  0  0
 17 18  1  0  0  0
 18 19  2  0  0  0
 19 20  1  0  0  0
 20 21  2  0  0  0
  9 10  2  0  0  0
 31 32  1  0  0  0
 32 33  2  0  0  0
 32 34  1  0  0  0
 34 35  1  0  0  0
 34 36  1  0  0  0
 10  1  1  0  0  0
 10  5  1  0  0  0
 21 13  1  0  0  0
 20 16  1  0  0  0
 28 23  1  0  0  0
 11 12  1  0  0  0
M  END
> <minimizedAffinity>
-7.63599

> <CNNscore>
0.4387127757

> <CNNaffinity>
7.0868101120

> <CNN_VS>
3.1090741158

> <CNNaffinity_variance>
0.1544906348

$$$$
[H]/C(C(=O)N([H])c1c(OC([H])([H])[H])c([H])c2nc([H])nc(N([H])c3c([H])c([H])c(F)c(Cl)c3[H])c2c1[H])=C(/[H])C([H])([H])N1C([H])([H])C([H])([H])OC([H])([H])C1([H])[H]


 35 38  0  0  0  0  0  0  0  0999 V2000
    0.2935  -52.1155  -19.4068 C   0  0  0  0  0  0  0  0  0  0  0  0
   -0.3146  -53.2935  -19.7560 C   0  0  0  0  0  0  0  0  0  0  0  0
   -0.3529  -53.7323  -21.1301 C   0  0  0  0  0  0  0  0  0  0  0  0
   -1.1234  -54.7298  -21.4269 N   0  0  0  0  0  0  0  0  0  0  0  0
   -1.4158  -55.1027  -22.7447 C   0  0  0  0  0  0  0  0  0  0  0  0
   -0.8053  -54.3210  -23.6696 N   0  0  0  0  0  0  0  0  0  0  0  0
    0.0081  -53.2748  -23.4891 C   0  0  0  0  0  0  0  0  0  0  0  0
    0.2345  -52.9826  -22.1287 C   0  0  0  0  0  0  0  0  0  0  0  0
    0.9031  -51.7582  -21.8009 C   0  0  0  0  0  0  0  0  0  0  0  0
    0.8815  -51.4506  -20.5665 C   0  0  0  0  0  0  0  0  0  0  0  0
    1.8885  -50.5399  -19.9511 N   0  0  0  0  0  0  0  0  0  0  0  0
    1.7656  -49.1595  -20.1999 C   0  0  0  0  0  0  0  0  0  0  0  0
    0.6989  -48.7653  -20.8045 O   0  0  0  0  0  0  0  0  0  0  0  0
    2.5916  -50.9449  -19.3712 H   0  0  0  0  0  0  0  0  0  0  0  0
    2.7286  -48.1897  -19.8816 C   0  0  0  0  0  0  0  0  0  0  0  0
    3.6411  -47.5207  -20.5626 C   0  0  0  0  0  0  0  0  0  0  0  0
    4.4647  -46.5296  -19.8774 C   0  0  0  0  0  0  0  0  0  0  0  0
    5.2007  -45.6499  -19.2674 N   0  0  0  0  0  0  0  0  0  0  0  0
    6.1929  -46.1361  -18.3675 C   0  0  0  0  0  0  0  0  0  0  0  0
    7.1548  -45.0854  -17.9098 C   0  0  0  0  0  0  0  0  0  0  0  0
    6.5327  -43.8640  -17.5958 O   0  0  0  0  0  0  0  0  0  0  0  0
    5.1682  -44.0945  -17.3597 C   0  0  0  0  0  0  0  0  0  0  0  0
    4.4924  -44.5273  -18.6221 C   0  0  0  0  0  0  0  0  0  0  0  0
   -0.4370  -51.1034  -17.2300 C   0  0  0  0  0  0  0  0  0  0  0  0
    0.3980  -51.5042  -18.3136 O   0  0  0  0  0  0  0  0  0  0  0  0
    0.6019  -52.5625  -24.5416 N   0  0  0  0  0  0  0  0  0  0  0  0
    1.4239  -51.9380  -24.3243 H   0  0  0  0  0  0  0  0  0  0  0  0
    0.2020  -52.6314  -25.8848 C   0  0  0  0  0  0  0  0  0  0  0  0
    1.3180  -52.8288  -26.8144 C   0  0  0  0  0  0  0  0  0  0  0  0
    1.0736  -52.9101  -28.0710 C   0  0  0  0  0  0  0  0  0  0  0  0
   -0.2032  -52.8260  -28.6384 C   0  0  0  0  0  0  0  0  0  0  0  0
   -0.3672  -52.8772  -30.0029 F   0  0  0  0  0  0  0  0  0  0  0  0
   -1.2458  -52.6478  -27.8524 C   0  0  0  0  0  0  0  0  0  0  0  0
   -2.8891  -52.4840  -28.4696 Cl  0  0  0  0  0  0  0  0  0  0  0  0
   -1.0481  -52.5367  -26.3752 C   0  0  0  0  0  0  0  0  0  0  0  0
 24 25  1  0  0  0
 25  1  1  0  0  0
  1  2  2  0  0  0
  2  3  1  0  0  0
  3  4  2  0  0  0
  4  5  1  0  0  0
  5  6  2  0  0  0
  6  7  1  0  0  0
  7 26  1  0  0  0
 26 28  1  0  0  0
 28 29  2  0  0  0
 29 30  1  0  0  0
 30 31  2  0  0  0
 31 32  1  0  0  0
 31 33  1  0  0  0
 33 34  1  0  0  0
 33 35  2  0  0  0
  7  8  2  0  0  0
  8  9  1  0  0  0
  9 10  2  0  0  0
 10 11  1  0  0  0
 11 12  1  0  0  0
 12 13  2  0  0  0
 12 15  1  0  0  0
 15 16  2  0  0  0
 16 17  1  0  0  0
 17 18  1  0  0  0
 18 19  1  0  0  0
 19 20  1  0  0  0
 20 21  1  0  0  0
 21 22  1  0  0  0
 22 23  1  0  0  0
 10  1  1  0  0  0
 23 18  1  0  0  0
  8  3  1  0  0  0
 35 28  1  0  0  0
 26 27  1  0  0  0
 11 14  1  0  0  0
M  END
> <minimizedAffinity>
-7.80983

> <CNNscore>
0.9371742010

> <CNNaffinity>
7.4490790367

> <CNN_VS>
6.9810848236

> <CNNaffinity_variance>
0.2230596244

$$$$
[H]/C(C(=O)N([H])c1c(OC([H])([H])[H])c([H])c2nc([H])nc(N([H])c3c([H])c([H])c(F)c(Cl)c3[H])c2c1[H])=C(/[H])C([H])([H])N1C([H])([H])C([H])([H])OC([H])([H])C1([H])[H]


 35 38  0  0  0  0  0  0  0  0999 V2000
   -0.1449  -51.9899  -18.9377 C   0  0  0  0  0  0  0  0  0  0  0  0
   -0.4138  -53.2550  -19.3919 C   0  0  0  0  0  0  0  0  0  0  0  0
   -0.3922  -53.5595  -20.8023 C   0  0  0  0  0  0  0  0  0  0  0  0
   -0.8649  -54.7033  -21.1831 N   0  0  0  0  0  0  0  0  0  0  0  0
   -1.1027  -55.0221  -22.5259 C   0  0  0  0  0  0  0  0  0  0  0  0
   -0.7804  -54.0183  -23.3789 N   0  0  0  0  0  0  0  0  0  0  0  0
   -0.2856  -52.8052  -23.1097 C   0  0  0  0  0  0  0  0  0  0  0  0
   -0.0865  -52.5862  -21.7314 C   0  0  0  0  0  0  0  0  0  0  0  0
    0.2264  -51.2575  -21.2949 C   0  0  0  0  0  0  0  0  0  0  0  0
    0.1775  -51.0826  -20.0356 C   0  0  0  0  0  0  0  0  0  0  0  0
    0.9164  -49.9836  -19.3512 N   0  0  0  0  0  0  0  0  0  0  0  0
    2.3147  -50.1029  -19.2368 C   0  0  0  0  0  0  0  0  0  0  0  0
    2.8748  -51.0712  -19.8753 O   0  0  0  0  0  0  0  0  0  0  0  0
    0.3918  -49.2008  -19.0246 H   0  0  0  0  0  0  0  0  0  0  0  0
    3.1368  -49.2806  -18.4513 C   0  0  0  0  0  0  0  0  0  0  0  0
    3.6013  -48.0491  -18.5581 C   0  0  0  0  0  0  0  0  0  0  0  0
    4.4264  -47.4976  -17.4880 C   0  0  0  0  0  0  0  0  0  0  0  0
    5.1627  -47.0101  -16.5352 N   0  0  0  0  0  0  0  0  0  0  0  0
    4.4977  -46.5584  -15.3586 C   0  0  0  0  0  0  0  0  0  0  0  0
    5.4246  -46.2554  -14.2239 C   0  0  0  0  0  0  0  0  0  0  0  0
    6.5823  -45.5646  -14.6239 O   0  0  0  0  0  0  0  0  0  0  0  0
    6.3443  -44.9567  -15.8667 C   0  0  0  0  0  0  0  0  0  0  0  0
    6.1649  -45.9989  -16.9245 C   0  0  0  0  0  0  0  0  0  0  0  0
   -0.7525  -51.7300  -16.5169 C   0  0  0  0  0  0  0  0  0  0  0  0
   -0.1648  -51.4764  -17.7907 O   0  0  0  0  0  0  0  0  0  0  0  0
    0.0342  -51.8608  -24.0964 N   0  0  0  0  0  0  0  0  0  0  0  0
    0.1856  -50.8592  -23.8022 H   0  0  0  0  0  0  0  0  0  0  0  0
    0.1954  -52.1471  -25.4605 C   0  0  0  0  0  0  0  0  0  0  0  0
   -1.0581  -52.0921  -26.2183 C   0  0  0  0  0  0  0  0  0  0  0  0
   -1.0344  -52.3336  -27.4778 C   0  0  0  0  0  0  0  0  0  0  0  0
    0.1196  -52.6502  -28.2038 C   0  0  0  0  0  0  0  0  0  0  0  0
    0.0443  -52.9405  -29.5460 F   0  0  0  0  0  0  0  0  0  0  0  0
    1.2765  -52.7155  -27.5762 C   0  0  0  0  0  0  0  0  0  0  0  0
    2.7797  -53.1498  -28.3886 Cl  0  0  0  0  0  0  0  0  0  0  0  0
    1.3363  -52.4536  -26.1060 C   0  0  0  0  0  0  0  0  0  0  0  0
 24 25  1  0  0  0
 25  1  1  0  0  0
  1  2  2  0  0  0
  2  3  1  0  0  0
  3  4  2  0  0  0
  4  5  1  0  0  0
  5  6  2  0  0  0
  6  7  1  0  0  0
  7 26  1  0  0  0
 26 28  1  0  0  0
 28 29  2  0  0  0
 29 30  1  0  0  0
 30 31  2  0  0  0
 31 32  1  0  0  0
 31 33  1  0  0  0
 33 34  1  0  0  0
 33 35  2  0  0  0
  7  8  2  0  0  0
  8  9  1  0  0  0
  9 10  2  0  0  0
 10 11  1  0  0  0
 11 12  1  0  0  0
 12 13  2  0  0  0
 12 15  1  0  0  0
 15 16  2  0  0  0
 16 17  1  0  0  0
 17 18  1  0  0  0
 18 19  1  0  0  0
 19 20  1  0  0  0
 20 21  1  0  0  0
 21 22  1  0  0  0
 22 23  1  0  0  0
 10  1  1  0  0  0
 23 18  1  0  0  0
  8  3  1  0  0  0
 35 28  1  0  0  0
 26 27  1  0  0  0
 11 14  1  0  0  0
M  END
> <minimizedAffinity>
-7.31957

> <CNNscore>
0.7724890113

> <CNNaffinity>
7.0843186378

> <CNN_VS>
5.4725584984

> <CNNaffinity_variance>
0.2831006646

$$$$
[H]/C(C(=O)N([H])c1c(OC([H])([H])[H])c([H])c2nc([H])nc(N([H])c3c([H])c([H])c(F)c(Cl)c3[H])c2c1[H])=C(/[H])C([H])([H])N1C([H])([H])C([H])([H])OC([H])([H])C1([H])[H]


 35 38  0  0  0  0  0  0  0  0999 V2000
    0.1188  -51.5263  -19.9811 C   0  0  0  0  0  0  0  0  0  0  0  0
   -0.4835  -52.7571  -20.0193 C   0  0  0  0  0  0  0  0  0  0  0  0
   -0.4947  -53.5428  -21.2296 C   0  0  0  0  0  0  0  0  0  0  0  0
   -1.2602  -54.5865  -21.2681 N   0  0  0  0  0  0  0  0  0  0  0  0
   -1.5264  -55.2948  -22.4465 C   0  0  0  0  0  0  0  0  0  0  0  0
   -0.8964  -54.7821  -23.5325 N   0  0  0  0  0  0  0  0  0  0  0  0
   -0.0855  -53.7219  -23.6181 C   0  0  0  0  0  0  0  0  0  0  0  0
    0.1137  -53.0805  -22.3786 C   0  0  0  0  0  0  0  0  0  0  0  0
    0.7771  -51.8102  -22.3721 C   0  0  0  0  0  0  0  0  0  0  0  0
    0.7309  -51.1882  -21.2632 C   0  0  0  0  0  0  0  0  0  0  0  0
    1.7264  -50.1433  -20.8898 N   0  0  0  0  0  0  0  0  0  0  0  0
    2.2635  -49.3485  -21.9206 C   0  0  0  0  0  0  0  0  0  0  0  0
    1.7357  -49.4686  -23.0893 O   0  0  0  0  0  0  0  0  0  0  0  0
    1.9516  -50.0367  -19.9242 H   0  0  0  0  0  0  0  0  0  0  0  0
    3.3512  -48.4724  -21.7854 C   0  0  0  0  0  0  0  0  0  0  0  0
    4.3922  -48.1535  -22.5327 C   0  0  0  0  0  0  0  0  0  0  0  0
    5.3273  -47.1355  -22.0644 C   0  0  0  0  0  0  0  0  0  0  0  0
    6.1617  -46.2320  -21.6459 N   0  0  0  0  0  0  0  0  0  0  0  0
    7.3860  -46.0889  -22.3610 C   0  0  0  0  0  0  0  0  0  0  0  0
    8.1657  -44.8705  -21.9787 C   0  0  0  0  0  0  0  0  0  0  0  0
    8.1908  -44.6418  -20.5914 O   0  0  0  0  0  0  0  0  0  0  0  0
    7.8783  -45.8378  -19.9262 C   0  0  0  0  0  0  0  0  0  0  0  0
    6.4597  -46.2249  -20.2004 C   0  0  0  0  0  0  0  0  0  0  0  0
    0.1808  -50.5681  -17.6628 C   0  0  0  0  0  0  0  0  0  0  0  0
    0.2019  -50.6480  -19.0859 O   0  0  0  0  0  0  0  0  0  0  0  0
    0.5303  -53.3098  -24.8092 N   0  0  0  0  0  0  0  0  0  0  0  0
    1.5833  -53.2537  -24.8365 H   0  0  0  0  0  0  0  0  0  0  0  0
   -0.1480  -52.9840  -25.9935 C   0  0  0  0  0  0  0  0  0  0  0  0
   -1.4410  -52.3332  -25.7628 C   0  0  0  0  0  0  0  0  0  0  0  0
   -2.1514  -51.9860  -26.7728 C   0  0  0  0  0  0  0  0  0  0  0  0
   -1.7810  -52.1810  -28.1084 C   0  0  0  0  0  0  0  0  0  0  0  0
   -2.6280  -51.8184  -29.1295 F   0  0  0  0  0  0  0  0  0  0  0  0
   -0.6295  -52.7621  -28.3782 C   0  0  0  0  0  0  0  0  0  0  0  0
   -0.0907  -53.0945  -30.0237 Cl  0  0  0  0  0  0  0  0  0  0  0  0
    0.2567  -53.2032  -27.2586 C   0  0  0  0  0  0  0  0  0  0  0  0
 24 25  1  0  0  0
 25  1  1  0  0  0
  1  2  2  0  0  0
  2  3  1  0  0  0
  3  4  2  0  0  0
  4  5  1  0  0  0
  5  6  2  0  0  0
  6  7  1  0  0  0
  7 26  1  0  0  0
 26 28  1  0  0  0
 28 29  2  0  0  0
 29 30  1  0  0  0
 30 31  2  0  0  0
 31 32  1  0  0  0
 31 33  1  0  0  0
 33 34  1  0  0  0
 33 35  2  0  0  0
  7  8  2  0  0  0
  8  9  1  0  0  0
  9 10  2  0  0  0
 10 11  1  0  0  0
 11 12  1  0  0  0
 12 13  2  0  0  0
 12 15  1  0  0  0
 15 16  2  0  0  0
 16 17  1  0  0  0
 17 18  1  0  0  0
 18 19  1  0  0  0
 19 20  1  0  0  0
 20 21  1  0  0  0
 21 22  1  0  0  0
 22 23  1  0  0  0
 10  1  1  0  0  0
 23 18  1  0  0  0
  8  3  1  0  0  0
 35 28  1  0  0  0
 26 27  1  0  0  0
 11 14  1  0  0  0
M  END
> <minimizedAffinity>
-6.60322

> <CNNscore>
0.7280883789

> <CNNaffinity>
7.2344222069

> <CNN_VS>
5.2672986984

> <CNNaffinity_variance>
0.0994059145

$$$$
[H]/C(C(=O)N([H])c1c(OC([H])([H])[H])c([H])c2nc([H])nc(N([H])c3c([H])c([H])c(F)c(Cl)c3[H])c2c1[H])=C(/[H])C([H])([H])N1C([H])([H])C([H])([H])OC([H])([H])C1([H])[H]


 35 38  0  0  0  0  0  0  0  0999 V2000
    0.9526  -53.1265  -26.0731 C   0  0  0  0  0  0  0  0  0  0  0  0
   -0.0864  -53.8928  -25.6121 C   0  0  0  0  0  0  0  0  0  0  0  0
   -0.4018  -53.9498  -24.2051 C   0  0  0  0  0  0  0  0  0  0  0  0
   -1.2425  -54.8512  -23.8080 N   0  0  0  0  0  0  0  0  0  0  0  0
   -1.4587  -55.1512  -22.4573 C   0  0  0  0  0  0  0  0  0  0  0  0
   -0.7074  -54.3986  -21.6156 N   0  0  0  0  0  0  0  0  0  0  0  0
    0.1841  -53.4435  -21.9019 C   0  0  0  0  0  0  0  0  0  0  0  0
    0.3273  -53.2224  -23.2868 C   0  0  0  0  0  0  0  0  0  0  0  0
    1.4046  -52.3886  -23.7317 C   0  0  0  0  0  0  0  0  0  0  0  0
    1.6112  -52.4058  -24.9871 C   0  0  0  0  0  0  0  0  0  0  0  0
    2.3044  -51.2948  -25.6992 N   0  0  0  0  0  0  0  0  0  0  0  0
    3.5514  -50.8712  -25.2010 C   0  0  0  0  0  0  0  0  0  0  0  0
    4.0814  -51.5815  -24.2663 O   0  0  0  0  0  0  0  0  0  0  0  0
    1.8665  -50.9152  -26.5108 H   0  0  0  0  0  0  0  0  0  0  0  0
    4.2383  -49.7180  -25.6100 C   0  0  0  0  0  0  0  0  0  0  0  0
    5.0357  -48.8468  -25.0191 C   0  0  0  0  0  0  0  0  0  0  0  0
    5.6136  -47.7578  -25.8002 C   0  0  0  0  0  0  0  0  0  0  0  0
    6.1269  -46.7901  -26.4986 N   0  0  0  0  0  0  0  0  0  0  0  0
    7.1022  -45.9685  -25.8627 C   0  0  0  0  0  0  0  0  0  0  0  0
    7.8214  -45.0532  -26.8029 C   0  0  0  0  0  0  0  0  0  0  0  0
    6.9706  -44.4456  -27.7433 O   0  0  0  0  0  0  0  0  0  0  0  0
    5.6511  -44.5006  -27.2673 C   0  0  0  0  0  0  0  0  0  0  0  0
    5.1787  -45.9190  -27.2199 C   0  0  0  0  0  0  0  0  0  0  0  0
    1.0674  -53.1312  -28.5798 C   0  0  0  0  0  0  0  0  0  0  0  0
    1.4504  -52.9687  -27.2163 O   0  0  0  0  0  0  0  0  0  0  0  0
    0.8798  -52.7136  -20.9267 N   0  0  0  0  0  0  0  0  0  0  0  0
    1.8702  -52.4156  -21.1343 H   0  0  0  0  0  0  0  0  0  0  0  0
    0.3509  -52.3201  -19.6881 C   0  0  0  0  0  0  0  0  0  0  0  0
    1.0749  -51.2026  -19.0752 C   0  0  0  0  0  0  0  0  0  0  0  0
    0.6802  -50.7537  -17.9403 C   0  0  0  0  0  0  0  0  0  0  0  0
   -0.4133  -51.2554  -17.2250 C   0  0  0  0  0  0  0  0  0  0  0  0
   -0.7371  -50.7420  -15.9909 F   0  0  0  0  0  0  0  0  0  0  0  0
   -1.1026  -52.2608  -17.7255 C   0  0  0  0  0  0  0  0  0  0  0  0
   -2.4674  -52.9945  -16.8845 Cl  0  0  0  0  0  0  0  0  0  0  0  0
   -0.7056  -52.8474  -19.0415 C   0  0  0  0  0  0  0  0  0  0  0  0
 24 25  1  0  0  0
 25  1  1  0  0  0
  1  2  2  0  0  0
  2  3  1  0  0  0
  3  4  2  0  0  0
  4  5  1  0  0  0
  5  6  2  0  0  0
  6  7  1  0  0  0
  7 26  1  0  0  0
 26 28  1  0  0  0
 28 29  2  0  0  0
 29 30  1  0  0  0
 30 31  2  0  0  0
 31 32  1  0  0  0
 31 33  1  0  0  0
 33 34  1  0  0  0
 33 35  2  0  0  0
  7  8  2  0  0  0
  8  9  1  0  0  0
  9 10  2  0  0  0
 10 11  1  0  0  0
 11 12  1  0  0  0
 12 13  2  0  0  0
 12 15  1  0  0  0
 15 16  2  0  0  0
 16 17  1  0  0  0
 17 18  1  0  0  0
 18 19  1  0  0  0
 19 20  1  0  0  0
 20 21  1  0  0  0
 21 22  1  0  0  0
 22 23  1  0  0  0
 10  1  1  0  0  0
 23 18  1  0  0  0
  8  3  1  0  0  0
 35 28  1  0  0  0
 26 27  1  0  0  0
 11 14  1  0  0  0
M  END
> <minimizedAffinity>
-6.77794

> <CNNscore>
0.4931021333

> <CNNaffinity>
6.9972572327

> <CNN_VS>
3.4503624439

> <CNNaffinity_variance>
0.2615256310

$$$$
[H]/C(C(=O)N([H])c1c(OC([H])([H])[H])c([H])c2nc([H])nc(N([H])c3c([H])c([H])c(F)c(Cl)c3[H])c2c1[H])=C(/[H])C([H])([H])N1C([H])([H])C([H])([H])OC([H])([H])C1([H])[H]


 35 38  0  0  0  0  0  0  0  0999 V2000
    1.4641  -53.3274  -25.6901 C   0  0  0  0  0  0  0  0  0  0  0  0
    0.2865  -53.9984  -25.4846 C   0  0  0  0  0  0  0  0  0  0  0  0
   -0.3197  -54.0540  -24.1763 C   0  0  0  0  0  0  0  0  0  0  0  0
   -1.3031  -54.8774  -23.9980 N   0  0  0  0  0  0  0  0  0  0  0  0
   -1.8231  -55.1832  -22.7342 C   0  0  0  0  0  0  0  0  0  0  0  0
   -1.1991  -54.5252  -21.7258 N   0  0  0  0  0  0  0  0  0  0  0  0
   -0.1845  -53.6556  -21.7831 C   0  0  0  0  0  0  0  0  0  0  0  0
    0.2644  -53.4204  -23.0986 C   0  0  0  0  0  0  0  0  0  0  0  0
    1.4820  -52.6862  -23.2777 C   0  0  0  0  0  0  0  0  0  0  0  0
    1.9439  -52.6971  -24.4632 C   0  0  0  0  0  0  0  0  0  0  0  0
    2.8686  -51.6441  -24.9713 N   0  0  0  0  0  0  0  0  0  0  0  0
    4.1077  -51.4875  -24.3211 C   0  0  0  0  0  0  0  0  0  0  0  0
    4.4237  -52.3725  -23.4403 O   0  0  0  0  0  0  0  0  0  0  0  0
    2.5799  -51.1118  -25.7637 H   0  0  0  0  0  0  0  0  0  0  0  0
    5.0014  -50.4251  -24.5249 C   0  0  0  0  0  0  0  0  0  0  0  0
    6.2940  -50.2408  -24.3272 C   0  0  0  0  0  0  0  0  0  0  0  0
    6.9048  -48.9713  -24.7086 C   0  0  0  0  0  0  0  0  0  0  0  0
    7.4453  -47.8403  -25.0498 N   0  0  0  0  0  0  0  0  0  0  0  0
    7.2614  -46.7342  -24.1705 C   0  0  0  0  0  0  0  0  0  0  0  0
    8.1198  -45.5544  -24.5022 C   0  0  0  0  0  0  0  0  0  0  0  0
    8.1845  -45.2868  -25.8812 O   0  0  0  0  0  0  0  0  0  0  0  0
    7.0899  -45.8950  -26.5157 C   0  0  0  0  0  0  0  0  0  0  0  0
    7.2080  -47.3839  -26.4331 C   0  0  0  0  0  0  0  0  0  0  0  0
    2.0923  -53.2605  -28.1186 C   0  0  0  0  0  0  0  0  0  0  0  0
    2.2021  -53.1947  -26.6988 O   0  0  0  0  0  0  0  0  0  0  0  0
    0.3554  -53.0174  -20.6566 N   0  0  0  0  0  0  0  0  0  0  0  0
    0.1516  -53.4228  -19.7043 H   0  0  0  0  0  0  0  0  0  0  0  0
    1.1766  -51.8803  -20.6938 C   0  0  0  0  0  0  0  0  0  0  0  0
    2.5578  -52.1469  -20.2817 C   0  0  0  0  0  0  0  0  0  0  0  0
    3.4030  -51.1820  -20.2783 C   0  0  0  0  0  0  0  0  0  0  0  0
    3.1056  -49.8651  -20.6475 C   0  0  0  0  0  0  0  0  0  0  0  0
    4.0649  -48.8827  -20.5686 F   0  0  0  0  0  0  0  0  0  0  0  0
    1.8798  -49.5645  -21.0263 C   0  0  0  0  0  0  0  0  0  0  0  0
    1.3912  -47.9290  -21.4673 Cl  0  0  0  0  0  0  0  0  0  0  0  0
    0.8318  -50.6297  -21.0533 C   0  0  0  0  0  0  0  0  0  0  0  0
 24 25  1  0  0  0
 25  1  1  0  0  0
  1  2  2  0  0  0
  2  3  1  0  0  0
  3  4  2  0  0  0
  4  5  1  0  0  0
  5  6  2  0  0  0
  6  7  1  0  0  0
  7 26  1  0  0  0
 26 28  1  0  0  0
 28 29  2  0  0  0
 29 30  1  0  0  0
 30 31  2  0  0  0
 31 32  1  0  0  0
 31 33  1  0  0  0
 33 34  1  0  0  0
 33 35  2  0  0  0
  7  8  2  0  0  0
  8  9  1  0  0  0
  9 10  2  0  0  0
 10 11  1  0  0  0
 11 12  1  0  0  0
 12 13  2  0  0  0
 12 15  1  0  0  0
 15 16  2  0  0  0
 16 17  1  0  0  0
 17 18  1  0  0  0
 18 19  1  0  0  0
 19 20  1  0  0  0
 20 21  1  0  0  0
 21 22  1  0  0  0
 22 23  1  0  0  0
 10  1  1  0  0  0
 23 18  1  0  0  0
  8  3  1  0  0  0
 35 28  1  0  0  0
 26 27  1  0  0  0
 11 14  1  0  0  0
M  END
> <minimizedAffinity>
-6.71536

> <CNNscore>
0.3348559439

> <CNNaffinity>
6.8638448715

> <CNN_VS>
2.2983992100

> <CNNaffinity_variance>
0.0956609622

$$$$
[H]/C(C(=O)N([H])c1c(OC([H])([H])[H])c([H])c2nc([H])nc(N([H])c3c([H])c([H])c(F)c(Cl)c3[H])c2c1[H])=C(/[H])C([H])([H])N1C([H])([H])C([H])([H])OC([H])([H])C1([H])[H]


 35 38  0  0  0  0  0  0  0  0999 V2000
    0.4365  -53.3453  -24.6420 C   0  0  0  0  0  0  0  0  0  0  0  0
   -0.6261  -53.4928  -23.7886 C   0  0  0  0  0  0  0  0  0  0  0  0
   -0.4973  -53.1982  -22.3819 C   0  0  0  0  0  0  0  0  0  0  0  0
   -1.4592  -53.5626  -21.5953 N   0  0  0  0  0  0  0  0  0  0  0  0
   -1.3555  -53.5350  -20.1990 C   0  0  0  0  0  0  0  0  0  0  0  0
   -0.1546  -53.0820  -19.7610 N   0  0  0  0  0  0  0  0  0  0  0  0
    0.9059  -52.6765  -20.4680 C   0  0  0  0  0  0  0  0  0  0  0  0
    0.6977  -52.7464  -21.8605 C   0  0  0  0  0  0  0  0  0  0  0  0
    1.8248  -52.5539  -22.7244 C   0  0  0  0  0  0  0  0  0  0  0  0
    1.6183  -52.8437  -23.9459 C   0  0  0  0  0  0  0  0  0  0  0  0
    2.4381  -52.2742  -25.0530 N   0  0  0  0  0  0  0  0  0  0  0  0
    2.4413  -50.8757  -25.2167 C   0  0  0  0  0  0  0  0  0  0  0  0
    1.8687  -50.1765  -24.2990 O   0  0  0  0  0  0  0  0  0  0  0  0
    2.9669  -52.9058  -25.6152 H   0  0  0  0  0  0  0  0  0  0  0  0
    2.9781  -50.1897  -26.3168 C   0  0  0  0  0  0  0  0  0  0  0  0
    3.6060  -49.0401  -26.4850 C   0  0  0  0  0  0  0  0  0  0  0  0
    4.0664  -48.6617  -27.8172 C   0  0  0  0  0  0  0  0  0  0  0  0
    4.4788  -48.3228  -29.0016 N   0  0  0  0  0  0  0  0  0  0  0  0
    5.8776  -48.4119  -29.2590 C   0  0  0  0  0  0  0  0  0  0  0  0
    6.2335  -48.2535  -30.7036 C   0  0  0  0  0  0  0  0  0  0  0  0
    5.5181  -47.2239  -31.3405 O   0  0  0  0  0  0  0  0  0  0  0  0
    5.0173  -46.3461  -30.3661 C   0  0  0  0  0  0  0  0  0  0  0  0
    3.9859  -47.0365  -29.5313 C   0  0  0  0  0  0  0  0  0  0  0  0
    0.1236  -54.5390  -26.8269 C   0  0  0  0  0  0  0  0  0  0  0  0
    0.5855  -53.5937  -25.8650 O   0  0  0  0  0  0  0  0  0  0  0  0
    2.0900  -52.1994  -19.8866 N   0  0  0  0  0  0  0  0  0  0  0  0
    2.7504  -52.8959  -19.4488 H   0  0  0  0  0  0  0  0  0  0  0  0
    2.4865  -50.8537  -19.8597 C   0  0  0  0  0  0  0  0  0  0  0  0
    1.3601  -49.9158  -19.8502 C   0  0  0  0  0  0  0  0  0  0  0  0
    1.6001  -48.6560  -19.8231 C   0  0  0  0  0  0  0  0  0  0  0  0
    2.8811  -48.0924  -19.7986 C   0  0  0  0  0  0  0  0  0  0  0  0
    3.0452  -46.7270  -19.8174 F   0  0  0  0  0  0  0  0  0  0  0  0
    3.9331  -48.8859  -19.8067 C   0  0  0  0  0  0  0  0  0  0  0  0
    5.5876  -48.2770  -19.8231 Cl  0  0  0  0  0  0  0  0  0  0  0  0
    3.7418  -50.3676  -19.8439 C   0  0  0  0  0  0  0  0  0  0  0  0
 24 25  1  0  0  0
 25  1  1  0  0  0
  1  2  2  0  0  0
  2  3  1  0  0  0
  3  4  2  0  0  0
  4  5  1  0  0  0
  5  6  2  0  0  0
  6  7  1  0  0  0
  7 26  1  0  0  0
 26 28  1  0  0  0
 28 29  2  0  0  0
 29 30  1  0  0  0
 30 31  2  0  0  0
 31 32  1  0  0  0
 31 33  1  0  0  0
 33 34  1  0  0  0
 33 35  2  0  0  0
  7  8  2  0  0  0
  8  9  1  0  0  0
  9 10  2  0  0  0
 10 11  1  0  0  0
 11 12  1  0  0  0
 12 13  2  0  0  0
 12 15  1  0  0  0
 15 16  2  0  0  0
 16 17  1  0  0  0
 17 18  1  0  0  0
 18 19  1  0  0  0
 19 20  1  0  0  0
 20 21  1  0  0  0
 21 22  1  0  0  0
 22 23  1  0  0  0
 10  1  1  0  0  0
 23 18  1  0  0  0
  8  3  1  0  0  0
 35 28  1  0  0  0
 26 27  1  0  0  0
 11 14  1  0  0  0
M  END
> <minimizedAffinity>
-6.91062

> <CNNscore>
0.2609189153

> <CNNaffinity>
6.6153168678

> <CNN_VS>
1.7260613441

> <CNNaffinity_variance>
0.1325146556

$$$$
[H]/C(C(=O)N([H])c1c(OC([H])([H])[H])c([H])c2nc([H])nc(N([H])c3c([H])c([H])c(F)c(Cl)c3[H])c2c1[H])=C(/[H])C([H])([H])N1C([H])([H])C([H])([H])OC([H])([H])C1([H])[H]


 35 38  0  0  0  0  0  0  0  0999 V2000
    0.9733  -52.8740  -26.2388 C   0  0  0  0  0  0  0  0  0  0  0  0
    0.1949  -53.9309  -25.8433 C   0  0  0  0  0  0  0  0  0  0  0  0
   -0.4741  -53.9249  -24.5648 C   0  0  0  0  0  0  0  0  0  0  0  0
   -1.0094  -55.0306  -24.1553 N   0  0  0  0  0  0  0  0  0  0  0  0
   -1.4865  -55.2106  -22.8510 C   0  0  0  0  0  0  0  0  0  0  0  0
   -1.3378  -54.1112  -22.0709 N   0  0  0  0  0  0  0  0  0  0  0  0
   -0.8092  -52.9214  -22.3774 C   0  0  0  0  0  0  0  0  0  0  0  0
   -0.3583  -52.8472  -23.7109 C   0  0  0  0  0  0  0  0  0  0  0  0
    0.4249  -51.7115  -24.0989 C   0  0  0  0  0  0  0  0  0  0  0  0
    0.9801  -51.8089  -25.2396 C   0  0  0  0  0  0  0  0  0  0  0  0
    1.4010  -50.6166  -26.0291 N   0  0  0  0  0  0  0  0  0  0  0  0
    2.6585  -50.0503  -25.7450 C   0  0  0  0  0  0  0  0  0  0  0  0
    3.4255  -50.6994  -24.9393 O   0  0  0  0  0  0  0  0  0  0  0  0
    0.7845  -50.2856  -26.7397 H   0  0  0  0  0  0  0  0  0  0  0  0
    3.1221  -48.8194  -26.2339 C   0  0  0  0  0  0  0  0  0  0  0  0
    3.3160  -47.6211  -25.7138 C   0  0  0  0  0  0  0  0  0  0  0  0
    3.8666  -46.5572  -26.5475 C   0  0  0  0  0  0  0  0  0  0  0  0
    4.3537  -45.6104  -27.2919 N   0  0  0  0  0  0  0  0  0  0  0  0
    3.9944  -45.6103  -28.6708 C   0  0  0  0  0  0  0  0  0  0  0  0
    4.3825  -44.3582  -29.3922 C   0  0  0  0  0  0  0  0  0  0  0  0
    5.6682  -43.9000  -29.0538 O   0  0  0  0  0  0  0  0  0  0  0  0
    6.3992  -44.9617  -28.4978 C   0  0  0  0  0  0  0  0  0  0  0  0
    5.8052  -45.3653  -27.1857 C   0  0  0  0  0  0  0  0  0  0  0  0
    2.9412  -53.1188  -27.7764 C   0  0  0  0  0  0  0  0  0  0  0  0
    1.6906  -52.6789  -27.2522 O   0  0  0  0  0  0  0  0  0  0  0  0
   -0.7405  -51.8475  -21.4774 N   0  0  0  0  0  0  0  0  0  0  0  0
   -1.6379  -51.3684  -21.1983 H   0  0  0  0  0  0  0  0  0  0  0  0
    0.4390  -51.3657  -20.8899 C   0  0  0  0  0  0  0  0  0  0  0  0
    1.3275  -52.4293  -20.4127 C   0  0  0  0  0  0  0  0  0  0  0  0
    2.4393  -52.1090  -19.8588 C   0  0  0  0  0  0  0  0  0  0  0  0
    2.8833  -50.7949  -19.6718 C   0  0  0  0  0  0  0  0  0  0  0  0
    4.0706  -50.5429  -19.0249 F   0  0  0  0  0  0  0  0  0  0  0  0
    2.1267  -49.7961  -20.0797 C   0  0  0  0  0  0  0  0  0  0  0  0
    2.5727  -48.1058  -19.8513 Cl  0  0  0  0  0  0  0  0  0  0  0  0
    0.8119  -50.0820  -20.7304 C   0  0  0  0  0  0  0  0  0  0  0  0
 24 25  1  0  0  0
 25  1  1  0  0  0
  1  2  2  0  0  0
  2  3  1  0  0  0
  3  4  2  0  0  0
  4  5  1  0  0  0
  5  6  2  0  0  0
  6  7  1  0  0  0
  7 26  1  0  0  0
 26 28  1  0  0  0
 28 29  2  0  0  0
 29 30  1  0  0  0
 30 31  2  0  0  0
 31 32  1  0  0  0
 31 33  1  0  0  0
 33 34  1  0  0  0
 33 35  2  0  0  0
  7  8  2  0  0  0
  8  9  1  0  0  0
  9 10  2  0  0  0
 10 11  1  0  0  0
 11 12  1  0  0  0
 12 13  2  0  0  0
 12 15  1  0  0  0
 15 16  2  0  0  0
 16 17  1  0  0  0
 17 18  1  0  0  0
 18 19  1  0  0  0
 19 20  1  0  0  0
 20 21  1  0  0  0
 21 22  1  0  0  0
 22 23  1  0  0  0
 10  1  1  0  0  0
 23 18  1  0  0  0
  8  3  1  0  0  0
 35 28  1  0  0  0
 26 27  1  0  0  0
 11 14  1  0  0  0
M  END
> <minimizedAffinity>
-6.77481

> <CNNscore>
0.2262207121

> <CNNaffinity>
6.6450209618

> <CNN_VS>
1.5032414198

> <CNNaffinity_variance>
0.1931891590

$$$$
[H]/C(C(=O)N([H])c1c(OC([H])([H])[H])c([H])c2nc([H])nc(N([H])c3c([H])c([H])c(F)c(Cl)c3[H])c2c1[H])=C(/[H])C([H])([H])N1C([H])([H])C([H])([H])OC([H])([H])C1([H])[H]


 35 38  0  0  0  0  0  0  0  0999 V2000
    0.6847  -53.6045  -25.0071 C   0  0  0  0  0  0  0  0  0  0  0  0
   -0.4182  -53.8044  -24.2178 C   0  0  0  0  0  0  0  0  0  0  0  0
   -0.4100  -53.4400  -22.8216 C   0  0  0  0  0  0  0  0  0  0  0  0
   -1.3905  -53.8502  -22.0819 N   0  0  0  0  0  0  0  0  0  0  0  0
   -1.3848  -53.7542  -20.6848 C   0  0  0  0  0  0  0  0  0  0  0  0
   -0.2574  -53.1832  -20.1927 N   0  0  0  0  0  0  0  0  0  0  0  0
    0.8124  -52.7204  -20.8487 C   0  0  0  0  0  0  0  0  0  0  0  0
    0.7060  -52.8671  -22.2467 C   0  0  0  0  0  0  0  0  0  0  0  0
    1.8700  -52.6174  -23.0445 C   0  0  0  0  0  0  0  0  0  0  0  0
    1.7715  -52.9756  -24.2614 C   0  0  0  0  0  0  0  0  0  0  0  0
    2.6159  -52.3869  -25.3396 N   0  0  0  0  0  0  0  0  0  0  0  0
    2.5623  -50.9927  -25.5295 C   0  0  0  0  0  0  0  0  0  0  0  0
    1.9151  -50.3059  -24.6530 O   0  0  0  0  0  0  0  0  0  0  0  0
    3.1995  -53.0023  -25.8643 H   0  0  0  0  0  0  0  0  0  0  0  0
    3.1186  -50.3008  -26.6162 C   0  0  0  0  0  0  0  0  0  0  0  0
    3.6927  -49.1226  -26.7783 C   0  0  0  0  0  0  0  0  0  0  0  0
    4.2011  -48.7466  -28.0936 C   0  0  0  0  0  0  0  0  0  0  0  0
    4.6518  -48.4148  -29.2660 N   0  0  0  0  0  0  0  0  0  0  0  0
    6.0599  -48.4882  -29.4718 C   0  0  0  0  0  0  0  0  0  0  0  0
    6.4658  -48.3403  -30.9044 C   0  0  0  0  0  0  0  0  0  0  0  0
    5.7608  -47.3271  -31.5779 O   0  0  0  0  0  0  0  0  0  0  0  0
    5.2139  -46.4457  -30.6320 C   0  0  0  0  0  0  0  0  0  0  0  0
    4.1619  -47.1408  -29.8273 C   0  0  0  0  0  0  0  0  0  0  0  0
    0.2342  -54.3056  -27.3739 C   0  0  0  0  0  0  0  0  0  0  0  0
    0.9364  -53.8915  -26.2045 O   0  0  0  0  0  0  0  0  0  0  0  0
    1.9113  -52.1206  -20.2159 N   0  0  0  0  0  0  0  0  0  0  0  0
    2.2937  -52.5698  -19.3414 H   0  0  0  0  0  0  0  0  0  0  0  0
    2.5695  -50.9678  -20.6705 C   0  0  0  0  0  0  0  0  0  0  0  0
    4.0297  -51.0583  -20.5803 C   0  0  0  0  0  0  0  0  0  0  0  0
    4.7396  -50.0636  -20.9704 C   0  0  0  0  0  0  0  0  0  0  0  0
    4.2196  -48.8724  -21.4897 C   0  0  0  0  0  0  0  0  0  0  0  0
    5.0555  -47.8382  -21.8404 F   0  0  0  0  0  0  0  0  0  0  0  0
    2.9134  -48.7325  -21.5941 C   0  0  0  0  0  0  0  0  0  0  0  0
    2.1566  -47.2568  -22.1921 Cl  0  0  0  0  0  0  0  0  0  0  0  0
    2.0133  -49.8422  -21.1562 C   0  0  0  0  0  0  0  0  0  0  0  0
 24 25  1  0  0  0
 25  1  1  0  0  0
  1  2  2  0  0  0
  2  3  1  0  0  0
  3  4  2  0  0  0
  4  5  1  0  0  0
  5  6  2  0  0  0
  6  7  1  0  0  0
  7 26  1  0  0  0
 26 28  1  0  0  0
 28 29  2  0  0  0
 29 30  1  0  0  0
 30 31  2  0  0  0
 31 32  1  0  0  0
 31 33  1  0  0  0
 33 34  1  0  0  0
 33 35  2  0  0  0
  7  8  2  0  0  0
  8  9  1  0  0  0
  9 10  2  0  0  0
 10 11  1  0  0  0
 11 12  1  0  0  0
 12 13  2  0  0  0
 12 15  1  0  0  0
 15 16  2  0  0  0
 16 17  1  0  0  0
 17 18  1  0  0  0
 18 19  1  0  0  0
 19 20  1  0  0  0
 20 21  1  0  0  0
 21 22  1  0  0  0
 22 23  1  0  0  0
 10  1  1  0  0  0
 23 18  1  0  0  0
  8  3  1  0  0  0
 35 28  1  0  0  0
 26 27  1  0  0  0
 11 14  1  0  0  0
M  END
> <minimizedAffinity>
-6.91100

> <CNNscore>
0.2251331210

> <CNNaffinity>
6.6360330582

> <CNN_VS>
1.4939907789

> <CNNaffinity_variance>
0.1357959360

$$$$
[H]/C(C(=O)N([H])c1c(OC([H])([H])[H])c([H])c2nc([H])nc(N([H])c3c([H])c([H])c(F)c(Cl)c3[H])c2c1[H])=C(/[H])C([H])([H])N1C([H])([H])C([H])([H])OC([H])([H])C1([H])[H]


 35 38  0  0  0  0  0  0  0  0999 V2000
    0.3558  -53.6430  -25.1874 C   0  0  0  0  0  0  0  0  0  0  0  0
   -0.4990  -54.3272  -24.3625 C   0  0  0  0  0  0  0  0  0  0  0  0
   -0.8246  -53.8272  -23.0486 C   0  0  0  0  0  0  0  0  0  0  0  0
   -1.4549  -54.6166  -22.2384 N   0  0  0  0  0  0  0  0  0  0  0  0
   -1.6291  -54.3333  -20.8780 C   0  0  0  0  0  0  0  0  0  0  0  0
   -1.0802  -53.1511  -20.5035 N   0  0  0  0  0  0  0  0  0  0  0  0
   -0.4146  -52.2558  -21.2412 C   0  0  0  0  0  0  0  0  0  0  0  0
   -0.2934  -52.6381  -22.5927 C   0  0  0  0  0  0  0  0  0  0  0  0
    0.5835  -51.8798  -23.4352 C   0  0  0  0  0  0  0  0  0  0  0  0
    0.8160  -52.4010  -24.5724 C   0  0  0  0  0  0  0  0  0  0  0  0
    1.2633  -51.5964  -25.7449 N   0  0  0  0  0  0  0  0  0  0  0  0
    2.6218  -51.2324  -25.8130 C   0  0  0  0  0  0  0  0  0  0  0  0
    3.4141  -51.7586  -24.9445 O   0  0  0  0  0  0  0  0  0  0  0  0
    0.5865  -51.3705  -26.4417 H   0  0  0  0  0  0  0  0  0  0  0  0
    3.1700  -50.3131  -26.7203 C   0  0  0  0  0  0  0  0  0  0  0  0
    3.6937  -49.1046  -26.6240 C   0  0  0  0  0  0  0  0  0  0  0  0
    4.2133  -48.4499  -27.8204 C   0  0  0  0  0  0  0  0  0  0  0  0
    4.6753  -47.8703  -28.8873 N   0  0  0  0  0  0  0  0  0  0  0  0
    3.7917  -47.0089  -29.6001 C   0  0  0  0  0  0  0  0  0  0  0  0
    4.4703  -46.1916  -30.6538 C   0  0  0  0  0  0  0  0  0  0  0  0
    5.4114  -46.9223  -31.4007 O   0  0  0  0  0  0  0  0  0  0  0  0
    5.1344  -48.2922  -31.2686 C   0  0  0  0  0  0  0  0  0  0  0  0
    5.3742  -48.7331  -29.8595 C   0  0  0  0  0  0  0  0  0  0  0  0
    0.3817  -54.3948  -27.5813 C   0  0  0  0  0  0  0  0  0  0  0  0
    0.8314  -53.9015  -26.3217 O   0  0  0  0  0  0  0  0  0  0  0  0
    0.0822  -51.0465  -20.7327 N   0  0  0  0  0  0  0  0  0  0  0  0
   -0.2469  -50.1449  -21.1705 H   0  0  0  0  0  0  0  0  0  0  0  0
    0.9764  -50.9340  -19.6573 C   0  0  0  0  0  0  0  0  0  0  0  0
    2.3640  -51.2354  -20.0209 C   0  0  0  0  0  0  0  0  0  0  0  0
    3.2730  -51.1628  -19.1187 C   0  0  0  0  0  0  0  0  0  0  0  0
    3.0409  -50.8081  -17.7848 C   0  0  0  0  0  0  0  0  0  0  0  0
    4.0707  -50.8014  -16.8732 F   0  0  0  0  0  0  0  0  0  0  0  0
    1.8129  -50.5270  -17.3984 C   0  0  0  0  0  0  0  0  0  0  0  0
    1.4075  -50.1135  -15.7331 Cl  0  0  0  0  0  0  0  0  0  0  0  0
    0.6932  -50.5933  -18.3860 C   0  0  0  0  0  0  0  0  0  0  0  0
 24 25  1  0  0  0
 25  1  1  0  0  0
  1  2  2  0  0  0
  2  3  1  0  0  0
  3  4  2  0  0  0
  4  5  1  0  0  0
  5  6  2  0  0  0
  6  7  1  0  0  0
  7 26  1  0  0  0
 26 28  1  0  0  0
 28 29  2  0  0  0
 29 30  1  0  0  0
 30 31  2  0  0  0
 31 32  1  0  0  0
 31 33  1  0  0  0
 33 34  1  0  0  0
 33 35  2  0  0  0
  7  8  2  0  0  0
  8  9  1  0  0  0
  9 10  2  0  0  0
 10 11  1  0  0  0
 11 12  1  0  0  0
 12 13  2  0  0  0
 12 15  1  0  0  0
 15 16  2  0  0  0
 16 17  1  0  0  0
 17 18  1  0  0  0
 18 19  1  0  0  0
 19 20  1  0  0  0
 20 21  1  0  0  0
 21 22  1  0  0  0
 22 23  1  0  0  0
 10  1  1  0  0  0
 23 18  1  0  0  0
  8  3  1  0  0  0
 35 28  1  0  0  0
 26 27  1  0  0  0
 11 14  1  0  0  0
M  END
> <minimizedAffinity>
-7.56505

> <CNNscore>
0.2073376328

> <CNNaffinity>
6.5551528931

> <CNN_VS>
1.3591299057

> <CNNaffinity_variance>
0.1514296532

$$$$
[H]c1nc(N([H])c2c([H])c([H])c(OC([H])([H])c3nc([H])c([H])c([H])c3[H])c(Cl)c2[H])c2c(O[C@]([H])(C(=O)N(C([H])([H])[H])C([H])([H])[H])C([H])([H])[H])c([H])c([H])c([H])c2n1


 35 38  0  0  0  0  0  0  0  0999 V2000
    0.3523  -50.6851  -16.8291 C   0  0  0  0  0  0  0  0  0  0  0  0
    0.4280  -49.5156  -16.0596 C   0  0  0  0  0  0  0  0  0  0  0  0
   -0.6592  -49.1091  -15.3240 C   0  0  0  0  0  0  0  0  0  0  0  0
   -1.8270  -49.8190  -15.3192 C   0  0  0  0  0  0  0  0  0  0  0  0
   -1.9467  -50.9865  -16.0689 C   0  0  0  0  0  0  0  0  0  0  0  0
   -3.1152  -51.6569  -16.0203 N   0  0  0  0  0  0  0  0  0  0  0  0
   -3.2147  -52.7809  -16.7333 C   0  0  0  0  0  0  0  0  0  0  0  0
   -2.1996  -53.2067  -17.4540 N   0  0  0  0  0  0  0  0  0  0  0  0
   -0.9854  -52.5428  -17.5274 C   0  0  0  0  0  0  0  0  0  0  0  0
   -0.8443  -51.3970  -16.8149 C   0  0  0  0  0  0  0  0  0  0  0  0
   -0.0205  -53.0544  -18.3937 N   0  0  0  0  0  0  0  0  0  0  0  0
    0.8514  -53.4860  -18.1701 H   0  0  0  0  0  0  0  0  0  0  0  0
   -0.2553  -52.9430  -19.8308 C   0  0  0  0  0  0  0  0  0  0  0  0
   -0.0729  -51.7157  -20.4394 C   0  0  0  0  0  0  0  0  0  0  0  0
   -0.2367  -51.5315  -21.7820 C   0  0  0  0  0  0  0  0  0  0  0  0
   -0.5971  -52.6025  -22.5680 C   0  0  0  0  0  0  0  0  0  0  0  0
   -0.7863  -53.8370  -21.9967 C   0  0  0  0  0  0  0  0  0  0  0  0
   -1.2507  -55.2305  -22.9765 Cl  0  0  0  0  0  0  0  0  0  0  0  0
   -0.6123  -54.0069  -20.6141 C   0  0  0  0  0  0  0  0  0  0  0  0
   -0.7679  -52.4208  -23.9499 O   0  0  0  0  0  0  0  0  0  0  0  0
    0.3707  -52.2170  -24.7682 C   0  0  0  0  0  0  0  0  0  0  0  0
   -0.0096  -52.4294  -26.1827 C   0  0  0  0  0  0  0  0  0  0  0  0
   -1.3202  -52.3624  -26.6113 C   0  0  0  0  0  0  0  0  0  0  0  0
   -1.6569  -52.5605  -27.9326 C   0  0  0  0  0  0  0  0  0  0  0  0
   -0.6377  -52.8331  -28.8386 C   0  0  0  0  0  0  0  0  0  0  0  0
    0.6588  -52.8985  -28.4097 C   0  0  0  0  0  0  0  0  0  0  0  0
    0.9357  -52.6955  -27.0974 N   0  0  0  0  0  0  0  0  0  0  0  0
    1.4205  -51.1006  -17.5567 O   0  0  0  0  0  0  0  0  0  0  0  0
    3.6561  -50.9960  -16.6572 C   0  0  0  0  0  0  0  0  0  0  0  0
    2.6524  -50.4893  -17.6928 C   0  0  0  0  0  0  0  0  0  0  0  0
    3.2657  -50.7620  -19.0466 C   0  0  0  0  0  0  0  0  0  0  0  0
    3.3174  -51.9659  -19.4096 O   0  0  0  0  0  0  0  0  0  0  0  0
    3.7591  -49.7396  -19.8752 N   0  0  0  0  0  0  0  0  0  0  0  0
    3.7221  -48.3356  -19.5232 C   0  0  0  0  0  0  0  0  0  0  0  0
    4.3469  -50.1067  -21.1689 C   0  0  0  0  0  0  0  0  0  0  0  0
 29 30  1  0  0  0
 30 28  1  0  0  0
 28  1  1  0  0  0
  1  2  2  0  0  0
  2  3  1  0  0  0
  3  4  2  0  0  0
  4  5  1  0  0  0
  5  6  2  0  0  0
  6  7  1  0  0  0
  7  8  2  0  0  0
  8  9  1  0  0  0
  9 11  1  0  0  0
 11 13  1  0  0  0
 13 14  2  0  0  0
 14 15  1  0  0  0
 15 16  2  0  0  0
 16 20  1  0  0  0
 20 21  1  0  0  0
 21 22  1  0  0  0
 22 23  2  0  0  0
 23 24  1  0  0  0
 24 25  2  0  0  0
 25 26  1  0  0  0
 26 27  2  0  0  0
 16 17  1  0  0  0
 17 18  1  0  0  0
 17 19  2  0  0  0
  9 10  2  0  0  0
 30 31  1  0  0  0
 31 32  2  0  0  0
 31 33  1  0  0  0
 33 34  1  0  0  0
 33 35  1  0  0  0
 10  1  1  0  0  0
 10  5  1  0  0  0
 19 13  1  0  0  0
 27 22  1  0  0  0
 11 12  1  0  0  0
M  END
> <minimizedAffinity>
-8.50531

> <CNNscore>
0.7219635844

> <CNNaffinity>
7.2911620140

> <CNN_VS>
5.2639536858

> <CNNaffinity_variance>
0.1496597975

$$$$
[H]c1nc(N([H])c2c([H])c([H])c(OC([H])([H])c3nc([H])c([H])c([H])c3[H])c(Cl)c2[H])c2c(O[C@]([H])(C(=O)N(C([H])([H])[H])C([H])([H])[H])C([H])([H])[H])c([H])c([H])c([H])c2n1


 35 38  0  0  0  0  0  0  0  0999 V2000
    0.4927  -52.8056  -24.5646 C   0  0  0  0  0  0  0  0  0  0  0  0
    0.5782  -53.5986  -25.7175 C   0  0  0  0  0  0  0  0  0  0  0  0
   -0.0407  -54.8251  -25.7516 C   0  0  0  0  0  0  0  0  0  0  0  0
   -0.7462  -55.3016  -24.6825 C   0  0  0  0  0  0  0  0  0  0  0  0
   -0.8572  -54.5475  -23.5170 C   0  0  0  0  0  0  0  0  0  0  0  0
   -1.5745  -55.0567  -22.4956 N   0  0  0  0  0  0  0  0  0  0  0  0
   -1.6842  -54.3202  -21.3878 C   0  0  0  0  0  0  0  0  0  0  0  0
   -1.1063  -53.1407  -21.3101 N   0  0  0  0  0  0  0  0  0  0  0  0
   -0.3617  -52.5875  -22.3396 C   0  0  0  0  0  0  0  0  0  0  0  0
   -0.2286  -53.3049  -23.4833 C   0  0  0  0  0  0  0  0  0  0  0  0
    0.2682  -51.3676  -22.0983 N   0  0  0  0  0  0  0  0  0  0  0  0
    0.2495  -50.5367  -22.6513 H   0  0  0  0  0  0  0  0  0  0  0  0
    1.1018  -51.2459  -20.9053 C   0  0  0  0  0  0  0  0  0  0  0  0
    2.3545  -51.8296  -20.9094 C   0  0  0  0  0  0  0  0  0  0  0  0
    3.2111  -51.7346  -19.8508 C   0  0  0  0  0  0  0  0  0  0  0  0
    2.8216  -51.0330  -18.7324 C   0  0  0  0  0  0  0  0  0  0  0  0
    1.5837  -50.4395  -18.6940 C   0  0  0  0  0  0  0  0  0  0  0  0
    1.0530  -49.5343  -17.2740 Cl  0  0  0  0  0  0  0  0  0  0  0  0
    0.7170  -50.5477  -19.7931 C   0  0  0  0  0  0  0  0  0  0  0  0
    3.6971  -50.9311  -17.6391 O   0  0  0  0  0  0  0  0  0  0  0  0
    3.3446  -50.1048  -16.5436 C   0  0  0  0  0  0  0  0  0  0  0  0
    3.5486  -50.8595  -15.2869 C   0  0  0  0  0  0  0  0  0  0  0  0
    3.1748  -50.3568  -14.0566 C   0  0  0  0  0  0  0  0  0  0  0  0
    3.3699  -51.0736  -12.8962 C   0  0  0  0  0  0  0  0  0  0  0  0
    3.9586  -52.3301  -12.9889 C   0  0  0  0  0  0  0  0  0  0  0  0
    4.3272  -52.8240  -14.2093 C   0  0  0  0  0  0  0  0  0  0  0  0
    4.1126  -52.0768  -15.3209 N   0  0  0  0  0  0  0  0  0  0  0  0
    1.0954  -51.5898  -24.5192 O   0  0  0  0  0  0  0  0  0  0  0  0
    3.2948  -52.5726  -24.3996 C   0  0  0  0  0  0  0  0  0  0  0  0
    2.4478  -51.3055  -24.5151 C   0  0  0  0  0  0  0  0  0  0  0  0
    2.8794  -50.6216  -25.7915 C   0  0  0  0  0  0  0  0  0  0  0  0
    2.7964  -51.2985  -26.8493 O   0  0  0  0  0  0  0  0  0  0  0  0
    3.3522  -49.2984  -25.8202 N   0  0  0  0  0  0  0  0  0  0  0  0
    3.4640  -48.4623  -24.6434 C   0  0  0  0  0  0  0  0  0  0  0  0
    3.7582  -48.7258  -27.1090 C   0  0  0  0  0  0  0  0  0  0  0  0
 29 30  1  0  0  0
 30 28  1  0  0  0
 28  1  1  0  0  0
  1  2  2  0  0  0
  2  3  1  0  0  0
  3  4  2  0  0  0
  4  5  1  0  0  0
  5  6  2  0  0  0
  6  7  1  0  0  0
  7  8  2  0  0  0
  8  9  1  0  0  0
  9 11  1  0  0  0
 11 13  1  0  0  0
 13 14  2  0  0  0
 14 15  1  0  0  0
 15 16  2  0  0  0
 16 20  1  0  0  0
 20 21  1  0  0  0
 21 22  1  0  0  0
 22 23  2  0  0  0
 23 24  1  0  0  0
 24 25  2  0  0  0
 25 26  1  0  0  0
 26 27  2  0  0  0
 16 17  1  0  0  0
 17 18  1  0  0  0
 17 19  2  0  0  0
  9 10  2  0  0  0
 30 31  1  0  0  0
 31 32  2  0  0  0
 31 33  1  0  0  0
 33 34  1  0  0  0
 33 35  1  0  0  0
 10  1  1  0  0  0
 10  5  1  0  0  0
 19 13  1  0  0  0
 27 22  1  0  0  0
 11 12  1  0  0  0
M  END
> <minimizedAffinity>
-7.76820

> <CNNscore>
0.6873407364

> <CNNaffinity>
7.2870302200

> <CNN_VS>
5.0086727142

> <CNNaffinity_variance>
0.0942836478

$$$$
[H]c1nc(N([H])c2c([H])c([H])c(OC([H])([H])c3nc([H])c([H])c([H])c3[H])c(Cl)c2[H])c2c(O[C@]([H])(C(=O)N(C([H])([H])[H])C([H])([H])[H])C([H])([H])[H])c([H])c([H])c([H])c2n1


 35 38  0  0  0  0  0  0  0  0999 V2000
    1.0919  -51.7310  -24.1835 C   0  0  0  0  0  0  0  0  0  0  0  0
    0.9277  -51.3603  -25.5255 C   0  0  0  0  0  0  0  0  0  0  0  0
    0.0545  -52.0571  -26.3258 C   0  0  0  0  0  0  0  0  0  0  0  0
   -0.6682  -53.1138  -25.8475 C   0  0  0  0  0  0  0  0  0  0  0  0
   -0.5366  -53.5165  -24.5209 C   0  0  0  0  0  0  0  0  0  0  0  0
   -1.2811  -54.5565  -24.0948 N   0  0  0  0  0  0  0  0  0  0  0  0
   -1.1558  -54.9263  -22.8184 C   0  0  0  0  0  0  0  0  0  0  0  0
   -0.3300  -54.2890  -22.0164 N   0  0  0  0  0  0  0  0  0  0  0  0
    0.4502  -53.2175  -22.4209 C   0  0  0  0  0  0  0  0  0  0  0  0
    0.3495  -52.8101  -23.7110 C   0  0  0  0  0  0  0  0  0  0  0  0
    1.3459  -52.6846  -21.4952 N   0  0  0  0  0  0  0  0  0  0  0  0
    2.3374  -52.5938  -21.5687 H   0  0  0  0  0  0  0  0  0  0  0  0
    0.8177  -52.2080  -20.2198 C   0  0  0  0  0  0  0  0  0  0  0  0
    1.3308  -51.0420  -19.6838 C   0  0  0  0  0  0  0  0  0  0  0  0
    0.8705  -50.5078  -18.5149 C   0  0  0  0  0  0  0  0  0  0  0  0
   -0.1426  -51.1473  -17.8371 C   0  0  0  0  0  0  0  0  0  0  0  0
   -0.6764  -52.3080  -18.3410 C   0  0  0  0  0  0  0  0  0  0  0  0
   -1.9752  -53.1536  -17.4951 Cl  0  0  0  0  0  0  0  0  0  0  0  0
   -0.1904  -52.8415  -19.5451 C   0  0  0  0  0  0  0  0  0  0  0  0
   -0.6211  -50.6041  -16.6337 O   0  0  0  0  0  0  0  0  0  0  0  0
   -1.0993  -51.4737  -15.6225 C   0  0  0  0  0  0  0  0  0  0  0  0
   -2.3500  -50.9162  -15.0608 C   0  0  0  0  0  0  0  0  0  0  0  0
   -2.6611  -49.5738  -15.1448 C   0  0  0  0  0  0  0  0  0  0  0  0
   -3.8311  -49.0713  -14.6184 C   0  0  0  0  0  0  0  0  0  0  0  0
   -4.7044  -49.9540  -13.9923 C   0  0  0  0  0  0  0  0  0  0  0  0
   -4.3923  -51.2825  -13.9114 C   0  0  0  0  0  0  0  0  0  0  0  0
   -3.2270  -51.7251  -14.4464 N   0  0  0  0  0  0  0  0  0  0  0  0
    1.9476  -51.0482  -23.3805 O   0  0  0  0  0  0  0  0  0  0  0  0
    2.6143  -48.9452  -22.4055 C   0  0  0  0  0  0  0  0  0  0  0  0
    2.5893  -49.8513  -23.6363 C   0  0  0  0  0  0  0  0  0  0  0  0
    4.0309  -50.0637  -24.0359 C   0  0  0  0  0  0  0  0  0  0  0  0
    4.4071  -49.5123  -25.1029 O   0  0  0  0  0  0  0  0  0  0  0  0
    4.9243  -50.8331  -23.2708 N   0  0  0  0  0  0  0  0  0  0  0  0
    4.5599  -51.4859  -22.0309 C   0  0  0  0  0  0  0  0  0  0  0  0
    6.3030  -50.9897  -23.7486 C   0  0  0  0  0  0  0  0  0  0  0  0
 29 30  1  0  0  0
 30 28  1  0  0  0
 28  1  1  0  0  0
  1  2  2  0  0  0
  2  3  1  0  0  0
  3  4  2  0  0  0
  4  5  1  0  0  0
  5  6  2  0  0  0
  6  7  1  0  0  0
  7  8  2  0  0  0
  8  9  1  0  0  0
  9 11  1  0  0  0
 11 13  1  0  0  0
 13 14  2  0  0  0
 14 15  1  0  0  0
 15 16  2  0  0  0
 16 20  1  0  0  0
 20 21  1  0  0  0
 21 22  1  0  0  0
 22 23  2  0  0  0
 23 24  1  0  0  0
 24 25  2  0  0  0
 25 26  1  0  0  0
 26 27  2  0  0  0
 16 17  1  0  0  0
 17 18  1  0  0  0
 17 19  2  0  0  0
  9 10  2  0  0  0
 30 31  1  0  0  0
 31 32  2  0  0  0
 31 33  1  0  0  0
 33 34  1  0  0  0
 33 35  1  0  0  0
 10  1  1  0  0  0
 10  5  1  0  0  0
 19 13  1  0  0  0
 27 22  1  0  0  0
 11 12  1  0  0  0
M  END
> <minimizedAffinity>
-7.91883

> <CNNscore>
0.5908629298

> <CNNaffinity>
7.1998777390

> <CNN_VS>
4.2541408539

> <CNNaffinity_variance>
0.1486593634

$$$$
[H]c1nc(N([H])c2c([H])c([H])c(OC([H])([H])c3nc([H])c([H])c([H])c3[H])c(Cl)c2[H])c2c(O[C@]([H])(C(=O)N(C([H])([H])[H])C([H])([H])[H])C([H])([H])[H])c([H])c([H])c([H])c2n1


 35 38  0  0  0  0  0  0  0  0999 V2000
    1.0045  -51.6463  -23.6479 C   0  0  0  0  0  0  0  0  0  0  0  0
    0.8515  -51.1612  -24.9543 C   0  0  0  0  0  0  0  0  0  0  0  0
    0.0081  -51.8040  -25.8284 C   0  0  0  0  0  0  0  0  0  0  0  0
   -0.6951  -52.9160  -25.4585 C   0  0  0  0  0  0  0  0  0  0  0  0
   -0.5735  -53.4324  -24.1710 C   0  0  0  0  0  0  0  0  0  0  0  0
   -1.2980  -54.5235  -23.8520 N   0  0  0  0  0  0  0  0  0  0  0  0
   -1.1829  -55.0029  -22.6116 C   0  0  0  0  0  0  0  0  0  0  0  0
   -0.3855  -54.4206  -21.7420 N   0  0  0  0  0  0  0  0  0  0  0  0
    0.3737  -53.2991  -22.0359 C   0  0  0  0  0  0  0  0  0  0  0  0
    0.2823  -52.7805  -23.2862 C   0  0  0  0  0  0  0  0  0  0  0  0
    1.2417  -52.8301  -21.0511 N   0  0  0  0  0  0  0  0  0  0  0  0
    2.2390  -52.7878  -21.0685 H   0  0  0  0  0  0  0  0  0  0  0  0
    0.6675  -52.3527  -19.7961 C   0  0  0  0  0  0  0  0  0  0  0  0
    1.2235  -51.2402  -19.1934 C   0  0  0  0  0  0  0  0  0  0  0  0
    0.7277  -50.7072  -18.0387 C   0  0  0  0  0  0  0  0  0  0  0  0
   -0.3673  -51.2927  -17.4444 C   0  0  0  0  0  0  0  0  0  0  0  0
   -0.9456  -52.3994  -18.0162 C   0  0  0  0  0  0  0  0  0  0  0  0
   -2.3495  -53.1752  -17.2782 Cl  0  0  0  0  0  0  0  0  0  0  0  0
   -0.4218  -52.9325  -19.2045 C   0  0  0  0  0  0  0  0  0  0  0  0
   -0.8828  -50.7504  -16.2561 O   0  0  0  0  0  0  0  0  0  0  0  0
    0.0005  -50.1370  -15.3337 C   0  0  0  0  0  0  0  0  0  0  0  0
   -0.6621  -48.9489  -14.7507 C   0  0  0  0  0  0  0  0  0  0  0  0
   -1.6531  -48.2566  -15.4176 C   0  0  0  0  0  0  0  0  0  0  0  0
   -2.2614  -47.1535  -14.8595 C   0  0  0  0  0  0  0  0  0  0  0  0
   -1.8526  -46.7449  -13.5946 C   0  0  0  0  0  0  0  0  0  0  0  0
   -0.8708  -47.4334  -12.9379 C   0  0  0  0  0  0  0  0  0  0  0  0
   -0.3046  -48.5130  -13.5329 N   0  0  0  0  0  0  0  0  0  0  0  0
    1.8307  -51.0181  -22.7727 O   0  0  0  0  0  0  0  0  0  0  0  0
    3.8801  -52.1183  -23.4108 C   0  0  0  0  0  0  0  0  0  0  0  0
    3.2025  -50.8689  -22.8483 C   0  0  0  0  0  0  0  0  0  0  0  0
    3.5917  -49.7284  -23.7600 C   0  0  0  0  0  0  0  0  0  0  0  0
    4.1671  -50.0380  -24.8356 O   0  0  0  0  0  0  0  0  0  0  0  0
    3.3342  -48.3834  -23.4439 N   0  0  0  0  0  0  0  0  0  0  0  0
    2.6691  -47.9592  -22.2298 C   0  0  0  0  0  0  0  0  0  0  0  0
    3.7610  -47.3459  -24.3901 C   0  0  0  0  0  0  0  0  0  0  0  0
 29 30  1  0  0  0
 30 28  1  0  0  0
 28  1  1  0  0  0
  1  2  2  0  0  0
  2  3  1  0  0  0
  3  4  2  0  0  0
  4  5  1  0  0  0
  5  6  2  0  0  0
  6  7  1  0  0  0
  7  8  2  0  0  0
  8  9  1  0  0  0
  9 11  1  0  0  0
 11 13  1  0  0  0
 13 14  2  0  0  0
 14 15  1  0  0  0
 15 16  2  0  0  0
 16 20  1  0  0  0
 20 21  1  0  0  0
 21 22  1  0  0  0
 22 23  2  0  0  0
 23 24  1  0  0  0
 24 25  2  0  0  0
 25 26  1  0  0  0
 26 27  2  0  0  0
 16 17  1  0  0  0
 17 18  1  0  0  0
 17 19  2  0  0  0
  9 10  2  0  0  0
 30 31  1  0  0  0
 31 32  2  0  0  0
 31 33  1  0  0  0
 33 34  1  0  0  0
 33 35  1  0  0  0
 10  1  1  0  0  0
 10  5  1  0  0  0
 19 13  1  0  0  0
 27 22  1  0  0  0
 11 12  1  0  0  0
M  END
> <minimizedAffinity>
-7.40455

> <CNNscore>
0.5012656450

> <CNNaffinity>
7.0645880699

> <CNN_VS>
3.5412352085

> <CNNaffinity_variance>
0.1242746934

$$$$
[H]c1nc(N([H])c2c([H])c([H])c(OC([H])([H])c3nc([H])c([H])c([H])c3[H])c(Cl)c2[H])c2c(O[C@]([H])(C(=O)N(C([H])([H])[H])C([H])([H])[H])C([H])([H])[H])c([H])c([H])c([H])c2n1


 35 38  0  0  0  0  0  0  0  0999 V2000
    0.7550  -51.4507  -23.9455 C   0  0  0  0  0  0  0  0  0  0  0  0
    0.5973  -51.1669  -25.3093 C   0  0  0  0  0  0  0  0  0  0  0  0
   -0.1189  -52.0254  -26.1083 C   0  0  0  0  0  0  0  0  0  0  0  0
   -0.6896  -53.1619  -25.6079 C   0  0  0  0  0  0  0  0  0  0  0  0
   -0.5583  -53.4830  -24.2592 C   0  0  0  0  0  0  0  0  0  0  0  0
   -1.1507  -54.6086  -23.8126 N   0  0  0  0  0  0  0  0  0  0  0  0
   -1.0284  -54.9003  -22.5158 C   0  0  0  0  0  0  0  0  0  0  0  0
   -0.3498  -54.1079  -21.7141 N   0  0  0  0  0  0  0  0  0  0  0  0
    0.2719  -52.9447  -22.1392 C   0  0  0  0  0  0  0  0  0  0  0  0
    0.1687  -52.6126  -23.4505 C   0  0  0  0  0  0  0  0  0  0  0  0
    1.0300  -52.2391  -21.2062 N   0  0  0  0  0  0  0  0  0  0  0  0
    1.9451  -51.8538  -21.3104 H   0  0  0  0  0  0  0  0  0  0  0  0
    0.4678  -52.0339  -19.8741 C   0  0  0  0  0  0  0  0  0  0  0  0
   -0.4117  -52.9750  -19.3734 C   0  0  0  0  0  0  0  0  0  0  0  0
   -0.9560  -52.8789  -18.1252 C   0  0  0  0  0  0  0  0  0  0  0  0
   -0.6225  -51.8077  -17.3276 C   0  0  0  0  0  0  0  0  0  0  0  0
    0.2489  -50.8537  -17.7928 C   0  0  0  0  0  0  0  0  0  0  0  0
    0.6955  -49.4667  -16.7957 Cl  0  0  0  0  0  0  0  0  0  0  0  0
    0.7991  -50.9704  -19.0791 C   0  0  0  0  0  0  0  0  0  0  0  0
   -1.1788  -51.7017  -16.0425 O   0  0  0  0  0  0  0  0  0  0  0  0
   -2.4012  -51.0060  -15.8717 C   0  0  0  0  0  0  0  0  0  0  0  0
   -3.4241  -51.9484  -15.3656 C   0  0  0  0  0  0  0  0  0  0  0  0
   -4.1015  -52.8170  -16.1979 C   0  0  0  0  0  0  0  0  0  0  0  0
   -5.0495  -53.6899  -15.7101 C   0  0  0  0  0  0  0  0  0  0  0  0
   -5.3148  -53.6790  -14.3450 C   0  0  0  0  0  0  0  0  0  0  0  0
   -4.6416  -52.8171  -13.5246 C   0  0  0  0  0  0  0  0  0  0  0  0
   -3.7178  -51.9783  -14.0565 N   0  0  0  0  0  0  0  0  0  0  0  0
    1.4561  -50.6086  -23.1438 O   0  0  0  0  0  0  0  0  0  0  0  0
    2.6977  -48.6190  -22.5800 C   0  0  0  0  0  0  0  0  0  0  0  0
    2.5776  -49.8646  -23.4578 C   0  0  0  0  0  0  0  0  0  0  0  0
    3.8489  -50.6543  -23.2498 C   0  0  0  0  0  0  0  0  0  0  0  0
    3.8369  -51.5085  -22.3256 O   0  0  0  0  0  0  0  0  0  0  0  0
    4.9980  -50.4622  -24.0360 N   0  0  0  0  0  0  0  0  0  0  0  0
    5.0762  -49.5046  -25.1192 C   0  0  0  0  0  0  0  0  0  0  0  0
    6.1883  -51.2713  -23.7490 C   0  0  0  0  0  0  0  0  0  0  0  0
 29 30  1  0  0  0
 30 28  1  0  0  0
 28  1  1  0  0  0
  1  2  2  0  0  0
  2  3  1  0  0  0
  3  4  2  0  0  0
  4  5  1  0  0  0
  5  6  2  0  0  0
  6  7  1  0  0  0
  7  8  2  0  0  0
  8  9  1  0  0  0
  9 11  1  0  0  0
 11 13  1  0  0  0
 13 14  2  0  0  0
 14 15  1  0  0  0
 15 16  2  0  0  0
 16 20  1  0  0  0
 20 21  1  0  0  0
 21 22  1  0  0  0
 22 23  2  0  0  0
 23 24  1  0  0  0
 24 25  2  0  0  0
 25 26  1  0  0  0
 26 27  2  0  0  0
 16 17  1  0  0  0
 17 18  1  0  0  0
 17 19  2  0  0  0
  9 10  2  0  0  0
 30 31  1  0  0  0
 31 32  2  0  0  0
 31 33  1  0  0  0
 33 34  1  0  0  0
 33 35  1  0  0  0
 10  1  1  0  0  0
 10  5  1  0  0  0
 19 13  1  0  0  0
 27 22  1  0  0  0
 11 12  1  0  0  0
M  END
> <minimizedAffinity>
-8.35166

> <CNNscore>
0.4966672361

> <CNNaffinity>
7.1459970474

> <CNN_VS>
3.5491826534

> <CNNaffinity_variance>
0.1438931823

$$$$
[H]c1nc(N([H])c2c([H])c([H])c(OC([H])([H])c3nc([H])c([H])c([H])c3[H])c(Cl)c2[H])c2c(O[C@]([H])(C(=O)N(C([H])([H])[H])C([H])([H])[H])C([H])([H])[H])c([H])c([H])c([H])c2n1


 35 38  0  0  0  0  0  0  0  0999 V2000
    1.0797  -51.6448  -24.1473 C   0  0  0  0  0  0  0  0  0  0  0  0
    0.8336  -51.1517  -25.4363 C   0  0  0  0  0  0  0  0  0  0  0  0
   -0.1079  -51.7583  -26.2326 C   0  0  0  0  0  0  0  0  0  0  0  0
   -0.8210  -52.8413  -25.8010 C   0  0  0  0  0  0  0  0  0  0  0  0
   -0.6091  -53.3644  -24.5279 C   0  0  0  0  0  0  0  0  0  0  0  0
   -1.3471  -54.4256  -24.1451 N   0  0  0  0  0  0  0  0  0  0  0  0
   -1.1442  -54.9113  -22.9185 C   0  0  0  0  0  0  0  0  0  0  0  0
   -0.2512  -54.3633  -22.1225 N   0  0  0  0  0  0  0  0  0  0  0  0
    0.5245  -53.2732  -22.4834 C   0  0  0  0  0  0  0  0  0  0  0  0
    0.3461  -52.7493  -23.7220 C   0  0  0  0  0  0  0  0  0  0  0  0
    1.4932  -52.8415  -21.5786 N   0  0  0  0  0  0  0  0  0  0  0  0
    2.4851  -52.9397  -21.6340 H   0  0  0  0  0  0  0  0  0  0  0  0
    1.0482  -52.1768  -20.3568 C   0  0  0  0  0  0  0  0  0  0  0  0
    0.1031  -52.8039  -19.5672 C   0  0  0  0  0  0  0  0  0  0  0  0
   -0.3421  -52.2698  -18.3925 C   0  0  0  0  0  0  0  0  0  0  0  0
    0.1634  -51.0612  -17.9699 C   0  0  0  0  0  0  0  0  0  0  0  0
    1.1044  -50.4102  -18.7294 C   0  0  0  0  0  0  0  0  0  0  0  0
    1.7712  -48.8578  -18.2166 Cl  0  0  0  0  0  0  0  0  0  0  0  0
    1.5505  -50.9759  -19.9343 C   0  0  0  0  0  0  0  0  0  0  0  0
   -0.2900  -50.5050  -16.7628 O   0  0  0  0  0  0  0  0  0  0  0  0
   -0.9825  -51.3257  -15.8385 C   0  0  0  0  0  0  0  0  0  0  0  0
   -2.2899  -50.7046  -15.5296 C   0  0  0  0  0  0  0  0  0  0  0  0
   -2.4008  -49.4000  -15.0919 C   0  0  0  0  0  0  0  0  0  0  0  0
   -3.6262  -48.8363  -14.8108 C   0  0  0  0  0  0  0  0  0  0  0  0
   -4.7647  -49.6170  -14.9785 C   0  0  0  0  0  0  0  0  0  0  0  0
   -4.6503  -50.9085  -15.4122 C   0  0  0  0  0  0  0  0  0  0  0  0
   -3.4194  -51.4147  -15.6747 N   0  0  0  0  0  0  0  0  0  0  0  0
    2.0037  -51.0521  -23.3483 O   0  0  0  0  0  0  0  0  0  0  0  0
    2.7716  -48.7924  -22.9994 C   0  0  0  0  0  0  0  0  0  0  0  0
    2.9762  -50.1355  -23.7000 C   0  0  0  0  0  0  0  0  0  0  0  0
    4.3578  -50.6096  -23.3131 C   0  0  0  0  0  0  0  0  0  0  0  0
    4.4311  -51.3856  -22.3250 O   0  0  0  0  0  0  0  0  0  0  0  0
    5.5157  -50.2176  -24.0066 N   0  0  0  0  0  0  0  0  0  0  0  0
    5.5014  -49.3363  -25.1553 C   0  0  0  0  0  0  0  0  0  0  0  0
    6.8144  -50.7236  -23.5468 C   0  0  0  0  0  0  0  0  0  0  0  0
 29 30  1  0  0  0
 30 28  1  0  0  0
 28  1  1  0  0  0
  1  2  2  0  0  0
  2  3  1  0  0  0
  3  4  2  0  0  0
  4  5  1  0  0  0
  5  6  2  0  0  0
  6  7  1  0  0  0
  7  8  2  0  0  0
  8  9  1  0  0  0
  9 11  1  0  0  0
 11 13  1  0  0  0
 13 14  2  0  0  0
 14 15  1  0  0  0
 15 16  2  0  0  0
 16 20  1  0  0  0
 20 21  1  0  0  0
 21 22  1  0  0  0
 22 23  2  0  0  0
 23 24  1  0  0  0
 24 25  2  0  0  0
 25 26  1  0  0  0
 26 27  2  0  0  0
 16 17  1  0  0  0
 17 18  1  0  0  0
 17 19  2  0  0  0
  9 10  2  0  0  0
 30 31  1  0  0  0
 31 32  2  0  0  0
 31 33  1  0  0  0
 33 34  1  0  0  0
 33 35  1  0  0  0
 10  1  1  0  0  0
 10  5  1  0  0  0
 19 13  1  0  0  0
 27 22  1  0  0  0
 11 12  1  0  0  0
M  END
> <minimizedAffinity>
-7.81752

> <CNNscore>
0.4821869433

> <CNNaffinity>
7.1153869629

> <CNN_VS>
3.4309465885

> <CNNaffinity_variance>
0.3955686390

$$$$
[H]c1nc(N([H])c2c([H])c([H])c(OC([H])([H])c3nc([H])c([H])c([H])c3[H])c(Cl)c2[H])c2c(O[C@]([H])(C(=O)N(C([H])([H])[H])C([H])([H])[H])C([H])([H])[H])c([H])c([H])c([H])c2n1


 35 38  0  0  0  0  0  0  0  0999 V2000
    0.4320  -53.0341  -24.8843 C   0  0  0  0  0  0  0  0  0  0  0  0
    0.4738  -53.9836  -25.9149 C   0  0  0  0  0  0  0  0  0  0  0  0
   -0.1273  -55.2073  -25.7426 C   0  0  0  0  0  0  0  0  0  0  0  0
   -0.7731  -55.5313  -24.5825 C   0  0  0  0  0  0  0  0  0  0  0  0
   -0.8391  -54.6188  -23.5326 C   0  0  0  0  0  0  0  0  0  0  0  0
   -1.4985  -54.9821  -22.4143 N   0  0  0  0  0  0  0  0  0  0  0  0
   -1.5658  -54.0953  -21.4190 C   0  0  0  0  0  0  0  0  0  0  0  0
   -1.0028  -52.9122  -21.5395 N   0  0  0  0  0  0  0  0  0  0  0  0
   -0.3172  -52.5063  -22.6733 C   0  0  0  0  0  0  0  0  0  0  0  0
   -0.2286  -53.3792  -23.7081 C   0  0  0  0  0  0  0  0  0  0  0  0
    0.3049  -51.2593  -22.6405 N   0  0  0  0  0  0  0  0  0  0  0  0
    0.2588  -50.5222  -23.3122 H   0  0  0  0  0  0  0  0  0  0  0  0
    1.1738  -50.9516  -21.5077 C   0  0  0  0  0  0  0  0  0  0  0  0
    1.8281  -51.9901  -20.8726 C   0  0  0  0  0  0  0  0  0  0  0  0
    2.6847  -51.7880  -19.8292 C   0  0  0  0  0  0  0  0  0  0  0  0
    2.9119  -50.5049  -19.3854 C   0  0  0  0  0  0  0  0  0  0  0  0
    2.2788  -49.4488  -19.9935 C   0  0  0  0  0  0  0  0  0  0  0  0
    2.5470  -47.7914  -19.4472 Cl  0  0  0  0  0  0  0  0  0  0  0  0
    1.4020  -49.6766  -21.0658 C   0  0  0  0  0  0  0  0  0  0  0  0
    3.7914  -50.2890  -18.3121 O   0  0  0  0  0  0  0  0  0  0  0  0
    3.4612  -50.7988  -17.0321 C   0  0  0  0  0  0  0  0  0  0  0  0
    2.2310  -50.1309  -16.5513 C   0  0  0  0  0  0  0  0  0  0  0  0
    0.9996  -50.7547  -16.5679 C   0  0  0  0  0  0  0  0  0  0  0  0
   -0.1358  -50.1193  -16.1144 C   0  0  0  0  0  0  0  0  0  0  0  0
   -0.0162  -48.8200  -15.6333 C   0  0  0  0  0  0  0  0  0  0  0  0
    1.2053  -48.2062  -15.6188 C   0  0  0  0  0  0  0  0  0  0  0  0
    2.2916  -48.8770  -16.0771 N   0  0  0  0  0  0  0  0  0  0  0  0
    1.0176  -51.8196  -25.0431 O   0  0  0  0  0  0  0  0  0  0  0  0
    3.2341  -52.7469  -24.8316 C   0  0  0  0  0  0  0  0  0  0  0  0
    2.3595  -51.4999  -24.9601 C   0  0  0  0  0  0  0  0  0  0  0  0
    2.8382  -50.7714  -26.1944 C   0  0  0  0  0  0  0  0  0  0  0  0
    2.6517  -51.3484  -27.2972 O   0  0  0  0  0  0  0  0  0  0  0  0
    3.4621  -49.5132  -26.1380 N   0  0  0  0  0  0  0  0  0  0  0  0
    3.6988  -48.7913  -24.9054 C   0  0  0  0  0  0  0  0  0  0  0  0
    3.9021  -48.8910  -27.3922 C   0  0  0  0  0  0  0  0  0  0  0  0
 29 30  1  0  0  0
 30 28  1  0  0  0
 28  1  1  0  0  0
  1  2  2  0  0  0
  2  3  1  0  0  0
  3  4  2  0  0  0
  4  5  1  0  0  0
  5  6  2  0  0  0
  6  7  1  0  0  0
  7  8  2  0  0  0
  8  9  1  0  0  0
  9 11  1  0  0  0
 11 13  1  0  0  0
 13 14  2  0  0  0
 14 15  1  0  0  0
 15 16  2  0  0  0
 16 20  1  0  0  0
 20 21  1  0  0  0
 21 22  1  0  0  0
 22 23  2  0  0  0
 23 24  1  0  0  0
 24 25  2  0  0  0
 25 26  1  0  0  0
 26 27  2  0  0  0
 16 17  1  0  0  0
 17 18  1  0  0  0
 17 19  2  0  0  0
  9 10  2  0  0  0
 30 31  1  0  0  0
 31 32  2  0  0  0
 31 33  1  0  0  0
 33 34  1  0  0  0
 33 35  1  0  0  0
 10  1  1  0  0  0
 10  5  1  0  0  0
 19 13  1  0  0  0
 27 22  1  0  0  0
 11 12  1  0  0  0
M  END
> <minimizedAffinity>
-7.27996

> <CNNscore>
0.4316973686

> <CNNaffinity>
7.1753463745

> <CNN_VS>
3.0975780487

> <CNNaffinity_variance>
0.0936597735

$$$$
[H]c1nc(N([H])c2c([H])c([H])c(OC([H])([H])c3nc([H])c([H])c([H])c3[H])c(Cl)c2[H])c2c(O[C@]([H])(C(=O)N(C([H])([H])[H])C([H])([H])[H])C([H])([H])[H])c([H])c([H])c([H])c2n1


 35 38  0  0  0  0  0  0  0  0999 V2000
   -0.9346  -50.1137  -15.9057 C   0  0  0  0  0  0  0  0  0  0  0  0
   -1.2904  -49.0056  -15.1242 C   0  0  0  0  0  0  0  0  0  0  0  0
   -2.5621  -48.9095  -14.6122 C   0  0  0  0  0  0  0  0  0  0  0  0
   -3.5026  -49.8735  -14.8443 C   0  0  0  0  0  0  0  0  0  0  0  0
   -3.1927  -50.9912  -15.6151 C   0  0  0  0  0  0  0  0  0  0  0  0
   -4.1518  -51.9195  -15.8040 N   0  0  0  0  0  0  0  0  0  0  0  0
   -3.8402  -52.9925  -16.5343 C   0  0  0  0  0  0  0  0  0  0  0  0
   -2.6353  -53.1251  -17.0459 N   0  0  0  0  0  0  0  0  0  0  0  0
   -1.6266  -52.1909  -16.8725 C   0  0  0  0  0  0  0  0  0  0  0  0
   -1.9038  -51.0870  -16.1342 C   0  0  0  0  0  0  0  0  0  0  0  0
   -0.4213  -52.4102  -17.5377 N   0  0  0  0  0  0  0  0  0  0  0  0
    0.4839  -52.5730  -17.1494 H   0  0  0  0  0  0  0  0  0  0  0  0
   -0.4238  -52.3793  -18.9978 C   0  0  0  0  0  0  0  0  0  0  0  0
    0.1488  -51.2971  -19.6390 C   0  0  0  0  0  0  0  0  0  0  0  0
    0.2203  -51.2045  -20.9990 C   0  0  0  0  0  0  0  0  0  0  0  0
   -0.2945  -52.2224  -21.7696 C   0  0  0  0  0  0  0  0  0  0  0  0
   -0.8703  -53.3132  -21.1658 C   0  0  0  0  0  0  0  0  0  0  0  0
   -1.5416  -54.6346  -22.1255 Cl  0  0  0  0  0  0  0  0  0  0  0  0
   -0.9338  -53.3907  -19.7656 C   0  0  0  0  0  0  0  0  0  0  0  0
   -0.2250  -52.1341  -23.1695 O   0  0  0  0  0  0  0  0  0  0  0  0
    0.8564  -52.7466  -23.8497 C   0  0  0  0  0  0  0  0  0  0  0  0
    0.4531  -53.0182  -25.2476 C   0  0  0  0  0  0  0  0  0  0  0  0
   -0.1152  -52.0505  -26.0517 C   0  0  0  0  0  0  0  0  0  0  0  0
   -0.4830  -52.3194  -27.3521 C   0  0  0  0  0  0  0  0  0  0  0  0
   -0.2682  -53.6016  -27.8459 C   0  0  0  0  0  0  0  0  0  0  0  0
    0.2949  -54.5567  -27.0461 C   0  0  0  0  0  0  0  0  0  0  0  0
    0.6387  -54.2392  -25.7729 N   0  0  0  0  0  0  0  0  0  0  0  0
    0.3197  -50.2235  -16.4136 O   0  0  0  0  0  0  0  0  0  0  0  0
    2.5575  -50.8241  -15.7430 C   0  0  0  0  0  0  0  0  0  0  0  0
    1.5001  -49.7302  -15.8910 C   0  0  0  0  0  0  0  0  0  0  0  0
    2.1070  -48.6715  -16.7821 C   0  0  0  0  0  0  0  0  0  0  0  0
    1.8751  -48.7719  -18.0150 O   0  0  0  0  0  0  0  0  0  0  0  0
    2.8932  -47.6192  -16.2820 N   0  0  0  0  0  0  0  0  0  0  0  0
    3.1907  -47.4399  -14.8764 C   0  0  0  0  0  0  0  0  0  0  0  0
    3.4479  -46.6457  -17.2299 C   0  0  0  0  0  0  0  0  0  0  0  0
 29 30  1  0  0  0
 30 28  1  0  0  0
 28  1  1  0  0  0
  1  2  2  0  0  0
  2  3  1  0  0  0
  3  4  2  0  0  0
  4  5  1  0  0  0
  5  6  2  0  0  0
  6  7  1  0  0  0
  7  8  2  0  0  0
  8  9  1  0  0  0
  9 11  1  0  0  0
 11 13  1  0  0  0
 13 14  2  0  0  0
 14 15  1  0  0  0
 15 16  2  0  0  0
 16 20  1  0  0  0
 20 21  1  0  0  0
 21 22  1  0  0  0
 22 23  2  0  0  0
 23 24  1  0  0  0
 24 25  2  0  0  0
 25 26  1  0  0  0
 26 27  2  0  0  0
 16 17  1  0  0  0
 17 18  1  0  0  0
 17 19  2  0  0  0
  9 10  2  0  0  0
 30 31  1  0  0  0
 31 32  2  0  0  0
 31 33  1  0  0  0
 33 34  1  0  0  0
 33 35  1  0  0  0
 10  1  1  0  0  0
 10  5  1  0  0  0
 19 13  1  0  0  0
 27 22  1  0  0  0
 11 12  1  0  0  0
M  END
> <minimizedAffinity>
-7.56542

> <CNNscore>
0.4007103443

> <CNNaffinity>
6.8404679298

> <CNN_VS>
2.7410461903

> <CNNaffinity_variance>
0.1310126334

$$$$
[H]c1nc(N([H])c2c([H])c([H])c(OC([H])([H])c3nc([H])c([H])c([H])c3[H])c(Cl)c2[H])c2c(O[C@]([H])(C(=O)N(C([H])([H])[H])C([H])([H])[H])C([H])([H])[H])c([H])c([H])c([H])c2n1


 35 38  0  0  0  0  0  0  0  0999 V2000
    0.8773  -51.3920  -24.1814 C   0  0  0  0  0  0  0  0  0  0  0  0
    0.4826  -51.1367  -25.5022 C   0  0  0  0  0  0  0  0  0  0  0  0
   -0.4104  -51.9761  -26.1237 C   0  0  0  0  0  0  0  0  0  0  0  0
   -0.9324  -53.0662  -25.4857 C   0  0  0  0  0  0  0  0  0  0  0  0
   -0.5682  -53.3577  -24.1735 C   0  0  0  0  0  0  0  0  0  0  0  0
   -1.1209  -54.4371  -23.5847 N   0  0  0  0  0  0  0  0  0  0  0  0
   -0.7738  -54.7003  -22.3229 C   0  0  0  0  0  0  0  0  0  0  0  0
    0.0796  -53.9247  -21.6894 N   0  0  0  0  0  0  0  0  0  0  0  0
    0.6668  -52.8087  -22.2639 C   0  0  0  0  0  0  0  0  0  0  0  0
    0.3377  -52.5067  -23.5449 C   0  0  0  0  0  0  0  0  0  0  0  0
    1.6185  -52.1205  -21.5130 N   0  0  0  0  0  0  0  0  0  0  0  0
    2.5903  -51.9941  -21.7039 H   0  0  0  0  0  0  0  0  0  0  0  0
    1.1949  -51.5090  -20.2562 C   0  0  0  0  0  0  0  0  0  0  0  0
    1.5445  -50.1953  -20.0071 C   0  0  0  0  0  0  0  0  0  0  0  0
    1.1607  -49.5367  -18.8747 C   0  0  0  0  0  0  0  0  0  0  0  0
    0.3965  -50.1973  -17.9396 C   0  0  0  0  0  0  0  0  0  0  0  0
    0.0304  -51.5034  -18.1548 C   0  0  0  0  0  0  0  0  0  0  0  0
   -0.9475  -52.3797  -16.9744 Cl  0  0  0  0  0  0  0  0  0  0  0  0
    0.4341  -52.1637  -19.3260 C   0  0  0  0  0  0  0  0  0  0  0  0
   -0.0018  -49.5266  -16.7719 O   0  0  0  0  0  0  0  0  0  0  0  0
    0.9856  -48.9780  -15.9167 C   0  0  0  0  0  0  0  0  0  0  0  0
    1.7493  -50.0821  -15.2937 C   0  0  0  0  0  0  0  0  0  0  0  0
    3.0980  -50.2667  -15.5239 C   0  0  0  0  0  0  0  0  0  0  0  0
    3.7947  -51.2987  -14.9340 C   0  0  0  0  0  0  0  0  0  0  0  0
    3.1042  -52.1628  -14.0911 C   0  0  0  0  0  0  0  0  0  0  0  0
    1.7687  -51.9763  -13.8660 C   0  0  0  0  0  0  0  0  0  0  0  0
    1.1305  -50.9441  -14.4721 N   0  0  0  0  0  0  0  0  0  0  0  0
    1.7551  -50.5680  -23.5539 O   0  0  0  0  0  0  0  0  0  0  0  0
    3.1066  -48.5707  -23.5076 C   0  0  0  0  0  0  0  0  0  0  0  0
    2.8911  -49.9751  -24.0714 C   0  0  0  0  0  0  0  0  0  0  0  0
    4.1359  -50.7627  -23.7351 C   0  0  0  0  0  0  0  0  0  0  0  0
    4.7884  -50.3826  -22.7283 O   0  0  0  0  0  0  0  0  0  0  0  0
    4.5623  -51.8669  -24.4930 N   0  0  0  0  0  0  0  0  0  0  0  0
    3.8546  -52.3617  -25.6552 C   0  0  0  0  0  0  0  0  0  0  0  0
    5.7917  -52.5609  -24.0921 C   0  0  0  0  0  0  0  0  0  0  0  0
 29 30  1  0  0  0
 30 28  1  0  0  0
 28  1  1  0  0  0
  1  2  2  0  0  0
  2  3  1  0  0  0
  3  4  2  0  0  0
  4  5  1  0  0  0
  5  6  2  0  0  0
  6  7  1  0  0  0
  7  8  2  0  0  0
  8  9  1  0  0  0
  9 11  1  0  0  0
 11 13  1  0  0  0
 13 14  2  0  0  0
 14 15  1  0  0  0
 15 16  2  0  0  0
 16 20  1  0  0  0
 20 21  1  0  0  0
 21 22  1  0  0  0
 22 23  2  0  0  0
 23 24  1  0  0  0
 24 25  2  0  0  0
 25 26  1  0  0  0
 26 27  2  0  0  0
 16 17  1  0  0  0
 17 18  1  0  0  0
 17 19  2  0  0  0
  9 10  2  0  0  0
 30 31  1  0  0  0
 31 32  2  0  0  0
 31 33  1  0  0  0
 33 34  1  0  0  0
 33 35  1  0  0  0
 10  1  1  0  0  0
 10  5  1  0  0  0
 19 13  1  0  0  0
 27 22  1  0  0  0
 11 12  1  0  0  0
M  END
> <minimizedAffinity>
-7.52764

> <CNNscore>
0.3961063921

> <CNNaffinity>
7.0829133987

> <CNN_VS>
2.8055872917

> <CNNaffinity_variance>
0.2127997875

$$$$
[H]/C(C(=O)N([H])c1c(OC([H])([H])C([H])([H])[H])c([H])c2nc([H])c(C#N)c(N([H])c3c([H])c([H])c(OC([H])([H])c4c([H])c([H])c([H])c([H])c4[H])c(Cl)c3[H])c2c1[H])=C(/[H])C([H])([H])N1C([H])([H])C([H])([H])C([H])([H])C1([H])[H]


 44 48  0  0  0  0  0  0  0  0999 V2000
   -0.4045  -52.8940  -19.5030 C   0  0  0  0  0  0  0  0  0  0  0  0
   -0.8573  -53.9457  -20.2337 C   0  0  0  0  0  0  0  0  0  0  0  0
   -0.7955  -53.9924  -21.6020 C   0  0  0  0  0  0  0  0  0  0  0  0
   -1.2571  -55.0586  -22.2806 N   0  0  0  0  0  0  0  0  0  0  0  0
   -1.1837  -55.0818  -23.6382 C   0  0  0  0  0  0  0  0  0  0  0  0
   -0.6410  -54.0239  -24.3333 C   0  0  0  0  0  0  0  0  0  0  0  0
   -0.1660  -52.9283  -23.6559 C   0  0  0  0  0  0  0  0  0  0  0  0
   -0.2476  -52.9209  -22.2749 C   0  0  0  0  0  0  0  0  0  0  0  0
    0.2265  -51.8246  -21.5448 C   0  0  0  0  0  0  0  0  0  0  0  0
    0.1583  -51.7916  -20.1728 C   0  0  0  0  0  0  0  0  0  0  0  0
    0.6344  -50.7014  -19.4026 N   0  0  0  0  0  0  0  0  0  0  0  0
    1.8727  -50.5523  -18.7643 C   0  0  0  0  0  0  0  0  0  0  0  0
    2.7686  -51.3875  -18.7839 O   0  0  0  0  0  0  0  0  0  0  0  0
   -0.0859  -49.8884  -19.3126 H   0  0  0  0  0  0  0  0  0  0  0  0
    2.1191  -49.3070  -18.0170 C   0  0  0  0  0  0  0  0  0  0  0  0
    3.1710  -49.1010  -17.2628 C   0  0  0  0  0  0  0  0  0  0  0  0
    3.3971  -47.8335  -16.5182 C   0  0  0  0  0  0  0  0  0  0  0  0
    3.9188  -48.0346  -15.1925 N   0  0  0  0  0  0  0  0  0  0  0  0
    3.8686  -46.7659  -14.4903 C   0  0  0  0  0  0  0  0  0  0  0  0
    2.4040  -46.3945  -14.4222 C   0  0  0  0  0  0  0  0  0  0  0  0
    1.7658  -47.7629  -14.2369 C   0  0  0  0  0  0  0  0  0  0  0  0
    2.8819  -48.7696  -14.4519 C   0  0  0  0  0  0  0  0  0  0  0  0
   -0.5382  -54.0058  -25.7651 C   0  0  0  0  0  0  0  0  0  0  0  0
   -0.4342  -53.9843  -26.9290 N   0  0  0  0  0  0  0  0  0  0  0  0
    0.3852  -51.8265  -24.3614 N   0  0  0  0  0  0  0  0  0  0  0  0
   -0.2638  -51.2098  -24.8868 H   0  0  0  0  0  0  0  0  0  0  0  0
    1.7847  -51.5538  -24.3633 C   0  0  0  0  0  0  0  0  0  0  0  0
    2.6801  -52.5907  -24.4428 C   0  0  0  0  0  0  0  0  0  0  0  0
    4.0191  -52.3353  -24.4404 C   0  0  0  0  0  0  0  0  0  0  0  0
    4.5538  -51.0462  -24.3597 C   0  0  0  0  0  0  0  0  0  0  0  0
    3.6322  -50.0248  -24.2812 C   0  0  0  0  0  0  0  0  0  0  0  0
    4.2594  -48.3895  -24.1769 Cl  0  0  0  0  0  0  0  0  0  0  0  0
    2.2581  -50.2646  -24.2821 C   0  0  0  0  0  0  0  0  0  0  0  0
    5.9293  -50.8181  -24.3595 O   0  0  0  0  0  0  0  0  0  0  0  0
    6.6387  -51.2077  -23.1869 C   0  0  0  0  0  0  0  0  0  0  0  0
    6.5113  -50.2485  -22.0847 C   0  0  0  0  0  0  0  0  0  0  0  0
    5.5942  -50.4054  -21.0801 C   0  0  0  0  0  0  0  0  0  0  0  0
    5.5223  -49.4837  -20.0866 C   0  0  0  0  0  0  0  0  0  0  0  0
    6.3720  -48.3738  -20.0735 C   0  0  0  0  0  0  0  0  0  0  0  0
    7.3007  -48.1967  -21.0733 C   0  0  0  0  0  0  0  0  0  0  0  0
    7.3621  -49.1436  -22.0780 C   0  0  0  0  0  0  0  0  0  0  0  0
   -0.4733  -52.8587  -18.1182 O   0  0  0  0  0  0  0  0  0  0  0  0
   -1.7812  -51.8750  -16.3461 C   0  0  0  0  0  0  0  0  0  0  0  0
   -1.7464  -52.8591  -17.5096 C   0  0  0  0  0  0  0  0  0  0  0  0
 43 44  1  0  0  0
 44 42  1  0  0  0
 42  1  1  0  0  0
  1  2  2  0  0  0
  2  3  1  0  0  0
  3  4  2  0  0  0
  4  5  1  0  0  0
  5  6  2  0  0  0
  6 23  1  0  0  0
 23 24  3  0  0  0
  6  7  1  0  0  0
  7 25  1  0  0  0
 25 27  1  0  0  0
 27 28  2  0  0  0
 28 29  1  0  0  0
 29 30  2  0  0  0
 30 34  1  0  0  0
 34 35  1  0  0  0
 35 36  1  0  0  0
 36 37  2  0  0  0
 37 38  1  0  0  0
 38 39  2  0  0  0
 39 40  1  0  0  0
 40 41  2  0  0  0
 30 31  1  0  0  0
 31 32  1  0  0  0
 31 33  2  0  0  0
  7  8  2  0  0  0
  8  9  1  0  0  0
  9 10  2  0  0  0
 10 11  1  0  0  0
 11 12  1  0  0  0
 12 13  2  0  0  0
 12 15  1  0  0  0
 15 16  2  0  0  0
 16 17  1  0  0  0
 17 18  1  0  0  0
 18 19  1  0  0  0
 19 20  1  0  0  0
 20 21  1  0  0  0
 21 22  1  0  0  0
 10  1  1  0  0  0
 22 18  1  0  0  0
  8  3  1  0  0  0
 33 27  1  0  0  0
 41 36  1  0  0  0
 25 26  1  0  0  0
 11 14  1  0  0  0
M  END
> <minimizedAffinity>
-7.40047

> <CNNscore>
0.5464562178

> <CNNaffinity>
7.6397361755

> <CNN_VS>
4.1747813225

> <CNNaffinity_variance>
0.1151649579

$$$$
[H]/C(C(=O)N([H])c1c(OC([H])([H])C([H])([H])[H])c([H])c2nc([H])c(C#N)c(N([H])c3c([H])c([H])c(OC([H])([H])c4c([H])c([H])c([H])c([H])c4[H])c(Cl)c3[H])c2c1[H])=C(/[H])C([H])([H])N1C([H])([H])C([H])([H])C([H])([H])C1([H])[H]


 44 48  0  0  0  0  0  0  0  0999 V2000
    0.9277  -52.8367  -26.6083 C   0  0  0  0  0  0  0  0  0  0  0  0
    0.3113  -53.9320  -26.0934 C   0  0  0  0  0  0  0  0  0  0  0  0
   -0.1964  -53.9804  -24.8213 C   0  0  0  0  0  0  0  0  0  0  0  0
   -0.7999  -55.0900  -24.3576 N   0  0  0  0  0  0  0  0  0  0  0  0
   -1.2966  -55.1130  -23.0921 C   0  0  0  0  0  0  0  0  0  0  0  0
   -1.1905  -54.0111  -22.2727 C   0  0  0  0  0  0  0  0  0  0  0  0
   -0.5772  -52.8713  -22.7304 C   0  0  0  0  0  0  0  0  0  0  0  0
   -0.0778  -52.8642  -24.0206 C   0  0  0  0  0  0  0  0  0  0  0  0
    0.5533  -51.7222  -24.5278 C   0  0  0  0  0  0  0  0  0  0  0  0
    1.0576  -51.6880  -25.8056 C   0  0  0  0  0  0  0  0  0  0  0  0
    1.6960  -50.5473  -26.3528 N   0  0  0  0  0  0  0  0  0  0  0  0
    2.8785  -49.9202  -25.9387 C   0  0  0  0  0  0  0  0  0  0  0  0
    3.5664  -50.2900  -24.9950 O   0  0  0  0  0  0  0  0  0  0  0  0
    1.1679  -50.1246  -27.2075 H   0  0  0  0  0  0  0  0  0  0  0  0
    3.3300  -48.7342  -26.6867 C   0  0  0  0  0  0  0  0  0  0  0  0
    4.0609  -48.7877  -27.7733 C   0  0  0  0  0  0  0  0  0  0  0  0
    4.5039  -47.5747  -28.5111 C   0  0  0  0  0  0  0  0  0  0  0  0
    3.7286  -47.3099  -29.6938 N   0  0  0  0  0  0  0  0  0  0  0  0
    2.8128  -46.2237  -29.3995 C   0  0  0  0  0  0  0  0  0  0  0  0
    3.6846  -45.0320  -29.0714 C   0  0  0  0  0  0  0  0  0  0  0  0
    4.8414  -45.2443  -30.0361 C   0  0  0  0  0  0  0  0  0  0  0  0
    4.6327  -46.6255  -30.6310 C   0  0  0  0  0  0  0  0  0  0  0  0
   -1.7036  -53.9873  -20.9322 C   0  0  0  0  0  0  0  0  0  0  0  0
   -2.1350  -53.9525  -19.8465 N   0  0  0  0  0  0  0  0  0  0  0  0
   -0.4512  -51.7328  -21.8917 N   0  0  0  0  0  0  0  0  0  0  0  0
   -1.1658  -50.9844  -21.9748 H   0  0  0  0  0  0  0  0  0  0  0  0
    0.6154  -51.5979  -20.9553 C   0  0  0  0  0  0  0  0  0  0  0  0
    0.3380  -51.5262  -19.6132 C   0  0  0  0  0  0  0  0  0  0  0  0
    1.3540  -51.3925  -18.7143 C   0  0  0  0  0  0  0  0  0  0  0  0
    2.7003  -51.3219  -19.0837 C   0  0  0  0  0  0  0  0  0  0  0  0
    2.9497  -51.3966  -20.4369 C   0  0  0  0  0  0  0  0  0  0  0  0
    4.6265  -51.3106  -20.9460 Cl  0  0  0  0  0  0  0  0  0  0  0  0
    1.9246  -51.5333  -21.3730 C   0  0  0  0  0  0  0  0  0  0  0  0
    3.7169  -51.1851  -18.1394 O   0  0  0  0  0  0  0  0  0  0  0  0
    3.4659  -50.2906  -17.0592 C   0  0  0  0  0  0  0  0  0  0  0  0
    3.1881  -50.9736  -15.7913 C   0  0  0  0  0  0  0  0  0  0  0  0
    4.1047  -51.7890  -15.1830 C   0  0  0  0  0  0  0  0  0  0  0  0
    3.7901  -52.3951  -14.0102 C   0  0  0  0  0  0  0  0  0  0  0  0
    2.5417  -52.1995  -13.4126 C   0  0  0  0  0  0  0  0  0  0  0  0
    1.6058  -51.3843  -14.0070 C   0  0  0  0  0  0  0  0  0  0  0  0
    1.9407  -50.7740  -15.2008 C   0  0  0  0  0  0  0  0  0  0  0  0
    1.4380  -52.8006  -27.8976 O   0  0  0  0  0  0  0  0  0  0  0  0
   -0.5567  -52.6146  -29.2411 C   0  0  0  0  0  0  0  0  0  0  0  0
    0.6997  -53.4192  -28.9288 C   0  0  0  0  0  0  0  0  0  0  0  0
 43 44  1  0  0  0
 44 42  1  0  0  0
 42  1  1  0  0  0
  1  2  2  0  0  0
  2  3  1  0  0  0
  3  4  2  0  0  0
  4  5  1  0  0  0
  5  6  2  0  0  0
  6 23  1  0  0  0
 23 24  3  0  0  0
  6  7  1  0  0  0
  7 25  1  0  0  0
 25 27  1  0  0  0
 27 28  2  0  0  0
 28 29  1  0  0  0
 29 30  2  0  0  0
 30 34  1  0  0  0
 34 35  1  0  0  0
 35 36  1  0  0  0
 36 37  2  0  0  0
 37 38  1  0  0  0
 38 39  2  0  0  0
 39 40  1  0  0  0
 40 41  2  0  0  0
 30 31  1  0  0  0
 31 32  1  0  0  0
 31 33  2  0  0  0
  7  8  2  0  0  0
  8  9  1  0  0  0
  9 10  2  0  0  0
 10 11  1  0  0  0
 11 12  1  0  0  0
 12 13  2  0  0  0
 12 15  1  0  0  0
 15 16  2  0  0  0
 16 17  1  0  0  0
 17 18  1  0  0  0
 18 19  1  0  0  0
 19 20  1  0  0  0
 20 21  1  0  0  0
 21 22  1  0  0  0
 10  1  1  0  0  0
 22 18  1  0  0  0
  8  3  1  0  0  0
 33 27  1  0  0  0
 41 36  1  0  0  0
 25 26  1  0  0  0
 11 14  1  0  0  0
M  END
> <minimizedAffinity>
-8.29598

> <CNNscore>
0.4754600227

> <CNNaffinity>
7.7149820328

> <CNN_VS>
3.6681654453

> <CNNaffinity_variance>
0.1131647676

$$$$
[H]/C(C(=O)N([H])c1c(OC([H])([H])C([H])([H])[H])c([H])c2nc([H])c(C#N)c(N([H])c3c([H])c([H])c(OC([H])([H])c4c([H])c([H])c([H])c([H])c4[H])c(Cl)c3[H])c2c1[H])=C(/[H])C([H])([H])N1C([H])([H])C([H])([H])C([H])([H])C1([H])[H]


 44 48  0  0  0  0  0  0  0  0999 V2000
   -0.4478  -52.4159  -21.2309 C   0  0  0  0  0  0  0  0  0  0  0  0
   -0.8219  -53.1055  -22.3397 C   0  0  0  0  0  0  0  0  0  0  0  0
   -0.0681  -53.1568  -23.4830 C   0  0  0  0  0  0  0  0  0  0  0  0
   -0.4823  -53.8556  -24.5556 N   0  0  0  0  0  0  0  0  0  0  0  0
    0.2841  -53.8920  -25.6782 C   0  0  0  0  0  0  0  0  0  0  0  0
    1.4851  -53.2201  -25.7343 C   0  0  0  0  0  0  0  0  0  0  0  0
    1.9218  -52.5020  -24.6488 C   0  0  0  0  0  0  0  0  0  0  0  0
    1.1304  -52.4758  -23.5143 C   0  0  0  0  0  0  0  0  0  0  0  0
    1.5388  -51.7574  -22.3843 C   0  0  0  0  0  0  0  0  0  0  0  0
    0.7726  -51.7151  -21.2444 C   0  0  0  0  0  0  0  0  0  0  0  0
    1.1586  -51.0037  -20.0812 N   0  0  0  0  0  0  0  0  0  0  0  0
    2.2594  -51.2237  -19.2428 C   0  0  0  0  0  0  0  0  0  0  0  0
    3.0903  -52.1089  -19.4061 O   0  0  0  0  0  0  0  0  0  0  0  0
    0.4850  -50.1837  -19.8325 H   0  0  0  0  0  0  0  0  0  0  0  0
    2.4342  -50.3314  -18.0838 C   0  0  0  0  0  0  0  0  0  0  0  0
    3.2769  -50.5571  -17.1058 C   0  0  0  0  0  0  0  0  0  0  0  0
    3.4351  -49.6397  -15.9459 C   0  0  0  0  0  0  0  0  0  0  0  0
    2.9206  -50.1798  -14.7156 N   0  0  0  0  0  0  0  0  0  0  0  0
    4.0061  -50.2257  -13.7539 C   0  0  0  0  0  0  0  0  0  0  0  0
    4.4344  -48.7892  -13.5525 C   0  0  0  0  0  0  0  0  0  0  0  0
    3.0962  -48.0716  -13.6444 C   0  0  0  0  0  0  0  0  0  0  0  0
    2.1003  -49.1173  -14.1137 C   0  0  0  0  0  0  0  0  0  0  0  0
    2.3295  -53.2336  -26.8952 C   0  0  0  0  0  0  0  0  0  0  0  0
    3.0091  -53.2254  -27.8460 N   0  0  0  0  0  0  0  0  0  0  0  0
    3.1523  -51.7957  -24.6980 N   0  0  0  0  0  0  0  0  0  0  0  0
    4.0289  -52.3325  -24.5530 H   0  0  0  0  0  0  0  0  0  0  0  0
    3.2088  -50.3914  -24.9381 C   0  0  0  0  0  0  0  0  0  0  0  0
    3.1733  -49.9191  -26.2261 C   0  0  0  0  0  0  0  0  0  0  0  0
    3.2318  -48.5777  -26.4610 C   0  0  0  0  0  0  0  0  0  0  0  0
    3.3284  -47.6244  -25.4431 C   0  0  0  0  0  0  0  0  0  0  0  0
    3.3619  -48.1265  -24.1603 C   0  0  0  0  0  0  0  0  0  0  0  0
    3.4842  -46.9651  -22.8509 Cl  0  0  0  0  0  0  0  0  0  0  0  0
    3.3033  -49.4954  -23.8985 C   0  0  0  0  0  0  0  0  0  0  0  0
    3.3863  -46.2584  -25.7165 O   0  0  0  0  0  0  0  0  0  0  0  0
    2.3876  -45.7416  -26.5914 C   0  0  0  0  0  0  0  0  0  0  0  0
    2.8911  -45.4424  -27.9360 C   0  0  0  0  0  0  0  0  0  0  0  0
    4.1151  -44.8662  -28.1480 C   0  0  0  0  0  0  0  0  0  0  0  0
    4.5271  -44.6121  -29.4158 C   0  0  0  0  0  0  0  0  0  0  0  0
    3.7189  -44.9299  -30.5112 C   0  0  0  0  0  0  0  0  0  0  0  0
    2.4852  -45.5092  -30.3207 C   0  0  0  0  0  0  0  0  0  0  0  0
    2.0796  -45.7621  -29.0241 C   0  0  0  0  0  0  0  0  0  0  0  0
   -1.2204  -52.3714  -20.0798 O   0  0  0  0  0  0  0  0  0  0  0  0
   -1.1208  -52.8585  -17.7195 C   0  0  0  0  0  0  0  0  0  0  0  0
   -1.0822  -53.4135  -19.1385 C   0  0  0  0  0  0  0  0  0  0  0  0
 43 44  1  0  0  0
 44 42  1  0  0  0
 42  1  1  0  0  0
  1  2  2  0  0  0
  2  3  1  0  0  0
  3  4  2  0  0  0
  4  5  1  0  0  0
  5  6  2  0  0  0
  6 23  1  0  0  0
 23 24  3  0  0  0
  6  7  1  0  0  0
  7 25  1  0  0  0
 25 27  1  0  0  0
 27 28  2  0  0  0
 28 29  1  0  0  0
 29 30  2  0  0  0
 30 34  1  0  0  0
 34 35  1  0  0  0
 35 36  1  0  0  0
 36 37  2  0  0  0
 37 38  1  0  0  0
 38 39  2  0  0  0
 39 40  1  0  0  0
 40 41  2  0  0  0
 30 31  1  0  0  0
 31 32  1  0  0  0
 31 33  2  0  0  0
  7  8  2  0  0  0
  8  9  1  0  0  0
  9 10  2  0  0  0
 10 11  1  0  0  0
 11 12  1  0  0  0
 12 13  2  0  0  0
 12 15  1  0  0  0
 15 16  2  0  0  0
 16 17  1  0  0  0
 17 18  1  0  0  0
 18 19  1  0  0  0
 19 20  1  0  0  0
 20 21  1  0  0  0
 21 22  1  0  0  0
 10  1  1  0  0  0
 22 18  1  0  0  0
  8  3  1  0  0  0
 33 27  1  0  0  0
 41 36  1  0  0  0
 25 26  1  0  0  0
 11 14  1  0  0  0
M  END
> <minimizedAffinity>
-7.19339

> <CNNscore>
0.3526782990

> <CNNaffinity>
7.4586677551

> <CNN_VS>
2.6305103302

> <CNNaffinity_variance>
0.0455747619

$$$$
[H]/C(C(=O)N([H])c1c(OC([H])([H])C([H])([H])[H])c([H])c2nc([H])c(C#N)c(N([H])c3c([H])c([H])c(OC([H])([H])c4c([H])c([H])c([H])c([H])c4[H])c(Cl)c3[H])c2c1[H])=C(/[H])C([H])([H])N1C([H])([H])C([H])([H])C([H])([H])C1([H])[H]


 44 48  0  0  0  0  0  0  0  0999 V2000
    2.7746  -49.6667  -24.4533 C   0  0  0  0  0  0  0  0  0  0  0  0
    2.2249  -50.6433  -25.2208 C   0  0  0  0  0  0  0  0  0  0  0  0
    1.4057  -51.6213  -24.7200 C   0  0  0  0  0  0  0  0  0  0  0  0
    0.8846  -52.5670  -25.5227 N   0  0  0  0  0  0  0  0  0  0  0  0
    0.0736  -53.5262  -25.0021 C   0  0  0  0  0  0  0  0  0  0  0  0
   -0.2241  -53.5446  -23.6575 C   0  0  0  0  0  0  0  0  0  0  0  0
    0.2999  -52.5871  -22.8249 C   0  0  0  0  0  0  0  0  0  0  0  0
    1.1227  -51.6179  -23.3706 C   0  0  0  0  0  0  0  0  0  0  0  0
    1.6768  -50.6218  -22.5578 C   0  0  0  0  0  0  0  0  0  0  0  0
    2.4965  -49.6472  -23.0738 C   0  0  0  0  0  0  0  0  0  0  0  0
    3.0686  -48.6210  -22.2815 N   0  0  0  0  0  0  0  0  0  0  0  0
    2.4551  -47.8136  -21.3147 C   0  0  0  0  0  0  0  0  0  0  0  0
    1.2737  -47.8851  -20.9988 O   0  0  0  0  0  0  0  0  0  0  0  0
    4.1290  -48.4631  -22.4783 H   0  0  0  0  0  0  0  0  0  0  0  0
    3.2837  -46.8079  -20.6277 C   0  0  0  0  0  0  0  0  0  0  0  0
    3.4436  -46.7542  -19.3280 C   0  0  0  0  0  0  0  0  0  0  0  0
    4.2865  -45.7282  -18.6580 C   0  0  0  0  0  0  0  0  0  0  0  0
    5.1226  -46.2657  -17.6178 N   0  0  0  0  0  0  0  0  0  0  0  0
    6.2393  -46.9486  -18.2437 C   0  0  0  0  0  0  0  0  0  0  0  0
    6.9880  -45.8848  -19.0153 C   0  0  0  0  0  0  0  0  0  0  0  0
    6.8293  -44.6886  -18.0891 C   0  0  0  0  0  0  0  0  0  0  0  0
    5.8312  -45.1189  -17.0289 C   0  0  0  0  0  0  0  0  0  0  0  0
   -1.0786  -54.5340  -23.0642 C   0  0  0  0  0  0  0  0  0  0  0  0
   -1.7866  -55.3238  -22.5735 N   0  0  0  0  0  0  0  0  0  0  0  0
    0.0101  -52.6017  -21.4352 N   0  0  0  0  0  0  0  0  0  0  0  0
   -0.8713  -53.0545  -21.1256 H   0  0  0  0  0  0  0  0  0  0  0  0
    0.8871  -52.0192  -20.4737 C   0  0  0  0  0  0  0  0  0  0  0  0
    2.1888  -52.4464  -20.3928 C   0  0  0  0  0  0  0  0  0  0  0  0
    3.0298  -51.8959  -19.4722 C   0  0  0  0  0  0  0  0  0  0  0  0
    2.6391  -50.8941  -18.5790 C   0  0  0  0  0  0  0  0  0  0  0  0
    1.3275  -50.4844  -18.6826 C   0  0  0  0  0  0  0  0  0  0  0  0
    0.7934  -49.2291  -17.5793 Cl  0  0  0  0  0  0  0  0  0  0  0  0
    0.4508  -51.0348  -19.6175 C   0  0  0  0  0  0  0  0  0  0  0  0
    3.5241  -50.3511  -17.6483 O   0  0  0  0  0  0  0  0  0  0  0  0
    3.6230  -51.0240  -16.3964 C   0  0  0  0  0  0  0  0  0  0  0  0
    3.6233  -50.1144  -15.2459 C   0  0  0  0  0  0  0  0  0  0  0  0
    3.5670  -48.7537  -15.3885 C   0  0  0  0  0  0  0  0  0  0  0  0
    3.5712  -47.9623  -14.2860 C   0  0  0  0  0  0  0  0  0  0  0  0
    3.6325  -48.5164  -13.0041 C   0  0  0  0  0  0  0  0  0  0  0  0
    3.6898  -49.8813  -12.8381 C   0  0  0  0  0  0  0  0  0  0  0  0
    3.6847  -50.6740  -13.9701 C   0  0  0  0  0  0  0  0  0  0  0  0
    3.6029  -48.6826  -24.9724 O   0  0  0  0  0  0  0  0  0  0  0  0
    4.5369  -48.4757  -27.1867 C   0  0  0  0  0  0  0  0  0  0  0  0
    4.6804  -49.0773  -25.7936 C   0  0  0  0  0  0  0  0  0  0  0  0
 43 44  1  0  0  0
 44 42  1  0  0  0
 42  1  1  0  0  0
  1  2  2  0  0  0
  2  3  1  0  0  0
  3  4  2  0  0  0
  4  5  1  0  0  0
  5  6  2  0  0  0
  6 23  1  0  0  0
 23 24  3  0  0  0
  6  7  1  0  0  0
  7 25  1  0  0  0
 25 27  1  0  0  0
 27 28  2  0  0  0
 28 29  1  0  0  0
 29 30  2  0  0  0
 30 34  1  0  0  0
 34 35  1  0  0  0
 35 36  1  0  0  0
 36 37  2  0  0  0
 37 38  1  0  0  0
 38 39  2  0  0  0
 39 40  1  0  0  0
 40 41  2  0  0  0
 30 31  1  0  0  0
 31 32  1  0  0  0
 31 33  2  0  0  0
  7  8  2  0  0  0
  8  9  1  0  0  0
  9 10  2  0  0  0
 10 11  1  0  0  0
 11 12  1  0  0  0
 12 13  2  0  0  0
 12 15  1  0  0  0
 15 16  2  0  0  0
 16 17  1  0  0  0
 17 18  1  0  0  0
 18 19  1  0  0  0
 19 20  1  0  0  0
 20 21  1  0  0  0
 21 22  1  0  0  0
 10  1  1  0  0  0
 22 18  1  0  0  0
  8  3  1  0  0  0
 33 27  1  0  0  0
 41 36  1  0  0  0
 25 26  1  0  0  0
 11 14  1  0  0  0
M  END
> <minimizedAffinity>
-6.14743

> <CNNscore>
0.3311865628

> <CNNaffinity>
7.2930717468

> <CNN_VS>
2.4153673649

> <CNNaffinity_variance>
0.3130974770

$$$$
[H]/C(C(=O)N([H])c1c(OC([H])([H])C([H])([H])[H])c([H])c2nc([H])c(C#N)c(N([H])c3c([H])c([H])c(OC([H])([H])c4c([H])c([H])c([H])c([H])c4[H])c(Cl)c3[H])c2c1[H])=C(/[H])C([H])([H])N1C([H])([H])C([H])([H])C([H])([H])C1([H])[H]


 44 48  0  0  0  0  0  0  0  0999 V2000
    3.0538  -49.7879  -24.4588 C   0  0  0  0  0  0  0  0  0  0  0  0
    2.0268  -50.3594  -25.1397 C   0  0  0  0  0  0  0  0  0  0  0  0
    1.2572  -51.3718  -24.6288 C   0  0  0  0  0  0  0  0  0  0  0  0
    0.2492  -51.9045  -25.3434 N   0  0  0  0  0  0  0  0  0  0  0  0
   -0.5008  -52.9075  -24.8141 C   0  0  0  0  0  0  0  0  0  0  0  0
   -0.2426  -53.3895  -23.5500 C   0  0  0  0  0  0  0  0  0  0  0  0
    0.7825  -52.8572  -22.8080 C   0  0  0  0  0  0  0  0  0  0  0  0
    1.5355  -51.8369  -23.3610 C   0  0  0  0  0  0  0  0  0  0  0  0
    2.5889  -51.2644  -22.6382 C   0  0  0  0  0  0  0  0  0  0  0  0
    3.3522  -50.2495  -23.1633 C   0  0  0  0  0  0  0  0  0  0  0  0
    4.4209  -49.6433  -22.4572 N   0  0  0  0  0  0  0  0  0  0  0  0
    5.6456  -50.2026  -22.0694 C   0  0  0  0  0  0  0  0  0  0  0  0
    5.9855  -51.3568  -22.2996 O   0  0  0  0  0  0  0  0  0  0  0  0
    4.2300  -48.6031  -22.1935 H   0  0  0  0  0  0  0  0  0  0  0  0
    6.5935  -49.3477  -21.3341 C   0  0  0  0  0  0  0  0  0  0  0  0
    6.3122  -48.7440  -20.2054 C   0  0  0  0  0  0  0  0  0  0  0  0
    7.2876  -47.8856  -19.4817 C   0  0  0  0  0  0  0  0  0  0  0  0
    6.7127  -47.1824  -18.3660 N   0  0  0  0  0  0  0  0  0  0  0  0
    7.4410  -45.9396  -18.1919 C   0  0  0  0  0  0  0  0  0  0  0  0
    7.2240  -45.1569  -19.4677 C   0  0  0  0  0  0  0  0  0  0  0  0
    5.7888  -45.5357  -19.8002 C   0  0  0  0  0  0  0  0  0  0  0  0
    5.4243  -46.6513  -18.8370 C   0  0  0  0  0  0  0  0  0  0  0  0
   -1.0101  -54.4431  -22.9484 C   0  0  0  0  0  0  0  0  0  0  0  0
   -1.6303  -55.3134  -22.4753 N   0  0  0  0  0  0  0  0  0  0  0  0
    1.0661  -53.3531  -21.5083 N   0  0  0  0  0  0  0  0  0  0  0  0
    1.6219  -54.2263  -21.4301 H   0  0  0  0  0  0  0  0  0  0  0  0
    0.6128  -52.6897  -20.3305 C   0  0  0  0  0  0  0  0  0  0  0  0
    1.2246  -51.5306  -19.9238 C   0  0  0  0  0  0  0  0  0  0  0  0
    0.7978  -50.8952  -18.7959 C   0  0  0  0  0  0  0  0  0  0  0  0
   -0.2546  -51.3632  -18.0038 C   0  0  0  0  0  0  0  0  0  0  0  0
   -0.8505  -52.5283  -18.4355 C   0  0  0  0  0  0  0  0  0  0  0  0
   -2.1757  -53.1530  -17.4701 Cl  0  0  0  0  0  0  0  0  0  0  0  0
   -0.4289  -53.1939  -19.5866 C   0  0  0  0  0  0  0  0  0  0  0  0
   -0.6676  -50.6897  -16.8549 O   0  0  0  0  0  0  0  0  0  0  0  0
    0.3306  -49.9504  -16.1572 C   0  0  0  0  0  0  0  0  0  0  0  0
    1.0342  -50.7394  -15.1406 C   0  0  0  0  0  0  0  0  0  0  0  0
    0.4378  -51.7793  -14.4788 C   0  0  0  0  0  0  0  0  0  0  0  0
    1.1394  -52.4729  -13.5470 C   0  0  0  0  0  0  0  0  0  0  0  0
    2.4647  -52.1408  -13.2514 C   0  0  0  0  0  0  0  0  0  0  0  0
    3.0832  -51.0993  -13.9045 C   0  0  0  0  0  0  0  0  0  0  0  0
    2.3560  -50.4026  -14.8508 C   0  0  0  0  0  0  0  0  0  0  0  0
    3.8258  -48.7640  -24.9876 O   0  0  0  0  0  0  0  0  0  0  0  0
    3.2723  -46.4712  -25.4924 C   0  0  0  0  0  0  0  0  0  0  0  0
    3.2472  -47.9215  -25.9605 C   0  0  0  0  0  0  0  0  0  0  0  0
 43 44  1  0  0  0
 44 42  1  0  0  0
 42  1  1  0  0  0
  1  2  2  0  0  0
  2  3  1  0  0  0
  3  4  2  0  0  0
  4  5  1  0  0  0
  5  6  2  0  0  0
  6 23  1  0  0  0
 23 24  3  0  0  0
  6  7  1  0  0  0
  7 25  1  0  0  0
 25 27  1  0  0  0
 27 28  2  0  0  0
 28 29  1  0  0  0
 29 30  2  0  0  0
 30 34  1  0  0  0
 34 35  1  0  0  0
 35 36  1  0  0  0
 36 37  2  0  0  0
 37 38  1  0  0  0
 38 39  2  0  0  0
 39 40  1  0  0  0
 40 41  2  0  0  0
 30 31  1  0  0  0
 31 32  1  0  0  0
 31 33  2  0  0  0
  7  8  2  0  0  0
  8  9  1  0  0  0
  9 10  2  0  0  0
 10 11  1  0  0  0
 11 12  1  0  0  0
 12 13  2  0  0  0
 12 15  1  0  0  0
 15 16  2  0  0  0
 16 17  1  0  0  0
 17 18  1  0  0  0
 18 19  1  0  0  0
 19 20  1  0  0  0
 20 21  1  0  0  0
 21 22  1  0  0  0
 10  1  1  0  0  0
 22 18  1  0  0  0
  8  3  1  0  0  0
 33 27  1  0  0  0
 41 36  1  0  0  0
 25 26  1  0  0  0
 11 14  1  0  0  0
M  END
> <minimizedAffinity>
-6.48392

> <CNNscore>
0.3206637502

> <CNNaffinity>
7.5426893234

> <CNN_VS>
2.4186670780

> <CNNaffinity_variance>
0.0997035131

$$$$
[H]/C(C(=O)N([H])c1c(OC([H])([H])C([H])([H])[H])c([H])c2nc([H])c(C#N)c(N([H])c3c([H])c([H])c(OC([H])([H])c4c([H])c([H])c([H])c([H])c4[H])c(Cl)c3[H])c2c1[H])=C(/[H])C([H])([H])N1C([H])([H])C([H])([H])C([H])([H])C1([H])[H]


 44 48  0  0  0  0  0  0  0  0999 V2000
    3.2337  -49.5126  -23.7942 C   0  0  0  0  0  0  0  0  0  0  0  0
    2.2439  -50.0480  -24.5548 C   0  0  0  0  0  0  0  0  0  0  0  0
    1.4441  -51.0775  -24.1319 C   0  0  0  0  0  0  0  0  0  0  0  0
    0.4753  -51.5728  -24.9233 N   0  0  0  0  0  0  0  0  0  0  0  0
   -0.3059  -52.5938  -24.4805 C   0  0  0  0  0  0  0  0  0  0  0  0
   -0.1191  -53.1321  -23.2267 C   0  0  0  0  0  0  0  0  0  0  0  0
    0.8654  -52.6385  -22.4070 C   0  0  0  0  0  0  0  0  0  0  0  0
    1.6509  -51.5992  -22.8724 C   0  0  0  0  0  0  0  0  0  0  0  0
    2.6649  -51.0648  -22.0686 C   0  0  0  0  0  0  0  0  0  0  0  0
    3.4591  -50.0322  -22.5058 C   0  0  0  0  0  0  0  0  0  0  0  0
    4.4893  -49.4635  -21.7163 N   0  0  0  0  0  0  0  0  0  0  0  0
    5.7894  -49.9372  -21.4964 C   0  0  0  0  0  0  0  0  0  0  0  0
    6.2452  -50.9648  -21.9830 O   0  0  0  0  0  0  0  0  0  0  0  0
    4.1960  -48.5351  -21.2263 H   0  0  0  0  0  0  0  0  0  0  0  0
    6.6730  -49.1486  -20.6205 C   0  0  0  0  0  0  0  0  0  0  0  0
    6.2595  -48.1725  -19.8498 C   0  0  0  0  0  0  0  0  0  0  0  0
    7.1724  -47.3909  -18.9735 C   0  0  0  0  0  0  0  0  0  0  0  0
    6.8543  -45.9887  -18.9225 N   0  0  0  0  0  0  0  0  0  0  0  0
    5.4450  -45.8569  -18.6033 C   0  0  0  0  0  0  0  0  0  0  0  0
    5.2763  -46.4787  -17.2349 C   0  0  0  0  0  0  0  0  0  0  0  0
    6.5821  -46.0727  -16.5685 C   0  0  0  0  0  0  0  0  0  0  0  0
    7.4407  -45.4814  -17.6724 C   0  0  0  0  0  0  0  0  0  0  0  0
   -0.9217  -54.2067  -22.7149 C   0  0  0  0  0  0  0  0  0  0  0  0
   -1.5591  -55.0952  -22.3022 N   0  0  0  0  0  0  0  0  0  0  0  0
    1.0757  -53.1924  -21.1168 N   0  0  0  0  0  0  0  0  0  0  0  0
    1.6200  -54.0736  -21.0471 H   0  0  0  0  0  0  0  0  0  0  0  0
    0.5652  -52.5758  -19.9370 C   0  0  0  0  0  0  0  0  0  0  0  0
    1.1663  -51.4441  -19.4457 C   0  0  0  0  0  0  0  0  0  0  0  0
    0.6848  -50.8536  -18.3155 C   0  0  0  0  0  0  0  0  0  0  0  0
   -0.4150  -51.3420  -17.6041 C   0  0  0  0  0  0  0  0  0  0  0  0
   -0.9989  -52.4786  -18.1197 C   0  0  0  0  0  0  0  0  0  0  0  0
   -2.3823  -53.1275  -17.2574 Cl  0  0  0  0  0  0  0  0  0  0  0  0
   -0.5216  -53.0982  -19.2747 C   0  0  0  0  0  0  0  0  0  0  0  0
   -0.8835  -50.7144  -16.4504 O   0  0  0  0  0  0  0  0  0  0  0  0
    0.0510  -49.9054  -15.7418 C   0  0  0  0  0  0  0  0  0  0  0  0
   -0.5673  -48.7617  -15.0632 C   0  0  0  0  0  0  0  0  0  0  0  0
    0.1242  -47.9696  -14.1860 C   0  0  0  0  0  0  0  0  0  0  0  0
   -0.5020  -46.9250  -13.5874 C   0  0  0  0  0  0  0  0  0  0  0  0
   -1.8456  -46.6449  -13.8531 C   0  0  0  0  0  0  0  0  0  0  0  0
   -2.5592  -47.4282  -14.7311 C   0  0  0  0  0  0  0  0  0  0  0  0
   -1.9079  -48.4881  -15.3329 C   0  0  0  0  0  0  0  0  0  0  0  0
    4.0368  -48.4709  -24.2343 O   0  0  0  0  0  0  0  0  0  0  0  0
    3.7283  -46.1345  -24.7484 C   0  0  0  0  0  0  0  0  0  0  0  0
    3.5112  -47.5768  -25.1911 C   0  0  0  0  0  0  0  0  0  0  0  0
 43 44  1  0  0  0
 44 42  1  0  0  0
 42  1  1  0  0  0
  1  2  2  0  0  0
  2  3  1  0  0  0
  3  4  2  0  0  0
  4  5  1  0  0  0
  5  6  2  0  0  0
  6 23  1  0  0  0
 23 24  3  0  0  0
  6  7  1  0  0  0
  7 25  1  0  0  0
 25 27  1  0  0  0
 27 28  2  0  0  0
 28 29  1  0  0  0
 29 30  2  0  0  0
 30 34  1  0  0  0
 34 35  1  0  0  0
 35 36  1  0  0  0
 36 37  2  0  0  0
 37 38  1  0  0  0
 38 39  2  0  0  0
 39 40  1  0  0  0
 40 41  2  0  0  0
 30 31  1  0  0  0
 31 32  1  0  0  0
 31 33  2  0  0  0
  7  8  2  0  0  0
  8  9  1  0  0  0
  9 10  2  0  0  0
 10 11  1  0  0  0
 11 12  1  0  0  0
 12 13  2  0  0  0
 12 15  1  0  0  0
 15 16  2  0  0  0
 16 17  1  0  0  0
 17 18  1  0  0  0
 18 19  1  0  0  0
 19 20  1  0  0  0
 20 21  1  0  0  0
 21 22  1  0  0  0
 10  1  1  0  0  0
 22 18  1  0  0  0
  8  3  1  0  0  0
 33 27  1  0  0  0
 41 36  1  0  0  0
 25 26  1  0  0  0
 11 14  1  0  0  0
M  END
> <minimizedAffinity>
-6.29394

> <CNNscore>
0.2706917226

> <CNNaffinity>
7.2470612526

> <CNN_VS>
1.9617195129

> <CNNaffinity_variance>
0.1739254296

$$$$
[H]/C(C(=O)N([H])c1c(OC([H])([H])C([H])([H])[H])c([H])c2nc([H])c(C#N)c(N([H])c3c([H])c([H])c(OC([H])([H])c4c([H])c([H])c([H])c([H])c4[H])c(Cl)c3[H])c2c1[H])=C(/[H])C([H])([H])N1C([H])([H])C([H])([H])C([H])([H])C1([H])[H]


 44 48  0  0  0  0  0  0  0  0999 V2000
    0.9647  -52.8461  -26.5997 C   0  0  0  0  0  0  0  0  0  0  0  0
    0.3417  -53.9430  -26.0961 C   0  0  0  0  0  0  0  0  0  0  0  0
   -0.1782  -53.9970  -24.8291 C   0  0  0  0  0  0  0  0  0  0  0  0
   -0.7877  -55.1079  -24.3768 N   0  0  0  0  0  0  0  0  0  0  0  0
   -1.2964  -55.1364  -23.1162 C   0  0  0  0  0  0  0  0  0  0  0  0
   -1.1963  -54.0389  -22.2902 C   0  0  0  0  0  0  0  0  0  0  0  0
   -0.5769  -52.8978  -22.7364 C   0  0  0  0  0  0  0  0  0  0  0  0
   -0.0654  -52.8851  -24.0217 C   0  0  0  0  0  0  0  0  0  0  0  0
    0.5724  -51.7416  -24.5172 C   0  0  0  0  0  0  0  0  0  0  0  0
    1.0888  -51.7017  -25.7900 C   0  0  0  0  0  0  0  0  0  0  0  0
    1.7342  -50.5594  -26.3253 N   0  0  0  0  0  0  0  0  0  0  0  0
    2.9451  -49.9721  -25.9355 C   0  0  0  0  0  0  0  0  0  0  0  0
    3.6570  -50.3862  -25.0287 O   0  0  0  0  0  0  0  0  0  0  0  0
    1.1864  -50.0987  -27.1473 H   0  0  0  0  0  0  0  0  0  0  0  0
    3.3977  -48.7741  -26.6634 C   0  0  0  0  0  0  0  0  0  0  0  0
    4.0677  -48.8103  -27.7892 C   0  0  0  0  0  0  0  0  0  0  0  0
    4.5134  -47.5853  -28.5054 C   0  0  0  0  0  0  0  0  0  0  0  0
    3.7434  -47.3022  -29.6874 N   0  0  0  0  0  0  0  0  0  0  0  0
    2.7922  -46.2546  -29.3663 C   0  0  0  0  0  0  0  0  0  0  0  0
    3.6241  -45.0500  -28.9865 C   0  0  0  0  0  0  0  0  0  0  0  0
    4.7973  -45.1937  -29.9440 C   0  0  0  0  0  0  0  0  0  0  0  0
    4.6367  -46.5587  -30.5892 C   0  0  0  0  0  0  0  0  0  0  0  0
   -1.7221  -54.0210  -20.9545 C   0  0  0  0  0  0  0  0  0  0  0  0
   -2.1636  -53.9908  -19.8728 N   0  0  0  0  0  0  0  0  0  0  0  0
   -0.4571  -51.7637  -21.8908 N   0  0  0  0  0  0  0  0  0  0  0  0
   -1.1931  -51.0338  -21.9467 H   0  0  0  0  0  0  0  0  0  0  0  0
    0.6318  -51.6089  -20.9834 C   0  0  0  0  0  0  0  0  0  0  0  0
    0.3840  -51.4588  -19.6420 C   0  0  0  0  0  0  0  0  0  0  0  0
    1.4214  -51.3058  -18.7712 C   0  0  0  0  0  0  0  0  0  0  0  0
    2.7612  -51.2917  -19.1695 C   0  0  0  0  0  0  0  0  0  0  0  0
    2.9807  -51.4446  -20.5213 C   0  0  0  0  0  0  0  0  0  0  0  0
    4.6484  -51.4316  -21.0662 Cl  0  0  0  0  0  0  0  0  0  0  0  0
    1.9334  -51.6024  -21.4290 C   0  0  0  0  0  0  0  0  0  0  0  0
    3.8003  -51.1332  -18.2534 O   0  0  0  0  0  0  0  0  0  0  0  0
    3.8364  -49.9010  -17.5390 C   0  0  0  0  0  0  0  0  0  0  0  0
    4.0840  -48.7381  -18.3978 C   0  0  0  0  0  0  0  0  0  0  0  0
    3.1278  -47.7875  -18.6365 C   0  0  0  0  0  0  0  0  0  0  0  0
    3.4153  -46.7333  -19.4414 C   0  0  0  0  0  0  0  0  0  0  0  0
    4.6756  -46.6031  -20.0320 C   0  0  0  0  0  0  0  0  0  0  0  0
    5.6510  -47.5469  -19.8056 C   0  0  0  0  0  0  0  0  0  0  0  0
    5.3434  -48.6146  -18.9838 C   0  0  0  0  0  0  0  0  0  0  0  0
    1.4873  -52.8045  -27.8838 O   0  0  0  0  0  0  0  0  0  0  0  0
   -0.5454  -52.5700  -29.1612 C   0  0  0  0  0  0  0  0  0  0  0  0
    0.7325  -53.3692  -28.9338 C   0  0  0  0  0  0  0  0  0  0  0  0
 43 44  1  0  0  0
 44 42  1  0  0  0
 42  1  1  0  0  0
  1  2  2  0  0  0
  2  3  1  0  0  0
  3  4  2  0  0  0
  4  5  1  0  0  0
  5  6  2  0  0  0
  6 23  1  0  0  0
 23 24  3  0  0  0
  6  7  1  0  0  0
  7 25  1  0  0  0
 25 27  1  0  0  0
 27 28  2  0  0  0
 28 29  1  0  0  0
 29 30  2  0  0  0
 30 34  1  0  0  0
 34 35  1  0  0  0
 35 36  1  0  0  0
 36 37  2  0  0  0
 37 38  1  0  0  0
 38 39  2  0  0  0
 39 40  1  0  0  0
 40 41  2  0  0  0
 30 31  1  0  0  0
 31 32  1  0  0  0
 31 33  2  0  0  0
  7  8  2  0  0  0
  8  9  1  0  0  0
  9 10  2  0  0  0
 10 11  1  0  0  0
 11 12  1  0  0  0
 12 13  2  0  0  0
 12 15  1  0  0  0
 15 16  2  0  0  0
 16 17  1  0  0  0
 17 18  1  0  0  0
 18 19  1  0  0  0
 19 20  1  0  0  0
 20 21  1  0  0  0
 21 22  1  0  0  0
 10  1  1  0  0  0
 22 18  1  0  0  0
  8  3  1  0  0  0
 33 27  1  0  0  0
 41 36  1  0  0  0
 25 26  1  0  0  0
 11 14  1  0  0  0
M  END
> <minimizedAffinity>
-7.77420

> <CNNscore>
0.2347926199

> <CNNaffinity>
7.4861612320

> <CNN_VS>
1.7576954365

> <CNNaffinity_variance>
0.2471385002

$$$$
[H]/C(C(=O)N([H])c1c(OC([H])([H])C([H])([H])[H])c([H])c2nc([H])c(C#N)c(N([H])c3c([H])c([H])c(OC([H])([H])c4c([H])c([H])c([H])c([H])c4[H])c(Cl)c3[H])c2c1[H])=C(/[H])C([H])([H])N1C([H])([H])C([H])([H])C([H])([H])C1([H])[H]


 44 48  0  0  0  0  0  0  0  0999 V2000
    1.1064  -52.6964  -26.3681 C   0  0  0  0  0  0  0  0  0  0  0  0
    0.5064  -53.8169  -25.8893 C   0  0  0  0  0  0  0  0  0  0  0  0
   -0.0772  -53.8866  -24.6512 C   0  0  0  0  0  0  0  0  0  0  0  0
   -0.6605  -55.0208  -24.2228 N   0  0  0  0  0  0  0  0  0  0  0  0
   -1.2337  -55.0646  -22.9906 C   0  0  0  0  0  0  0  0  0  0  0  0
   -1.2261  -53.9590  -22.1694 C   0  0  0  0  0  0  0  0  0  0  0  0
   -0.6346  -52.7941  -22.5914 C   0  0  0  0  0  0  0  0  0  0  0  0
   -0.0565  -52.7661  -23.8480 C   0  0  0  0  0  0  0  0  0  0  0  0
    0.5558  -51.5983  -24.3183 C   0  0  0  0  0  0  0  0  0  0  0  0
    1.1369  -51.5429  -25.5623 C   0  0  0  0  0  0  0  0  0  0  0  0
    1.7589  -50.3762  -26.0720 N   0  0  0  0  0  0  0  0  0  0  0  0
    3.0081  -49.8330  -25.7440 C   0  0  0  0  0  0  0  0  0  0  0  0
    3.7823  -50.3166  -24.9271 O   0  0  0  0  0  0  0  0  0  0  0  0
    1.1559  -49.8540  -26.8148 H   0  0  0  0  0  0  0  0  0  0  0  0
    3.4237  -48.5951  -26.4259 C   0  0  0  0  0  0  0  0  0  0  0  0
    3.7273  -48.5264  -27.6990 C   0  0  0  0  0  0  0  0  0  0  0  0
    4.1442  -47.2633  -28.3645 C   0  0  0  0  0  0  0  0  0  0  0  0
    3.5484  -46.0886  -27.7857 N   0  0  0  0  0  0  0  0  0  0  0  0
    4.2455  -44.9266  -28.3044 C   0  0  0  0  0  0  0  0  0  0  0  0
    4.0139  -44.9448  -29.7989 C   0  0  0  0  0  0  0  0  0  0  0  0
    2.5895  -45.4745  -29.8656 C   0  0  0  0  0  0  0  0  0  0  0  0
    2.2490  -45.9174  -28.4537 C   0  0  0  0  0  0  0  0  0  0  0  0
   -1.8224  -53.9567  -20.8636 C   0  0  0  0  0  0  0  0  0  0  0  0
   -2.2918  -53.9672  -19.7933 N   0  0  0  0  0  0  0  0  0  0  0  0
   -0.6098  -51.6510  -21.7499 N   0  0  0  0  0  0  0  0  0  0  0  0
   -1.4552  -51.0493  -21.7196 H   0  0  0  0  0  0  0  0  0  0  0  0
    0.5296  -51.3181  -20.9601 C   0  0  0  0  0  0  0  0  0  0  0  0
    1.2678  -52.3164  -20.3755 C   0  0  0  0  0  0  0  0  0  0  0  0
    2.3552  -52.0030  -19.6158 C   0  0  0  0  0  0  0  0  0  0  0  0
    2.7788  -50.6905  -19.3876 C   0  0  0  0  0  0  0  0  0  0  0  0
    2.0197  -49.7088  -19.9866 C   0  0  0  0  0  0  0  0  0  0  0  0
    2.5146  -48.0458  -19.7257 Cl  0  0  0  0  0  0  0  0  0  0  0  0
    0.9034  -50.0082  -20.7676 C   0  0  0  0  0  0  0  0  0  0  0  0
    3.8963  -50.4028  -18.6050 O   0  0  0  0  0  0  0  0  0  0  0  0
    3.7969  -50.7086  -17.2170 C   0  0  0  0  0  0  0  0  0  0  0  0
    2.8377  -49.8601  -16.5019 C   0  0  0  0  0  0  0  0  0  0  0  0
    3.0606  -48.5269  -16.2836 C   0  0  0  0  0  0  0  0  0  0  0  0
    2.1363  -47.7923  -15.6144 C   0  0  0  0  0  0  0  0  0  0  0  0
    0.9576  -48.3776  -15.1432 C   0  0  0  0  0  0  0  0  0  0  0  0
    0.7136  -49.7158  -15.3516 C   0  0  0  0  0  0  0  0  0  0  0  0
    1.6640  -50.4506  -16.0347 C   0  0  0  0  0  0  0  0  0  0  0  0
    1.6942  -52.6389  -27.6232 O   0  0  0  0  0  0  0  0  0  0  0  0
   -0.0887  -52.8116  -29.2387 C   0  0  0  0  0  0  0  0  0  0  0  0
    1.1642  -53.4492  -28.6497 C   0  0  0  0  0  0  0  0  0  0  0  0
 43 44  1  0  0  0
 44 42  1  0  0  0
 42  1  1  0  0  0
  1  2  2  0  0  0
  2  3  1  0  0  0
  3  4  2  0  0  0
  4  5  1  0  0  0
  5  6  2  0  0  0
  6 23  1  0  0  0
 23 24  3  0  0  0
  6  7  1  0  0  0
  7 25  1  0  0  0
 25 27  1  0  0  0
 27 28  2  0  0  0
 28 29  1  0  0  0
 29 30  2  0  0  0
 30 34  1  0  0  0
 34 35  1  0  0  0
 35 36  1  0  0  0
 36 37  2  0  0  0
 37 38  1  0  0  0
 38 39  2  0  0  0
 39 40  1  0  0  0
 40 41  2  0  0  0
 30 31  1  0  0  0
 31 32  1  0  0  0
 31 33  2  0  0  0
  7  8  2  0  0  0
  8  9  1  0  0  0
  9 10  2  0  0  0
 10 11  1  0  0  0
 11 12  1  0  0  0
 12 13  2  0  0  0
 12 15  1  0  0  0
 15 16  2  0  0  0
 16 17  1  0  0  0
 17 18  1  0  0  0
 18 19  1  0  0  0
 19 20  1  0  0  0
 20 21  1  0  0  0
 21 22  1  0  0  0
 10  1  1  0  0  0
 22 18  1  0  0  0
  8  3  1  0  0  0
 33 27  1  0  0  0
 41 36  1  0  0  0
 25 26  1  0  0  0
 11 14  1  0  0  0
M  END
> <minimizedAffinity>
-7.37053

> <CNNscore>
0.1980899423

> <CNNaffinity>
7.3519859314

> <CNN_VS>
1.4563544989

> <CNNaffinity_variance>
0.1408041120

$$$$
[H]/C(C(=O)N([H])c1c(OC([H])([H])C([H])([H])[H])c([H])c2nc([H])c(C#N)c(N([H])c3c([H])c([H])c(OC([H])([H])c4c([H])c([H])c([H])c([H])c4[H])c(Cl)c3[H])c2c1[H])=C(/[H])C([H])([H])N1C([H])([H])C([H])([H])C([H])([H])C1([H])[H]


 44 48  0  0  0  0  0  0  0  0999 V2000
    0.8678  -52.7194  -26.7227 C   0  0  0  0  0  0  0  0  0  0  0  0
    0.2507  -53.8082  -26.1948 C   0  0  0  0  0  0  0  0  0  0  0  0
   -0.1839  -53.8701  -24.8965 C   0  0  0  0  0  0  0  0  0  0  0  0
   -0.7913  -54.9724  -24.4208 N   0  0  0  0  0  0  0  0  0  0  0  0
   -1.2147  -55.0091  -23.1292 C   0  0  0  0  0  0  0  0  0  0  0  0
   -1.0298  -53.9286  -22.2954 C   0  0  0  0  0  0  0  0  0  0  0  0
   -0.4113  -52.7965  -22.7652 C   0  0  0  0  0  0  0  0  0  0  0  0
    0.0128  -52.7753  -24.0818 C   0  0  0  0  0  0  0  0  0  0  0  0
    0.6463  -51.6404  -24.6021 C   0  0  0  0  0  0  0  0  0  0  0  0
    1.0768  -51.5924  -25.9061 C   0  0  0  0  0  0  0  0  0  0  0  0
    1.7152  -50.4582  -26.4666 N   0  0  0  0  0  0  0  0  0  0  0  0
    2.9321  -49.8669  -26.1028 C   0  0  0  0  0  0  0  0  0  0  0  0
    3.6570  -50.2692  -25.2009 O   0  0  0  0  0  0  0  0  0  0  0  0
    1.1557  -50.0084  -27.2868 H   0  0  0  0  0  0  0  0  0  0  0  0
    3.3750  -48.6795  -26.8537 C   0  0  0  0  0  0  0  0  0  0  0  0
    4.2562  -48.7123  -27.8233 C   0  0  0  0  0  0  0  0  0  0  0  0
    4.6867  -47.4984  -28.5670 C   0  0  0  0  0  0  0  0  0  0  0  0
    5.6454  -47.7733  -29.6040 N   0  0  0  0  0  0  0  0  0  0  0  0
    4.9225  -48.2180  -30.7808 C   0  0  0  0  0  0  0  0  0  0  0  0
    4.0411  -47.0562  -31.1819 C   0  0  0  0  0  0  0  0  0  0  0  0
    4.9416  -45.8780  -30.8429 C   0  0  0  0  0  0  0  0  0  0  0  0
    6.1174  -46.4647  -30.0822 C   0  0  0  0  0  0  0  0  0  0  0  0
   -1.4638  -53.9197  -20.9270 C   0  0  0  0  0  0  0  0  0  0  0  0
   -1.7979  -53.9050  -19.8072 N   0  0  0  0  0  0  0  0  0  0  0  0
   -0.2044  -51.6803  -21.9126 N   0  0  0  0  0  0  0  0  0  0  0  0
   -1.0107  -51.3341  -21.3581 H   0  0  0  0  0  0  0  0  0  0  0  0
    1.0634  -51.0370  -21.8036 C   0  0  0  0  0  0  0  0  0  0  0  0
    1.1235  -49.6811  -21.6003 C   0  0  0  0  0  0  0  0  0  0  0  0
    2.3331  -49.0609  -21.5001 C   0  0  0  0  0  0  0  0  0  0  0  0
    3.5523  -49.7383  -21.5939 C   0  0  0  0  0  0  0  0  0  0  0  0
    3.4622  -51.0981  -21.7978 C   0  0  0  0  0  0  0  0  0  0  0  0
    4.9687  -51.9885  -21.9232 Cl  0  0  0  0  0  0  0  0  0  0  0  0
    2.2345  -51.7519  -21.9033 C   0  0  0  0  0  0  0  0  0  0  0  0
    4.7738  -49.0744  -21.4871 O   0  0  0  0  0  0  0  0  0  0  0  0
    4.7250  -47.6506  -21.4716 C   0  0  0  0  0  0  0  0  0  0  0  0
    4.8804  -47.0490  -22.8002 C   0  0  0  0  0  0  0  0  0  0  0  0
    5.8824  -47.4171  -23.6577 C   0  0  0  0  0  0  0  0  0  0  0  0
    5.9762  -46.8241  -24.8748 C   0  0  0  0  0  0  0  0  0  0  0  0
    5.0635  -45.8406  -25.2670 C   0  0  0  0  0  0  0  0  0  0  0  0
    4.0491  -45.4556  -24.4207 C   0  0  0  0  0  0  0  0  0  0  0  0
    3.9664  -46.0686  -23.1848 C   0  0  0  0  0  0  0  0  0  0  0  0
    1.3037  -52.6696  -28.0386 O   0  0  0  0  0  0  0  0  0  0  0  0
   -0.7909  -52.4673  -29.2176 C   0  0  0  0  0  0  0  0  0  0  0  0
    0.4979  -53.2604  -29.0350 C   0  0  0  0  0  0  0  0  0  0  0  0
 43 44  1  0  0  0
 44 42  1  0  0  0
 42  1  1  0  0  0
  1  2  2  0  0  0
  2  3  1  0  0  0
  3  4  2  0  0  0
  4  5  1  0  0  0
  5  6  2  0  0  0
  6 23  1  0  0  0
 23 24  3  0  0  0
  6  7  1  0  0  0
  7 25  1  0  0  0
 25 27  1  0  0  0
 27 28  2  0  0  0
 28 29  1  0  0  0
 29 30  2  0  0  0
 30 34  1  0  0  0
 34 35  1  0  0  0
 35 36  1  0  0  0
 36 37  2  0  0  0
 37 38  1  0  0  0
 38 39  2  0  0  0
 39 40  1  0  0  0
 40 41  2  0  0  0
 30 31  1  0  0  0
 31 32  1  0  0  0
 31 33  2  0  0  0
  7  8  2  0  0  0
  8  9  1  0  0  0
  9 10  2  0  0  0
 10 11  1  0  0  0
 11 12  1  0  0  0
 12 13  2  0  0  0
 12 15  1  0  0  0
 15 16  2  0  0  0
 16 17  1  0  0  0
 17 18  1  0  0  0
 18 19  1  0  0  0
 19 20  1  0  0  0
 20 21  1  0  0  0
 21 22  1  0  0  0
 10  1  1  0  0  0
 22 18  1  0  0  0
  8  3  1  0  0  0
 33 27  1  0  0  0
 41 36  1  0  0  0
 25 26  1  0  0  0
 11 14  1  0  0  0
M  END
> <minimizedAffinity>
-7.38041

> <CNNscore>
0.1909104735

> <CNNaffinity>
7.1377129555

> <CNN_VS>
1.3626641035

> <CNNaffinity_variance>
0.5916631222

$$$$
[H]/C(C(=O)N([H])c1c(OC([H])([H])C([H])([H])[H])c([H])c2nc([H])c(C#N)c(N([H])c3c([H])c([H])c(OC([H])([H])c4nc([H])c([H])c([H])c4[H])c(Cl)c3[H])c2c1[H])=C(/[H])C([H])([H])N1C([H])([H])C([H])([H])C([H])([H])C1([H])[H]


 44 48  0  0  0  0  0  0  0  0999 V2000
   -0.6182  -53.0224  -19.2704 C   0  0  0  0  0  0  0  0  0  0  0  0
   -1.0927  -53.9825  -20.1260 C   0  0  0  0  0  0  0  0  0  0  0  0
   -0.8893  -53.9514  -21.5046 C   0  0  0  0  0  0  0  0  0  0  0  0
   -1.3618  -54.9031  -22.3271 N   0  0  0  0  0  0  0  0  0  0  0  0
   -1.1538  -54.8572  -23.6667 C   0  0  0  0  0  0  0  0  0  0  0  0
   -0.4448  -53.8269  -24.2476 C   0  0  0  0  0  0  0  0  0  0  0  0
    0.0517  -52.8336  -23.4141 C   0  0  0  0  0  0  0  0  0  0  0  0
   -0.1798  -52.9143  -22.0574 C   0  0  0  0  0  0  0  0  0  0  0  0
    0.3114  -51.9260  -21.2005 C   0  0  0  0  0  0  0  0  0  0  0  0
    0.1109  -51.9563  -19.8381 C   0  0  0  0  0  0  0  0  0  0  0  0
    0.5916  -50.9786  -18.9624 N   0  0  0  0  0  0  0  0  0  0  0  0
    1.8735  -50.8177  -18.4296 C   0  0  0  0  0  0  0  0  0  0  0  0
    2.7916  -51.6259  -18.7275 O   0  0  0  0  0  0  0  0  0  0  0  0
   -0.1119  -50.2252  -18.6352 H   0  0  0  0  0  0  0  0  0  0  0  0
    2.2333  -49.7198  -17.5056 C   0  0  0  0  0  0  0  0  0  0  0  0
    1.4181  -49.1028  -16.7236 C   0  0  0  0  0  0  0  0  0  0  0  0
    1.7131  -48.0026  -15.7821 C   0  0  0  0  0  0  0  0  0  0  0  0
    1.5750  -48.3005  -14.3997 N   0  0  0  0  0  0  0  0  0  0  0  0
    0.8619  -49.5683  -14.3046 C   0  0  0  0  0  0  0  0  0  0  0  0
   -0.2309  -49.4056  -13.3016 C   0  0  0  0  0  0  0  0  0  0  0  0
   -0.5764  -47.9479  -13.4028 C   0  0  0  0  0  0  0  0  0  0  0  0
    0.7182  -47.3174  -13.7632 C   0  0  0  0  0  0  0  0  0  0  0  0
   -0.1924  -53.7230  -25.6535 C   0  0  0  0  0  0  0  0  0  0  0  0
   -0.0056  -53.6282  -26.7895 N   0  0  0  0  0  0  0  0  0  0  0  0
    0.7801  -51.7644  -23.9604 N   0  0  0  0  0  0  0  0  0  0  0  0
    0.2435  -51.0110  -24.4359 H   0  0  0  0  0  0  0  0  0  0  0  0
    2.2043  -51.7416  -23.8503 C   0  0  0  0  0  0  0  0  0  0  0  0
    2.9812  -52.1590  -24.9203 C   0  0  0  0  0  0  0  0  0  0  0  0
    4.3556  -52.1586  -24.8752 C   0  0  0  0  0  0  0  0  0  0  0  0
    4.9830  -51.7286  -23.7279 C   0  0  0  0  0  0  0  0  0  0  0  0
    4.2343  -51.3051  -22.6416 C   0  0  0  0  0  0  0  0  0  0  0  0
    4.9966  -50.7584  -21.1846 Cl  0  0  0  0  0  0  0  0  0  0  0  0
    2.8627  -51.3198  -22.7236 C   0  0  0  0  0  0  0  0  0  0  0  0
    6.3703  -51.7359  -23.7030 O   0  0  0  0  0  0  0  0  0  0  0  0
    7.1282  -50.5965  -23.3678 C   0  0  0  0  0  0  0  0  0  0  0  0
    6.8831  -49.4657  -24.2786 C   0  0  0  0  0  0  0  0  0  0  0  0
    6.1014  -48.3892  -23.8766 C   0  0  0  0  0  0  0  0  0  0  0  0
    5.8846  -47.3385  -24.7457 C   0  0  0  0  0  0  0  0  0  0  0  0
    6.4756  -47.4221  -26.0018 C   0  0  0  0  0  0  0  0  0  0  0  0
    7.2497  -48.4992  -26.3858 C   0  0  0  0  0  0  0  0  0  0  0  0
    7.4410  -49.5080  -25.5122 N   0  0  0  0  0  0  0  0  0  0  0  0
   -0.8152  -53.0456  -17.9069 O   0  0  0  0  0  0  0  0  0  0  0  0
   -1.9448  -51.7243  -16.1856 C   0  0  0  0  0  0  0  0  0  0  0  0
   -2.0167  -52.7932  -17.2309 C   0  0  0  0  0  0  0  0  0  0  0  0
 43 44  1  0  0  0
 44 42  1  0  0  0
 42  1  1  0  0  0
  1  2  2  0  0  0
  2  3  1  0  0  0
  3  4  2  0  0  0
  4  5  1  0  0  0
  5  6  2  0  0  0
  6 23  1  0  0  0
 23 24  3  0  0  0
  6  7  1  0  0  0
  7 25  1  0  0  0
 25 27  1  0  0  0
 27 28  2  0  0  0
 28 29  1  0  0  0
 29 30  2  0  0  0
 30 34  1  0  0  0
 34 35  1  0  0  0
 35 36  1  0  0  0
 36 37  2  0  0  0
 37 38  1  0  0  0
 38 39  2  0  0  0
 39 40  1  0  0  0
 40 41  2  0  0  0
 30 31  1  0  0  0
 31 32  1  0  0  0
 31 33  2  0  0  0
  7  8  2  0  0  0
  8  9  1  0  0  0
  9 10  2  0  0  0
 10 11  1  0  0  0
 11 12  1  0  0  0
 12 13  2  0  0  0
 12 15  1  0  0  0
 15 16  2  0  0  0
 16 17  1  0  0  0
 17 18  1  0  0  0
 18 19  1  0  0  0
 19 20  1  0  0  0
 20 21  1  0  0  0
 21 22  1  0  0  0
 10  1  1  0  0  0
 22 18  1  0  0  0
  8  3  1  0  0  0
 33 27  1  0  0  0
 41 36  1  0  0  0
 25 26  1  0  0  0
 11 14  1  0  0  0
M  END
> <minimizedAffinity>
-7.32114

> <CNNscore>
0.5436248183

> <CNNaffinity>
7.8071074486

> <CNN_VS>
4.2441372871

> <CNNaffinity_variance>
0.0772804022

$$$$
[H]/C(C(=O)N([H])c1c(OC([H])([H])C([H])([H])[H])c([H])c2nc([H])c(C#N)c(N([H])c3c([H])c([H])c(OC([H])([H])c4nc([H])c([H])c([H])c4[H])c(Cl)c3[H])c2c1[H])=C(/[H])C([H])([H])N1C([H])([H])C([H])([H])C([H])([H])C1([H])[H]


 44 48  0  0  0  0  0  0  0  0999 V2000
   -0.6722  -52.9662  -19.3344 C   0  0  0  0  0  0  0  0  0  0  0  0
   -1.1321  -53.9407  -20.1815 C   0  0  0  0  0  0  0  0  0  0  0  0
   -0.9470  -53.9082  -21.5626 C   0  0  0  0  0  0  0  0  0  0  0  0
   -1.4048  -54.8742  -22.3768 N   0  0  0  0  0  0  0  0  0  0  0  0
   -1.2149  -54.8266  -23.7191 C   0  0  0  0  0  0  0  0  0  0  0  0
   -0.5403  -53.7798  -24.3113 C   0  0  0  0  0  0  0  0  0  0  0  0
   -0.0595  -52.7716  -23.4866 C   0  0  0  0  0  0  0  0  0  0  0  0
   -0.2718  -52.8544  -22.1269 C   0  0  0  0  0  0  0  0  0  0  0  0
    0.2042  -51.8513  -21.2787 C   0  0  0  0  0  0  0  0  0  0  0  0
    0.0217  -51.8830  -19.9138 C   0  0  0  0  0  0  0  0  0  0  0  0
    0.4876  -50.8907  -19.0467 N   0  0  0  0  0  0  0  0  0  0  0  0
    1.7621  -50.7170  -18.5002 C   0  0  0  0  0  0  0  0  0  0  0  0
    2.6868  -51.5259  -18.7745 O   0  0  0  0  0  0  0  0  0  0  0  0
   -0.2228  -50.1352  -18.7395 H   0  0  0  0  0  0  0  0  0  0  0  0
    2.1060  -49.6042  -17.5880 C   0  0  0  0  0  0  0  0  0  0  0  0
    1.2799  -48.9829  -16.8211 C   0  0  0  0  0  0  0  0  0  0  0  0
    1.5589  -47.8681  -15.8920 C   0  0  0  0  0  0  0  0  0  0  0  0
    0.9732  -47.9606  -14.6009 N   0  0  0  0  0  0  0  0  0  0  0  0
   -0.3606  -47.3799  -14.6938 C   0  0  0  0  0  0  0  0  0  0  0  0
   -0.5307  -46.4365  -13.5501 C   0  0  0  0  0  0  0  0  0  0  0  0
    0.8679  -45.9570  -13.2889 C   0  0  0  0  0  0  0  0  0  0  0  0
    1.7023  -47.1261  -13.6639 C   0  0  0  0  0  0  0  0  0  0  0  0
   -0.3084  -53.6732  -25.7206 C   0  0  0  0  0  0  0  0  0  0  0  0
   -0.1218  -53.6073  -26.8587 N   0  0  0  0  0  0  0  0  0  0  0  0
    0.6337  -51.6852  -24.0448 N   0  0  0  0  0  0  0  0  0  0  0  0
    0.1217  -51.0863  -24.7234 H   0  0  0  0  0  0  0  0  0  0  0  0
    1.9910  -51.4385  -23.6733 C   0  0  0  0  0  0  0  0  0  0  0  0
    2.3395  -50.2142  -23.1236 C   0  0  0  0  0  0  0  0  0  0  0  0
    3.6279  -49.9182  -22.7451 C   0  0  0  0  0  0  0  0  0  0  0  0
    4.6069  -50.8705  -22.9175 C   0  0  0  0  0  0  0  0  0  0  0  0
    4.2901  -52.1038  -23.4640 C   0  0  0  0  0  0  0  0  0  0  0  0
    5.5014  -53.3218  -23.6926 Cl  0  0  0  0  0  0  0  0  0  0  0  0
    2.9915  -52.3634  -23.8305 C   0  0  0  0  0  0  0  0  0  0  0  0
    5.9003  -50.5521  -22.5290 O   0  0  0  0  0  0  0  0  0  0  0  0
    6.6397  -49.5163  -23.1334 C   0  0  0  0  0  0  0  0  0  0  0  0
    6.8729  -48.3821  -22.2237 C   0  0  0  0  0  0  0  0  0  0  0  0
    7.1346  -48.5975  -20.8758 C   0  0  0  0  0  0  0  0  0  0  0  0
    7.3512  -47.5201  -20.0401 C   0  0  0  0  0  0  0  0  0  0  0  0
    7.2933  -46.2531  -20.6105 C   0  0  0  0  0  0  0  0  0  0  0  0
    7.0319  -46.0562  -21.9521 C   0  0  0  0  0  0  0  0  0  0  0  0
    6.8251  -47.1306  -22.7397 N   0  0  0  0  0  0  0  0  0  0  0  0
   -0.8514  -52.9907  -17.9684 O   0  0  0  0  0  0  0  0  0  0  0  0
   -2.0668  -51.9640  -16.1101 C   0  0  0  0  0  0  0  0  0  0  0  0
   -2.0699  -52.8942  -17.2827 C   0  0  0  0  0  0  0  0  0  0  0  0
 43 44  1  0  0  0
 44 42  1  0  0  0
 42  1  1  0  0  0
  1  2  2  0  0  0
  2  3  1  0  0  0
  3  4  2  0  0  0
  4  5  1  0  0  0
  5  6  2  0  0  0
  6 23  1  0  0  0
 23 24  3  0  0  0
  6  7  1  0  0  0
  7 25  1  0  0  0
 25 27  1  0  0  0
 27 28  2  0  0  0
 28 29  1  0  0  0
 29 30  2  0  0  0
 30 34  1  0  0  0
 34 35  1  0  0  0
 35 36  1  0  0  0
 36 37  2  0  0  0
 37 38  1  0  0  0
 38 39  2  0  0  0
 39 40  1  0  0  0
 40 41  2  0  0  0
 30 31  1  0  0  0
 31 32  1  0  0  0
 31 33  2  0  0  0
  7  8  2  0  0  0
  8  9  1  0  0  0
  9 10  2  0  0  0
 10 11  1  0  0  0
 11 12  1  0  0  0
 12 13  2  0  0  0
 12 15  1  0  0  0
 15 16  2  0  0  0
 16 17  1  0  0  0
 17 18  1  0  0  0
 18 19  1  0  0  0
 19 20  1  0  0  0
 20 21  1  0  0  0
 21 22  1  0  0  0
 10  1  1  0  0  0
 22 18  1  0  0  0
  8  3  1  0  0  0
 33 27  1  0  0  0
 41 36  1  0  0  0
 25 26  1  0  0  0
 11 14  1  0  0  0
M  END
> <minimizedAffinity>
-6.79692

> <CNNscore>
0.5111706853

> <CNNaffinity>
7.6432547569

> <CNN_VS>
3.9070076942

> <CNNaffinity_variance>
0.0874442309

$$$$
[H]/C(C(=O)N([H])c1c(OC([H])([H])C([H])([H])[H])c([H])c2nc([H])c(C#N)c(N([H])c3c([H])c([H])c(OC([H])([H])c4nc([H])c([H])c([H])c4[H])c(Cl)c3[H])c2c1[H])=C(/[H])C([H])([H])N1C([H])([H])C([H])([H])C([H])([H])C1([H])[H]


 44 48  0  0  0  0  0  0  0  0999 V2000
    0.8132  -52.8592  -26.4514 C   0  0  0  0  0  0  0  0  0  0  0  0
    0.1970  -53.9588  -25.9127 C   0  0  0  0  0  0  0  0  0  0  0  0
   -0.3068  -53.9978  -24.6137 C   0  0  0  0  0  0  0  0  0  0  0  0
   -0.9088  -55.0855  -24.1037 N   0  0  0  0  0  0  0  0  0  0  0  0
   -1.3940  -55.1056  -22.8371 C   0  0  0  0  0  0  0  0  0  0  0  0
   -1.2908  -54.0056  -22.0120 C   0  0  0  0  0  0  0  0  0  0  0  0
   -0.6718  -52.8717  -22.5209 C   0  0  0  0  0  0  0  0  0  0  0  0
   -0.1910  -52.8888  -23.8129 C   0  0  0  0  0  0  0  0  0  0  0  0
    0.4345  -51.7585  -24.3451 C   0  0  0  0  0  0  0  0  0  0  0  0
    0.9324  -51.7192  -25.6288 C   0  0  0  0  0  0  0  0  0  0  0  0
    1.5627  -50.6007  -26.1814 N   0  0  0  0  0  0  0  0  0  0  0  0
    2.8968  -50.1959  -26.0845 C   0  0  0  0  0  0  0  0  0  0  0  0
    3.7215  -50.8784  -25.4220 O   0  0  0  0  0  0  0  0  0  0  0  0
    0.9498  -49.9363  -26.7752 H   0  0  0  0  0  0  0  0  0  0  0  0
    3.4203  -48.9739  -26.7336 C   0  0  0  0  0  0  0  0  0  0  0  0
    3.9482  -47.9707  -26.1241 C   0  0  0  0  0  0  0  0  0  0  0  0
    4.4866  -46.7261  -26.7117 C   0  0  0  0  0  0  0  0  0  0  0  0
    4.4250  -45.5646  -25.8959 N   0  0  0  0  0  0  0  0  0  0  0  0
    4.3423  -46.0173  -24.5128 C   0  0  0  0  0  0  0  0  0  0  0  0
    3.2412  -45.2610  -23.8477 C   0  0  0  0  0  0  0  0  0  0  0  0
    2.2922  -44.9726  -24.9751 C   0  0  0  0  0  0  0  0  0  0  0  0
    3.1909  -44.8445  -26.1496 C   0  0  0  0  0  0  0  0  0  0  0  0
   -1.7827  -53.9656  -20.6675 C   0  0  0  0  0  0  0  0  0  0  0  0
   -2.1810  -53.9133  -19.5844 N   0  0  0  0  0  0  0  0  0  0  0  0
   -0.5437  -51.7270  -21.7174 N   0  0  0  0  0  0  0  0  0  0  0  0
   -1.2785  -50.9960  -21.8022 H   0  0  0  0  0  0  0  0  0  0  0  0
    0.5661  -51.6017  -20.8264 C   0  0  0  0  0  0  0  0  0  0  0  0
    0.3394  -51.4292  -19.4694 C   0  0  0  0  0  0  0  0  0  0  0  0
    1.3657  -51.3042  -18.5627 C   0  0  0  0  0  0  0  0  0  0  0  0
    2.6641  -51.3520  -19.0175 C   0  0  0  0  0  0  0  0  0  0  0  0
    2.9231  -51.5235  -20.3678 C   0  0  0  0  0  0  0  0  0  0  0  0
    4.5472  -51.5875  -20.9690 Cl  0  0  0  0  0  0  0  0  0  0  0  0
    1.8717  -51.6446  -21.2441 C   0  0  0  0  0  0  0  0  0  0  0  0
    3.6849  -51.2240  -18.0865 O   0  0  0  0  0  0  0  0  0  0  0  0
    3.7017  -50.2031  -17.1158 C   0  0  0  0  0  0  0  0  0  0  0  0
    3.6884  -50.7294  -15.7405 C   0  0  0  0  0  0  0  0  0  0  0  0
    3.2832  -49.9282  -14.6796 C   0  0  0  0  0  0  0  0  0  0  0  0
    3.2773  -50.4414  -13.3979 C   0  0  0  0  0  0  0  0  0  0  0  0
    3.6870  -51.7611  -13.2411 C   0  0  0  0  0  0  0  0  0  0  0  0
    4.0869  -52.5438  -14.3061 C   0  0  0  0  0  0  0  0  0  0  0  0
    4.0804  -52.0110  -15.5445 N   0  0  0  0  0  0  0  0  0  0  0  0
    1.3142  -52.8127  -27.7342 O   0  0  0  0  0  0  0  0  0  0  0  0
   -0.6118  -52.5952  -29.2267 C   0  0  0  0  0  0  0  0  0  0  0  0
    0.6811  -53.2732  -28.8967 C   0  0  0  0  0  0  0  0  0  0  0  0
 43 44  1  0  0  0
 44 42  1  0  0  0
 42  1  1  0  0  0
  1  2  2  0  0  0
  2  3  1  0  0  0
  3  4  2  0  0  0
  4  5  1  0  0  0
  5  6  2  0  0  0
  6 23  1  0  0  0
 23 24  3  0  0  0
  6  7  1  0  0  0
  7 25  1  0  0  0
 25 27  1  0  0  0
 27 28  2  0  0  0
 28 29  1  0  0  0
 29 30  2  0  0  0
 30 34  1  0  0  0
 34 35  1  0  0  0
 35 36  1  0  0  0
 36 37  2  0  0  0
 37 38  1  0  0  0
 38 39  2  0  0  0
 39 40  1  0  0  0
 40 41  2  0  0  0
 30 31  1  0  0  0
 31 32  1  0  0  0
 31 33  2  0  0  0
  7  8  2  0  0  0
  8  9  1  0  0  0
  9 10  2  0  0  0
 10 11  1  0  0  0
 11 12  1  0  0  0
 12 13  2  0  0  0
 12 15  1  0  0  0
 15 16  2  0  0  0
 16 17  1  0  0  0
 17 18  1  0  0  0
 18 19  1  0  0  0
 19 20  1  0  0  0
 20 21  1  0  0  0
 21 22  1  0  0  0
 10  1  1  0  0  0
 22 18  1  0  0  0
  8  3  1  0  0  0
 33 27  1  0  0  0
 41 36  1  0  0  0
 25 26  1  0  0  0
 11 14  1  0  0  0
M  END
> <minimizedAffinity>
-8.14972

> <CNNscore>
0.4713023305

> <CNNaffinity>
7.7140779495

> <CNN_VS>
3.6356630325

> <CNNaffinity_variance>
0.1144801155

$$$$
[H]/C(C(=O)N([H])c1c(OC([H])([H])C([H])([H])[H])c([H])c2nc([H])c(C#N)c(N([H])c3c([H])c([H])c(OC([H])([H])c4nc([H])c([H])c([H])c4[H])c(Cl)c3[H])c2c1[H])=C(/[H])C([H])([H])N1C([H])([H])C([H])([H])C([H])([H])C1([H])[H]


 44 48  0  0  0  0  0  0  0  0999 V2000
    0.9062  -52.8498  -26.4892 C   0  0  0  0  0  0  0  0  0  0  0  0
    0.2882  -53.9478  -25.9495 C   0  0  0  0  0  0  0  0  0  0  0  0
   -0.2245  -53.9815  -24.6537 C   0  0  0  0  0  0  0  0  0  0  0  0
   -0.8282  -55.0677  -24.1427 N   0  0  0  0  0  0  0  0  0  0  0  0
   -1.3221  -55.0826  -22.8794 C   0  0  0  0  0  0  0  0  0  0  0  0
   -1.2263  -53.9784  -22.0588 C   0  0  0  0  0  0  0  0  0  0  0  0
   -0.6057  -52.8459  -22.5689 C   0  0  0  0  0  0  0  0  0  0  0  0
   -0.1160  -52.8684  -23.8575 C   0  0  0  0  0  0  0  0  0  0  0  0
    0.5113  -51.7396  -24.3908 C   0  0  0  0  0  0  0  0  0  0  0  0
    1.0180  -51.7057  -25.6713 C   0  0  0  0  0  0  0  0  0  0  0  0
    1.6502  -50.5887  -26.2249 N   0  0  0  0  0  0  0  0  0  0  0  0
    2.8980  -50.0358  -25.9243 C   0  0  0  0  0  0  0  0  0  0  0  0
    3.6262  -50.5546  -25.0381 O   0  0  0  0  0  0  0  0  0  0  0  0
    1.1162  -50.0581  -27.0014 H   0  0  0  0  0  0  0  0  0  0  0  0
    3.4368  -48.8379  -26.6049 C   0  0  0  0  0  0  0  0  0  0  0  0
    3.9046  -48.8055  -27.8036 C   0  0  0  0  0  0  0  0  0  0  0  0
    4.4557  -47.6471  -28.5372 C   0  0  0  0  0  0  0  0  0  0  0  0
    3.7672  -47.2625  -29.7190 N   0  0  0  0  0  0  0  0  0  0  0  0
    4.7773  -46.8688  -30.6935 C   0  0  0  0  0  0  0  0  0  0  0  0
    4.3595  -45.5643  -31.2855 C   0  0  0  0  0  0  0  0  0  0  0  0
    3.5818  -44.9166  -30.1763 C   0  0  0  0  0  0  0  0  0  0  0  0
    2.9764  -46.0720  -29.4678 C   0  0  0  0  0  0  0  0  0  0  0  0
   -1.7275  -53.9328  -20.7180 C   0  0  0  0  0  0  0  0  0  0  0  0
   -2.1310  -53.8759  -19.6371 N   0  0  0  0  0  0  0  0  0  0  0  0
   -0.4850  -51.6972  -21.7700 N   0  0  0  0  0  0  0  0  0  0  0  0
   -1.2147  -50.9632  -21.8708 H   0  0  0  0  0  0  0  0  0  0  0  0
    0.6109  -51.5720  -20.8621 C   0  0  0  0  0  0  0  0  0  0  0  0
    0.3635  -51.4085  -19.5076 C   0  0  0  0  0  0  0  0  0  0  0  0
    1.3757  -51.2840  -18.5851 C   0  0  0  0  0  0  0  0  0  0  0  0
    2.6809  -51.3231  -19.0209 C   0  0  0  0  0  0  0  0  0  0  0  0
    2.9606  -51.4856  -20.3683 C   0  0  0  0  0  0  0  0  0  0  0  0
    4.5936  -51.5387  -20.9457 Cl  0  0  0  0  0  0  0  0  0  0  0  0
    1.9228  -51.6065  -21.2607 C   0  0  0  0  0  0  0  0  0  0  0  0
    3.6873  -51.1959  -18.0742 O   0  0  0  0  0  0  0  0  0  0  0  0
    3.6581  -50.2138  -17.0646 C   0  0  0  0  0  0  0  0  0  0  0  0
    3.6201  -50.7940  -15.7116 C   0  0  0  0  0  0  0  0  0  0  0  0
    3.0636  -50.0860  -14.6530 C   0  0  0  0  0  0  0  0  0  0  0  0
    3.0371  -50.6485  -13.3924 C   0  0  0  0  0  0  0  0  0  0  0  0
    3.5821  -51.9205  -13.2537 C   0  0  0  0  0  0  0  0  0  0  0  0
    4.1315  -52.6105  -14.3162 C   0  0  0  0  0  0  0  0  0  0  0  0
    4.1408  -52.0316  -15.5337 N   0  0  0  0  0  0  0  0  0  0  0  0
    1.4159  -52.8086  -27.7687 O   0  0  0  0  0  0  0  0  0  0  0  0
   -0.4981  -52.6431  -29.2831 C   0  0  0  0  0  0  0  0  0  0  0  0
    0.8014  -53.2964  -28.9300 C   0  0  0  0  0  0  0  0  0  0  0  0
 43 44  1  0  0  0
 44 42  1  0  0  0
 42  1  1  0  0  0
  1  2  2  0  0  0
  2  3  1  0  0  0
  3  4  2  0  0  0
  4  5  1  0  0  0
  5  6  2  0  0  0
  6 23  1  0  0  0
 23 24  3  0  0  0
  6  7  1  0  0  0
  7 25  1  0  0  0
 25 27  1  0  0  0
 27 28  2  0  0  0
 28 29  1  0  0  0
 29 30  2  0  0  0
 30 34  1  0  0  0
 34 35  1  0  0  0
 35 36  1  0  0  0
 36 37  2  0  0  0
 37 38  1  0  0  0
 38 39  2  0  0  0
 39 40  1  0  0  0
 40 41  2  0  0  0
 30 31  1  0  0  0
 31 32  1  0  0  0
 31 33  2  0  0  0
  7  8  2  0  0  0
  8  9  1  0  0  0
  9 10  2  0  0  0
 10 11  1  0  0  0
 11 12  1  0  0  0
 12 13  2  0  0  0
 12 15  1  0  0  0
 15 16  2  0  0  0
 16 17  1  0  0  0
 17 18  1  0  0  0
 18 19  1  0  0  0
 19 20  1  0  0  0
 20 21  1  0  0  0
 21 22  1  0  0  0
 10  1  1  0  0  0
 22 18  1  0  0  0
  8  3  1  0  0  0
 33 27  1  0  0  0
 41 36  1  0  0  0
 25 26  1  0  0  0
 11 14  1  0  0  0
M  END
> <minimizedAffinity>
-8.31248

> <CNNscore>
0.4509728849

> <CNNaffinity>
7.6573114395

> <CNN_VS>
3.4532399178

> <CNNaffinity_variance>
0.0875461623

$$$$
[H]/C(C(=O)N([H])c1c(OC([H])([H])C([H])([H])[H])c([H])c2nc([H])c(C#N)c(N([H])c3c([H])c([H])c(OC([H])([H])c4nc([H])c([H])c([H])c4[H])c(Cl)c3[H])c2c1[H])=C(/[H])C([H])([H])N1C([H])([H])C([H])([H])C([H])([H])C1([H])[H]


 44 48  0  0  0  0  0  0  0  0999 V2000
   -0.3437  -52.7619  -19.3347 C   0  0  0  0  0  0  0  0  0  0  0  0
   -0.7245  -53.8331  -20.1004 C   0  0  0  0  0  0  0  0  0  0  0  0
   -0.7049  -53.8270  -21.4941 C   0  0  0  0  0  0  0  0  0  0  0  0
   -1.0814  -54.8881  -22.2274 N   0  0  0  0  0  0  0  0  0  0  0  0
   -1.0553  -54.8648  -23.5835 C   0  0  0  0  0  0  0  0  0  0  0  0
   -0.6393  -53.7458  -24.2737 C   0  0  0  0  0  0  0  0  0  0  0  0
   -0.2463  -52.6388  -23.5334 C   0  0  0  0  0  0  0  0  0  0  0  0
   -0.2863  -52.6999  -22.1567 C   0  0  0  0  0  0  0  0  0  0  0  0
    0.1055  -51.5978  -21.3925 C   0  0  0  0  0  0  0  0  0  0  0  0
    0.0865  -51.6033  -20.0152 C   0  0  0  0  0  0  0  0  0  0  0  0
    0.4725  -50.5126  -19.2308 N   0  0  0  0  0  0  0  0  0  0  0  0
    1.7260  -50.2045  -18.6952 C   0  0  0  0  0  0  0  0  0  0  0  0
    2.7083  -50.9652  -18.8982 O   0  0  0  0  0  0  0  0  0  0  0  0
   -0.2926  -49.7872  -18.9898 H   0  0  0  0  0  0  0  0  0  0  0  0
    1.9813  -48.9992  -17.8763 C   0  0  0  0  0  0  0  0  0  0  0  0
    3.1296  -48.4458  -17.6974 C   0  0  0  0  0  0  0  0  0  0  0  0
    3.4498  -47.2471  -16.8945 C   0  0  0  0  0  0  0  0  0  0  0  0
    4.4759  -47.3938  -15.9227 N   0  0  0  0  0  0  0  0  0  0  0  0
    3.9039  -48.1349  -14.8054 C   0  0  0  0  0  0  0  0  0  0  0  0
    4.2656  -47.4190  -13.5471 C   0  0  0  0  0  0  0  0  0  0  0  0
    4.3718  -45.9866  -13.9847 C   0  0  0  0  0  0  0  0  0  0  0  0
    4.8427  -46.0955  -15.3882 C   0  0  0  0  0  0  0  0  0  0  0  0
   -0.5897  -53.6601  -25.7025 C   0  0  0  0  0  0  0  0  0  0  0  0
   -0.5434  -53.6102  -26.8556 N   0  0  0  0  0  0  0  0  0  0  0  0
    0.1852  -51.4763  -24.1929 N   0  0  0  0  0  0  0  0  0  0  0  0
   -0.5446  -50.8474  -24.5846 H   0  0  0  0  0  0  0  0  0  0  0  0
    1.5817  -51.1963  -24.3044 C   0  0  0  0  0  0  0  0  0  0  0  0
    2.0170  -50.2246  -25.1927 C   0  0  0  0  0  0  0  0  0  0  0  0
    3.3469  -49.9093  -25.3435 C   0  0  0  0  0  0  0  0  0  0  0  0
    4.2796  -50.5816  -24.5864 C   0  0  0  0  0  0  0  0  0  0  0  0
    3.8760  -51.5579  -23.6899 C   0  0  0  0  0  0  0  0  0  0  0  0
    5.0274  -52.4201  -22.7236 Cl  0  0  0  0  0  0  0  0  0  0  0  0
    2.5381  -51.8458  -23.5665 C   0  0  0  0  0  0  0  0  0  0  0  0
    5.6161  -50.2484  -24.7537 O   0  0  0  0  0  0  0  0  0  0  0  0
    6.0273  -49.0213  -25.3104 C   0  0  0  0  0  0  0  0  0  0  0  0
    6.2607  -47.9864  -24.2891 C   0  0  0  0  0  0  0  0  0  0  0  0
    6.9681  -48.2822  -23.1300 C   0  0  0  0  0  0  0  0  0  0  0  0
    7.1766  -47.2970  -22.1854 C   0  0  0  0  0  0  0  0  0  0  0  0
    6.6537  -46.0372  -22.4566 C   0  0  0  0  0  0  0  0  0  0  0  0
    5.9528  -45.7598  -23.6136 C   0  0  0  0  0  0  0  0  0  0  0  0
    5.7676  -46.7451  -24.5149 N   0  0  0  0  0  0  0  0  0  0  0  0
   -0.3605  -52.7596  -17.9569 O   0  0  0  0  0  0  0  0  0  0  0  0
   -0.9435  -51.3597  -16.0373 C   0  0  0  0  0  0  0  0  0  0  0  0
   -1.3870  -52.2771  -17.1337 C   0  0  0  0  0  0  0  0  0  0  0  0
 43 44  1  0  0  0
 44 42  1  0  0  0
 42  1  1  0  0  0
  1  2  2  0  0  0
  2  3  1  0  0  0
  3  4  2  0  0  0
  4  5  1  0  0  0
  5  6  2  0  0  0
  6 23  1  0  0  0
 23 24  3  0  0  0
  6  7  1  0  0  0
  7 25  1  0  0  0
 25 27  1  0  0  0
 27 28  2  0  0  0
 28 29  1  0  0  0
 29 30  2  0  0  0
 30 34  1  0  0  0
 34 35  1  0  0  0
 35 36  1  0  0  0
 36 37  2  0  0  0
 37 38  1  0  0  0
 38 39  2  0  0  0
 39 40  1  0  0  0
 40 41  2  0  0  0
 30 31  1  0  0  0
 31 32  1  0  0  0
 31 33  2  0  0  0
  7  8  2  0  0  0
  8  9  1  0  0  0
  9 10  2  0  0  0
 10 11  1  0  0  0
 11 12  1  0  0  0
 12 13  2  0  0  0
 12 15  1  0  0  0
 15 16  2  0  0  0
 16 17  1  0  0  0
 17 18  1  0  0  0
 18 19  1  0  0  0
 19 20  1  0  0  0
 20 21  1  0  0  0
 21 22  1  0  0  0
 10  1  1  0  0  0
 22 18  1  0  0  0
  8  3  1  0  0  0
 33 27  1  0  0  0
 41 36  1  0  0  0
 25 26  1  0  0  0
 11 14  1  0  0  0
M  END
> <minimizedAffinity>
-6.50979

> <CNNscore>
0.3485892415

> <CNNaffinity>
7.5311074257

> <CNN_VS>
2.6252629757

> <CNNaffinity_variance>
0.0696880370

$$$$
[H]/C(C(=O)N([H])c1c(OC([H])([H])C([H])([H])[H])c([H])c2nc([H])c(C#N)c(N([H])c3c([H])c([H])c(OC([H])([H])c4nc([H])c([H])c([H])c4[H])c(Cl)c3[H])c2c1[H])=C(/[H])C([H])([H])N1C([H])([H])C([H])([H])C([H])([H])C1([H])[H]


 44 48  0  0  0  0  0  0  0  0999 V2000
   -0.5706  -52.8644  -19.4192 C   0  0  0  0  0  0  0  0  0  0  0  0
   -0.9520  -53.9301  -20.1922 C   0  0  0  0  0  0  0  0  0  0  0  0
   -0.8497  -53.9467  -21.5822 C   0  0  0  0  0  0  0  0  0  0  0  0
   -1.2283  -55.0021  -22.3228 N   0  0  0  0  0  0  0  0  0  0  0  0
   -1.1210  -55.0011  -23.6751 C   0  0  0  0  0  0  0  0  0  0  0  0
   -0.6163  -53.9120  -24.3538 C   0  0  0  0  0  0  0  0  0  0  0  0
   -0.2196  -52.8115  -23.6059 C   0  0  0  0  0  0  0  0  0  0  0  0
   -0.3437  -52.8492  -22.2334 C   0  0  0  0  0  0  0  0  0  0  0  0
    0.0501  -51.7531  -21.4616 C   0  0  0  0  0  0  0  0  0  0  0  0
   -0.0506  -51.7361  -20.0880 C   0  0  0  0  0  0  0  0  0  0  0  0
    0.3358  -50.6509  -19.2962 N   0  0  0  0  0  0  0  0  0  0  0  0
    1.6134  -50.2663  -18.8805 C   0  0  0  0  0  0  0  0  0  0  0  0
    2.6219  -50.9380  -19.2220 O   0  0  0  0  0  0  0  0  0  0  0  0
   -0.4506  -49.9987  -18.9414 H   0  0  0  0  0  0  0  0  0  0  0  0
    1.8654  -49.0786  -18.0352 C   0  0  0  0  0  0  0  0  0  0  0  0
    2.9667  -48.4141  -17.9880 C   0  0  0  0  0  0  0  0  0  0  0  0
    3.2808  -47.2254  -17.1682 C   0  0  0  0  0  0  0  0  0  0  0  0
    3.4530  -46.0020  -17.8699 N   0  0  0  0  0  0  0  0  0  0  0  0
    3.5076  -46.3275  -19.2897 C   0  0  0  0  0  0  0  0  0  0  0  0
    4.6777  -45.6132  -19.8792 C   0  0  0  0  0  0  0  0  0  0  0  0
    5.6383  -45.5189  -18.7291 C   0  0  0  0  0  0  0  0  0  0  0  0
    4.7440  -45.4225  -17.5482 C   0  0  0  0  0  0  0  0  0  0  0  0
   -0.4786  -53.8510  -25.7780 C   0  0  0  0  0  0  0  0  0  0  0  0
   -0.3858  -53.7936  -26.9280 N   0  0  0  0  0  0  0  0  0  0  0  0
    0.3006  -51.6791  -24.2535 N   0  0  0  0  0  0  0  0  0  0  0  0
   -0.3512  -51.1188  -24.8390 H   0  0  0  0  0  0  0  0  0  0  0  0
    1.6782  -51.3360  -24.0936 C   0  0  0  0  0  0  0  0  0  0  0  0
    2.6266  -51.8984  -24.9344 C   0  0  0  0  0  0  0  0  0  0  0  0
    3.9663  -51.6064  -24.8309 C   0  0  0  0  0  0  0  0  0  0  0  0
    4.3814  -50.7246  -23.8587 C   0  0  0  0  0  0  0  0  0  0  0  0
    3.4577  -50.1458  -23.0033 C   0  0  0  0  0  0  0  0  0  0  0  0
    3.9510  -49.0324  -21.7705 Cl  0  0  0  0  0  0  0  0  0  0  0  0
    2.1272  -50.4619  -23.1369 C   0  0  0  0  0  0  0  0  0  0  0  0
    5.7373  -50.4433  -23.7712 O   0  0  0  0  0  0  0  0  0  0  0  0
    6.2431  -49.1292  -23.8173 C   0  0  0  0  0  0  0  0  0  0  0  0
    5.9997  -48.4743  -25.1136 C   0  0  0  0  0  0  0  0  0  0  0  0
    4.9163  -47.6204  -25.2831 C   0  0  0  0  0  0  0  0  0  0  0  0
    4.7065  -47.0157  -26.5064 C   0  0  0  0  0  0  0  0  0  0  0  0
    5.6136  -47.3039  -27.5204 C   0  0  0  0  0  0  0  0  0  0  0  0
    6.6853  -48.1549  -27.3354 C   0  0  0  0  0  0  0  0  0  0  0  0
    6.8605  -48.7285  -26.1280 N   0  0  0  0  0  0  0  0  0  0  0  0
   -0.6688  -52.8398  -18.0450 O   0  0  0  0  0  0  0  0  0  0  0  0
   -1.9063  -51.7690  -16.2268 C   0  0  0  0  0  0  0  0  0  0  0  0
   -1.8500  -52.8199  -17.2911 C   0  0  0  0  0  0  0  0  0  0  0  0
 43 44  1  0  0  0
 44 42  1  0  0  0
 42  1  1  0  0  0
  1  2  2  0  0  0
  2  3  1  0  0  0
  3  4  2  0  0  0
  4  5  1  0  0  0
  5  6  2  0  0  0
  6 23  1  0  0  0
 23 24  3  0  0  0
  6  7  1  0  0  0
  7 25  1  0  0  0
 25 27  1  0  0  0
 27 28  2  0  0  0
 28 29  1  0  0  0
 29 30  2  0  0  0
 30 34  1  0  0  0
 34 35  1  0  0  0
 35 36  1  0  0  0
 36 37  2  0  0  0
 37 38  1  0  0  0
 38 39  2  0  0  0
 39 40  1  0  0  0
 40 41  2  0  0  0
 30 31  1  0  0  0
 31 32  1  0  0  0
 31 33  2  0  0  0
  7  8  2  0  0  0
  8  9  1  0  0  0
  9 10  2  0  0  0
 10 11  1  0  0  0
 11 12  1  0  0  0
 12 13  2  0  0  0
 12 15  1  0  0  0
 15 16  2  0  0  0
 16 17  1  0  0  0
 17 18  1  0  0  0
 18 19  1  0  0  0
 19 20  1  0  0  0
 20 21  1  0  0  0
 21 22  1  0  0  0
 10  1  1  0  0  0
 22 18  1  0  0  0
  8  3  1  0  0  0
 33 27  1  0  0  0
 41 36  1  0  0  0
 25 26  1  0  0  0
 11 14  1  0  0  0
M  END
> <minimizedAffinity>
-6.99819

> <CNNscore>
0.3479261100

> <CNNaffinity>
7.6333608627

> <CNN_VS>
2.6558456421

> <CNNaffinity_variance>
0.1219951063

$$$$
[H]/C(C(=O)N([H])c1c(OC([H])([H])C([H])([H])[H])c([H])c2nc([H])c(C#N)c(N([H])c3c([H])c([H])c(OC([H])([H])c4nc([H])c([H])c([H])c4[H])c(Cl)c3[H])c2c1[H])=C(/[H])C([H])([H])N1C([H])([H])C([H])([H])C([H])([H])C1([H])[H]


 44 48  0  0  0  0  0  0  0  0999 V2000
   -0.5149  -52.9062  -19.6249 C   0  0  0  0  0  0  0  0  0  0  0  0
   -0.8971  -53.9878  -20.3752 C   0  0  0  0  0  0  0  0  0  0  0  0
   -0.8053  -54.0296  -21.7654 C   0  0  0  0  0  0  0  0  0  0  0  0
   -1.1845  -55.1002  -22.4835 N   0  0  0  0  0  0  0  0  0  0  0  0
   -1.0876  -55.1237  -23.8363 C   0  0  0  0  0  0  0  0  0  0  0  0
   -0.5933  -54.0450  -24.5388 C   0  0  0  0  0  0  0  0  0  0  0  0
   -0.1961  -52.9290  -23.8144 C   0  0  0  0  0  0  0  0  0  0  0  0
   -0.3095  -52.9419  -22.4405 C   0  0  0  0  0  0  0  0  0  0  0  0
    0.0849  -51.8300  -21.6921 C   0  0  0  0  0  0  0  0  0  0  0  0
   -0.0053  -51.7882  -20.3183 C   0  0  0  0  0  0  0  0  0  0  0  0
    0.3818  -50.6867  -19.5496 N   0  0  0  0  0  0  0  0  0  0  0  0
    1.5759  -50.4625  -18.8591 C   0  0  0  0  0  0  0  0  0  0  0  0
    2.4920  -51.3258  -18.8768 O   0  0  0  0  0  0  0  0  0  0  0  0
   -0.3291  -49.8765  -19.4615 H   0  0  0  0  0  0  0  0  0  0  0  0
    1.8416  -49.2323  -18.0815 C   0  0  0  0  0  0  0  0  0  0  0  0
    2.2579  -49.1920  -16.8642 C   0  0  0  0  0  0  0  0  0  0  0  0
    2.5402  -48.0017  -16.0352 C   0  0  0  0  0  0  0  0  0  0  0  0
    1.8428  -47.9123  -14.8006 N   0  0  0  0  0  0  0  0  0  0  0  0
    1.4566  -49.2678  -14.4284 C   0  0  0  0  0  0  0  0  0  0  0  0
    0.0167  -49.2434  -14.0376 C   0  0  0  0  0  0  0  0  0  0  0  0
   -0.5446  -48.1211  -14.8622 C   0  0  0  0  0  0  0  0  0  0  0  0
    0.6007  -47.1846  -14.9835 C   0  0  0  0  0  0  0  0  0  0  0  0
   -0.4667  -54.0096  -25.9650 C   0  0  0  0  0  0  0  0  0  0  0  0
   -0.3543  -53.9637  -27.1138 N   0  0  0  0  0  0  0  0  0  0  0  0
    0.3137  -51.8063  -24.4868 N   0  0  0  0  0  0  0  0  0  0  0  0
   -0.3600  -51.2160  -25.0152 H   0  0  0  0  0  0  0  0  0  0  0  0
    1.7106  -51.5129  -24.4273 C   0  0  0  0  0  0  0  0  0  0  0  0
    2.6296  -52.5513  -24.4265 C   0  0  0  0  0  0  0  0  0  0  0  0
    3.9861  -52.3325  -24.3724 C   0  0  0  0  0  0  0  0  0  0  0  0
    4.4489  -51.0372  -24.3172 C   0  0  0  0  0  0  0  0  0  0  0  0
    3.5556  -49.9780  -24.3167 C   0  0  0  0  0  0  0  0  0  0  0  0
    4.1092  -48.3373  -24.2482 Cl  0  0  0  0  0  0  0  0  0  0  0  0
    2.2070  -50.2356  -24.3716 C   0  0  0  0  0  0  0  0  0  0  0  0
    5.8210  -50.8381  -24.2633 O   0  0  0  0  0  0  0  0  0  0  0  0
    6.5751  -51.0696  -23.0960 C   0  0  0  0  0  0  0  0  0  0  0  0
    6.2946  -50.0860  -22.0367 C   0  0  0  0  0  0  0  0  0  0  0  0
    5.4432  -50.4018  -20.9845 C   0  0  0  0  0  0  0  0  0  0  0  0
    5.1943  -49.4654  -20.0010 C   0  0  0  0  0  0  0  0  0  0  0  0
    5.8254  -48.2323  -20.1248 C   0  0  0  0  0  0  0  0  0  0  0  0
    6.6686  -47.9343  -21.1769 C   0  0  0  0  0  0  0  0  0  0  0  0
    6.8897  -48.8721  -22.1199 N   0  0  0  0  0  0  0  0  0  0  0  0
   -0.6027  -52.8568  -18.2507 O   0  0  0  0  0  0  0  0  0  0  0  0
   -1.8103  -51.8620  -16.3702 C   0  0  0  0  0  0  0  0  0  0  0  0
   -1.7779  -52.8579  -17.4871 C   0  0  0  0  0  0  0  0  0  0  0  0
 43 44  1  0  0  0
 44 42  1  0  0  0
 42  1  1  0  0  0
  1  2  2  0  0  0
  2  3  1  0  0  0
  3  4  2  0  0  0
  4  5  1  0  0  0
  5  6  2  0  0  0
  6 23  1  0  0  0
 23 24  3  0  0  0
  6  7  1  0  0  0
  7 25  1  0  0  0
 25 27  1  0  0  0
 27 28  2  0  0  0
 28 29  1  0  0  0
 29 30  2  0  0  0
 30 34  1  0  0  0
 34 35  1  0  0  0
 35 36  1  0  0  0
 36 37  2  0  0  0
 37 38  1  0  0  0
 38 39  2  0  0  0
 39 40  1  0  0  0
 40 41  2  0  0  0
 30 31  1  0  0  0
 31 32  1  0  0  0
 31 33  2  0  0  0
  7  8  2  0  0  0
  8  9  1  0  0  0
  9 10  2  0  0  0
 10 11  1  0  0  0
 11 12  1  0  0  0
 12 13  2  0  0  0
 12 15  1  0  0  0
 15 16  2  0  0  0
 16 17  1  0  0  0
 17 18  1  0  0  0
 18 19  1  0  0  0
 19 20  1  0  0  0
 20 21  1  0  0  0
 21 22  1  0  0  0
 10  1  1  0  0  0
 22 18  1  0  0  0
  8  3  1  0  0  0
 33 27  1  0  0  0
 41 36  1  0  0  0
 25 26  1  0  0  0
 11 14  1  0  0  0
M  END
> <minimizedAffinity>
-7.41302

> <CNNscore>
0.3401659429

> <CNNaffinity>
7.5352416039

> <CNN_VS>
2.5632326603

> <CNNaffinity_variance>
0.2185607404

$$$$
[H]/C(C(=O)N([H])c1c(OC([H])([H])C([H])([H])[H])c([H])c2nc([H])c(C#N)c(N([H])c3c([H])c([H])c(OC([H])([H])c4nc([H])c([H])c([H])c4[H])c(Cl)c3[H])c2c1[H])=C(/[H])C([H])([H])N1C([H])([H])C([H])([H])C([H])([H])C1([H])[H]


 44 48  0  0  0  0  0  0  0  0999 V2000
   -0.4351  -52.9112  -19.4929 C   0  0  0  0  0  0  0  0  0  0  0  0
   -0.8317  -53.9760  -20.2597 C   0  0  0  0  0  0  0  0  0  0  0  0
   -0.7597  -53.9896  -21.6516 C   0  0  0  0  0  0  0  0  0  0  0  0
   -1.1528  -55.0440  -22.3859 N   0  0  0  0  0  0  0  0  0  0  0  0
   -1.0750  -55.0402  -23.7402 C   0  0  0  0  0  0  0  0  0  0  0  0
   -0.5867  -53.9489  -24.4275 C   0  0  0  0  0  0  0  0  0  0  0  0
   -0.1754  -52.8493  -23.6861 C   0  0  0  0  0  0  0  0  0  0  0  0
   -0.2696  -52.8900  -22.3113 C   0  0  0  0  0  0  0  0  0  0  0  0
    0.1394  -51.7948  -21.5461 C   0  0  0  0  0  0  0  0  0  0  0  0
    0.0686  -51.7809  -20.1705 C   0  0  0  0  0  0  0  0  0  0  0  0
    0.4705  -50.6967  -19.3851 N   0  0  0  0  0  0  0  0  0  0  0  0
    1.7584  -50.2916  -19.0244 C   0  0  0  0  0  0  0  0  0  0  0  0
    2.7626  -50.9398  -19.4197 O   0  0  0  0  0  0  0  0  0  0  0  0
   -0.3109  -50.0637  -18.9870 H   0  0  0  0  0  0  0  0  0  0  0  0
    2.0267  -49.1081  -18.1782 C   0  0  0  0  0  0  0  0  0  0  0  0
    2.9583  -48.2424  -18.3765 C   0  0  0  0  0  0  0  0  0  0  0  0
    3.2775  -47.0448  -17.5717 C   0  0  0  0  0  0  0  0  0  0  0  0
    3.3800  -45.8172  -18.2796 N   0  0  0  0  0  0  0  0  0  0  0  0
    3.7456  -46.1444  -19.6523 C   0  0  0  0  0  0  0  0  0  0  0  0
    4.8761  -45.2553  -20.0501 C   0  0  0  0  0  0  0  0  0  0  0  0
    5.5815  -44.9936  -18.7508 C   0  0  0  0  0  0  0  0  0  0  0  0
    4.4816  -45.0318  -17.7547 C   0  0  0  0  0  0  0  0  0  0  0  0
   -0.4801  -53.8848  -25.8542 C   0  0  0  0  0  0  0  0  0  0  0  0
   -0.3918  -53.8131  -27.0038 N   0  0  0  0  0  0  0  0  0  0  0  0
    0.3289  -51.7148  -24.3426 N   0  0  0  0  0  0  0  0  0  0  0  0
   -0.3576  -51.0711  -24.7850 H   0  0  0  0  0  0  0  0  0  0  0  0
    1.7379  -51.4818  -24.3832 C   0  0  0  0  0  0  0  0  0  0  0  0
    2.6099  -52.5592  -24.4215 C   0  0  0  0  0  0  0  0  0  0  0  0
    3.9750  -52.3990  -24.4631 C   0  0  0  0  0  0  0  0  0  0  0  0
    4.4950  -51.1244  -24.4670 C   0  0  0  0  0  0  0  0  0  0  0  0
    3.6495  -50.0273  -24.4294 C   0  0  0  0  0  0  0  0  0  0  0  0
    4.2755  -48.4114  -24.4334 Cl  0  0  0  0  0  0  0  0  0  0  0  0
    2.2906  -50.2266  -24.3883 C   0  0  0  0  0  0  0  0  0  0  0  0
    5.8748  -50.9845  -24.5094 O   0  0  0  0  0  0  0  0  0  0  0  0
    6.7027  -51.3027  -23.4148 C   0  0  0  0  0  0  0  0  0  0  0  0
    6.6731  -50.2714  -22.3641 C   0  0  0  0  0  0  0  0  0  0  0  0
    7.4410  -49.1189  -22.4813 C   0  0  0  0  0  0  0  0  0  0  0  0
    7.3981  -48.1638  -21.4852 C   0  0  0  0  0  0  0  0  0  0  0  0
    6.5692  -48.4181  -20.3979 C   0  0  0  0  0  0  0  0  0  0  0  0
    5.8125  -49.5687  -20.2967 C   0  0  0  0  0  0  0  0  0  0  0  0
    5.8781  -50.4805  -21.2876 N   0  0  0  0  0  0  0  0  0  0  0  0
   -0.5034  -52.8896  -18.1169 O   0  0  0  0  0  0  0  0  0  0  0  0
   -1.2870  -51.6391  -16.1658 C   0  0  0  0  0  0  0  0  0  0  0  0
   -1.6066  -52.5106  -17.3400 C   0  0  0  0  0  0  0  0  0  0  0  0
 43 44  1  0  0  0
 44 42  1  0  0  0
 42  1  1  0  0  0
  1  2  2  0  0  0
  2  3  1  0  0  0
  3  4  2  0  0  0
  4  5  1  0  0  0
  5  6  2  0  0  0
  6 23  1  0  0  0
 23 24  3  0  0  0
  6  7  1  0  0  0
  7 25  1  0  0  0
 25 27  1  0  0  0
 27 28  2  0  0  0
 28 29  1  0  0  0
 29 30  2  0  0  0
 30 34  1  0  0  0
 34 35  1  0  0  0
 35 36  1  0  0  0
 36 37  2  0  0  0
 37 38  1  0  0  0
 38 39  2  0  0  0
 39 40  1  0  0  0
 40 41  2  0  0  0
 30 31  1  0  0  0
 31 32  1  0  0  0
 31 33  2  0  0  0
  7  8  2  0  0  0
  8  9  1  0  0  0
  9 10  2  0  0  0
 10 11  1  0  0  0
 11 12  1  0  0  0
 12 13  2  0  0  0
 12 15  1  0  0  0
 15 16  2  0  0  0
 16 17  1  0  0  0
 17 18  1  0  0  0
 18 19  1  0  0  0
 19 20  1  0  0  0
 20 21  1  0  0  0
 21 22  1  0  0  0
 10  1  1  0  0  0
 22 18  1  0  0  0
  8  3  1  0  0  0
 33 27  1  0  0  0
 41 36  1  0  0  0
 25 26  1  0  0  0
 11 14  1  0  0  0
M  END
> <minimizedAffinity>
-7.17359

> <CNNscore>
0.3324205875

> <CNNaffinity>
7.4961562157

> <CNN_VS>
2.4918766022

> <CNNaffinity_variance>
0.1700649559

$$$$
[H]/C(C(=O)N([H])c1c(OC([H])([H])C([H])([H])[H])c([H])c2nc([H])c(C#N)c(N([H])c3c([H])c([H])c(OC([H])([H])c4nc([H])c([H])c([H])c4[H])c(Cl)c3[H])c2c1[H])=C(/[H])C([H])([H])N1C([H])([H])C([H])([H])C([H])([H])C1([H])[H]


 44 48  0  0  0  0  0  0  0  0999 V2000
    2.7771  -49.7346  -24.6005 C   0  0  0  0  0  0  0  0  0  0  0  0
    1.7089  -50.3104  -25.2379 C   0  0  0  0  0  0  0  0  0  0  0  0
    0.9795  -51.3733  -24.7076 C   0  0  0  0  0  0  0  0  0  0  0  0
   -0.0658  -51.9239  -25.3476 N   0  0  0  0  0  0  0  0  0  0  0  0
   -0.7650  -52.9577  -24.8162 C   0  0  0  0  0  0  0  0  0  0  0  0
   -0.4329  -53.4927  -23.5894 C   0  0  0  0  0  0  0  0  0  0  0  0
    0.6446  -52.9372  -22.9123 C   0  0  0  0  0  0  0  0  0  0  0  0
    1.3312  -51.8873  -23.4842 C   0  0  0  0  0  0  0  0  0  0  0  0
    2.4178  -51.3130  -22.8198 C   0  0  0  0  0  0  0  0  0  0  0  0
    3.1389  -50.2626  -23.3432 C   0  0  0  0  0  0  0  0  0  0  0  0
    4.2297  -49.6736  -22.6973 N   0  0  0  0  0  0  0  0  0  0  0  0
    5.5384  -50.1437  -22.5590 C   0  0  0  0  0  0  0  0  0  0  0  0
    5.8721  -51.2507  -23.0570 O   0  0  0  0  0  0  0  0  0  0  0  0
    4.0617  -48.7134  -22.2288 H   0  0  0  0  0  0  0  0  0  0  0  0
    6.5939  -49.3973  -21.8396 C   0  0  0  0  0  0  0  0  0  0  0  0
    6.4317  -48.2789  -21.2235 C   0  0  0  0  0  0  0  0  0  0  0  0
    7.4407  -47.4862  -20.4903 C   0  0  0  0  0  0  0  0  0  0  0  0
    6.9443  -46.4465  -19.6588 N   0  0  0  0  0  0  0  0  0  0  0  0
    7.3736  -46.7453  -18.2982 C   0  0  0  0  0  0  0  0  0  0  0  0
    6.1908  -46.5955  -17.4008 C   0  0  0  0  0  0  0  0  0  0  0  0
    5.0347  -46.9382  -18.2956 C   0  0  0  0  0  0  0  0  0  0  0  0
    5.4939  -46.4823  -19.6316 C   0  0  0  0  0  0  0  0  0  0  0  0
   -1.1315  -54.5825  -22.9767 C   0  0  0  0  0  0  0  0  0  0  0  0
   -1.7105  -55.4585  -22.4951 N   0  0  0  0  0  0  0  0  0  0  0  0
    1.0200  -53.4491  -21.6595 N   0  0  0  0  0  0  0  0  0  0  0  0
    1.5913  -54.3180  -21.6473 H   0  0  0  0  0  0  0  0  0  0  0  0
    0.6164  -52.7777  -20.4648 C   0  0  0  0  0  0  0  0  0  0  0  0
    1.2973  -51.6420  -20.0535 C   0  0  0  0  0  0  0  0  0  0  0  0
    0.9552  -50.9519  -18.9144 C   0  0  0  0  0  0  0  0  0  0  0  0
   -0.1004  -51.4037  -18.1551 C   0  0  0  0  0  0  0  0  0  0  0  0
   -0.8008  -52.5357  -18.5399 C   0  0  0  0  0  0  0  0  0  0  0  0
   -2.1338  -53.1275  -17.6041 Cl  0  0  0  0  0  0  0  0  0  0  0  0
   -0.4297  -53.1992  -19.6845 C   0  0  0  0  0  0  0  0  0  0  0  0
   -0.4294  -50.6931  -17.0096 O   0  0  0  0  0  0  0  0  0  0  0  0
    0.4690  -49.8069  -16.3834 C   0  0  0  0  0  0  0  0  0  0  0  0
    1.4170  -50.4975  -15.4930 C   0  0  0  0  0  0  0  0  0  0  0  0
    2.7676  -50.1698  -15.5057 C   0  0  0  0  0  0  0  0  0  0  0  0
    3.6396  -50.8288  -14.6621 C   0  0  0  0  0  0  0  0  0  0  0  0
    3.1016  -51.8047  -13.8301 C   0  0  0  0  0  0  0  0  0  0  0  0
    1.7568  -52.1184  -13.8298 C   0  0  0  0  0  0  0  0  0  0  0  0
    0.9333  -51.4552  -14.6663 N   0  0  0  0  0  0  0  0  0  0  0  0
    3.5034  -48.6842  -25.1180 O   0  0  0  0  0  0  0  0  0  0  0  0
    5.8335  -48.4657  -25.8302 C   0  0  0  0  0  0  0  0  0  0  0  0
    4.4061  -48.7386  -26.1886 C   0  0  0  0  0  0  0  0  0  0  0  0
 43 44  1  0  0  0
 44 42  1  0  0  0
 42  1  1  0  0  0
  1  2  2  0  0  0
  2  3  1  0  0  0
  3  4  2  0  0  0
  4  5  1  0  0  0
  5  6  2  0  0  0
  6 23  1  0  0  0
 23 24  3  0  0  0
  6  7  1  0  0  0
  7 25  1  0  0  0
 25 27  1  0  0  0
 27 28  2  0  0  0
 28 29  1  0  0  0
 29 30  2  0  0  0
 30 34  1  0  0  0
 34 35  1  0  0  0
 35 36  1  0  0  0
 36 37  2  0  0  0
 37 38  1  0  0  0
 38 39  2  0  0  0
 39 40  1  0  0  0
 40 41  2  0  0  0
 30 31  1  0  0  0
 31 32  1  0  0  0
 31 33  2  0  0  0
  7  8  2  0  0  0
  8  9  1  0  0  0
  9 10  2  0  0  0
 10 11  1  0  0  0
 11 12  1  0  0  0
 12 13  2  0  0  0
 12 15  1  0  0  0
 15 16  2  0  0  0
 16 17  1  0  0  0
 17 18  1  0  0  0
 18 19  1  0  0  0
 19 20  1  0  0  0
 20 21  1  0  0  0
 21 22  1  0  0  0
 10  1  1  0  0  0
 22 18  1  0  0  0
  8  3  1  0  0  0
 33 27  1  0  0  0
 41 36  1  0  0  0
 25 26  1  0  0  0
 11 14  1  0  0  0
M  END
> <minimizedAffinity>
-6.35788

> <CNNscore>
0.2988949418

> <CNNaffinity>
7.4734220505

> <CNN_VS>
2.2337679863

> <CNNaffinity_variance>
0.1219879240

$$$$
[H]/C(C(=O)N([H])c1c(OC([H])([H])[H])c([H])c2nc([H])nc(N([H])c3c([H])c([H])c(F)c(Cl)c3[H])c2c1[H])=C(/[H])C([H])([H])N1C([H])([H])C([H])([H])C([H])([H])C([H])([H])C1([H])[H]


 35 38  0  0  0  0  0  0  0  0999 V2000
    0.0345  -52.1595  -19.5018 C   0  0  0  0  0  0  0  0  0  0  0  0
   -0.7667  -53.2130  -19.8492 C   0  0  0  0  0  0  0  0  0  0  0  0
   -0.7955  -53.6401  -21.1545 C   0  0  0  0  0  0  0  0  0  0  0  0
   -1.5901  -54.6818  -21.4732 N   0  0  0  0  0  0  0  0  0  0  0  0
   -1.6057  -55.0886  -22.7503 C   0  0  0  0  0  0  0  0  0  0  0  0
   -0.8791  -54.5075  -23.6806 N   0  0  0  0  0  0  0  0  0  0  0  0
   -0.0527  -53.4537  -23.4470 C   0  0  0  0  0  0  0  0  0  0  0  0
   -0.0292  -53.0267  -22.1324 C   0  0  0  0  0  0  0  0  0  0  0  0
    0.7548  -51.9742  -21.7185 C   0  0  0  0  0  0  0  0  0  0  0  0
    0.8417  -51.4860  -20.4378 C   0  0  0  0  0  0  0  0  0  0  0  0
    1.6551  -50.4023  -20.0159 N   0  0  0  0  0  0  0  0  0  0  0  0
    1.5407  -49.0509  -20.3366 C   0  0  0  0  0  0  0  0  0  0  0  0
    0.6389  -48.5616  -21.0966 O   0  0  0  0  0  0  0  0  0  0  0  0
    2.4627  -50.6820  -19.3608 H   0  0  0  0  0  0  0  0  0  0  0  0
    2.4677  -48.0459  -19.8183 C   0  0  0  0  0  0  0  0  0  0  0  0
    3.5825  -47.7762  -20.4188 C   0  0  0  0  0  0  0  0  0  0  0  0
    4.5396  -46.7360  -19.8804 C   0  0  0  0  0  0  0  0  0  0  0  0
    5.8133  -47.3639  -19.7664 N   0  0  0  0  0  0  0  0  0  0  0  0
    5.9329  -48.6333  -20.4074 C   0  0  0  0  0  0  0  0  0  0  0  0
    7.3903  -48.9839  -20.5726 C   0  0  0  0  0  0  0  0  0  0  0  0
    8.1091  -48.9213  -19.2553 C   0  0  0  0  0  0  0  0  0  0  0  0
    7.9238  -47.5669  -18.6440 C   0  0  0  0  0  0  0  0  0  0  0  0
    6.4486  -47.2706  -18.4916 C   0  0  0  0  0  0  0  0  0  0  0  0
   -0.7912  -52.2629  -17.2482 C   0  0  0  0  0  0  0  0  0  0  0  0
    0.0770  -51.7144  -18.1908 O   0  0  0  0  0  0  0  0  0  0  0  0
    0.6831  -52.8433  -24.4734 N   0  0  0  0  0  0  0  0  0  0  0  0
    1.5648  -52.3303  -24.1856 H   0  0  0  0  0  0  0  0  0  0  0  0
    0.4157  -52.8151  -25.8466 C   0  0  0  0  0  0  0  0  0  0  0  0
    1.4661  -52.9539  -26.7673 C   0  0  0  0  0  0  0  0  0  0  0  0
    1.2846  -52.9583  -28.1234 C   0  0  0  0  0  0  0  0  0  0  0  0
    0.0258  -52.8226  -28.6461 C   0  0  0  0  0  0  0  0  0  0  0  0
   -0.2056  -52.8204  -29.9735 F   0  0  0  0  0  0  0  0  0  0  0  0
   -1.0282  -52.6846  -27.7791 C   0  0  0  0  0  0  0  0  0  0  0  0
   -2.6385  -52.5119  -28.4494 Cl  0  0  0  0  0  0  0  0  0  0  0  0
   -0.8292  -52.6819  -26.3877 C   0  0  0  0  0  0  0  0  0  0  0  0
 24 25  1  0  0  0
 25  1  1  0  0  0
  1  2  2  0  0  0
  2  3  1  0  0  0
  3  4  2  0  0  0
  4  5  1  0  0  0
  5  6  2  0  0  0
  6  7  1  0  0  0
  7 26  1  0  0  0
 26 28  1  0  0  0
 28 29  2  0  0  0
 29 30  1  0  0  0
 30 31  2  0  0  0
 31 32  1  0  0  0
 31 33  1  0  0  0
 33 34  1  0  0  0
 33 35  2  0  0  0
  7  8  2  0  0  0
  8  9  1  0  0  0
  9 10  2  0  0  0
 10 11  1  0  0  0
 11 12  1  0  0  0
 12 13  2  0  0  0
 12 15  1  0  0  0
 15 16  2  0  0  0
 16 17  1  0  0  0
 17 18  1  0  0  0
 18 19  1  0  0  0
 19 20  1  0  0  0
 20 21  1  0  0  0
 21 22  1  0  0  0
 22 23  1  0  0  0
 10  1  1  0  0  0
 23 18  1  0  0  0
  8  3  1  0  0  0
 35 28  1  0  0  0
 26 27  1  0  0  0
 11 14  1  0  0  0
M  END
> <minimizedAffinity>
-8.55107

> <CNNscore>
0.9641942382

> <CNNaffinity>
7.7403655052

> <CNN_VS>
7.4632158279

> <CNNaffinity_variance>
0.0652139112

$$$$
[H]/C(C(=O)N([H])c1c(OC([H])([H])[H])c([H])c2nc([H])nc(N([H])c3c([H])c([H])c(F)c(Cl)c3[H])c2c1[H])=C(/[H])C([H])([H])N1C([H])([H])C([H])([H])C([H])([H])C([H])([H])C1([H])[H]


 35 38  0  0  0  0  0  0  0  0999 V2000
    0.0609  -52.1626  -19.3879 C   0  0  0  0  0  0  0  0  0  0  0  0
   -0.7271  -53.2236  -19.7425 C   0  0  0  0  0  0  0  0  0  0  0  0
   -0.7706  -53.6256  -21.0553 C   0  0  0  0  0  0  0  0  0  0  0  0
   -1.5517  -54.6753  -21.3812 N   0  0  0  0  0  0  0  0  0  0  0  0
   -1.5820  -55.0573  -22.6657 C   0  0  0  0  0  0  0  0  0  0  0  0
   -0.8819  -54.4450  -23.5964 N   0  0  0  0  0  0  0  0  0  0  0  0
   -0.0707  -53.3810  -23.3559 C   0  0  0  0  0  0  0  0  0  0  0  0
   -0.0323  -52.9793  -22.0336 C   0  0  0  0  0  0  0  0  0  0  0  0
    0.7395  -51.9209  -21.6122 C   0  0  0  0  0  0  0  0  0  0  0  0
    0.8397  -51.4563  -20.3238 C   0  0  0  0  0  0  0  0  0  0  0  0
    1.6406  -50.3663  -19.8941 N   0  0  0  0  0  0  0  0  0  0  0  0
    2.9088  -50.3917  -19.3168 C   0  0  0  0  0  0  0  0  0  0  0  0
    3.5735  -51.4553  -19.0774 O   0  0  0  0  0  0  0  0  0  0  0  0
    1.1912  -49.3992  -20.0428 H   0  0  0  0  0  0  0  0  0  0  0  0
    3.6101  -49.1708  -18.9227 C   0  0  0  0  0  0  0  0  0  0  0  0
    4.5013  -48.6230  -19.6855 C   0  0  0  0  0  0  0  0  0  0  0  0
    5.2254  -47.3600  -19.2753 C   0  0  0  0  0  0  0  0  0  0  0  0
    5.0240  -46.4094  -20.3171 N   0  0  0  0  0  0  0  0  0  0  0  0
    4.1690  -45.3137  -19.9932 C   0  0  0  0  0  0  0  0  0  0  0  0
    4.3682  -44.2013  -20.9918 C   0  0  0  0  0  0  0  0  0  0  0  0
    4.1767  -44.7005  -22.3954 C   0  0  0  0  0  0  0  0  0  0  0  0
    5.0970  -45.8540  -22.6498 C   0  0  0  0  0  0  0  0  0  0  0  0
    4.8490  -46.9426  -21.6296 C   0  0  0  0  0  0  0  0  0  0  0  0
   -0.8448  -52.1839  -17.1629 C   0  0  0  0  0  0  0  0  0  0  0  0
    0.1179  -51.7424  -18.0692 O   0  0  0  0  0  0  0  0  0  0  0  0
    0.6362  -52.7373  -24.3822 N   0  0  0  0  0  0  0  0  0  0  0  0
    1.4902  -52.1797  -24.0937 H   0  0  0  0  0  0  0  0  0  0  0  0
    0.3715  -52.7265  -25.7561 C   0  0  0  0  0  0  0  0  0  0  0  0
    1.4255  -52.8624  -26.6732 C   0  0  0  0  0  0  0  0  0  0  0  0
    1.2470  -52.8831  -28.0296 C   0  0  0  0  0  0  0  0  0  0  0  0
   -0.0122  -52.7677  -28.5562 C   0  0  0  0  0  0  0  0  0  0  0  0
   -0.2407  -52.7821  -29.8840 F   0  0  0  0  0  0  0  0  0  0  0  0
   -1.0696  -52.6333  -27.6929 C   0  0  0  0  0  0  0  0  0  0  0  0
   -2.6804  -52.4866  -28.3682 Cl  0  0  0  0  0  0  0  0  0  0  0  0
   -0.8737  -52.6137  -26.3011 C   0  0  0  0  0  0  0  0  0  0  0  0
 24 25  1  0  0  0
 25  1  1  0  0  0
  1  2  2  0  0  0
  2  3  1  0  0  0
  3  4  2  0  0  0
  4  5  1  0  0  0
  5  6  2  0  0  0
  6  7  1  0  0  0
  7 26  1  0  0  0
 26 28  1  0  0  0
 28 29  2  0  0  0
 29 30  1  0  0  0
 30 31  2  0  0  0
 31 32  1  0  0  0
 31 33  1  0  0  0
 33 34  1  0  0  0
 33 35  2  0  0  0
  7  8  2  0  0  0
  8  9  1  0  0  0
  9 10  2  0  0  0
 10 11  1  0  0  0
 11 12  1  0  0  0
 12 13  2  0  0  0
 12 15  1  0  0  0
 15 16  2  0  0  0
 16 17  1  0  0  0
 17 18  1  0  0  0
 18 19  1  0  0  0
 19 20  1  0  0  0
 20 21  1  0  0  0
 21 22  1  0  0  0
 22 23  1  0  0  0
 10  1  1  0  0  0
 23 18  1  0  0  0
  8  3  1  0  0  0
 35 28  1  0  0  0
 26 27  1  0  0  0
 11 14  1  0  0  0
M  END
> <minimizedAffinity>
-8.40500

> <CNNscore>
0.9534224272

> <CNNaffinity>
7.8758482933

> <CNN_VS>
7.5090103149

> <CNNaffinity_variance>
0.1989137828

$$$$
[H]/C(C(=O)N([H])c1c(OC([H])([H])[H])c([H])c2nc([H])nc(N([H])c3c([H])c([H])c(F)c(Cl)c3[H])c2c1[H])=C(/[H])C([H])([H])N1C([H])([H])C([H])([H])C([H])([H])C([H])([H])C1([H])[H]


 35 38  0  0  0  0  0  0  0  0999 V2000
    0.4299  -52.2916  -25.7317 C   0  0  0  0  0  0  0  0  0  0  0  0
   -0.4469  -53.3074  -25.4636 C   0  0  0  0  0  0  0  0  0  0  0  0
   -0.5802  -53.7644  -24.1751 C   0  0  0  0  0  0  0  0  0  0  0  0
   -1.4523  -54.7642  -23.9339 N   0  0  0  0  0  0  0  0  0  0  0  0
   -1.5731  -55.1976  -22.6713 C   0  0  0  0  0  0  0  0  0  0  0  0
   -0.8754  -54.6813  -21.6825 N   0  0  0  0  0  0  0  0  0  0  0  0
    0.0238  -53.6734  -21.8365 C   0  0  0  0  0  0  0  0  0  0  0  0
    0.1555  -53.2189  -23.1354 C   0  0  0  0  0  0  0  0  0  0  0  0
    1.0187  -52.2010  -23.4707 C   0  0  0  0  0  0  0  0  0  0  0  0
    1.2113  -51.6866  -24.7294 C   0  0  0  0  0  0  0  0  0  0  0  0
    2.1004  -50.6338  -25.0690 N   0  0  0  0  0  0  0  0  0  0  0  0
    3.4921  -50.6571  -25.1375 C   0  0  0  0  0  0  0  0  0  0  0  0
    4.2114  -51.6834  -24.8933 O   0  0  0  0  0  0  0  0  0  0  0  0
    1.6157  -49.7008  -25.3017 H   0  0  0  0  0  0  0  0  0  0  0  0
    4.2741  -49.4773  -25.5043 C   0  0  0  0  0  0  0  0  0  0  0  0
    4.7402  -48.6661  -24.6094 C   0  0  0  0  0  0  0  0  0  0  0  0
    5.5488  -47.4463  -24.9917 C   0  0  0  0  0  0  0  0  0  0  0  0
    5.2513  -46.4346  -24.0338 N   0  0  0  0  0  0  0  0  0  0  0  0
    3.9223  -45.9166  -24.0789 C   0  0  0  0  0  0  0  0  0  0  0  0
    3.6163  -45.1897  -22.7934 C   0  0  0  0  0  0  0  0  0  0  0  0
    4.6487  -44.1346  -22.5156 C   0  0  0  0  0  0  0  0  0  0  0  0
    6.0113  -44.7553  -22.4984 C   0  0  0  0  0  0  0  0  0  0  0  0
    6.2704  -45.4602  -23.8112 C   0  0  0  0  0  0  0  0  0  0  0  0
    0.3232  -52.6636  -28.1026 C   0  0  0  0  0  0  0  0  0  0  0  0
    0.5782  -51.8174  -27.0247 O   0  0  0  0  0  0  0  0  0  0  0  0
    0.7697  -53.1708  -20.7601 N   0  0  0  0  0  0  0  0  0  0  0  0
    1.8231  -53.2689  -20.8251 H   0  0  0  0  0  0  0  0  0  0  0  0
    0.3146  -52.5469  -19.5933 C   0  0  0  0  0  0  0  0  0  0  0  0
   -0.6502  -53.1781  -18.7926 C   0  0  0  0  0  0  0  0  0  0  0  0
   -1.1298  -52.6443  -17.6277 C   0  0  0  0  0  0  0  0  0  0  0  0
   -0.6670  -51.4322  -17.1885 C   0  0  0  0  0  0  0  0  0  0  0  0
   -1.1075  -50.8641  -16.0488 F   0  0  0  0  0  0  0  0  0  0  0  0
    0.2769  -50.7831  -17.9428 C   0  0  0  0  0  0  0  0  0  0  0  0
    0.8687  -49.2325  -17.3791 Cl  0  0  0  0  0  0  0  0  0  0  0  0
    0.7623  -51.3417  -19.1378 C   0  0  0  0  0  0  0  0  0  0  0  0
 24 25  1  0  0  0
 25  1  1  0  0  0
  1  2  2  0  0  0
  2  3  1  0  0  0
  3  4  2  0  0  0
  4  5  1  0  0  0
  5  6  2  0  0  0
  6  7  1  0  0  0
  7 26  1  0  0  0
 26 28  1  0  0  0
 28 29  2  0  0  0
 29 30  1  0  0  0
 30 31  2  0  0  0
 31 32  1  0  0  0
 31 33  1  0  0  0
 33 34  1  0  0  0
 33 35  2  0  0  0
  7  8  2  0  0  0
  8  9  1  0  0  0
  9 10  2  0  0  0
 10 11  1  0  0  0
 11 12  1  0  0  0
 12 13  2  0  0  0
 12 15  1  0  0  0
 15 16  2  0  0  0
 16 17  1  0  0  0
 17 18  1  0  0  0
 18 19  1  0  0  0
 19 20  1  0  0  0
 20 21  1  0  0  0
 21 22  1  0  0  0
 22 23  1  0  0  0
 10  1  1  0  0  0
 23 18  1  0  0  0
  8  3  1  0  0  0
 35 28  1  0  0  0
 26 27  1  0  0  0
 11 14  1  0  0  0
M  END
> <minimizedAffinity>
-7.25569

> <CNNscore>
0.5630685687

> <CNNaffinity>
7.3470878601

> <CNN_VS>
4.1369142532

> <CNNaffinity_variance>
0.2749746144

$$$$
[H]/C(C(=O)N([H])c1c(OC([H])([H])[H])c([H])c2nc([H])nc(N([H])c3c([H])c([H])c(F)c(Cl)c3[H])c2c1[H])=C(/[H])C([H])([H])N1C([H])([H])C([H])([H])C([H])([H])C([H])([H])C1([H])[H]


 35 38  0  0  0  0  0  0  0  0999 V2000
    0.3009  -52.5003  -26.0550 C   0  0  0  0  0  0  0  0  0  0  0  0
   -0.4703  -53.5516  -25.6396 C   0  0  0  0  0  0  0  0  0  0  0  0
   -0.5385  -53.8539  -24.3014 C   0  0  0  0  0  0  0  0  0  0  0  0
   -1.3070  -54.8923  -23.9147 N   0  0  0  0  0  0  0  0  0  0  0  0
   -1.3655  -55.1736  -22.6055 C   0  0  0  0  0  0  0  0  0  0  0  0
   -0.7045  -54.4748  -21.7076 N   0  0  0  0  0  0  0  0  0  0  0  0
    0.0914  -53.4150  -22.0095 C   0  0  0  0  0  0  0  0  0  0  0  0
    0.1582  -53.1165  -23.3577 C   0  0  0  0  0  0  0  0  0  0  0  0
    0.9146  -52.0729  -23.8397 C   0  0  0  0  0  0  0  0  0  0  0  0
    1.0369  -51.7045  -25.1571 C   0  0  0  0  0  0  0  0  0  0  0  0
    1.8156  -50.6245  -25.6483 N   0  0  0  0  0  0  0  0  0  0  0  0
    3.1985  -50.4575  -25.6052 C   0  0  0  0  0  0  0  0  0  0  0  0
    4.0128  -51.2962  -25.0915 O   0  0  0  0  0  0  0  0  0  0  0  0
    1.2433  -49.8397  -26.1130 H   0  0  0  0  0  0  0  0  0  0  0  0
    3.8583  -49.2758  -26.1586 C   0  0  0  0  0  0  0  0  0  0  0  0
    3.7533  -48.9629  -27.4104 C   0  0  0  0  0  0  0  0  0  0  0  0
    4.4370  -47.7399  -27.9803 C   0  0  0  0  0  0  0  0  0  0  0  0
    4.6307  -47.9830  -29.3706 N   0  0  0  0  0  0  0  0  0  0  0  0
    5.8652  -48.6081  -29.7195 C   0  0  0  0  0  0  0  0  0  0  0  0
    5.7709  -49.1762  -31.1134 C   0  0  0  0  0  0  0  0  0  0  0  0
    5.3495  -48.1203  -32.0949 C   0  0  0  0  0  0  0  0  0  0  0  0
    4.0578  -47.5065  -31.6509 C   0  0  0  0  0  0  0  0  0  0  0  0
    4.2102  -46.9445  -30.2551 C   0  0  0  0  0  0  0  0  0  0  0  0
   -0.1990  -53.0231  -28.3459 C   0  0  0  0  0  0  0  0  0  0  0  0
    0.3824  -52.1800  -27.4002 O   0  0  0  0  0  0  0  0  0  0  0  0
    0.8031  -52.7145  -21.0245 N   0  0  0  0  0  0  0  0  0  0  0  0
    1.8170  -52.4920  -21.2386 H   0  0  0  0  0  0  0  0  0  0  0  0
    0.3582  -52.2586  -19.7786 C   0  0  0  0  0  0  0  0  0  0  0  0
   -0.5305  -53.0402  -19.0238 C   0  0  0  0  0  0  0  0  0  0  0  0
   -0.9941  -52.6751  -17.7893 C   0  0  0  0  0  0  0  0  0  0  0  0
   -0.5914  -51.4918  -17.2292 C   0  0  0  0  0  0  0  0  0  0  0  0
   -1.0192  -51.0872  -16.0172 F   0  0  0  0  0  0  0  0  0  0  0  0
    0.2774  -50.6991  -17.9352 C   0  0  0  0  0  0  0  0  0  0  0  0
    0.7925  -49.1857  -17.2168 Cl  0  0  0  0  0  0  0  0  0  0  0  0
    0.7471  -51.0851  -19.2026 C   0  0  0  0  0  0  0  0  0  0  0  0
 24 25  1  0  0  0
 25  1  1  0  0  0
  1  2  2  0  0  0
  2  3  1  0  0  0
  3  4  2  0  0  0
  4  5  1  0  0  0
  5  6  2  0  0  0
  6  7  1  0  0  0
  7 26  1  0  0  0
 26 28  1  0  0  0
 28 29  2  0  0  0
 29 30  1  0  0  0
 30 31  2  0  0  0
 31 32  1  0  0  0
 31 33  1  0  0  0
 33 34  1  0  0  0
 33 35  2  0  0  0
  7  8  2  0  0  0
  8  9  1  0  0  0
  9 10  2  0  0  0
 10 11  1  0  0  0
 11 12  1  0  0  0
 12 13  2  0  0  0
 12 15  1  0  0  0
 15 16  2  0  0  0
 16 17  1  0  0  0
 17 18  1  0  0  0
 18 19  1  0  0  0
 19 20  1  0  0  0
 20 21  1  0  0  0
 21 22  1  0  0  0
 22 23  1  0  0  0
 10  1  1  0  0  0
 23 18  1  0  0  0
  8  3  1  0  0  0
 35 28  1  0  0  0
 26 27  1  0  0  0
 11 14  1  0  0  0
M  END
> <minimizedAffinity>
-8.25432

> <CNNscore>
0.4998735785

> <CNNaffinity>
7.1118402481

> <CNN_VS>
3.5550210476

> <CNNaffinity_variance>
0.1392553598

$$$$
[H]/C(C(=O)N([H])c1c(OC([H])([H])[H])c([H])c2nc([H])nc(N([H])c3c([H])c([H])c(F)c(Cl)c3[H])c2c1[H])=C(/[H])C([H])([H])N1C([H])([H])C([H])([H])C([H])([H])C([H])([H])C1([H])[H]


 35 38  0  0  0  0  0  0  0  0999 V2000
    2.1886  -51.9082  -19.8523 C   0  0  0  0  0  0  0  0  0  0  0  0
    1.2016  -52.8532  -19.9269 C   0  0  0  0  0  0  0  0  0  0  0  0
    0.6036  -53.1136  -21.1358 C   0  0  0  0  0  0  0  0  0  0  0  0
   -0.3645  -54.0509  -21.1861 N   0  0  0  0  0  0  0  0  0  0  0  0
   -0.9369  -54.2956  -22.3731 C   0  0  0  0  0  0  0  0  0  0  0  0
   -0.5836  -53.6562  -23.4675 N   0  0  0  0  0  0  0  0  0  0  0  0
    0.3806  -52.6988  -23.5065 C   0  0  0  0  0  0  0  0  0  0  0  0
    0.9776  -52.4392  -22.2869 C   0  0  0  0  0  0  0  0  0  0  0  0
    1.9753  -51.5022  -22.1450 C   0  0  0  0  0  0  0  0  0  0  0  0
    2.6232  -51.1822  -20.9771 C   0  0  0  0  0  0  0  0  0  0  0  0
    3.6546  -50.2175  -20.8373 N   0  0  0  0  0  0  0  0  0  0  0  0
    4.9934  -50.3131  -21.2124 C   0  0  0  0  0  0  0  0  0  0  0  0
    5.5178  -51.3364  -21.7678 O   0  0  0  0  0  0  0  0  0  0  0  0
    3.3409  -49.2953  -20.3784 H   0  0  0  0  0  0  0  0  0  0  0  0
    5.9427  -49.2220  -20.9976 C   0  0  0  0  0  0  0  0  0  0  0  0
    5.5687  -48.0822  -20.5106 C   0  0  0  0  0  0  0  0  0  0  0  0
    6.5528  -46.9550  -20.2895 C   0  0  0  0  0  0  0  0  0  0  0  0
    6.4383  -46.5663  -18.9237 N   0  0  0  0  0  0  0  0  0  0  0  0
    7.5432  -46.9145  -18.0904 C   0  0  0  0  0  0  0  0  0  0  0  0
    7.4942  -46.1067  -16.8177 C   0  0  0  0  0  0  0  0  0  0  0  0
    6.1677  -46.2677  -16.1317 C   0  0  0  0  0  0  0  0  0  0  0  0
    5.0648  -45.8969  -17.0742 C   0  0  0  0  0  0  0  0  0  0  0  0
    5.1540  -46.7414  -18.3257 C   0  0  0  0  0  0  0  0  0  0  0  0
    2.1176  -50.9033  -17.6715 C   0  0  0  0  0  0  0  0  0  0  0  0
    2.8034  -51.6315  -18.6423 O   0  0  0  0  0  0  0  0  0  0  0  0
    0.7070  -52.0192  -24.6894 N   0  0  0  0  0  0  0  0  0  0  0  0
    1.3682  -51.1959  -24.5975 H   0  0  0  0  0  0  0  0  0  0  0  0
    0.2782  -52.2776  -25.9960 C   0  0  0  0  0  0  0  0  0  0  0  0
    1.2138  -52.6179  -26.9855 C   0  0  0  0  0  0  0  0  0  0  0  0
    0.8727  -52.9056  -28.2789 C   0  0  0  0  0  0  0  0  0  0  0  0
   -0.4412  -52.8698  -28.6646 C   0  0  0  0  0  0  0  0  0  0  0  0
   -0.8284  -53.1445  -29.9256 F   0  0  0  0  0  0  0  0  0  0  0  0
   -1.3867  -52.5417  -27.7266 C   0  0  0  0  0  0  0  0  0  0  0  0
   -3.0676  -52.4973  -28.2214 Cl  0  0  0  0  0  0  0  0  0  0  0  0
   -1.0240  -52.2485  -26.4007 C   0  0  0  0  0  0  0  0  0  0  0  0
 24 25  1  0  0  0
 25  1  1  0  0  0
  1  2  2  0  0  0
  2  3  1  0  0  0
  3  4  2  0  0  0
  4  5  1  0  0  0
  5  6  2  0  0  0
  6  7  1  0  0  0
  7 26  1  0  0  0
 26 28  1  0  0  0
 28 29  2  0  0  0
 29 30  1  0  0  0
 30 31  2  0  0  0
 31 32  1  0  0  0
 31 33  1  0  0  0
 33 34  1  0  0  0
 33 35  2  0  0  0
  7  8  2  0  0  0
  8  9  1  0  0  0
  9 10  2  0  0  0
 10 11  1  0  0  0
 11 12  1  0  0  0
 12 13  2  0  0  0
 12 15  1  0  0  0
 15 16  2  0  0  0
 16 17  1  0  0  0
 17 18  1  0  0  0
 18 19  1  0  0  0
 19 20  1  0  0  0
 20 21  1  0  0  0
 21 22  1  0  0  0
 22 23  1  0  0  0
 10  1  1  0  0  0
 23 18  1  0  0  0
  8  3  1  0  0  0
 35 28  1  0  0  0
 26 27  1  0  0  0
 11 14  1  0  0  0
M  END
> <minimizedAffinity>
-7.51755

> <CNNscore>
0.4632465541

> <CNNaffinity>
7.1118888855

> <CNN_VS>
3.2945580482

> <CNNaffinity_variance>
0.5756236911

$$$$
[H]/C(C(=O)N([H])c1c(OC([H])([H])[H])c([H])c2nc([H])nc(N([H])c3c([H])c([H])c(F)c(Cl)c3[H])c2c1[H])=C(/[H])C([H])([H])N1C([H])([H])C([H])([H])C([H])([H])C([H])([H])C1([H])[H]


 35 38  0  0  0  0  0  0  0  0999 V2000
    0.3598  -52.4401  -26.1921 C   0  0  0  0  0  0  0  0  0  0  0  0
   -0.4071  -53.4982  -25.7862 C   0  0  0  0  0  0  0  0  0  0  0  0
   -0.4805  -53.8080  -24.4500 C   0  0  0  0  0  0  0  0  0  0  0  0
   -1.2447  -54.8530  -24.0728 N   0  0  0  0  0  0  0  0  0  0  0  0
   -1.3084  -55.1415  -22.7654 C   0  0  0  0  0  0  0  0  0  0  0  0
   -0.6566  -54.4434  -21.8604 N   0  0  0  0  0  0  0  0  0  0  0  0
    0.1345  -53.3771  -22.1525 C   0  0  0  0  0  0  0  0  0  0  0  0
    0.2065  -53.0712  -23.4987 C   0  0  0  0  0  0  0  0  0  0  0  0
    0.9590  -52.0204  -23.9714 C   0  0  0  0  0  0  0  0  0  0  0  0
    1.0861  -51.6445  -25.2861 C   0  0  0  0  0  0  0  0  0  0  0  0
    1.8606  -50.5571  -25.7676 N   0  0  0  0  0  0  0  0  0  0  0  0
    3.2411  -50.3762  -25.7053 C   0  0  0  0  0  0  0  0  0  0  0  0
    4.0565  -51.2061  -25.1794 O   0  0  0  0  0  0  0  0  0  0  0  0
    1.2871  -49.7785  -26.2411 H   0  0  0  0  0  0  0  0  0  0  0  0
    3.8966  -49.1884  -26.2507 C   0  0  0  0  0  0  0  0  0  0  0  0
    3.3166  -48.0310  -26.2483 C   0  0  0  0  0  0  0  0  0  0  0  0
    3.9970  -46.8039  -26.8132 C   0  0  0  0  0  0  0  0  0  0  0  0
    3.5355  -46.6532  -28.1525 N   0  0  0  0  0  0  0  0  0  0  0  0
    4.5124  -46.8764  -29.1685 C   0  0  0  0  0  0  0  0  0  0  0  0
    3.8264  -47.0972  -30.4933 C   0  0  0  0  0  0  0  0  0  0  0  0
    2.8973  -45.9608  -30.8116 C   0  0  0  0  0  0  0  0  0  0  0  0
    1.9160  -45.7843  -29.6944 C   0  0  0  0  0  0  0  0  0  0  0  0
    2.6545  -45.5564  -28.3944 C   0  0  0  0  0  0  0  0  0  0  0  0
    0.4231  -53.1235  -28.4943 C   0  0  0  0  0  0  0  0  0  0  0  0
    0.4465  -52.1123  -27.5352 O   0  0  0  0  0  0  0  0  0  0  0  0
    0.8365  -52.6773  -21.1601 N   0  0  0  0  0  0  0  0  0  0  0  0
    1.8455  -52.4334  -21.3742 H   0  0  0  0  0  0  0  0  0  0  0  0
    0.3876  -52.2470  -19.9066 C   0  0  0  0  0  0  0  0  0  0  0  0
   -0.4970  -53.0476  -19.1671 C   0  0  0  0  0  0  0  0  0  0  0  0
   -0.9641  -52.7079  -17.9267 C   0  0  0  0  0  0  0  0  0  0  0  0
   -0.5693  -51.5325  -17.3447 C   0  0  0  0  0  0  0  0  0  0  0  0
   -1.0008  -51.1526  -16.1261 F   0  0  0  0  0  0  0  0  0  0  0  0
    0.2952  -50.7217  -18.0353 C   0  0  0  0  0  0  0  0  0  0  0  0
    0.8002  -49.2184  -17.2889 Cl  0  0  0  0  0  0  0  0  0  0  0  0
    0.7685  -51.0817  -19.3089 C   0  0  0  0  0  0  0  0  0  0  0  0
 24 25  1  0  0  0
 25  1  1  0  0  0
  1  2  2  0  0  0
  2  3  1  0  0  0
  3  4  2  0  0  0
  4  5  1  0  0  0
  5  6  2  0  0  0
  6  7  1  0  0  0
  7 26  1  0  0  0
 26 28  1  0  0  0
 28 29  2  0  0  0
 29 30  1  0  0  0
 30 31  2  0  0  0
 31 32  1  0  0  0
 31 33  1  0  0  0
 33 34  1  0  0  0
 33 35  2  0  0  0
  7  8  2  0  0  0
  8  9  1  0  0  0
  9 10  2  0  0  0
 10 11  1  0  0  0
 11 12  1  0  0  0
 12 13  2  0  0  0
 12 15  1  0  0  0
 15 16  2  0  0  0
 16 17  1  0  0  0
 17 18  1  0  0  0
 18 19  1  0  0  0
 19 20  1  0  0  0
 20 21  1  0  0  0
 21 22  1  0  0  0
 22 23  1  0  0  0
 10  1  1  0  0  0
 23 18  1  0  0  0
  8  3  1  0  0  0
 35 28  1  0  0  0
 26 27  1  0  0  0
 11 14  1  0  0  0
M  END
> <minimizedAffinity>
-8.46801

> <CNNscore>
0.4480011463

> <CNNaffinity>
7.1470451355

> <CNN_VS>
3.2018845081

> <CNNaffinity_variance>
0.1254081875

$$$$
[H]/C(C(=O)N([H])c1c(OC([H])([H])[H])c([H])c2nc([H])nc(N([H])c3c([H])c([H])c(F)c(Cl)c3[H])c2c1[H])=C(/[H])C([H])([H])N1C([H])([H])C([H])([H])C([H])([H])C([H])([H])C1([H])[H]


 35 38  0  0  0  0  0  0  0  0999 V2000
    0.4663  -52.4350  -26.2706 C   0  0  0  0  0  0  0  0  0  0  0  0
   -0.3051  -53.4915  -25.8691 C   0  0  0  0  0  0  0  0  0  0  0  0
   -0.3898  -53.7988  -24.5330 C   0  0  0  0  0  0  0  0  0  0  0  0
   -1.1581  -54.8423  -24.1602 N   0  0  0  0  0  0  0  0  0  0  0  0
   -1.2328  -55.1283  -22.8528 C   0  0  0  0  0  0  0  0  0  0  0  0
   -0.5877  -54.4293  -21.9437 N   0  0  0  0  0  0  0  0  0  0  0  0
    0.2069  -53.3644  -22.2313 C   0  0  0  0  0  0  0  0  0  0  0  0
    0.2903  -53.0610  -23.5775 C   0  0  0  0  0  0  0  0  0  0  0  0
    1.0478  -52.0119  -24.0458 C   0  0  0  0  0  0  0  0  0  0  0  0
    1.1860  -51.6385  -25.3602 C   0  0  0  0  0  0  0  0  0  0  0  0
    1.9657  -50.5529  -25.8372 N   0  0  0  0  0  0  0  0  0  0  0  0
    3.3396  -50.3499  -25.7208 C   0  0  0  0  0  0  0  0  0  0  0  0
    4.1428  -51.1535  -25.1382 O   0  0  0  0  0  0  0  0  0  0  0  0
    1.4026  -49.7957  -26.3558 H   0  0  0  0  0  0  0  0  0  0  0  0
    4.0018  -49.1674  -26.2695 C   0  0  0  0  0  0  0  0  0  0  0  0
    3.3287  -48.1952  -26.7966 C   0  0  0  0  0  0  0  0  0  0  0  0
    4.0163  -46.9730  -27.3636 C   0  0  0  0  0  0  0  0  0  0  0  0
    4.4374  -46.1826  -26.2556 N   0  0  0  0  0  0  0  0  0  0  0  0
    3.3891  -45.6224  -25.4660 C   0  0  0  0  0  0  0  0  0  0  0  0
    3.9379  -45.1804  -24.1326 C   0  0  0  0  0  0  0  0  0  0  0  0
    5.0995  -44.2458  -24.3145 C   0  0  0  0  0  0  0  0  0  0  0  0
    6.1456  -44.9013  -25.1621 C   0  0  0  0  0  0  0  0  0  0  0  0
    5.5464  -45.3144  -26.4879 C   0  0  0  0  0  0  0  0  0  0  0  0
    0.1828  -53.0411  -28.5778 C   0  0  0  0  0  0  0  0  0  0  0  0
    0.5643  -52.1097  -27.6135 O   0  0  0  0  0  0  0  0  0  0  0  0
    0.9016  -52.6636  -21.2344 N   0  0  0  0  0  0  0  0  0  0  0  0
    1.8902  -52.3608  -21.4677 H   0  0  0  0  0  0  0  0  0  0  0  0
    0.4686  -52.3001  -19.9545 C   0  0  0  0  0  0  0  0  0  0  0  0
    1.1309  -51.2789  -19.2553 C   0  0  0  0  0  0  0  0  0  0  0  0
    0.7560  -50.8513  -18.0108 C   0  0  0  0  0  0  0  0  0  0  0  0
   -0.3173  -51.4267  -17.3837 C   0  0  0  0  0  0  0  0  0  0  0  0
   -0.7260  -51.0418  -16.1588 F   0  0  0  0  0  0  0  0  0  0  0  0
   -0.9918  -52.4284  -18.0342 C   0  0  0  0  0  0  0  0  0  0  0  0
   -2.3655  -53.1631  -17.2310 Cl  0  0  0  0  0  0  0  0  0  0  0  0
   -0.5973  -52.8589  -19.3128 C   0  0  0  0  0  0  0  0  0  0  0  0
 24 25  1  0  0  0
 25  1  1  0  0  0
  1  2  2  0  0  0
  2  3  1  0  0  0
  3  4  2  0  0  0
  4  5  1  0  0  0
  5  6  2  0  0  0
  6  7  1  0  0  0
  7 26  1  0  0  0
 26 28  1  0  0  0
 28 29  2  0  0  0
 29 30  1  0  0  0
 30 31  2  0  0  0
 31 32  1  0  0  0
 31 33  1  0  0  0
 33 34  1  0  0  0
 33 35  2  0  0  0
  7  8  2  0  0  0
  8  9  1  0  0  0
  9 10  2  0  0  0
 10 11  1  0  0  0
 11 12  1  0  0  0
 12 13  2  0  0  0
 12 15  1  0  0  0
 15 16  2  0  0  0
 16 17  1  0  0  0
 17 18  1  0  0  0
 18 19  1  0  0  0
 19 20  1  0  0  0
 20 21  1  0  0  0
 21 22  1  0  0  0
 22 23  1  0  0  0
 10  1  1  0  0  0
 23 18  1  0  0  0
  8  3  1  0  0  0
 35 28  1  0  0  0
 26 27  1  0  0  0
 11 14  1  0  0  0
M  END
> <minimizedAffinity>
-7.58989

> <CNNscore>
0.4387027025

> <CNNaffinity>
7.1769781113

> <CNN_VS>
3.1485598087

> <CNNaffinity_variance>
0.1301856488

$$$$
[H]/C(C(=O)N([H])c1c(OC([H])([H])[H])c([H])c2nc([H])nc(N([H])c3c([H])c([H])c(F)c(Cl)c3[H])c2c1[H])=C(/[H])C([H])([H])N1C([H])([H])C([H])([H])C([H])([H])C([H])([H])C1([H])[H]


 35 38  0  0  0  0  0  0  0  0999 V2000
    2.1145  -51.7709  -23.1317 C   0  0  0  0  0  0  0  0  0  0  0  0
    1.0501  -52.5289  -23.5379 C   0  0  0  0  0  0  0  0  0  0  0  0
    0.2442  -53.1234  -22.5977 C   0  0  0  0  0  0  0  0  0  0  0  0
   -0.8006  -53.8633  -23.0210 N   0  0  0  0  0  0  0  0  0  0  0  0
   -1.5792  -54.4350  -22.0918 C   0  0  0  0  0  0  0  0  0  0  0  0
   -1.3529  -54.2940  -20.8033 N   0  0  0  0  0  0  0  0  0  0  0  0
   -0.3246  -53.5674  -20.2908 C   0  0  0  0  0  0  0  0  0  0  0  0
    0.4844  -52.9732  -21.2414 C   0  0  0  0  0  0  0  0  0  0  0  0
    1.5693  -52.1990  -20.8987 C   0  0  0  0  0  0  0  0  0  0  0  0
    2.4225  -51.5714  -21.7728 C   0  0  0  0  0  0  0  0  0  0  0  0
    3.5379  -50.7708  -21.4136 N   0  0  0  0  0  0  0  0  0  0  0  0
    3.5639  -49.4247  -21.0536 C   0  0  0  0  0  0  0  0  0  0  0  0
    2.5337  -48.6731  -20.9890 O   0  0  0  0  0  0  0  0  0  0  0  0
    4.4806  -51.2909  -21.4266 H   0  0  0  0  0  0  0  0  0  0  0  0
    4.8058  -48.7341  -20.7090 C   0  0  0  0  0  0  0  0  0  0  0  0
    5.6473  -49.2326  -19.8608 C   0  0  0  0  0  0  0  0  0  0  0  0
    6.9313  -48.5159  -19.5060 C   0  0  0  0  0  0  0  0  0  0  0  0
    6.6175  -47.1303  -19.4009 N   0  0  0  0  0  0  0  0  0  0  0  0
    7.4289  -46.2549  -20.1830 C   0  0  0  0  0  0  0  0  0  0  0  0
    6.7516  -44.9135  -20.3114 C   0  0  0  0  0  0  0  0  0  0  0  0
    6.4155  -44.3514  -18.9597 C   0  0  0  0  0  0  0  0  0  0  0  0
    5.5771  -45.3327  -18.2003 C   0  0  0  0  0  0  0  0  0  0  0  0
    6.3054  -46.6537  -18.0921 C   0  0  0  0  0  0  0  0  0  0  0  0
    2.4997  -50.0209  -24.7318 C   0  0  0  0  0  0  0  0  0  0  0  0
    2.9386  -51.1636  -24.0649 O   0  0  0  0  0  0  0  0  0  0  0  0
   -0.1005  -53.4664  -18.9099 N   0  0  0  0  0  0  0  0  0  0  0  0
    0.6917  -54.0483  -18.5132 H   0  0  0  0  0  0  0  0  0  0  0  0
   -0.7841  -52.6935  -17.9648 C   0  0  0  0  0  0  0  0  0  0  0  0
   -2.0476  -53.1011  -17.5089 C   0  0  0  0  0  0  0  0  0  0  0  0
   -2.7692  -52.4131  -16.5719 C   0  0  0  0  0  0  0  0  0  0  0  0
   -2.2638  -51.2621  -16.0280 C   0  0  0  0  0  0  0  0  0  0  0  0
   -2.9349  -50.5485  -15.1029 F   0  0  0  0  0  0  0  0  0  0  0  0
   -1.0312  -50.8301  -16.4471 C   0  0  0  0  0  0  0  0  0  0  0  0
   -0.3853  -49.3575  -15.7497 Cl  0  0  0  0  0  0  0  0  0  0  0  0
   -0.2990  -51.5457  -17.4103 C   0  0  0  0  0  0  0  0  0  0  0  0
 24 25  1  0  0  0
 25  1  1  0  0  0
  1  2  2  0  0  0
  2  3  1  0  0  0
  3  4  2  0  0  0
  4  5  1  0  0  0
  5  6  2  0  0  0
  6  7  1  0  0  0
  7 26  1  0  0  0
 26 28  1  0  0  0
 28 29  2  0  0  0
 29 30  1  0  0  0
 30 31  2  0  0  0
 31 32  1  0  0  0
 31 33  1  0  0  0
 33 34  1  0  0  0
 33 35  2  0  0  0
  7  8  2  0  0  0
  8  9  1  0  0  0
  9 10  2  0  0  0
 10 11  1  0  0  0
 11 12  1  0  0  0
 12 13  2  0  0  0
 12 15  1  0  0  0
 15 16  2  0  0  0
 16 17  1  0  0  0
 17 18  1  0  0  0
 18 19  1  0  0  0
 19 20  1  0  0  0
 20 21  1  0  0  0
 21 22  1  0  0  0
 22 23  1  0  0  0
 10  1  1  0  0  0
 23 18  1  0  0  0
  8  3  1  0  0  0
 35 28  1  0  0  0
 26 27  1  0  0  0
 11 14  1  0  0  0
M  END
> <minimizedAffinity>
-6.32360

> <CNNscore>
0.4051010311

> <CNNaffinity>
6.8277778625

> <CNN_VS>
2.7659399509

> <CNNaffinity_variance>
0.0750973672

$$$$
[H]/C(C(=O)N([H])c1c(OC([H])([H])[H])c([H])c2nc([H])nc(N([H])c3c([H])c([H])c(F)c(Cl)c3[H])c2c1[H])=C(/[H])C([H])([H])N1C([H])([H])C([H])([H])C([H])([H])C([H])([H])C1([H])[H]


 35 38  0  0  0  0  0  0  0  0999 V2000
    0.5131  -52.4928  -26.2995 C   0  0  0  0  0  0  0  0  0  0  0  0
   -0.2715  -53.5437  -25.9086 C   0  0  0  0  0  0  0  0  0  0  0  0
   -0.3940  -53.8367  -24.5723 C   0  0  0  0  0  0  0  0  0  0  0  0
   -1.1747  -54.8748  -24.2101 N   0  0  0  0  0  0  0  0  0  0  0  0
   -1.2864  -55.1469  -22.9024 C   0  0  0  0  0  0  0  0  0  0  0  0
   -0.6653  -54.4397  -21.9831 N   0  0  0  0  0  0  0  0  0  0  0  0
    0.1393  -53.3794  -22.2595 C   0  0  0  0  0  0  0  0  0  0  0  0
    0.2609  -53.0903  -23.6059 C   0  0  0  0  0  0  0  0  0  0  0  0
    1.0334  -52.0476  -24.0639 C   0  0  0  0  0  0  0  0  0  0  0  0
    1.2089  -51.6882  -25.3777 C   0  0  0  0  0  0  0  0  0  0  0  0
    2.0040  -50.6092  -25.8442 N   0  0  0  0  0  0  0  0  0  0  0  0
    3.3616  -50.3737  -25.6352 C   0  0  0  0  0  0  0  0  0  0  0  0
    4.1321  -51.1345  -24.9585 O   0  0  0  0  0  0  0  0  0  0  0  0
    1.4688  -49.8870  -26.4370 H   0  0  0  0  0  0  0  0  0  0  0  0
    4.0433  -49.2033  -26.1861 C   0  0  0  0  0  0  0  0  0  0  0  0
    3.3861  -48.1715  -26.6099 C   0  0  0  0  0  0  0  0  0  0  0  0
    4.0939  -46.9621  -27.1795 C   0  0  0  0  0  0  0  0  0  0  0  0
    3.5823  -46.7631  -28.4942 N   0  0  0  0  0  0  0  0  0  0  0  0
    4.5145  -46.9698  -29.5547 C   0  0  0  0  0  0  0  0  0  0  0  0
    3.7732  -47.1391  -30.8571 C   0  0  0  0  0  0  0  0  0  0  0  0
    2.8512  -45.9793  -31.1035 C   0  0  0  0  0  0  0  0  0  0  0  0
    1.9178  -45.8224  -29.9431 C   0  0  0  0  0  0  0  0  0  0  0  0
    2.7107  -45.6461  -28.6674 C   0  0  0  0  0  0  0  0  0  0  0  0
    0.1642  -53.0639  -28.6067 C   0  0  0  0  0  0  0  0  0  0  0  0
    0.6491  -52.1818  -27.6424 O   0  0  0  0  0  0  0  0  0  0  0  0
    0.8076  -52.6695  -21.2510 N   0  0  0  0  0  0  0  0  0  0  0  0
    0.9863  -53.1876  -20.3438 H   0  0  0  0  0  0  0  0  0  0  0  0
    1.2811  -51.3530  -21.2719 C   0  0  0  0  0  0  0  0  0  0  0  0
    0.4115  -50.2916  -20.9763 C   0  0  0  0  0  0  0  0  0  0  0  0
    0.8020  -48.9804  -20.9545 C   0  0  0  0  0  0  0  0  0  0  0  0
    2.1020  -48.6486  -21.2305 C   0  0  0  0  0  0  0  0  0  0  0  0
    2.5361  -47.3731  -21.2224 F   0  0  0  0  0  0  0  0  0  0  0  0
    2.9836  -49.6576  -21.5241 C   0  0  0  0  0  0  0  0  0  0  0  0
    4.6470  -49.2316  -21.8762 Cl  0  0  0  0  0  0  0  0  0  0  0  0
    2.5706  -51.0010  -21.5430 C   0  0  0  0  0  0  0  0  0  0  0  0
 24 25  1  0  0  0
 25  1  1  0  0  0
  1  2  2  0  0  0
  2  3  1  0  0  0
  3  4  2  0  0  0
  4  5  1  0  0  0
  5  6  2  0  0  0
  6  7  1  0  0  0
  7 26  1  0  0  0
 26 28  1  0  0  0
 28 29  2  0  0  0
 29 30  1  0  0  0
 30 31  2  0  0  0
 31 32  1  0  0  0
 31 33  1  0  0  0
 33 34  1  0  0  0
 33 35  2  0  0  0
  7  8  2  0  0  0
  8  9  1  0  0  0
  9 10  2  0  0  0
 10 11  1  0  0  0
 11 12  1  0  0  0
 12 13  2  0  0  0
 12 15  1  0  0  0
 15 16  2  0  0  0
 16 17  1  0  0  0
 17 18  1  0  0  0
 18 19  1  0  0  0
 19 20  1  0  0  0
 20 21  1  0  0  0
 21 22  1  0  0  0
 22 23  1  0  0  0
 10  1  1  0  0  0
 23 18  1  0  0  0
  8  3  1  0  0  0
 35 28  1  0  0  0
 26 27  1  0  0  0
 11 14  1  0  0  0
M  END
> <minimizedAffinity>
-8.07175

> <CNNscore>
0.3127653003

> <CNNaffinity>
7.0190610886

> <CNN_VS>
2.1953186989

> <CNNaffinity_variance>
0.2039792091

$$$$
[H]/C(C(=O)N([H])c1c(OC([H])([H])C([H])([H])[H])c([H])c2nc([H])c(C#N)c(N([H])c3c([H])c([H])c(OC([H])([H])c4c([H])c([H])c([H])c([H])c4[H])c(Cl)c3[H])c2c1[H])=C(/[H])C([H])([H])N1C([H])([H])C([H])([H])C([H])([H])C([H])([H])C1([H])[H]


 45 49  0  0  0  0  0  0  0  0999 V2000
   -0.6564  -52.9536  -19.3359 C   0  0  0  0  0  0  0  0  0  0  0  0
   -1.0482  -53.9695  -20.1527 C   0  0  0  0  0  0  0  0  0  0  0  0
   -0.8372  -53.9232  -21.5343 C   0  0  0  0  0  0  0  0  0  0  0  0
   -1.2330  -54.9405  -22.3195 N   0  0  0  0  0  0  0  0  0  0  0  0
   -1.0298  -54.9016  -23.6684 C   0  0  0  0  0  0  0  0  0  0  0  0
   -0.4187  -53.8358  -24.2859 C   0  0  0  0  0  0  0  0  0  0  0  0
   -0.0132  -52.7876  -23.4608 C   0  0  0  0  0  0  0  0  0  0  0  0
   -0.2205  -52.8329  -22.1026 C   0  0  0  0  0  0  0  0  0  0  0  0
    0.1688  -51.8065  -21.2330 C   0  0  0  0  0  0  0  0  0  0  0  0
   -0.0223  -51.8222  -19.8832 C   0  0  0  0  0  0  0  0  0  0  0  0
    0.3734  -50.7970  -18.9993 N   0  0  0  0  0  0  0  0  0  0  0  0
    1.5887  -50.6231  -18.3647 C   0  0  0  0  0  0  0  0  0  0  0  0
    2.5459  -51.4187  -18.5209 O   0  0  0  0  0  0  0  0  0  0  0  0
   -0.3667  -50.0450  -18.7847 H   0  0  0  0  0  0  0  0  0  0  0  0
    1.8513  -49.5030  -17.4651 C   0  0  0  0  0  0  0  0  0  0  0  0
    1.1040  -49.1751  -16.4598 C   0  0  0  0  0  0  0  0  0  0  0  0
    1.4073  -48.0151  -15.5570 C   0  0  0  0  0  0  0  0  0  0  0  0
    0.2000  -47.5860  -14.9022 N   0  0  0  0  0  0  0  0  0  0  0  0
   -1.0010  -48.1794  -15.3956 C   0  0  0  0  0  0  0  0  0  0  0  0
   -2.1600  -47.2414  -15.0561 C   0  0  0  0  0  0  0  0  0  0  0  0
   -1.9183  -46.5972  -13.6937 C   0  0  0  0  0  0  0  0  0  0  0  0
   -1.0778  -47.5340  -12.8560 C   0  0  0  0  0  0  0  0  0  0  0  0
    0.2573  -47.8049  -13.4619 C   0  0  0  0  0  0  0  0  0  0  0  0
   -0.1887  -53.7585  -25.6895 C   0  0  0  0  0  0  0  0  0  0  0  0
    0.0167  -53.7013  -26.8353 N   0  0  0  0  0  0  0  0  0  0  0  0
    0.6198  -51.6651  -24.0445 N   0  0  0  0  0  0  0  0  0  0  0  0
    0.0548  -51.0948  -24.7049 H   0  0  0  0  0  0  0  0  0  0  0  0
    1.9335  -51.2583  -23.8107 C   0  0  0  0  0  0  0  0  0  0  0  0
    2.1991  -50.0148  -23.3285 C   0  0  0  0  0  0  0  0  0  0  0  0
    3.4894  -49.6189  -23.0968 C   0  0  0  0  0  0  0  0  0  0  0  0
    4.5727  -50.4472  -23.3365 C   0  0  0  0  0  0  0  0  0  0  0  0
    4.2604  -51.6994  -23.8255 C   0  0  0  0  0  0  0  0  0  0  0  0
    5.6180  -52.7870  -24.1470 Cl  0  0  0  0  0  0  0  0  0  0  0  0
    2.9736  -52.1099  -24.0624 C   0  0  0  0  0  0  0  0  0  0  0  0
    5.8780  -50.0263  -23.0940 O   0  0  0  0  0  0  0  0  0  0  0  0
    6.4094  -50.2420  -21.7978 C   0  0  0  0  0  0  0  0  0  0  0  0
    6.0461  -49.1367  -20.8836 C   0  0  0  0  0  0  0  0  0  0  0  0
    6.3879  -47.8540  -21.2398 C   0  0  0  0  0  0  0  0  0  0  0  0
    6.0782  -46.7880  -20.4324 C   0  0  0  0  0  0  0  0  0  0  0  0
    5.4211  -47.0116  -19.2597 C   0  0  0  0  0  0  0  0  0  0  0  0
    5.0517  -48.2943  -18.8520 C   0  0  0  0  0  0  0  0  0  0  0  0
    5.3846  -49.3437  -19.6990 C   0  0  0  0  0  0  0  0  0  0  0  0
   -0.8629  -52.9990  -17.9971 O   0  0  0  0  0  0  0  0  0  0  0  0
   -2.0663  -51.7938  -16.2396 C   0  0  0  0  0  0  0  0  0  0  0  0
   -2.0459  -52.8262  -17.3189 C   0  0  0  0  0  0  0  0  0  0  0  0
 44 45  1  0  0  0
 45 43  1  0  0  0
 43  1  1  0  0  0
  1  2  2  0  0  0
  2  3  1  0  0  0
  3  4  2  0  0  0
  4  5  1  0  0  0
  5  6  2  0  0  0
  6 24  1  0  0  0
 24 25  3  0  0  0
  6  7  1  0  0  0
  7 26  1  0  0  0
 26 28  1  0  0  0
 28 29  2  0  0  0
 29 30  1  0  0  0
 30 31  2  0  0  0
 31 35  1  0  0  0
 35 36  1  0  0  0
 36 37  1  0  0  0
 37 38  2  0  0  0
 38 39  1  0  0  0
 39 40  2  0  0  0
 40 41  1  0  0  0
 41 42  2  0  0  0
 31 32  1  0  0  0
 32 33  1  0  0  0
 32 34  2  0  0  0
  7  8  2  0  0  0
  8  9  1  0  0  0
  9 10  2  0  0  0
 10 11  1  0  0  0
 11 12  1  0  0  0
 12 13  2  0  0  0
 12 15  1  0  0  0
 15 16  2  0  0  0
 16 17  1  0  0  0
 17 18  1  0  0  0
 18 19  1  0  0  0
 19 20  1  0  0  0
 20 21  1  0  0  0
 21 22  1  0  0  0
 22 23  1  0  0  0
 10  1  1  0  0  0
 23 18  1  0  0  0
  8  3  1  0  0  0
 34 28  1  0  0  0
 42 37  1  0  0  0
 26 27  1  0  0  0
 11 14  1  0  0  0
M  END
> <minimizedAffinity>
-7.59518

> <CNNscore>
0.5275192857

> <CNNaffinity>
7.6066718102

> <CNN_VS>
4.0126662254

> <CNNaffinity_variance>
0.1933228076

$$$$
[H]/C(C(=O)N([H])c1c(OC([H])([H])C([H])([H])[H])c([H])c2nc([H])c(C#N)c(N([H])c3c([H])c([H])c(OC([H])([H])c4c([H])c([H])c([H])c([H])c4[H])c(Cl)c3[H])c2c1[H])=C(/[H])C([H])([H])N1C([H])([H])C([H])([H])C([H])([H])C([H])([H])C1([H])[H]


 45 49  0  0  0  0  0  0  0  0999 V2000
   -0.4583  -52.8436  -19.5198 C   0  0  0  0  0  0  0  0  0  0  0  0
   -0.9073  -53.9085  -20.2389 C   0  0  0  0  0  0  0  0  0  0  0  0
   -0.7865  -53.9572  -21.6312 C   0  0  0  0  0  0  0  0  0  0  0  0
   -1.2375  -55.0214  -22.3184 N   0  0  0  0  0  0  0  0  0  0  0  0
   -1.1223  -55.0753  -23.6771 C   0  0  0  0  0  0  0  0  0  0  0  0
   -0.5476  -54.0592  -24.4036 C   0  0  0  0  0  0  0  0  0  0  0  0
   -0.0841  -52.9616  -23.6795 C   0  0  0  0  0  0  0  0  0  0  0  0
   -0.2028  -52.9134  -22.3107 C   0  0  0  0  0  0  0  0  0  0  0  0
    0.2473  -51.8345  -21.5398 C   0  0  0  0  0  0  0  0  0  0  0  0
    0.1444  -51.7575  -20.1825 C   0  0  0  0  0  0  0  0  0  0  0  0
    0.6018  -50.6788  -19.3975 N   0  0  0  0  0  0  0  0  0  0  0  0
    1.7989  -50.5489  -18.7194 C   0  0  0  0  0  0  0  0  0  0  0  0
    2.6770  -51.4446  -18.7325 O   0  0  0  0  0  0  0  0  0  0  0  0
   -0.0675  -49.8401  -19.3095 H   0  0  0  0  0  0  0  0  0  0  0  0
    2.1329  -49.3619  -17.9369 C   0  0  0  0  0  0  0  0  0  0  0  0
    3.0787  -49.3039  -17.0543 C   0  0  0  0  0  0  0  0  0  0  0  0
    3.3918  -48.0639  -16.2688 C   0  0  0  0  0  0  0  0  0  0  0  0
    3.9273  -48.4300  -14.9844 N   0  0  0  0  0  0  0  0  0  0  0  0
    3.5349  -47.5869  -13.9013 C   0  0  0  0  0  0  0  0  0  0  0  0
    4.5902  -47.7156  -12.8021 C   0  0  0  0  0  0  0  0  0  0  0  0
    5.0958  -49.1545  -12.7404 C   0  0  0  0  0  0  0  0  0  0  0  0
    3.9977  -50.0759  -13.2213 C   0  0  0  0  0  0  0  0  0  0  0  0
    3.5983  -49.8060  -14.6321 C   0  0  0  0  0  0  0  0  0  0  0  0
   -0.4091  -54.0786  -25.8213 C   0  0  0  0  0  0  0  0  0  0  0  0
   -0.2808  -54.0839  -26.9796 N   0  0  0  0  0  0  0  0  0  0  0  0
    0.5150  -51.8869  -24.3776 N   0  0  0  0  0  0  0  0  0  0  0  0
   -0.1162  -51.2710  -24.9280 H   0  0  0  0  0  0  0  0  0  0  0  0
    1.8763  -51.5827  -24.3909 C   0  0  0  0  0  0  0  0  0  0  0  0
    2.8084  -52.5701  -24.3166 C   0  0  0  0  0  0  0  0  0  0  0  0
    4.1442  -52.2692  -24.3330 C   0  0  0  0  0  0  0  0  0  0  0  0
    4.6093  -50.9683  -24.4244 C   0  0  0  0  0  0  0  0  0  0  0  0
    3.6320  -49.9966  -24.4973 C   0  0  0  0  0  0  0  0  0  0  0  0
    4.1862  -48.3207  -24.6127 Cl  0  0  0  0  0  0  0  0  0  0  0  0
    2.2909  -50.2826  -24.4819 C   0  0  0  0  0  0  0  0  0  0  0  0
    5.9724  -50.6824  -24.4401 O   0  0  0  0  0  0  0  0  0  0  0  0
    6.7177  -50.9641  -23.2677 C   0  0  0  0  0  0  0  0  0  0  0  0
    6.4169  -49.9862  -22.1988 C   0  0  0  0  0  0  0  0  0  0  0  0
    5.6488  -50.3953  -21.1351 C   0  0  0  0  0  0  0  0  0  0  0  0
    5.3362  -49.5332  -20.1137 C   0  0  0  0  0  0  0  0  0  0  0  0
    5.7979  -48.2520  -20.1609 C   0  0  0  0  0  0  0  0  0  0  0  0
    6.5811  -47.7867  -21.2183 C   0  0  0  0  0  0  0  0  0  0  0  0
    6.8735  -48.6922  -22.2302 C   0  0  0  0  0  0  0  0  0  0  0  0
   -0.5774  -52.7969  -18.1706 O   0  0  0  0  0  0  0  0  0  0  0  0
   -1.7675  -51.7800  -16.2893 C   0  0  0  0  0  0  0  0  0  0  0  0
   -1.7318  -52.7484  -17.4261 C   0  0  0  0  0  0  0  0  0  0  0  0
 44 45  1  0  0  0
 45 43  1  0  0  0
 43  1  1  0  0  0
  1  2  2  0  0  0
  2  3  1  0  0  0
  3  4  2  0  0  0
  4  5  1  0  0  0
  5  6  2  0  0  0
  6 24  1  0  0  0
 24 25  3  0  0  0
  6  7  1  0  0  0
  7 26  1  0  0  0
 26 28  1  0  0  0
 28 29  2  0  0  0
 29 30  1  0  0  0
 30 31  2  0  0  0
 31 35  1  0  0  0
 35 36  1  0  0  0
 36 37  1  0  0  0
 37 38  2  0  0  0
 38 39  1  0  0  0
 39 40  2  0  0  0
 40 41  1  0  0  0
 41 42  2  0  0  0
 31 32  1  0  0  0
 32 33  1  0  0  0
 32 34  2  0  0  0
  7  8  2  0  0  0
  8  9  1  0  0  0
  9 10  2  0  0  0
 10 11  1  0  0  0
 11 12  1  0  0  0
 12 13  2  0  0  0
 12 15  1  0  0  0
 15 16  2  0  0  0
 16 17  1  0  0  0
 17 18  1  0  0  0
 18 19  1  0  0  0
 19 20  1  0  0  0
 20 21  1  0  0  0
 21 22  1  0  0  0
 22 23  1  0  0  0
 10  1  1  0  0  0
 23 18  1  0  0  0
  8  3  1  0  0  0
 34 28  1  0  0  0
 42 37  1  0  0  0
 26 27  1  0  0  0
 11 14  1  0  0  0
M  END
> <minimizedAffinity>
-7.74996

> <CNNscore>
0.5024185777

> <CNNaffinity>
7.6352629662

> <CNN_VS>
3.8360979557

> <CNNaffinity_variance>
0.1595803052

$$$$
[H]/C(C(=O)N([H])c1c(OC([H])([H])C([H])([H])[H])c([H])c2nc([H])c(C#N)c(N([H])c3c([H])c([H])c(OC([H])([H])c4c([H])c([H])c([H])c([H])c4[H])c(Cl)c3[H])c2c1[H])=C(/[H])C([H])([H])N1C([H])([H])C([H])([H])C([H])([H])C([H])([H])C1([H])[H]


 45 49  0  0  0  0  0  0  0  0999 V2000
   -0.4039  -52.8240  -19.4528 C   0  0  0  0  0  0  0  0  0  0  0  0
   -0.8707  -53.8855  -20.1656 C   0  0  0  0  0  0  0  0  0  0  0  0
   -0.7670  -53.9362  -21.5592 C   0  0  0  0  0  0  0  0  0  0  0  0
   -1.2353  -54.9969  -22.2401 N   0  0  0  0  0  0  0  0  0  0  0  0
   -1.1369  -55.0528  -23.6001 C   0  0  0  0  0  0  0  0  0  0  0  0
   -0.5622  -54.0422  -24.3342 C   0  0  0  0  0  0  0  0  0  0  0  0
   -0.0806  -52.9481  -23.6165 C   0  0  0  0  0  0  0  0  0  0  0  0
   -0.1825  -52.8980  -22.2465 C   0  0  0  0  0  0  0  0  0  0  0  0
    0.2861  -51.8225  -21.4818 C   0  0  0  0  0  0  0  0  0  0  0  0
    0.2001  -51.7436  -20.1234 C   0  0  0  0  0  0  0  0  0  0  0  0
    0.6762  -50.6684  -19.3448 N   0  0  0  0  0  0  0  0  0  0  0  0
    1.8998  -50.5295  -18.7178 C   0  0  0  0  0  0  0  0  0  0  0  0
    2.7891  -51.4121  -18.7810 O   0  0  0  0  0  0  0  0  0  0  0  0
   -0.0003  -49.8407  -19.2167 H   0  0  0  0  0  0  0  0  0  0  0  0
    2.2510  -49.3478  -17.9349 C   0  0  0  0  0  0  0  0  0  0  0  0
    3.0911  -49.3403  -16.9495 C   0  0  0  0  0  0  0  0  0  0  0  0
    3.4263  -48.1038  -16.1676 C   0  0  0  0  0  0  0  0  0  0  0  0
    2.2329  -47.5837  -15.5544 N   0  0  0  0  0  0  0  0  0  0  0  0
    1.8085  -48.2693  -14.3764 C   0  0  0  0  0  0  0  0  0  0  0  0
    0.3096  -48.0195  -14.2042 C   0  0  0  0  0  0  0  0  0  0  0  0
   -0.0278  -46.5958  -14.6387 C   0  0  0  0  0  0  0  0  0  0  0  0
    1.1885  -45.7228  -14.4281 C   0  0  0  0  0  0  0  0  0  0  0  0
    2.3609  -46.1669  -15.2350 C   0  0  0  0  0  0  0  0  0  0  0  0
   -0.4408  -54.0638  -25.7534 C   0  0  0  0  0  0  0  0  0  0  0  0
   -0.3380  -54.0996  -26.9137 N   0  0  0  0  0  0  0  0  0  0  0  0
    0.5193  -51.8791  -24.3226 N   0  0  0  0  0  0  0  0  0  0  0  0
   -0.1116  -51.2659  -24.8765 H   0  0  0  0  0  0  0  0  0  0  0  0
    1.8811  -51.5772  -24.3396 C   0  0  0  0  0  0  0  0  0  0  0  0
    2.8090  -52.5643  -24.4578 C   0  0  0  0  0  0  0  0  0  0  0  0
    4.1452  -52.2650  -24.4774 C   0  0  0  0  0  0  0  0  0  0  0  0
    4.6148  -50.9662  -24.3798 C   0  0  0  0  0  0  0  0  0  0  0  0
    3.6416  -49.9948  -24.2609 C   0  0  0  0  0  0  0  0  0  0  0  0
    4.2019  -48.3220  -24.1311 Cl  0  0  0  0  0  0  0  0  0  0  0  0
    2.3003  -50.2792  -24.2398 C   0  0  0  0  0  0  0  0  0  0  0  0
    5.9781  -50.6820  -24.4020 O   0  0  0  0  0  0  0  0  0  0  0  0
    6.7497  -51.0684  -23.2775 C   0  0  0  0  0  0  0  0  0  0  0  0
    6.5525  -50.1309  -22.1498 C   0  0  0  0  0  0  0  0  0  0  0  0
    7.2848  -48.9681  -22.1301 C   0  0  0  0  0  0  0  0  0  0  0  0
    7.1455  -48.0602  -21.1101 C   0  0  0  0  0  0  0  0  0  0  0  0
    6.2652  -48.3219  -20.1033 C   0  0  0  0  0  0  0  0  0  0  0  0
    5.4981  -49.4876  -20.0761 C   0  0  0  0  0  0  0  0  0  0  0  0
    5.6705  -50.3785  -21.1278 C   0  0  0  0  0  0  0  0  0  0  0  0
   -0.5064  -52.7754  -18.1022 O   0  0  0  0  0  0  0  0  0  0  0  0
   -1.7332  -51.7814  -16.2323 C   0  0  0  0  0  0  0  0  0  0  0  0
   -1.6514  -52.7782  -17.3418 C   0  0  0  0  0  0  0  0  0  0  0  0
 44 45  1  0  0  0
 45 43  1  0  0  0
 43  1  1  0  0  0
  1  2  2  0  0  0
  2  3  1  0  0  0
  3  4  2  0  0  0
  4  5  1  0  0  0
  5  6  2  0  0  0
  6 24  1  0  0  0
 24 25  3  0  0  0
  6  7  1  0  0  0
  7 26  1  0  0  0
 26 28  1  0  0  0
 28 29  2  0  0  0
 29 30  1  0  0  0
 30 31  2  0  0  0
 31 35  1  0  0  0
 35 36  1  0  0  0
 36 37  1  0  0  0
 37 38  2  0  0  0
 38 39  1  0  0  0
 39 40  2  0  0  0
 40 41  1  0  0  0
 41 42  2  0  0  0
 31 32  1  0  0  0
 32 33  1  0  0  0
 32 34  2  0  0  0
  7  8  2  0  0  0
  8  9  1  0  0  0
  9 10  2  0  0  0
 10 11  1  0  0  0
 11 12  1  0  0  0
 12 13  2  0  0  0
 12 15  1  0  0  0
 15 16  2  0  0  0
 16 17  1  0  0  0
 17 18  1  0  0  0
 18 19  1  0  0  0
 19 20  1  0  0  0
 20 21  1  0  0  0
 21 22  1  0  0  0
 22 23  1  0  0  0
 10  1  1  0  0  0
 23 18  1  0  0  0
  8  3  1  0  0  0
 34 28  1  0  0  0
 42 37  1  0  0  0
 26 27  1  0  0  0
 11 14  1  0  0  0
M  END
> <minimizedAffinity>
-7.57077

> <CNNscore>
0.5020153522

> <CNNaffinity>
7.6509771347

> <CNN_VS>
3.8409080505

> <CNNaffinity_variance>
0.1400425881

$$$$
[H]/C(C(=O)N([H])c1c(OC([H])([H])C([H])([H])[H])c([H])c2nc([H])c(C#N)c(N([H])c3c([H])c([H])c(OC([H])([H])c4c([H])c([H])c([H])c([H])c4[H])c(Cl)c3[H])c2c1[H])=C(/[H])C([H])([H])N1C([H])([H])C([H])([H])C([H])([H])C([H])([H])C1([H])[H]


 45 49  0  0  0  0  0  0  0  0999 V2000
   -0.1161  -52.9768  -19.4900 C   0  0  0  0  0  0  0  0  0  0  0  0
   -0.6579  -53.9807  -20.2325 C   0  0  0  0  0  0  0  0  0  0  0  0
   -0.6188  -53.9629  -21.6302 C   0  0  0  0  0  0  0  0  0  0  0  0
   -1.1607  -54.9676  -22.3408 N   0  0  0  0  0  0  0  0  0  0  0  0
   -1.1257  -54.9565  -23.7050 C   0  0  0  0  0  0  0  0  0  0  0  0
   -0.5430  -53.9323  -24.4136 C   0  0  0  0  0  0  0  0  0  0  0  0
    0.0152  -52.8967  -23.6653 C   0  0  0  0  0  0  0  0  0  0  0  0
   -0.0232  -52.9140  -22.2911 C   0  0  0  0  0  0  0  0  0  0  0  0
    0.5234  -51.8989  -21.4963 C   0  0  0  0  0  0  0  0  0  0  0  0
    0.5016  -51.8875  -20.1331 C   0  0  0  0  0  0  0  0  0  0  0  0
    1.0562  -50.8736  -19.3247 N   0  0  0  0  0  0  0  0  0  0  0  0
    2.3281  -50.7919  -18.7905 C   0  0  0  0  0  0  0  0  0  0  0  0
    3.1946  -51.6781  -18.9847 O   0  0  0  0  0  0  0  0  0  0  0  0
    0.4060  -50.0491  -19.0868 H   0  0  0  0  0  0  0  0  0  0  0  0
    2.7604  -49.6707  -17.9606 C   0  0  0  0  0  0  0  0  0  0  0  0
    2.6696  -48.4246  -18.3009 C   0  0  0  0  0  0  0  0  0  0  0  0
    3.1258  -47.2989  -17.4193 C   0  0  0  0  0  0  0  0  0  0  0  0
    3.7371  -46.2745  -18.2241 N   0  0  0  0  0  0  0  0  0  0  0  0
    5.1157  -46.0281  -17.9473 C   0  0  0  0  0  0  0  0  0  0  0  0
    5.4382  -44.6057  -18.4071 C   0  0  0  0  0  0  0  0  0  0  0  0
    4.6622  -44.2891  -19.6827 C   0  0  0  0  0  0  0  0  0  0  0  0
    4.4145  -45.5782  -20.4328 C   0  0  0  0  0  0  0  0  0  0  0  0
    3.6015  -46.5517  -19.6491 C   0  0  0  0  0  0  0  0  0  0  0  0
   -0.4863  -53.8848  -25.8362 C   0  0  0  0  0  0  0  0  0  0  0  0
   -0.4554  -53.8361  -27.0002 N   0  0  0  0  0  0  0  0  0  0  0  0
    0.6267  -51.8167  -24.3441 N   0  0  0  0  0  0  0  0  0  0  0  0
    0.0017  -51.1786  -24.8760 H   0  0  0  0  0  0  0  0  0  0  0  0
    1.9927  -51.5345  -24.3612 C   0  0  0  0  0  0  0  0  0  0  0  0
    2.9048  -52.5306  -24.5198 C   0  0  0  0  0  0  0  0  0  0  0  0
    4.2452  -52.2506  -24.5394 C   0  0  0  0  0  0  0  0  0  0  0  0
    4.7349  -50.9629  -24.4014 C   0  0  0  0  0  0  0  0  0  0  0  0
    3.7773  -49.9819  -24.2422 C   0  0  0  0  0  0  0  0  0  0  0  0
    4.3634  -48.3229  -24.0601 Cl  0  0  0  0  0  0  0  0  0  0  0  0
    2.4320  -50.2470  -24.2206 C   0  0  0  0  0  0  0  0  0  0  0  0
    6.1021  -50.6982  -24.4243 O   0  0  0  0  0  0  0  0  0  0  0  0
    6.8803  -51.1587  -23.3327 C   0  0  0  0  0  0  0  0  0  0  0  0
    6.8628  -50.1847  -22.2190 C   0  0  0  0  0  0  0  0  0  0  0  0
    7.7893  -49.1696  -22.2230 C   0  0  0  0  0  0  0  0  0  0  0  0
    7.8226  -48.2365  -21.2167 C   0  0  0  0  0  0  0  0  0  0  0  0
    6.9195  -48.3236  -20.1999 C   0  0  0  0  0  0  0  0  0  0  0  0
    5.9587  -49.3346  -20.1488 C   0  0  0  0  0  0  0  0  0  0  0  0
    5.9607  -50.2572  -21.1871 C   0  0  0  0  0  0  0  0  0  0  0  0
   -0.1559  -52.9945  -18.1354 O   0  0  0  0  0  0  0  0  0  0  0  0
   -1.1067  -51.4741  -16.4698 C   0  0  0  0  0  0  0  0  0  0  0  0
   -1.2207  -52.6983  -17.3181 C   0  0  0  0  0  0  0  0  0  0  0  0
 44 45  1  0  0  0
 45 43  1  0  0  0
 43  1  1  0  0  0
  1  2  2  0  0  0
  2  3  1  0  0  0
  3  4  2  0  0  0
  4  5  1  0  0  0
  5  6  2  0  0  0
  6 24  1  0  0  0
 24 25  3  0  0  0
  6  7  1  0  0  0
  7 26  1  0  0  0
 26 28  1  0  0  0
 28 29  2  0  0  0
 29 30  1  0  0  0
 30 31  2  0  0  0
 31 35  1  0  0  0
 35 36  1  0  0  0
 36 37  1  0  0  0
 37 38  2  0  0  0
 38 39  1  0  0  0
 39 40  2  0  0  0
 40 41  1  0  0  0
 41 42  2  0  0  0
 31 32  1  0  0  0
 32 33  1  0  0  0
 32 34  2  0  0  0
  7  8  2  0  0  0
  8  9  1  0  0  0
  9 10  2  0  0  0
 10 11  1  0  0  0
 11 12  1  0  0  0
 12 13  2  0  0  0
 12 15  1  0  0  0
 15 16  2  0  0  0
 16 17  1  0  0  0
 17 18  1  0  0  0
 18 19  1  0  0  0
 19 20  1  0  0  0
 20 21  1  0  0  0
 21 22  1  0  0  0
 22 23  1  0  0  0
 10  1  1  0  0  0
 23 18  1  0  0  0
  8  3  1  0  0  0
 34 28  1  0  0  0
 42 37  1  0  0  0
 26 27  1  0  0  0
 11 14  1  0  0  0
M  END
> <minimizedAffinity>
-7.47051

> <CNNscore>
0.4555550516

> <CNNaffinity>
7.6463632584

> <CNN_VS>
3.4833393097

> <CNNaffinity_variance>
0.1653057188

$$$$
[H]/C(C(=O)N([H])c1c(OC([H])([H])C([H])([H])[H])c([H])c2nc([H])c(C#N)c(N([H])c3c([H])c([H])c(OC([H])([H])c4c([H])c([H])c([H])c([H])c4[H])c(Cl)c3[H])c2c1[H])=C(/[H])C([H])([H])N1C([H])([H])C([H])([H])C([H])([H])C([H])([H])C1([H])[H]


 45 49  0  0  0  0  0  0  0  0999 V2000
    0.8559  -52.7983  -26.5310 C   0  0  0  0  0  0  0  0  0  0  0  0
    0.2132  -53.8864  -26.0252 C   0  0  0  0  0  0  0  0  0  0  0  0
   -0.2662  -53.9106  -24.7118 C   0  0  0  0  0  0  0  0  0  0  0  0
   -0.8987  -54.9977  -24.2362 N   0  0  0  0  0  0  0  0  0  0  0  0
   -1.3691  -55.0277  -22.9556 C   0  0  0  0  0  0  0  0  0  0  0  0
   -1.2231  -53.9634  -22.0973 C   0  0  0  0  0  0  0  0  0  0  0  0
   -0.5656  -52.8424  -22.6024 C   0  0  0  0  0  0  0  0  0  0  0  0
   -0.0942  -52.8184  -23.8936 C   0  0  0  0  0  0  0  0  0  0  0  0
    0.5712  -51.7172  -24.4463 C   0  0  0  0  0  0  0  0  0  0  0  0
    1.0496  -51.6628  -25.7218 C   0  0  0  0  0  0  0  0  0  0  0  0
    1.7137  -50.5555  -26.2891 N   0  0  0  0  0  0  0  0  0  0  0  0
    3.0264  -50.1564  -26.1241 C   0  0  0  0  0  0  0  0  0  0  0  0
    3.8321  -50.7867  -25.3979 O   0  0  0  0  0  0  0  0  0  0  0  0
    1.1240  -49.9318  -26.9391 H   0  0  0  0  0  0  0  0  0  0  0  0
    3.5755  -48.9729  -26.7804 C   0  0  0  0  0  0  0  0  0  0  0  0
    4.1026  -48.9647  -27.9631 C   0  0  0  0  0  0  0  0  0  0  0  0
    4.6575  -47.7264  -28.6046 C   0  0  0  0  0  0  0  0  0  0  0  0
    3.7119  -47.2146  -29.5609 N   0  0  0  0  0  0  0  0  0  0  0  0
    3.2096  -45.9087  -29.2776 C   0  0  0  0  0  0  0  0  0  0  0  0
    1.8602  -45.7635  -29.9823 C   0  0  0  0  0  0  0  0  0  0  0  0
    1.9014  -46.4859  -31.3262 C   0  0  0  0  0  0  0  0  0  0  0  0
    3.3266  -46.4919  -31.8307 C   0  0  0  0  0  0  0  0  0  0  0  0
    4.2577  -47.2087  -30.9130 C   0  0  0  0  0  0  0  0  0  0  0  0
   -1.7002  -53.9564  -20.7551 C   0  0  0  0  0  0  0  0  0  0  0  0
   -2.0732  -53.9527  -19.6510 N   0  0  0  0  0  0  0  0  0  0  0  0
   -0.3868  -51.7192  -21.7612 N   0  0  0  0  0  0  0  0  0  0  0  0
   -1.0801  -50.9494  -21.8476 H   0  0  0  0  0  0  0  0  0  0  0  0
    0.6368  -51.5559  -20.8277 C   0  0  0  0  0  0  0  0  0  0  0  0
    0.3546  -51.4334  -19.5031 C   0  0  0  0  0  0  0  0  0  0  0  0
    1.3614  -51.2763  -18.5883 C   0  0  0  0  0  0  0  0  0  0  0  0
    2.6958  -51.2345  -18.9554 C   0  0  0  0  0  0  0  0  0  0  0  0
    2.9394  -51.3618  -20.3080 C   0  0  0  0  0  0  0  0  0  0  0  0
    4.6325  -51.3109  -20.8176 Cl  0  0  0  0  0  0  0  0  0  0  0  0
    1.9418  -51.5196  -21.2355 C   0  0  0  0  0  0  0  0  0  0  0  0
    3.7058  -51.0744  -18.0099 O   0  0  0  0  0  0  0  0  0  0  0  0
    3.5107  -50.1031  -16.9961 C   0  0  0  0  0  0  0  0  0  0  0  0
    3.2154  -50.7441  -15.6955 C   0  0  0  0  0  0  0  0  0  0  0  0
    4.0322  -51.7634  -15.2682 C   0  0  0  0  0  0  0  0  0  0  0  0
    3.8081  -52.3964  -14.0709 C   0  0  0  0  0  0  0  0  0  0  0  0
    2.7569  -52.0033  -13.2981 C   0  0  0  0  0  0  0  0  0  0  0  0
    1.8979  -50.9740  -13.6863 C   0  0  0  0  0  0  0  0  0  0  0  0
    2.1612  -50.3609  -14.9046 C   0  0  0  0  0  0  0  0  0  0  0  0
    1.3213  -52.7767  -27.8037 O   0  0  0  0  0  0  0  0  0  0  0  0
   -0.6013  -52.6038  -29.3081 C   0  0  0  0  0  0  0  0  0  0  0  0
    0.6988  -53.2396  -28.9384 C   0  0  0  0  0  0  0  0  0  0  0  0
 44 45  1  0  0  0
 45 43  1  0  0  0
 43  1  1  0  0  0
  1  2  2  0  0  0
  2  3  1  0  0  0
  3  4  2  0  0  0
  4  5  1  0  0  0
  5  6  2  0  0  0
  6 24  1  0  0  0
 24 25  3  0  0  0
  6  7  1  0  0  0
  7 26  1  0  0  0
 26 28  1  0  0  0
 28 29  2  0  0  0
 29 30  1  0  0  0
 30 31  2  0  0  0
 31 35  1  0  0  0
 35 36  1  0  0  0
 36 37  1  0  0  0
 37 38  2  0  0  0
 38 39  1  0  0  0
 39 40  2  0  0  0
 40 41  1  0  0  0
 41 42  2  0  0  0
 31 32  1  0  0  0
 32 33  1  0  0  0
 32 34  2  0  0  0
  7  8  2  0  0  0
  8  9  1  0  0  0
  9 10  2  0  0  0
 10 11  1  0  0  0
 11 12  1  0  0  0
 12 13  2  0  0  0
 12 15  1  0  0  0
 15 16  2  0  0  0
 16 17  1  0  0  0
 17 18  1  0  0  0
 18 19  1  0  0  0
 19 20  1  0  0  0
 20 21  1  0  0  0
 21 22  1  0  0  0
 22 23  1  0  0  0
 10  1  1  0  0  0
 23 18  1  0  0  0
  8  3  1  0  0  0
 34 28  1  0  0  0
 42 37  1  0  0  0
 26 27  1  0  0  0
 11 14  1  0  0  0
M  END
> <minimizedAffinity>
-8.60937

> <CNNscore>
0.4553990960

> <CNNaffinity>
7.6726136208

> <CNN_VS>
3.4941012859

> <CNNaffinity_variance>
0.1000936776

$$$$
[H]/C(C(=O)N([H])c1c(OC([H])([H])C([H])([H])[H])c([H])c2nc([H])c(C#N)c(N([H])c3c([H])c([H])c(OC([H])([H])c4c([H])c([H])c([H])c([H])c4[H])c(Cl)c3[H])c2c1[H])=C(/[H])C([H])([H])N1C([H])([H])C([H])([H])C([H])([H])C([H])([H])C1([H])[H]


 45 49  0  0  0  0  0  0  0  0999 V2000
   -0.1913  -52.4956  -19.6134 C   0  0  0  0  0  0  0  0  0  0  0  0
   -0.6286  -53.6299  -20.2256 C   0  0  0  0  0  0  0  0  0  0  0  0
   -0.5568  -53.7894  -21.6130 C   0  0  0  0  0  0  0  0  0  0  0  0
   -0.9949  -54.9204  -22.1935 N   0  0  0  0  0  0  0  0  0  0  0  0
   -0.9273  -55.0824  -23.5468 C   0  0  0  0  0  0  0  0  0  0  0  0
   -0.4153  -54.1118  -24.3752 C   0  0  0  0  0  0  0  0  0  0  0  0
    0.0355  -52.9441  -23.7612 C   0  0  0  0  0  0  0  0  0  0  0  0
   -0.0350  -52.7870  -22.3972 C   0  0  0  0  0  0  0  0  0  0  0  0
    0.4047  -51.6345  -21.7345 C   0  0  0  0  0  0  0  0  0  0  0  0
    0.3485  -51.4492  -20.3850 C   0  0  0  0  0  0  0  0  0  0  0  0
    0.7961  -50.2954  -19.7086 N   0  0  0  0  0  0  0  0  0  0  0  0
    2.0624  -49.7425  -19.6858 C   0  0  0  0  0  0  0  0  0  0  0  0
    3.0241  -50.2446  -20.3155 O   0  0  0  0  0  0  0  0  0  0  0  0
    0.0566  -49.7698  -19.1288 H   0  0  0  0  0  0  0  0  0  0  0  0
    2.3779  -48.5344  -18.9283 C   0  0  0  0  0  0  0  0  0  0  0  0
    3.1225  -47.5674  -19.3611 C   0  0  0  0  0  0  0  0  0  0  0  0
    3.4245  -46.3402  -18.5516 C   0  0  0  0  0  0  0  0  0  0  0  0
    4.5539  -45.6538  -19.1208 N   0  0  0  0  0  0  0  0  0  0  0  0
    5.6477  -46.4920  -19.4937 C   0  0  0  0  0  0  0  0  0  0  0  0
    6.9129  -45.6331  -19.5038 C   0  0  0  0  0  0  0  0  0  0  0  0
    6.5809  -44.2341  -20.0159 C   0  0  0  0  0  0  0  0  0  0  0  0
    5.3974  -44.3280  -20.9520 C   0  0  0  0  0  0  0  0  0  0  0  0
    4.1752  -44.8567  -20.2814 C   0  0  0  0  0  0  0  0  0  0  0  0
   -0.3277  -54.2436  -25.7909 C   0  0  0  0  0  0  0  0  0  0  0  0
   -0.2512  -54.3691  -26.9470 N   0  0  0  0  0  0  0  0  0  0  0  0
    0.5709  -51.9120  -24.5670 N   0  0  0  0  0  0  0  0  0  0  0  0
   -0.0641  -51.4846  -25.2706 H   0  0  0  0  0  0  0  0  0  0  0  0
    1.8741  -51.4190  -24.4991 C   0  0  0  0  0  0  0  0  0  0  0  0
    2.1102  -50.0798  -24.5041 C   0  0  0  0  0  0  0  0  0  0  0  0
    3.3903  -49.5983  -24.4341 C   0  0  0  0  0  0  0  0  0  0  0  0
    4.4923  -50.4329  -24.3562 C   0  0  0  0  0  0  0  0  0  0  0  0
    4.2098  -51.7838  -24.3543 C   0  0  0  0  0  0  0  0  0  0  0  0
    5.5920  -52.8834  -24.2582 Cl  0  0  0  0  0  0  0  0  0  0  0  0
    2.9335  -52.2806  -24.4238 C   0  0  0  0  0  0  0  0  0  0  0  0
    5.7868  -49.9238  -24.2854 O   0  0  0  0  0  0  0  0  0  0  0  0
    6.1338  -49.1640  -23.1402 C   0  0  0  0  0  0  0  0  0  0  0  0
    6.6442  -47.8288  -23.5228 C   0  0  0  0  0  0  0  0  0  0  0  0
    6.2082  -47.2753  -24.7028 C   0  0  0  0  0  0  0  0  0  0  0  0
    6.6467  -46.0402  -25.1107 C   0  0  0  0  0  0  0  0  0  0  0  0
    7.5289  -45.3567  -24.3287 C   0  0  0  0  0  0  0  0  0  0  0  0
    8.0024  -45.8742  -23.1220 C   0  0  0  0  0  0  0  0  0  0  0  0
    7.5327  -47.1266  -22.7474 C   0  0  0  0  0  0  0  0  0  0  0  0
   -0.2629  -52.3417  -18.2687 O   0  0  0  0  0  0  0  0  0  0  0  0
   -1.2800  -51.9912  -16.0705 C   0  0  0  0  0  0  0  0  0  0  0  0
   -1.3458  -52.5590  -17.4505 C   0  0  0  0  0  0  0  0  0  0  0  0
 44 45  1  0  0  0
 45 43  1  0  0  0
 43  1  1  0  0  0
  1  2  2  0  0  0
  2  3  1  0  0  0
  3  4  2  0  0  0
  4  5  1  0  0  0
  5  6  2  0  0  0
  6 24  1  0  0  0
 24 25  3  0  0  0
  6  7  1  0  0  0
  7 26  1  0  0  0
 26 28  1  0  0  0
 28 29  2  0  0  0
 29 30  1  0  0  0
 30 31  2  0  0  0
 31 35  1  0  0  0
 35 36  1  0  0  0
 36 37  1  0  0  0
 37 38  2  0  0  0
 38 39  1  0  0  0
 39 40  2  0  0  0
 40 41  1  0  0  0
 41 42  2  0  0  0
 31 32  1  0  0  0
 32 33  1  0  0  0
 32 34  2  0  0  0
  7  8  2  0  0  0
  8  9  1  0  0  0
  9 10  2  0  0  0
 10 11  1  0  0  0
 11 12  1  0  0  0
 12 13  2  0  0  0
 12 15  1  0  0  0
 15 16  2  0  0  0
 16 17  1  0  0  0
 17 18  1  0  0  0
 18 19  1  0  0  0
 19 20  1  0  0  0
 20 21  1  0  0  0
 21 22  1  0  0  0
 22 23  1  0  0  0
 10  1  1  0  0  0
 23 18  1  0  0  0
  8  3  1  0  0  0
 34 28  1  0  0  0
 42 37  1  0  0  0
 26 27  1  0  0  0
 11 14  1  0  0  0
M  END
> <minimizedAffinity>
-6.62871

> <CNNscore>
0.3397915363

> <CNNaffinity>
7.6020727158

> <CNN_VS>
2.5831198692

> <CNNaffinity_variance>
0.1694760621

$$$$
[H]/C(C(=O)N([H])c1c(OC([H])([H])C([H])([H])[H])c([H])c2nc([H])c(C#N)c(N([H])c3c([H])c([H])c(OC([H])([H])c4c([H])c([H])c([H])c([H])c4[H])c(Cl)c3[H])c2c1[H])=C(/[H])C([H])([H])N1C([H])([H])C([H])([H])C([H])([H])C([H])([H])C1([H])[H]


 45 49  0  0  0  0  0  0  0  0999 V2000
   -0.0175  -52.3937  -21.6726 C   0  0  0  0  0  0  0  0  0  0  0  0
   -0.6155  -53.1337  -22.6460 C   0  0  0  0  0  0  0  0  0  0  0  0
   -0.0181  -53.3215  -23.8963 C   0  0  0  0  0  0  0  0  0  0  0  0
   -0.6293  -54.0580  -24.8408 N   0  0  0  0  0  0  0  0  0  0  0  0
   -0.0516  -54.2454  -26.0629 C   0  0  0  0  0  0  0  0  0  0  0  0
    1.1677  -53.6990  -26.3874 C   0  0  0  0  0  0  0  0  0  0  0  0
    1.7910  -52.9376  -25.3995 C   0  0  0  0  0  0  0  0  0  0  0  0
    1.2039  -52.7527  -24.1703 C   0  0  0  0  0  0  0  0  0  0  0  0
    1.7900  -51.9980  -23.1466 C   0  0  0  0  0  0  0  0  0  0  0  0
    1.2336  -51.7968  -21.9183 C   0  0  0  0  0  0  0  0  0  0  0  0
    1.8200  -51.0450  -20.8791 N   0  0  0  0  0  0  0  0  0  0  0  0
    2.7128  -51.4593  -19.9091 C   0  0  0  0  0  0  0  0  0  0  0  0
    3.1327  -52.6397  -19.8452 O   0  0  0  0  0  0  0  0  0  0  0  0
    1.5377  -50.0072  -20.8281 H   0  0  0  0  0  0  0  0  0  0  0  0
    3.2347  -50.5574  -18.8858 C   0  0  0  0  0  0  0  0  0  0  0  0
    2.8393  -50.5350  -17.6530 C   0  0  0  0  0  0  0  0  0  0  0  0
    3.4004  -49.5916  -16.6293 C   0  0  0  0  0  0  0  0  0  0  0  0
    3.2801  -50.1753  -15.3196 N   0  0  0  0  0  0  0  0  0  0  0  0
    3.8310  -51.4856  -15.1869 C   0  0  0  0  0  0  0  0  0  0  0  0
    3.1336  -52.1693  -14.0102 C   0  0  0  0  0  0  0  0  0  0  0  0
    2.8589  -51.1471  -12.9105 C   0  0  0  0  0  0  0  0  0  0  0  0
    3.9017  -50.0554  -12.9911 C   0  0  0  0  0  0  0  0  0  0  0  0
    3.8713  -49.3269  -14.2917 C   0  0  0  0  0  0  0  0  0  0  0  0
    1.8028  -53.8719  -27.6507 C   0  0  0  0  0  0  0  0  0  0  0  0
    2.3370  -54.0042  -28.6779 N   0  0  0  0  0  0  0  0  0  0  0  0
    3.0472  -52.3509  -25.6809 N   0  0  0  0  0  0  0  0  0  0  0  0
    3.7962  -52.9826  -26.0284 H   0  0  0  0  0  0  0  0  0  0  0  0
    3.3667  -51.0011  -25.5329 C   0  0  0  0  0  0  0  0  0  0  0  0
    2.6296  -50.0417  -26.1538 C   0  0  0  0  0  0  0  0  0  0  0  0
    2.9434  -48.7172  -26.0044 C   0  0  0  0  0  0  0  0  0  0  0  0
    4.0078  -48.2911  -25.2282 C   0  0  0  0  0  0  0  0  0  0  0  0
    4.7302  -49.2953  -24.6161 C   0  0  0  0  0  0  0  0  0  0  0  0
    6.1003  -48.7914  -23.6171 Cl  0  0  0  0  0  0  0  0  0  0  0  0
    4.4280  -50.6255  -24.7564 C   0  0  0  0  0  0  0  0  0  0  0  0
    4.3109  -46.9389  -25.0883 O   0  0  0  0  0  0  0  0  0  0  0  0
    3.3950  -46.1297  -24.3703 C   0  0  0  0  0  0  0  0  0  0  0  0
    3.4205  -46.4511  -22.9261 C   0  0  0  0  0  0  0  0  0  0  0  0
    2.4738  -47.3160  -22.4316 C   0  0  0  0  0  0  0  0  0  0  0  0
    2.4467  -47.6514  -21.1008 C   0  0  0  0  0  0  0  0  0  0  0  0
    3.3764  -47.1147  -20.2613 C   0  0  0  0  0  0  0  0  0  0  0  0
    4.3585  -46.2319  -20.7130 C   0  0  0  0  0  0  0  0  0  0  0  0
    4.3493  -45.9199  -22.0665 C   0  0  0  0  0  0  0  0  0  0  0  0
   -0.5982  -52.2111  -20.4617 O   0  0  0  0  0  0  0  0  0  0  0  0
   -1.6652  -53.0393  -18.4208 C   0  0  0  0  0  0  0  0  0  0  0  0
   -0.4931  -53.0075  -19.3463 C   0  0  0  0  0  0  0  0  0  0  0  0
 44 45  1  0  0  0
 45 43  1  0  0  0
 43  1  1  0  0  0
  1  2  2  0  0  0
  2  3  1  0  0  0
  3  4  2  0  0  0
  4  5  1  0  0  0
  5  6  2  0  0  0
  6 24  1  0  0  0
 24 25  3  0  0  0
  6  7  1  0  0  0
  7 26  1  0  0  0
 26 28  1  0  0  0
 28 29  2  0  0  0
 29 30  1  0  0  0
 30 31  2  0  0  0
 31 35  1  0  0  0
 35 36  1  0  0  0
 36 37  1  0  0  0
 37 38  2  0  0  0
 38 39  1  0  0  0
 39 40  2  0  0  0
 40 41  1  0  0  0
 41 42  2  0  0  0
 31 32  1  0  0  0
 32 33  1  0  0  0
 32 34  2  0  0  0
  7  8  2  0  0  0
  8  9  1  0  0  0
  9 10  2  0  0  0
 10 11  1  0  0  0
 11 12  1  0  0  0
 12 13  2  0  0  0
 12 15  1  0  0  0
 15 16  2  0  0  0
 16 17  1  0  0  0
 17 18  1  0  0  0
 18 19  1  0  0  0
 19 20  1  0  0  0
 20 21  1  0  0  0
 21 22  1  0  0  0
 22 23  1  0  0  0
 10  1  1  0  0  0
 23 18  1  0  0  0
  8  3  1  0  0  0
 34 28  1  0  0  0
 42 37  1  0  0  0
 26 27  1  0  0  0
 11 14  1  0  0  0
M  END
> <minimizedAffinity>
-6.99745

> <CNNscore>
0.3390376568

> <CNNaffinity>
7.5716004372

> <CNN_VS>
2.5670576096

> <CNNaffinity_variance>
0.1396186054

$$$$
[H]/C(C(=O)N([H])c1c(OC([H])([H])C([H])([H])[H])c([H])c2nc([H])c(C#N)c(N([H])c3c([H])c([H])c(OC([H])([H])c4c([H])c([H])c([H])c([H])c4[H])c(Cl)c3[H])c2c1[H])=C(/[H])C([H])([H])N1C([H])([H])C([H])([H])C([H])([H])C([H])([H])C1([H])[H]


 45 49  0  0  0  0  0  0  0  0999 V2000
    0.0202  -52.1587  -21.3333 C   0  0  0  0  0  0  0  0  0  0  0  0
   -0.5576  -52.8300  -22.3669 C   0  0  0  0  0  0  0  0  0  0  0  0
    0.0996  -53.0018  -23.5892 C   0  0  0  0  0  0  0  0  0  0  0  0
   -0.4929  -53.6699  -24.5945 N   0  0  0  0  0  0  0  0  0  0  0  0
    0.1432  -53.8413  -25.7896 C   0  0  0  0  0  0  0  0  0  0  0  0
    1.4044  -53.3470  -26.0247 C   0  0  0  0  0  0  0  0  0  0  0  0
    2.0078  -52.6562  -24.9746 C   0  0  0  0  0  0  0  0  0  0  0  0
    1.3618  -52.4871  -23.7729 C   0  0  0  0  0  0  0  0  0  0  0  0
    1.9257  -51.8024  -22.6893 C   0  0  0  0  0  0  0  0  0  0  0  0
    1.3113  -51.6185  -21.4861 C   0  0  0  0  0  0  0  0  0  0  0  0
    1.8744  -50.9374  -20.3871 N   0  0  0  0  0  0  0  0  0  0  0  0
    2.9575  -51.2980  -19.6084 C   0  0  0  0  0  0  0  0  0  0  0  0
    3.6089  -52.3505  -19.8128 O   0  0  0  0  0  0  0  0  0  0  0  0
    1.4008  -50.0105  -20.1114 H   0  0  0  0  0  0  0  0  0  0  0  0
    3.4259  -50.4841  -18.4899 C   0  0  0  0  0  0  0  0  0  0  0  0
    3.9731  -49.3164  -18.6073 C   0  0  0  0  0  0  0  0  0  0  0  0
    4.4427  -48.5094  -17.4322 C   0  0  0  0  0  0  0  0  0  0  0  0
    4.6929  -47.1547  -17.8476 N   0  0  0  0  0  0  0  0  0  0  0  0
    5.3804  -47.0191  -19.0913 C   0  0  0  0  0  0  0  0  0  0  0  0
    6.0707  -45.6545  -19.0979 C   0  0  0  0  0  0  0  0  0  0  0  0
    5.1881  -44.6282  -18.3927 C   0  0  0  0  0  0  0  0  0  0  0  0
    3.7430  -45.0475  -18.5404 C   0  0  0  0  0  0  0  0  0  0  0  0
    3.4636  -46.3740  -17.9198 C   0  0  0  0  0  0  0  0  0  0  0  0
    2.1007  -53.5053  -27.2574 C   0  0  0  0  0  0  0  0  0  0  0  0
    2.6733  -53.6526  -28.2617 N   0  0  0  0  0  0  0  0  0  0  0  0
    3.3053  -52.1251  -25.1631 N   0  0  0  0  0  0  0  0  0  0  0  0
    4.1041  -52.7829  -25.0621 H   0  0  0  0  0  0  0  0  0  0  0  0
    3.6050  -50.7983  -25.4724 C   0  0  0  0  0  0  0  0  0  0  0  0
    2.9153  -50.1392  -26.4415 C   0  0  0  0  0  0  0  0  0  0  0  0
    3.2092  -48.8357  -26.7411 C   0  0  0  0  0  0  0  0  0  0  0  0
    4.2054  -48.1317  -26.0861 C   0  0  0  0  0  0  0  0  0  0  0  0
    4.8814  -48.8363  -25.1107 C   0  0  0  0  0  0  0  0  0  0  0  0
    6.1639  -47.9718  -24.2523 Cl  0  0  0  0  0  0  0  0  0  0  0  0
    4.5983  -50.1415  -24.7998 C   0  0  0  0  0  0  0  0  0  0  0  0
    4.4893  -46.8059  -26.4050 O   0  0  0  0  0  0  0  0  0  0  0  0
    3.5870  -45.8117  -25.9504 C   0  0  0  0  0  0  0  0  0  0  0  0
    3.9604  -45.3319  -24.6014 C   0  0  0  0  0  0  0  0  0  0  0  0
    5.0679  -44.5278  -24.4763 C   0  0  0  0  0  0  0  0  0  0  0  0
    5.4638  -44.0524  -23.2509 C   0  0  0  0  0  0  0  0  0  0  0  0
    4.7427  -44.3869  -22.1440 C   0  0  0  0  0  0  0  0  0  0  0  0
    3.6108  -45.2001  -22.2168 C   0  0  0  0  0  0  0  0  0  0  0  0
    3.2459  -45.6589  -23.4760 C   0  0  0  0  0  0  0  0  0  0  0  0
   -0.6184  -51.9916  -20.1497 O   0  0  0  0  0  0  0  0  0  0  0  0
   -1.6178  -52.7516  -18.0489 C   0  0  0  0  0  0  0  0  0  0  0  0
   -0.4631  -52.7225  -18.9959 C   0  0  0  0  0  0  0  0  0  0  0  0
 44 45  1  0  0  0
 45 43  1  0  0  0
 43  1  1  0  0  0
  1  2  2  0  0  0
  2  3  1  0  0  0
  3  4  2  0  0  0
  4  5  1  0  0  0
  5  6  2  0  0  0
  6 24  1  0  0  0
 24 25  3  0  0  0
  6  7  1  0  0  0
  7 26  1  0  0  0
 26 28  1  0  0  0
 28 29  2  0  0  0
 29 30  1  0  0  0
 30 31  2  0  0  0
 31 35  1  0  0  0
 35 36  1  0  0  0
 36 37  1  0  0  0
 37 38  2  0  0  0
 38 39  1  0  0  0
 39 40  2  0  0  0
 40 41  1  0  0  0
 41 42  2  0  0  0
 31 32  1  0  0  0
 32 33  1  0  0  0
 32 34  2  0  0  0
  7  8  2  0  0  0
  8  9  1  0  0  0
  9 10  2  0  0  0
 10 11  1  0  0  0
 11 12  1  0  0  0
 12 13  2  0  0  0
 12 15  1  0  0  0
 15 16  2  0  0  0
 16 17  1  0  0  0
 17 18  1  0  0  0
 18 19  1  0  0  0
 19 20  1  0  0  0
 20 21  1  0  0  0
 21 22  1  0  0  0
 22 23  1  0  0  0
 10  1  1  0  0  0
 23 18  1  0  0  0
  8  3  1  0  0  0
 34 28  1  0  0  0
 42 37  1  0  0  0
 26 27  1  0  0  0
 11 14  1  0  0  0
M  END
> <minimizedAffinity>
-6.04679

> <CNNscore>
0.2702673078

> <CNNaffinity>
7.5973725319

> <CNN_VS>
2.0533213615

> <CNNaffinity_variance>
0.2036175430

$$$$
[H]/C(C(=O)N([H])c1c(OC([H])([H])C([H])([H])[H])c([H])c2nc([H])c(C#N)c(N([H])c3c([H])c([H])c(OC([H])([H])c4c([H])c([H])c([H])c([H])c4[H])c(Cl)c3[H])c2c1[H])=C(/[H])C([H])([H])N1C([H])([H])C([H])([H])C([H])([H])C([H])([H])C1([H])[H]


 45 49  0  0  0  0  0  0  0  0999 V2000
   -0.6041  -51.9330  -17.7272 C   0  0  0  0  0  0  0  0  0  0  0  0
   -0.9944  -52.9944  -18.4848 C   0  0  0  0  0  0  0  0  0  0  0  0
   -0.6886  -53.0757  -19.8469 C   0  0  0  0  0  0  0  0  0  0  0  0
   -1.0850  -54.1356  -20.5731 N   0  0  0  0  0  0  0  0  0  0  0  0
   -0.7895  -54.2212  -21.9027 C   0  0  0  0  0  0  0  0  0  0  0  0
   -0.0814  -53.2424  -22.5593 C   0  0  0  0  0  0  0  0  0  0  0  0
    0.3238  -52.1488  -21.7952 C   0  0  0  0  0  0  0  0  0  0  0  0
    0.0232  -52.0686  -20.4561 C   0  0  0  0  0  0  0  0  0  0  0  0
    0.4081  -50.9923  -19.6472 C   0  0  0  0  0  0  0  0  0  0  0  0
    0.1258  -50.8841  -18.3178 C   0  0  0  0  0  0  0  0  0  0  0  0
    0.5160  -49.8080  -17.4940 N   0  0  0  0  0  0  0  0  0  0  0  0
    1.7259  -49.5981  -16.8601 C   0  0  0  0  0  0  0  0  0  0  0  0
    2.6827  -50.4033  -16.9593 O   0  0  0  0  0  0  0  0  0  0  0  0
   -0.2243  -49.0431  -17.3320 H   0  0  0  0  0  0  0  0  0  0  0  0
    1.9831  -48.4261  -16.0277 C   0  0  0  0  0  0  0  0  0  0  0  0
    1.1562  -47.9482  -15.1532 C   0  0  0  0  0  0  0  0  0  0  0  0
    1.4569  -46.7396  -14.3157 C   0  0  0  0  0  0  0  0  0  0  0  0
    0.2277  -46.1796  -13.8196 N   0  0  0  0  0  0  0  0  0  0  0  0
   -0.6261  -45.6148  -14.8145 C   0  0  0  0  0  0  0  0  0  0  0  0
   -1.5283  -44.5880  -14.1286 C   0  0  0  0  0  0  0  0  0  0  0  0
   -1.9051  -45.0839  -12.7351 C   0  0  0  0  0  0  0  0  0  0  0  0
   -1.8881  -46.5957  -12.7368 C   0  0  0  0  0  0  0  0  0  0  0  0
   -0.5438  -47.1547  -13.0582 C   0  0  0  0  0  0  0  0  0  0  0  0
    0.2466  -53.2956  -23.9445 C   0  0  0  0  0  0  0  0  0  0  0  0
    0.5278  -53.3262  -25.0751 N   0  0  0  0  0  0  0  0  0  0  0  0
    1.0545  -51.1118  -22.4213 N   0  0  0  0  0  0  0  0  0  0  0  0
    0.5269  -50.4778  -23.0540 H   0  0  0  0  0  0  0  0  0  0  0  0
    2.4187  -50.8669  -22.2631 C   0  0  0  0  0  0  0  0  0  0  0  0
    3.3166  -51.8872  -22.3101 C   0  0  0  0  0  0  0  0  0  0  0  0
    4.6555  -51.6438  -22.1577 C   0  0  0  0  0  0  0  0  0  0  0  0
    5.1581  -50.3703  -21.9514 C   0  0  0  0  0  0  0  0  0  0  0  0
    4.2146  -49.3638  -21.9099 C   0  0  0  0  0  0  0  0  0  0  0  0
    4.8171  -47.7218  -21.6456 Cl  0  0  0  0  0  0  0  0  0  0  0  0
    2.8709  -49.5922  -22.0608 C   0  0  0  0  0  0  0  0  0  0  0  0
    6.5237  -50.1429  -21.7990 O   0  0  0  0  0  0  0  0  0  0  0  0
    7.3482  -50.2957  -22.9418 C   0  0  0  0  0  0  0  0  0  0  0  0
    7.3328  -49.0735  -23.7757 C   0  0  0  0  0  0  0  0  0  0  0  0
    7.9820  -47.9553  -23.3096 C   0  0  0  0  0  0  0  0  0  0  0  0
    8.0017  -46.7922  -24.0382 C   0  0  0  0  0  0  0  0  0  0  0  0
    7.3654  -46.7516  -25.2426 C   0  0  0  0  0  0  0  0  0  0  0  0
    6.6918  -47.8589  -25.7606 C   0  0  0  0  0  0  0  0  0  0  0  0
    6.6970  -49.0150  -24.9907 C   0  0  0  0  0  0  0  0  0  0  0  0
   -0.9025  -51.8547  -16.4074 O   0  0  0  0  0  0  0  0  0  0  0  0
   -2.4034  -50.5401  -14.9900 C   0  0  0  0  0  0  0  0  0  0  0  0
   -2.1442  -51.7497  -15.8274 C   0  0  0  0  0  0  0  0  0  0  0  0
 44 45  1  0  0  0
 45 43  1  0  0  0
 43  1  1  0  0  0
  1  2  2  0  0  0
  2  3  1  0  0  0
  3  4  2  0  0  0
  4  5  1  0  0  0
  5  6  2  0  0  0
  6 24  1  0  0  0
 24 25  3  0  0  0
  6  7  1  0  0  0
  7 26  1  0  0  0
 26 28  1  0  0  0
 28 29  2  0  0  0
 29 30  1  0  0  0
 30 31  2  0  0  0
 31 35  1  0  0  0
 35 36  1  0  0  0
 36 37  1  0  0  0
 37 38  2  0  0  0
 38 39  1  0  0  0
 39 40  2  0  0  0
 40 41  1  0  0  0
 41 42  2  0  0  0
 31 32  1  0  0  0
 32 33  1  0  0  0
 32 34  2  0  0  0
  7  8  2  0  0  0
  8  9  1  0  0  0
  9 10  2  0  0  0
 10 11  1  0  0  0
 11 12  1  0  0  0
 12 13  2  0  0  0
 12 15  1  0  0  0
 15 16  2  0  0  0
 16 17  1  0  0  0
 17 18  1  0  0  0
 18 19  1  0  0  0
 19 20  1  0  0  0
 20 21  1  0  0  0
 21 22  1  0  0  0
 22 23  1  0  0  0
 10  1  1  0  0  0
 23 18  1  0  0  0
  8  3  1  0  0  0
 34 28  1  0  0  0
 42 37  1  0  0  0
 26 27  1  0  0  0
 11 14  1  0  0  0
M  END
> <minimizedAffinity>
-6.23044

> <CNNscore>
0.2648267448

> <CNNaffinity>
7.1376204491

> <CNN_VS>
1.8902328014

> <CNNaffinity_variance>
0.1613107175

$$$$
[H]/C(C(=O)N([H])c1c(OC([H])([H])C([H])([H])[H])c([H])c2nc([H])c(C#N)c(N([H])c3c([H])c([H])c(OC([H])([H])c4nc([H])c([H])c([H])c4[H])c(Cl)c3[H])c2c1[H])=C(/[H])C([H])([H])N1C([H])([H])C([H])([H])C([H])([H])C([H])([H])C1([H])[H]


 45 49  0  0  0  0  0  0  0  0999 V2000
   -0.4742  -52.3937  -19.1189 C   0  0  0  0  0  0  0  0  0  0  0  0
   -0.9662  -53.4751  -19.8003 C   0  0  0  0  0  0  0  0  0  0  0  0
   -0.8376  -53.6128  -21.1699 C   0  0  0  0  0  0  0  0  0  0  0  0
   -1.3045  -54.7060  -21.8026 N   0  0  0  0  0  0  0  0  0  0  0  0
   -1.1752  -54.9011  -23.1233 C   0  0  0  0  0  0  0  0  0  0  0  0
   -0.5272  -53.9244  -23.8717 C   0  0  0  0  0  0  0  0  0  0  0  0
   -0.0280  -52.7873  -23.3090 C   0  0  0  0  0  0  0  0  0  0  0  0
   -0.2077  -52.6632  -21.9173 C   0  0  0  0  0  0  0  0  0  0  0  0
    0.2849  -51.5802  -21.2474 C   0  0  0  0  0  0  0  0  0  0  0  0
    0.1913  -51.3747  -19.8398 C   0  0  0  0  0  0  0  0  0  0  0  0
    0.8181  -50.4083  -19.2248 N   0  0  0  0  0  0  0  0  0  0  0  0
    1.5033  -49.3702  -18.5843 C   0  0  0  0  0  0  0  0  0  0  0  0
    2.4622  -48.7031  -19.1424 O   0  0  0  0  0  0  0  0  0  0  0  0
    1.4580  -50.0505  -20.3796 H   0  0  0  0  0  0  0  0  0  0  0  0
    1.2305  -48.9220  -17.2000 C   0  0  0  0  0  0  0  0  0  0  0  0
    1.8957  -49.3874  -16.2024 C   0  0  0  0  0  0  0  0  0  0  0  0
    1.6134  -48.9272  -14.7857 C   0  0  0  0  0  0  0  0  0  0  0  0
    1.7878  -50.0534  -13.9502 N   0  0  0  0  0  0  0  0  0  0  0  0
    2.7266  -49.9550  -12.8936 C   0  0  0  0  0  0  0  0  0  0  0  0
    3.9341  -50.8228  -13.3024 C   0  0  0  0  0  0  0  0  0  0  0  0
    3.5274  -52.2763  -13.3654 C   0  0  0  0  0  0  0  0  0  0  0  0
    2.0044  -52.3945  -13.5186 C   0  0  0  0  0  0  0  0  0  0  0  0
    1.4831  -51.3299  -14.4567 C   0  0  0  0  0  0  0  0  0  0  0  0
   -0.3436  -54.1220  -25.2747 C   0  0  0  0  0  0  0  0  0  0  0  0
   -0.1956  -54.3017  -26.3989 N   0  0  0  0  0  0  0  0  0  0  0  0
    0.6825  -51.7536  -23.9189 N   0  0  0  0  0  0  0  0  0  0  0  0
    0.1089  -51.1636  -24.6374 H   0  0  0  0  0  0  0  0  0  0  0  0
    2.0046  -51.3355  -23.7713 C   0  0  0  0  0  0  0  0  0  0  0  0
    3.0425  -52.2640  -23.9717 C   0  0  0  0  0  0  0  0  0  0  0  0
    4.3727  -51.9314  -23.8939 C   0  0  0  0  0  0  0  0  0  0  0  0
    4.7180  -50.6123  -23.6039 C   0  0  0  0  0  0  0  0  0  0  0  0
    3.7272  -49.6730  -23.4013 C   0  0  0  0  0  0  0  0  0  0  0  0
    4.1854  -48.0180  -23.0338 Cl  0  0  0  0  0  0  0  0  0  0  0  0
    2.3831  -50.0543  -23.4876 C   0  0  0  0  0  0  0  0  0  0  0  0
    6.0290  -50.1960  -23.5187 O   0  0  0  0  0  0  0  0  0  0  0  0
    6.9235  -50.0748  -24.5728 C   0  0  0  0  0  0  0  0  0  0  0  0
    6.8691  -48.7253  -25.2245 C   0  0  0  0  0  0  0  0  0  0  0  0
    7.6122  -47.6669  -24.7710 C   0  0  0  0  0  0  0  0  0  0  0  0
    7.5775  -46.4107  -25.3667 C   0  0  0  0  0  0  0  0  0  0  0  0
    6.7580  -46.2368  -26.4560 C   0  0  0  0  0  0  0  0  0  0  0  0
    6.0110  -47.3125  -26.9061 C   0  0  0  0  0  0  0  0  0  0  0  0
    6.0655  -48.5185  -26.3079 N   0  0  0  0  0  0  0  0  0  0  0  0
   -0.6229  -52.2854  -17.7684 O   0  0  0  0  0  0  0  0  0  0  0  0
   -1.8895  -51.4670  -15.9507 C   0  0  0  0  0  0  0  0  0  0  0  0
   -1.6829  -52.6031  -16.9497 C   0  0  0  0  0  0  0  0  0  0  0  0
 44 45  1  0  0  0
 45 43  1  0  0  0
 43  1  1  0  0  0
  1  2  2  0  0  0
  2  3  1  0  0  0
  3  4  2  0  0  0
  4  5  1  0  0  0
  5  6  2  0  0  0
  6 24  1  0  0  0
 24 25  3  0  0  0
  6  7  1  0  0  0
  7 26  1  0  0  0
 26 28  1  0  0  0
 28 29  2  0  0  0
 29 30  1  0  0  0
 30 31  2  0  0  0
 31 35  1  0  0  0
 35 36  1  0  0  0
 36 37  1  0  0  0
 37 38  2  0  0  0
 38 39  1  0  0  0
 39 40  2  0  0  0
 40 41  1  0  0  0
 41 42  2  0  0  0
 31 32  1  0  0  0
 32 33  1  0  0  0
 32 34  2  0  0  0
  7  8  2  0  0  0
  8  9  1  0  0  0
  9 10  2  0  0  0
 10 11  1  0  0  0
 11 12  1  0  0  0
 12 13  2  0  0  0
 12 15  1  0  0  0
 15 16  2  0  0  0
 16 17  1  0  0  0
 17 18  1  0  0  0
 18 19  1  0  0  0
 19 20  1  0  0  0
 20 21  1  0  0  0
 21 22  1  0  0  0
 22 23  1  0  0  0
 10  1  1  0  0  0
 23 18  1  0  0  0
  8  3  1  0  0  0
 34 28  1  0  0  0
 42 37  1  0  0  0
 26 27  1  0  0  0
 11 14  1  0  0  0
M  END
> <minimizedAffinity>
-7.56660

> <CNNscore>
0.5095520616

> <CNNaffinity>
7.7206487656

> <CNN_VS>
3.9340724945

> <CNNaffinity_variance>
0.0653356761

$$$$
[H]/C(C(=O)N([H])c1c(OC([H])([H])C([H])([H])[H])c([H])c2nc([H])c(C#N)c(N([H])c3c([H])c([H])c(OC([H])([H])c4nc([H])c([H])c([H])c4[H])c(Cl)c3[H])c2c1[H])=C(/[H])C([H])([H])N1C([H])([H])C([H])([H])C([H])([H])C([H])([H])C1([H])[H]


 45 49  0  0  0  0  0  0  0  0999 V2000
   -0.4486  -52.3726  -19.6484 C   0  0  0  0  0  0  0  0  0  0  0  0
   -0.8972  -53.5078  -20.2697 C   0  0  0  0  0  0  0  0  0  0  0  0
   -0.7695  -53.7105  -21.6313 C   0  0  0  0  0  0  0  0  0  0  0  0
   -1.1922  -54.8539  -22.2034 N   0  0  0  0  0  0  0  0  0  0  0  0
   -1.0612  -55.1114  -23.5133 C   0  0  0  0  0  0  0  0  0  0  0  0
   -0.4593  -54.1480  -24.3156 C   0  0  0  0  0  0  0  0  0  0  0  0
   -0.0065  -52.9632  -23.8157 C   0  0  0  0  0  0  0  0  0  0  0  0
   -0.1846  -52.7749  -22.4310 C   0  0  0  0  0  0  0  0  0  0  0  0
    0.2644  -51.6387  -21.8213 C   0  0  0  0  0  0  0  0  0  0  0  0
    0.1691  -51.3649  -20.4255 C   0  0  0  0  0  0  0  0  0  0  0  0
    0.7569  -50.3421  -19.8656 N   0  0  0  0  0  0  0  0  0  0  0  0
    1.3881  -49.2360  -19.2862 C   0  0  0  0  0  0  0  0  0  0  0  0
    1.7323  -48.1840  -19.9575 O   0  0  0  0  0  0  0  0  0  0  0  0
    0.6133  -49.5997  -21.0054 H   0  0  0  0  0  0  0  0  0  0  0  0
    1.7500  -49.1395  -17.8540 C   0  0  0  0  0  0  0  0  0  0  0  0
    0.8489  -49.0568  -16.9400 C   0  0  0  0  0  0  0  0  0  0  0  0
    1.2226  -48.9572  -15.4740 C   0  0  0  0  0  0  0  0  0  0  0  0
    0.0625  -49.2830  -14.7359 N   0  0  0  0  0  0  0  0  0  0  0  0
    0.2338  -49.8895  -13.4670 C   0  0  0  0  0  0  0  0  0  0  0  0
   -0.1852  -51.3646  -13.6299 C   0  0  0  0  0  0  0  0  0  0  0  0
   -1.6615  -51.4511  -13.9379 C   0  0  0  0  0  0  0  0  0  0  0  0
   -2.1664  -50.1117  -14.4931 C   0  0  0  0  0  0  0  0  0  0  0  0
   -1.1426  -49.5064  -15.4262 C   0  0  0  0  0  0  0  0  0  0  0  0
   -0.2742  -54.4100  -25.7077 C   0  0  0  0  0  0  0  0  0  0  0  0
   -0.1255  -54.6413  -26.8224 N   0  0  0  0  0  0  0  0  0  0  0  0
    0.6560  -51.9331  -24.4830 N   0  0  0  0  0  0  0  0  0  0  0  0
    0.0219  -51.3224  -25.1298 H   0  0  0  0  0  0  0  0  0  0  0  0
    1.9941  -51.5407  -24.4692 C   0  0  0  0  0  0  0  0  0  0  0  0
    2.3066  -50.1711  -24.5471 C   0  0  0  0  0  0  0  0  0  0  0  0
    3.5919  -49.6902  -24.4932 C   0  0  0  0  0  0  0  0  0  0  0  0
    4.6416  -50.5967  -24.3537 C   0  0  0  0  0  0  0  0  0  0  0  0
    4.3739  -51.9483  -24.2737 C   0  0  0  0  0  0  0  0  0  0  0  0
    5.7122  -53.0725  -24.1017 Cl  0  0  0  0  0  0  0  0  0  0  0  0
    3.0494  -52.3971  -24.3348 C   0  0  0  0  0  0  0  0  0  0  0  0
    5.9576  -50.1941  -24.2813 O   0  0  0  0  0  0  0  0  0  0  0  0
    6.5511  -49.1853  -25.0271 C   0  0  0  0  0  0  0  0  0  0  0  0
    6.8564  -47.9657  -24.2097 C   0  0  0  0  0  0  0  0  0  0  0  0
    6.7926  -47.9716  -22.8407 C   0  0  0  0  0  0  0  0  0  0  0  0
    7.0774  -46.8513  -22.0676 C   0  0  0  0  0  0  0  0  0  0  0  0
    7.4366  -45.6948  -22.7171 C   0  0  0  0  0  0  0  0  0  0  0  0
    7.4978  -45.6993  -24.1005 C   0  0  0  0  0  0  0  0  0  0  0  0
    7.2158  -46.8009  -24.8231 N   0  0  0  0  0  0  0  0  0  0  0  0
   -0.5952  -52.2009  -18.3042 O   0  0  0  0  0  0  0  0  0  0  0  0
   -2.5646  -52.7107  -17.1044 C   0  0  0  0  0  0  0  0  0  0  0  0
   -1.0928  -53.0441  -17.3366 C   0  0  0  0  0  0  0  0  0  0  0  0
 44 45  1  0  0  0
 45 43  1  0  0  0
 43  1  1  0  0  0
  1  2  2  0  0  0
  2  3  1  0  0  0
  3  4  2  0  0  0
  4  5  1  0  0  0
  5  6  2  0  0  0
  6 24  1  0  0  0
 24 25  3  0  0  0
  6  7  1  0  0  0
  7 26  1  0  0  0
 26 28  1  0  0  0
 28 29  2  0  0  0
 29 30  1  0  0  0
 30 31  2  0  0  0
 31 35  1  0  0  0
 35 36  1  0  0  0
 36 37  1  0  0  0
 37 38  2  0  0  0
 38 39  1  0  0  0
 39 40  2  0  0  0
 40 41  1  0  0  0
 41 42  2  0  0  0
 31 32  1  0  0  0
 32 33  1  0  0  0
 32 34  2  0  0  0
  7  8  2  0  0  0
  8  9  1  0  0  0
  9 10  2  0  0  0
 10 11  1  0  0  0
 11 12  1  0  0  0
 12 13  2  0  0  0
 12 15  1  0  0  0
 15 16  2  0  0  0
 16 17  1  0  0  0
 17 18  1  0  0  0
 18 19  1  0  0  0
 19 20  1  0  0  0
 20 21  1  0  0  0
 21 22  1  0  0  0
 22 23  1  0  0  0
 10  1  1  0  0  0
 23 18  1  0  0  0
  8  3  1  0  0  0
 34 28  1  0  0  0
 42 37  1  0  0  0
 26 27  1  0  0  0
 11 14  1  0  0  0
M  END
> <minimizedAffinity>
-7.09647

> <CNNscore>
0.4664821029

> <CNNaffinity>
7.7507271767

> <CNN_VS>
3.6155755520

> <CNNaffinity_variance>
0.0676467568

$$$$
[H]/C(C(=O)N([H])c1c(OC([H])([H])C([H])([H])[H])c([H])c2nc([H])c(C#N)c(N([H])c3c([H])c([H])c(OC([H])([H])c4nc([H])c([H])c([H])c4[H])c(Cl)c3[H])c2c1[H])=C(/[H])C([H])([H])N1C([H])([H])C([H])([H])C([H])([H])C([H])([H])C1([H])[H]


 45 49  0  0  0  0  0  0  0  0999 V2000
    0.2242  -53.8587  -25.5976 C   0  0  0  0  0  0  0  0  0  0  0  0
   -0.6436  -54.3746  -24.6722 C   0  0  0  0  0  0  0  0  0  0  0  0
   -0.5746  -54.0558  -23.3287 C   0  0  0  0  0  0  0  0  0  0  0  0
   -1.4657  -54.5562  -22.4519 N   0  0  0  0  0  0  0  0  0  0  0  0
   -1.4607  -54.2517  -21.1456 C   0  0  0  0  0  0  0  0  0  0  0  0
   -0.4860  -53.3766  -20.6784 C   0  0  0  0  0  0  0  0  0  0  0  0
    0.4543  -52.8282  -21.4993 C   0  0  0  0  0  0  0  0  0  0  0  0
    0.3763  -53.2022  -22.8552 C   0  0  0  0  0  0  0  0  0  0  0  0
    1.2475  -52.6837  -23.7698 C   0  0  0  0  0  0  0  0  0  0  0  0
    1.2330  -52.9653  -25.1672 C   0  0  0  0  0  0  0  0  0  0  0  0
    1.9790  -52.3217  -26.0242 N   0  0  0  0  0  0  0  0  0  0  0  0
    2.7784  -51.6508  -26.9560 C   0  0  0  0  0  0  0  0  0  0  0  0
    3.1495  -52.1753  -28.0799 O   0  0  0  0  0  0  0  0  0  0  0  0
    1.7847  -53.2941  -26.9664 H   0  0  0  0  0  0  0  0  0  0  0  0
    3.3052  -50.2803  -26.7675 C   0  0  0  0  0  0  0  0  0  0  0  0
    3.8249  -49.9108  -25.6504 C   0  0  0  0  0  0  0  0  0  0  0  0
    4.3629  -48.5062  -25.4598 C   0  0  0  0  0  0  0  0  0  0  0  0
    4.3735  -48.2604  -24.0684 N   0  0  0  0  0  0  0  0  0  0  0  0
    3.8071  -49.2421  -23.2182 C   0  0  0  0  0  0  0  0  0  0  0  0
    2.4767  -48.6563  -22.7033 C   0  0  0  0  0  0  0  0  0  0  0  0
    2.7459  -47.4533  -21.8303 C   0  0  0  0  0  0  0  0  0  0  0  0
    4.1397  -46.8829  -22.1289 C   0  0  0  0  0  0  0  0  0  0  0  0
    4.4237  -46.9305  -23.6129 C   0  0  0  0  0  0  0  0  0  0  0  0
   -0.4784  -53.0065  -19.2986 C   0  0  0  0  0  0  0  0  0  0  0  0
   -0.4812  -52.7276  -18.1849 N   0  0  0  0  0  0  0  0  0  0  0  0
    1.4525  -51.9059  -21.1856 N   0  0  0  0  0  0  0  0  0  0  0  0
    2.1893  -51.7404  -21.9750 H   0  0  0  0  0  0  0  0  0  0  0  0
    1.6770  -51.1508  -20.0351 C   0  0  0  0  0  0  0  0  0  0  0  0
    0.9164  -49.9867  -19.8210 C   0  0  0  0  0  0  0  0  0  0  0  0
    1.0359  -49.2081  -18.6961 C   0  0  0  0  0  0  0  0  0  0  0  0
    1.9519  -49.5840  -17.7148 C   0  0  0  0  0  0  0  0  0  0  0  0
    2.7158  -50.7202  -17.8894 C   0  0  0  0  0  0  0  0  0  0  0  0
    3.8660  -51.1727  -16.6418 Cl  0  0  0  0  0  0  0  0  0  0  0  0
    2.5645  -51.4848  -19.0521 C   0  0  0  0  0  0  0  0  0  0  0  0
    2.1241  -48.8628  -16.5532 O   0  0  0  0  0  0  0  0  0  0  0  0
    1.1180  -48.3348  -15.7563 C   0  0  0  0  0  0  0  0  0  0  0  0
    0.1263  -49.3700  -15.3163 C   0  0  0  0  0  0  0  0  0  0  0  0
   -1.2173  -49.2386  -15.5526 C   0  0  0  0  0  0  0  0  0  0  0  0
   -2.1495  -50.1913  -15.1560 C   0  0  0  0  0  0  0  0  0  0  0  0
   -1.6903  -51.3076  -14.4994 C   0  0  0  0  0  0  0  0  0  0  0  0
   -0.3310  -51.4307  -14.2652 C   0  0  0  0  0  0  0  0  0  0  0  0
    0.5487  -50.4903  -14.6615 N   0  0  0  0  0  0  0  0  0  0  0  0
    0.1327  -54.1979  -26.9145 O   0  0  0  0  0  0  0  0  0  0  0  0
   -1.4816  -52.7060  -27.7783 C   0  0  0  0  0  0  0  0  0  0  0  0
   -0.1638  -53.4374  -28.0229 C   0  0  0  0  0  0  0  0  0  0  0  0
 44 45  1  0  0  0
 45 43  1  0  0  0
 43  1  1  0  0  0
  1  2  2  0  0  0
  2  3  1  0  0  0
  3  4  2  0  0  0
  4  5  1  0  0  0
  5  6  2  0  0  0
  6 24  1  0  0  0
 24 25  3  0  0  0
  6  7  1  0  0  0
  7 26  1  0  0  0
 26 28  1  0  0  0
 28 29  2  0  0  0
 29 30  1  0  0  0
 30 31  2  0  0  0
 31 35  1  0  0  0
 35 36  1  0  0  0
 36 37  1  0  0  0
 37 38  2  0  0  0
 38 39  1  0  0  0
 39 40  2  0  0  0
 40 41  1  0  0  0
 41 42  2  0  0  0
 31 32  1  0  0  0
 32 33  1  0  0  0
 32 34  2  0  0  0
  7  8  2  0  0  0
  8  9  1  0  0  0
  9 10  2  0  0  0
 10 11  1  0  0  0
 11 12  1  0  0  0
 12 13  2  0  0  0
 12 15  1  0  0  0
 15 16  2  0  0  0
 16 17  1  0  0  0
 17 18  1  0  0  0
 18 19  1  0  0  0
 19 20  1  0  0  0
 20 21  1  0  0  0
 21 22  1  0  0  0
 22 23  1  0  0  0
 10  1  1  0  0  0
 23 18  1  0  0  0
  8  3  1  0  0  0
 34 28  1  0  0  0
 42 37  1  0  0  0
 26 27  1  0  0  0
 11 14  1  0  0  0
M  END
> <minimizedAffinity>
-7.83408

> <CNNscore>
0.4521136582

> <CNNaffinity>
7.9815750122

> <CNN_VS>
3.6085791588

> <CNNaffinity_variance>
0.0628328100

$$$$
[H]/C(C(=O)N([H])c1c(OC([H])([H])C([H])([H])[H])c([H])c2nc([H])c(C#N)c(N([H])c3c([H])c([H])c(OC([H])([H])c4nc([H])c([H])c([H])c4[H])c(Cl)c3[H])c2c1[H])=C(/[H])C([H])([H])N1C([H])([H])C([H])([H])C([H])([H])C([H])([H])C1([H])[H]


 45 49  0  0  0  0  0  0  0  0999 V2000
   -0.4341  -52.2728  -19.6148 C   0  0  0  0  0  0  0  0  0  0  0  0
   -0.9121  -53.4175  -20.1954 C   0  0  0  0  0  0  0  0  0  0  0  0
   -0.7849  -53.6747  -21.5478 C   0  0  0  0  0  0  0  0  0  0  0  0
   -1.2375  -54.8264  -22.0789 N   0  0  0  0  0  0  0  0  0  0  0  0
   -1.1087  -55.1364  -23.3775 C   0  0  0  0  0  0  0  0  0  0  0  0
   -0.4769  -54.2210  -24.2123 C   0  0  0  0  0  0  0  0  0  0  0  0
    0.0071  -53.0314  -23.7549 C   0  0  0  0  0  0  0  0  0  0  0  0
   -0.1709  -52.7865  -22.3791 C   0  0  0  0  0  0  0  0  0  0  0  0
    0.3076  -51.6412  -21.8101 C   0  0  0  0  0  0  0  0  0  0  0  0
    0.2146  -51.3126  -20.4260 C   0  0  0  0  0  0  0  0  0  0  0  0
    0.8289  -50.2864  -19.9019 N   0  0  0  0  0  0  0  0  0  0  0  0
    1.4902  -49.1783  -19.3614 C   0  0  0  0  0  0  0  0  0  0  0  0
    1.9417  -48.2015  -20.0811 O   0  0  0  0  0  0  0  0  0  0  0  0
    0.8047  -49.6248  -21.0988 H   0  0  0  0  0  0  0  0  0  0  0  0
    1.7661  -48.9954  -17.9185 C   0  0  0  0  0  0  0  0  0  0  0  0
    2.0158  -49.9981  -17.1524 C   0  0  0  0  0  0  0  0  0  0  0  0
    2.2971  -49.8079  -15.6749 C   0  0  0  0  0  0  0  0  0  0  0  0
    2.6195  -51.0818  -15.1553 N   0  0  0  0  0  0  0  0  0  0  0  0
    1.7526  -51.6390  -14.1830 C   0  0  0  0  0  0  0  0  0  0  0  0
    2.5028  -51.5648  -12.8377 C   0  0  0  0  0  0  0  0  0  0  0  0
    3.7190  -52.4602  -12.8748 C   0  0  0  0  0  0  0  0  0  0  0  0
    4.1223  -52.7464  -14.3282 C   0  0  0  0  0  0  0  0  0  0  0  0
    3.9607  -51.5054  -15.1761 C   0  0  0  0  0  0  0  0  0  0  0  0
   -0.2940  -54.5401  -25.5928 C   0  0  0  0  0  0  0  0  0  0  0  0
   -0.1366  -54.7783  -26.7048 N   0  0  0  0  0  0  0  0  0  0  0  0
    0.7009  -52.0460  -24.4571 N   0  0  0  0  0  0  0  0  0  0  0  0
    0.0950  -51.4711  -25.1612 H   0  0  0  0  0  0  0  0  0  0  0  0
    2.0405  -51.6607  -24.4177 C   0  0  0  0  0  0  0  0  0  0  0  0
    3.0318  -52.6461  -24.2576 C   0  0  0  0  0  0  0  0  0  0  0  0
    4.3761  -52.3651  -24.2546 C   0  0  0  0  0  0  0  0  0  0  0  0
    4.7849  -51.0425  -24.4187 C   0  0  0  0  0  0  0  0  0  0  0  0
    3.8411  -50.0483  -24.5789 C   0  0  0  0  0  0  0  0  0  0  0  0
    4.3788  -48.3886  -24.7804 Cl  0  0  0  0  0  0  0  0  0  0  0  0
    2.4805  -50.3772  -24.5738 C   0  0  0  0  0  0  0  0  0  0  0  0
    6.1142  -50.6796  -24.4377 O   0  0  0  0  0  0  0  0  0  0  0  0
    6.9792  -50.6685  -23.3525 C   0  0  0  0  0  0  0  0  0  0  0  0
    6.4514  -49.8656  -22.2011 C   0  0  0  0  0  0  0  0  0  0  0  0
    5.7116  -50.4324  -21.1962 C   0  0  0  0  0  0  0  0  0  0  0  0
    5.2192  -49.7035  -20.1191 C   0  0  0  0  0  0  0  0  0  0  0  0
    5.4930  -48.3577  -20.0729 C   0  0  0  0  0  0  0  0  0  0  0  0
    6.2409  -47.7947  -21.0934 C   0  0  0  0  0  0  0  0  0  0  0  0
    6.7047  -48.5269  -22.1249 N   0  0  0  0  0  0  0  0  0  0  0  0
   -0.5809  -52.0468  -18.2787 O   0  0  0  0  0  0  0  0  0  0  0  0
   -1.6898  -51.8170  -16.2061 C   0  0  0  0  0  0  0  0  0  0  0  0
   -1.2358  -52.7710  -17.3084 C   0  0  0  0  0  0  0  0  0  0  0  0
 44 45  1  0  0  0
 45 43  1  0  0  0
 43  1  1  0  0  0
  1  2  2  0  0  0
  2  3  1  0  0  0
  3  4  2  0  0  0
  4  5  1  0  0  0
  5  6  2  0  0  0
  6 24  1  0  0  0
 24 25  3  0  0  0
  6  7  1  0  0  0
  7 26  1  0  0  0
 26 28  1  0  0  0
 28 29  2  0  0  0
 29 30  1  0  0  0
 30 31  2  0  0  0
 31 35  1  0  0  0
 35 36  1  0  0  0
 36 37  1  0  0  0
 37 38  2  0  0  0
 38 39  1  0  0  0
 39 40  2  0  0  0
 40 41  1  0  0  0
 41 42  2  0  0  0
 31 32  1  0  0  0
 32 33  1  0  0  0
 32 34  2  0  0  0
  7  8  2  0  0  0
  8  9  1  0  0  0
  9 10  2  0  0  0
 10 11  1  0  0  0
 11 12  1  0  0  0
 12 13  2  0  0  0
 12 15  1  0  0  0
 15 16  2  0  0  0
 16 17  1  0  0  0
 17 18  1  0  0  0
 18 19  1  0  0  0
 19 20  1  0  0  0
 20 21  1  0  0  0
 21 22  1  0  0  0
 22 23  1  0  0  0
 10  1  1  0  0  0
 23 18  1  0  0  0
  8  3  1  0  0  0
 34 28  1  0  0  0
 42 37  1  0  0  0
 26 27  1  0  0  0
 11 14  1  0  0  0
M  END
> <minimizedAffinity>
-8.14818

> <CNNscore>
0.4400128126

> <CNNaffinity>
7.6810317039

> <CNN_VS>
3.3797523975

> <CNNaffinity_variance>
0.3479080498

$$$$
[H]/C(C(=O)N([H])c1c(OC([H])([H])C([H])([H])[H])c([H])c2nc([H])c(C#N)c(N([H])c3c([H])c([H])c(OC([H])([H])c4nc([H])c([H])c([H])c4[H])c(Cl)c3[H])c2c1[H])=C(/[H])C([H])([H])N1C([H])([H])C([H])([H])C([H])([H])C([H])([H])C1([H])[H]


 45 49  0  0  0  0  0  0  0  0999 V2000
   -0.6054  -52.6764  -18.9354 C   0  0  0  0  0  0  0  0  0  0  0  0
   -1.0681  -53.7223  -19.6890 C   0  0  0  0  0  0  0  0  0  0  0  0
   -0.9276  -53.7683  -21.0636 C   0  0  0  0  0  0  0  0  0  0  0  0
   -1.3652  -54.8285  -21.7690 N   0  0  0  0  0  0  0  0  0  0  0  0
   -1.2231  -54.9348  -23.0985 C   0  0  0  0  0  0  0  0  0  0  0  0
   -0.5930  -53.8974  -23.7773 C   0  0  0  0  0  0  0  0  0  0  0  0
   -0.1237  -52.7882  -23.1386 C   0  0  0  0  0  0  0  0  0  0  0  0
   -0.3150  -52.7584  -21.7432 C   0  0  0  0  0  0  0  0  0  0  0  0
    0.1483  -51.7101  -21.0010 C   0  0  0  0  0  0  0  0  0  0  0  0
    0.0411  -51.5982  -19.5839 C   0  0  0  0  0  0  0  0  0  0  0  0
    0.6416  -50.6597  -18.9030 N   0  0  0  0  0  0  0  0  0  0  0  0
    1.2950  -49.6467  -18.1928 C   0  0  0  0  0  0  0  0  0  0  0  0
    2.0580  -48.7651  -18.7555 O   0  0  0  0  0  0  0  0  0  0  0  0
    1.0291  -50.0326  -20.0552 H   0  0  0  0  0  0  0  0  0  0  0  0
    1.2080  -49.4691  -16.7258 C   0  0  0  0  0  0  0  0  0  0  0  0
    0.0828  -49.2456  -16.1440 C   0  0  0  0  0  0  0  0  0  0  0  0
   -0.0031  -49.0633  -14.6414 C   0  0  0  0  0  0  0  0  0  0  0  0
   -1.3695  -48.8797  -14.3318 N   0  0  0  0  0  0  0  0  0  0  0  0
   -1.8631  -49.4666  -13.1405 C   0  0  0  0  0  0  0  0  0  0  0  0
   -2.7409  -50.6581  -13.5740 C   0  0  0  0  0  0  0  0  0  0  0  0
   -3.9521  -50.1601  -14.3269 C   0  0  0  0  0  0  0  0  0  0  0  0
   -3.6947  -48.7473  -14.8700 C   0  0  0  0  0  0  0  0  0  0  0  0
   -2.2758  -48.6262  -15.3773 C   0  0  0  0  0  0  0  0  0  0  0  0
   -0.3960  -53.9998  -25.1886 C   0  0  0  0  0  0  0  0  0  0  0  0
   -0.2577  -54.0885  -26.3249 N   0  0  0  0  0  0  0  0  0  0  0  0
    0.5667  -51.7014  -23.6749 N   0  0  0  0  0  0  0  0  0  0  0  0
   -0.0401  -51.0266  -24.2829 H   0  0  0  0  0  0  0  0  0  0  0  0
    1.9039  -51.3200  -23.5702 C   0  0  0  0  0  0  0  0  0  0  0  0
    2.9089  -52.2754  -23.8080 C   0  0  0  0  0  0  0  0  0  0  0  0
    4.2495  -51.9794  -23.7735 C   0  0  0  0  0  0  0  0  0  0  0  0
    4.6401  -50.6714  -23.4910 C   0  0  0  0  0  0  0  0  0  0  0  0
    3.6825  -49.7064  -23.2525 C   0  0  0  0  0  0  0  0  0  0  0  0
    4.1976  -48.0659  -22.8953 Cl  0  0  0  0  0  0  0  0  0  0  0  0
    2.3264  -50.0507  -23.2952 C   0  0  0  0  0  0  0  0  0  0  0  0
    5.9641  -50.2911  -23.4482 O   0  0  0  0  0  0  0  0  0  0  0  0
    6.8193  -50.1664  -24.5340 C   0  0  0  0  0  0  0  0  0  0  0  0
    6.8914  -48.7618  -25.0543 C   0  0  0  0  0  0  0  0  0  0  0  0
    7.5114  -47.7577  -24.3575 C   0  0  0  0  0  0  0  0  0  0  0  0
    7.5917  -46.4515  -24.8278 C   0  0  0  0  0  0  0  0  0  0  0  0
    7.0201  -46.1688  -26.0451 C   0  0  0  0  0  0  0  0  0  0  0  0
    6.3958  -47.1904  -26.7411 C   0  0  0  0  0  0  0  0  0  0  0  0
    6.3337  -48.4471  -26.2594 N   0  0  0  0  0  0  0  0  0  0  0  0
   -0.7650  -52.6590  -17.5820 O   0  0  0  0  0  0  0  0  0  0  0  0
   -2.9931  -52.9421  -16.8515 C   0  0  0  0  0  0  0  0  0  0  0  0
   -1.7349  -52.0789  -16.7959 C   0  0  0  0  0  0  0  0  0  0  0  0
 44 45  1  0  0  0
 45 43  1  0  0  0
 43  1  1  0  0  0
  1  2  2  0  0  0
  2  3  1  0  0  0
  3  4  2  0  0  0
  4  5  1  0  0  0
  5  6  2  0  0  0
  6 24  1  0  0  0
 24 25  3  0  0  0
  6  7  1  0  0  0
  7 26  1  0  0  0
 26 28  1  0  0  0
 28 29  2  0  0  0
 29 30  1  0  0  0
 30 31  2  0  0  0
 31 35  1  0  0  0
 35 36  1  0  0  0
 36 37  1  0  0  0
 37 38  2  0  0  0
 38 39  1  0  0  0
 39 40  2  0  0  0
 40 41  1  0  0  0
 41 42  2  0  0  0
 31 32  1  0  0  0
 32 33  1  0  0  0
 32 34  2  0  0  0
  7  8  2  0  0  0
  8  9  1  0  0  0
  9 10  2  0  0  0
 10 11  1  0  0  0
 11 12  1  0  0  0
 12 13  2  0  0  0
 12 15  1  0  0  0
 15 16  2  0  0  0
 16 17  1  0  0  0
 17 18  1  0  0  0
 18 19  1  0  0  0
 19 20  1  0  0  0
 20 21  1  0  0  0
 21 22  1  0  0  0
 22 23  1  0  0  0
 10  1  1  0  0  0
 23 18  1  0  0  0
  8  3  1  0  0  0
 34 28  1  0  0  0
 42 37  1  0  0  0
 26 27  1  0  0  0
 11 14  1  0  0  0
M  END
> <minimizedAffinity>
-7.50995

> <CNNscore>
0.4366620481

> <CNNaffinity>
7.6392745972

> <CNN_VS>
3.3357813358

> <CNNaffinity_variance>
0.1070434898

$$$$
[H]/C(C(=O)N([H])c1c(OC([H])([H])C([H])([H])[H])c([H])c2nc([H])c(C#N)c(N([H])c3c([H])c([H])c(OC([H])([H])c4nc([H])c([H])c([H])c4[H])c(Cl)c3[H])c2c1[H])=C(/[H])C([H])([H])N1C([H])([H])C([H])([H])C([H])([H])C([H])([H])C1([H])[H]


 45 49  0  0  0  0  0  0  0  0999 V2000
   -0.4951  -52.8222  -19.6696 C   0  0  0  0  0  0  0  0  0  0  0  0
   -0.9060  -53.9031  -20.4035 C   0  0  0  0  0  0  0  0  0  0  0  0
   -0.7949  -53.9528  -21.7807 C   0  0  0  0  0  0  0  0  0  0  0  0
   -1.1788  -55.0459  -22.4670 N   0  0  0  0  0  0  0  0  0  0  0  0
   -1.0611  -55.1553  -23.7987 C   0  0  0  0  0  0  0  0  0  0  0  0
   -0.5160  -54.0856  -24.5005 C   0  0  0  0  0  0  0  0  0  0  0  0
   -0.1053  -52.9422  -23.8820 C   0  0  0  0  0  0  0  0  0  0  0  0
   -0.2656  -52.9116  -22.4827 C   0  0  0  0  0  0  0  0  0  0  0  0
    0.1455  -51.8285  -21.7602 C   0  0  0  0  0  0  0  0  0  0  0  0
    0.0643  -51.7104  -20.3418 C   0  0  0  0  0  0  0  0  0  0  0  0
    0.6180  -50.7284  -19.6829 N   0  0  0  0  0  0  0  0  0  0  0  0
    1.2135  -49.6645  -18.9966 C   0  0  0  0  0  0  0  0  0  0  0  0
    1.5816  -48.5657  -19.5739 O   0  0  0  0  0  0  0  0  0  0  0  0
    0.5230  -49.9066  -20.7722 H   0  0  0  0  0  0  0  0  0  0  0  0
    1.5071  -49.6698  -17.5457 C   0  0  0  0  0  0  0  0  0  0  0  0
    0.6668  -49.2031  -16.6910 C   0  0  0  0  0  0  0  0  0  0  0  0
    0.9705  -49.2090  -15.2057 C   0  0  0  0  0  0  0  0  0  0  0  0
    0.0003  -48.3872  -14.5892 N   0  0  0  0  0  0  0  0  0  0  0  0
   -1.1623  -49.0097  -14.0714 C   0  0  0  0  0  0  0  0  0  0  0  0
   -2.3175  -48.6317  -15.0204 C   0  0  0  0  0  0  0  0  0  0  0  0
   -2.5752  -47.1447  -14.9534 C   0  0  0  0  0  0  0  0  0  0  0  0
   -1.3405  -46.4171  -14.4028 C   0  0  0  0  0  0  0  0  0  0  0  0
   -0.0746  -47.0311  -14.9556 C   0  0  0  0  0  0  0  0  0  0  0  0
   -0.3457  -54.1883  -25.9153 C   0  0  0  0  0  0  0  0  0  0  0  0
   -0.2252  -54.2576  -27.0549 N   0  0  0  0  0  0  0  0  0  0  0  0
    0.5000  -51.8180  -24.4433 N   0  0  0  0  0  0  0  0  0  0  0  0
   -0.1927  -51.0847  -24.8629 H   0  0  0  0  0  0  0  0  0  0  0  0
    1.8426  -51.4607  -24.5629 C   0  0  0  0  0  0  0  0  0  0  0  0
    2.1706  -50.1968  -25.0869 C   0  0  0  0  0  0  0  0  0  0  0  0
    3.4617  -49.7420  -25.1976 C   0  0  0  0  0  0  0  0  0  0  0  0
    4.5017  -50.5665  -24.7712 C   0  0  0  0  0  0  0  0  0  0  0  0
    4.2189  -51.8133  -24.2512 C   0  0  0  0  0  0  0  0  0  0  0  0
    5.5451  -52.8365  -23.7235 Cl  0  0  0  0  0  0  0  0  0  0  0  0
    2.8888  -52.2395  -24.1578 C   0  0  0  0  0  0  0  0  0  0  0  0
    5.8228  -50.1800  -24.8388 O   0  0  0  0  0  0  0  0  0  0  0  0
    6.3775  -49.0439  -24.2665 C   0  0  0  0  0  0  0  0  0  0  0  0
    6.1356  -48.9645  -22.7886 C   0  0  0  0  0  0  0  0  0  0  0  0
    6.7898  -49.7759  -21.8988 C   0  0  0  0  0  0  0  0  0  0  0  0
    6.5811  -49.7117  -20.5253 C   0  0  0  0  0  0  0  0  0  0  0  0
    5.6769  -48.7908  -20.0535 C   0  0  0  0  0  0  0  0  0  0  0  0
    5.0210  -47.9759  -20.9609 C   0  0  0  0  0  0  0  0  0  0  0  0
    5.2440  -48.0614  -22.2869 N   0  0  0  0  0  0  0  0  0  0  0  0
   -0.6240  -52.8024  -18.3128 O   0  0  0  0  0  0  0  0  0  0  0  0
   -1.6900  -51.9717  -16.3759 C   0  0  0  0  0  0  0  0  0  0  0  0
   -1.7246  -52.9947  -17.5088 C   0  0  0  0  0  0  0  0  0  0  0  0
 44 45  1  0  0  0
 45 43  1  0  0  0
 43  1  1  0  0  0
  1  2  2  0  0  0
  2  3  1  0  0  0
  3  4  2  0  0  0
  4  5  1  0  0  0
  5  6  2  0  0  0
  6 24  1  0  0  0
 24 25  3  0  0  0
  6  7  1  0  0  0
  7 26  1  0  0  0
 26 28  1  0  0  0
 28 29  2  0  0  0
 29 30  1  0  0  0
 30 31  2  0  0  0
 31 35  1  0  0  0
 35 36  1  0  0  0
 36 37  1  0  0  0
 37 38  2  0  0  0
 38 39  1  0  0  0
 39 40  2  0  0  0
 40 41  1  0  0  0
 41 42  2  0  0  0
 31 32  1  0  0  0
 32 33  1  0  0  0
 32 34  2  0  0  0
  7  8  2  0  0  0
  8  9  1  0  0  0
  9 10  2  0  0  0
 10 11  1  0  0  0
 11 12  1  0  0  0
 12 13  2  0  0  0
 12 15  1  0  0  0
 15 16  2  0  0  0
 16 17  1  0  0  0
 17 18  1  0  0  0
 18 19  1  0  0  0
 19 20  1  0  0  0
 20 21  1  0  0  0
 21 22  1  0  0  0
 22 23  1  0  0  0
 10  1  1  0  0  0
 23 18  1  0  0  0
  8  3  1  0  0  0
 34 28  1  0  0  0
 42 37  1  0  0  0
 26 27  1  0  0  0
 11 14  1  0  0  0
M  END
> <minimizedAffinity>
-7.70961

> <CNNscore>
0.4043351412

> <CNNaffinity>
7.6157059669

> <CNN_VS>
3.0792975426

> <CNNaffinity_variance>
0.3009658754

$$$$
[H]/C(C(=O)N([H])c1c(OC([H])([H])C([H])([H])[H])c([H])c2nc([H])c(C#N)c(N([H])c3c([H])c([H])c(OC([H])([H])c4nc([H])c([H])c([H])c4[H])c(Cl)c3[H])c2c1[H])=C(/[H])C([H])([H])N1C([H])([H])C([H])([H])C([H])([H])C([H])([H])C1([H])[H]


 45 49  0  0  0  0  0  0  0  0999 V2000
   -0.5279  -52.7544  -19.4144 C   0  0  0  0  0  0  0  0  0  0  0  0
   -0.9583  -53.8241  -20.1535 C   0  0  0  0  0  0  0  0  0  0  0  0
   -0.8300  -53.8779  -21.5289 C   0  0  0  0  0  0  0  0  0  0  0  0
   -1.2344  -54.9606  -22.2200 N   0  0  0  0  0  0  0  0  0  0  0  0
   -1.1017  -55.0743  -23.5499 C   0  0  0  0  0  0  0  0  0  0  0  0
   -0.5181  -54.0204  -24.2447 C   0  0  0  0  0  0  0  0  0  0  0  0
   -0.0846  -52.8882  -23.6211 C   0  0  0  0  0  0  0  0  0  0  0  0
   -0.2629  -52.8522  -22.2242 C   0  0  0  0  0  0  0  0  0  0  0  0
    0.1680  -51.7802  -21.4965 C   0  0  0  0  0  0  0  0  0  0  0  0
    0.0709  -51.6588  -20.0795 C   0  0  0  0  0  0  0  0  0  0  0  0
    0.6423  -50.6919  -19.4135 N   0  0  0  0  0  0  0  0  0  0  0  0
    1.2455  -49.6640  -18.6806 C   0  0  0  0  0  0  0  0  0  0  0  0
    1.1489  -49.5598  -17.3938 O   0  0  0  0  0  0  0  0  0  0  0  0
    0.3441  -51.2970  -18.2237 H   0  0  0  0  0  0  0  0  0  0  0  0
    2.0462  -48.5729  -19.2803 C   0  0  0  0  0  0  0  0  0  0  0  0
    3.3315  -48.5800  -19.2294 C   0  0  0  0  0  0  0  0  0  0  0  0
    4.1490  -47.4606  -19.8437 C   0  0  0  0  0  0  0  0  0  0  0  0
    4.4850  -46.5785  -18.7921 N   0  0  0  0  0  0  0  0  0  0  0  0
    5.1781  -47.1111  -17.6771 C   0  0  0  0  0  0  0  0  0  0  0  0
    4.1658  -47.1519  -16.5146 C   0  0  0  0  0  0  0  0  0  0  0  0
    3.7681  -45.7470  -16.1267 C   0  0  0  0  0  0  0  0  0  0  0  0
    4.0571  -44.7767  -17.2808 C   0  0  0  0  0  0  0  0  0  0  0  0
    3.7151  -45.4158  -18.6074 C   0  0  0  0  0  0  0  0  0  0  0  0
   -0.3316  -54.1288  -25.6570 C   0  0  0  0  0  0  0  0  0  0  0  0
   -0.1693  -54.2327  -26.7887 N   0  0  0  0  0  0  0  0  0  0  0  0
    0.5589  -51.7814  -24.1746 N   0  0  0  0  0  0  0  0  0  0  0  0
   -0.0782  -51.1380  -24.7858 H   0  0  0  0  0  0  0  0  0  0  0  0
    1.8807  -51.3466  -24.0837 C   0  0  0  0  0  0  0  0  0  0  0  0
    2.1381  -49.9999  -23.7681 C   0  0  0  0  0  0  0  0  0  0  0  0
    3.4054  -49.4944  -23.6117 C   0  0  0  0  0  0  0  0  0  0  0  0
    4.4933  -50.3515  -23.7708 C   0  0  0  0  0  0  0  0  0  0  0  0
    4.2801  -51.6795  -24.0804 C   0  0  0  0  0  0  0  0  0  0  0  0
    5.6655  -52.7402  -24.2796 Cl  0  0  0  0  0  0  0  0  0  0  0  0
    2.9721  -52.1539  -24.2332 C   0  0  0  0  0  0  0  0  0  0  0  0
    5.7950  -49.9248  -23.6204 O   0  0  0  0  0  0  0  0  0  0  0  0
    6.2424  -48.9404  -22.7504 C   0  0  0  0  0  0  0  0  0  0  0  0
    6.4360  -47.6161  -23.4268 C   0  0  0  0  0  0  0  0  0  0  0  0
    7.3264  -47.4465  -24.4547 C   0  0  0  0  0  0  0  0  0  0  0  0
    7.5144  -46.2269  -25.0961 C   0  0  0  0  0  0  0  0  0  0  0  0
    6.7692  -45.1536  -24.6705 C   0  0  0  0  0  0  0  0  0  0  0  0
    5.8726  -45.3355  -23.6309 C   0  0  0  0  0  0  0  0  0  0  0  0
    5.7123  -46.5299  -23.0285 N   0  0  0  0  0  0  0  0  0  0  0  0
   -0.6745  -52.7300  -18.0595 O   0  0  0  0  0  0  0  0  0  0  0  0
   -1.7289  -51.6374  -16.2506 C   0  0  0  0  0  0  0  0  0  0  0  0
   -1.8043  -52.7678  -17.2741 C   0  0  0  0  0  0  0  0  0  0  0  0
 44 45  1  0  0  0
 45 43  1  0  0  0
 43  1  1  0  0  0
  1  2  2  0  0  0
  2  3  1  0  0  0
  3  4  2  0  0  0
  4  5  1  0  0  0
  5  6  2  0  0  0
  6 24  1  0  0  0
 24 25  3  0  0  0
  6  7  1  0  0  0
  7 26  1  0  0  0
 26 28  1  0  0  0
 28 29  2  0  0  0
 29 30  1  0  0  0
 30 31  2  0  0  0
 31 35  1  0  0  0
 35 36  1  0  0  0
 36 37  1  0  0  0
 37 38  2  0  0  0
 38 39  1  0  0  0
 39 40  2  0  0  0
 40 41  1  0  0  0
 41 42  2  0  0  0
 31 32  1  0  0  0
 32 33  1  0  0  0
 32 34  2  0  0  0
  7  8  2  0  0  0
  8  9  1  0  0  0
  9 10  2  0  0  0
 10 11  1  0  0  0
 11 12  1  0  0  0
 12 13  2  0  0  0
 12 15  1  0  0  0
 15 16  2  0  0  0
 16 17  1  0  0  0
 17 18  1  0  0  0
 18 19  1  0  0  0
 19 20  1  0  0  0
 20 21  1  0  0  0
 21 22  1  0  0  0
 22 23  1  0  0  0
 10  1  1  0  0  0
 23 18  1  0  0  0
  8  3  1  0  0  0
 34 28  1  0  0  0
 42 37  1  0  0  0
 26 27  1  0  0  0
 11 14  1  0  0  0
M  END
> <minimizedAffinity>
-7.04318

> <CNNscore>
0.3582750261

> <CNNaffinity>
7.6384401321

> <CNN_VS>
2.7366623878

> <CNNaffinity_variance>
0.1892136782

$$$$
[H]/C(C(=O)N([H])c1c(OC([H])([H])C([H])([H])[H])c([H])c2nc([H])c(C#N)c(N([H])c3c([H])c([H])c(OC([H])([H])c4nc([H])c([H])c([H])c4[H])c(Cl)c3[H])c2c1[H])=C(/[H])C([H])([H])N1C([H])([H])C([H])([H])C([H])([H])C([H])([H])C1([H])[H]


 45 49  0  0  0  0  0  0  0  0999 V2000
   -0.7075  -52.6665  -18.7649 C   0  0  0  0  0  0  0  0  0  0  0  0
   -1.1473  -53.6093  -19.6557 C   0  0  0  0  0  0  0  0  0  0  0  0
   -0.8386  -53.5615  -21.0024 C   0  0  0  0  0  0  0  0  0  0  0  0
   -1.2607  -54.5244  -21.8439 N   0  0  0  0  0  0  0  0  0  0  0  0
   -0.9605  -54.5402  -23.1511 C   0  0  0  0  0  0  0  0  0  0  0  0
   -0.1754  -53.5102  -23.6577 C   0  0  0  0  0  0  0  0  0  0  0  0
    0.2901  -52.4962  -22.8742 C   0  0  0  0  0  0  0  0  0  0  0  0
   -0.0727  -52.5573  -21.5143 C   0  0  0  0  0  0  0  0  0  0  0  0
    0.3693  -51.6113  -20.6345 C   0  0  0  0  0  0  0  0  0  0  0  0
    0.0930  -51.5997  -19.2360 C   0  0  0  0  0  0  0  0  0  0  0  0
    0.6704  -50.7695  -18.4099 N   0  0  0  0  0  0  0  0  0  0  0  0
    1.2781  -49.8901  -17.5072 C   0  0  0  0  0  0  0  0  0  0  0  0
    1.0966  -49.9509  -16.2268 O   0  0  0  0  0  0  0  0  0  0  0  0
    0.2542  -51.5056  -17.3348 H   0  0  0  0  0  0  0  0  0  0  0  0
    2.1807  -48.7848  -17.9010 C   0  0  0  0  0  0  0  0  0  0  0  0
    2.3996  -48.5078  -19.1379 C   0  0  0  0  0  0  0  0  0  0  0  0
    3.3252  -47.3758  -19.5383 C   0  0  0  0  0  0  0  0  0  0  0  0
    3.4237  -47.4105  -20.9475 N   0  0  0  0  0  0  0  0  0  0  0  0
    4.4239  -46.6165  -21.5610 C   0  0  0  0  0  0  0  0  0  0  0  0
    3.6907  -45.4429  -22.2418 C   0  0  0  0  0  0  0  0  0  0  0  0
    2.8208  -45.9589  -23.3638 C   0  0  0  0  0  0  0  0  0  0  0  0
    2.5267  -47.4523  -23.1627 C   0  0  0  0  0  0  0  0  0  0  0  0
    2.2857  -47.7516  -21.7007 C   0  0  0  0  0  0  0  0  0  0  0  0
    0.1897  -53.5203  -25.0389 C   0  0  0  0  0  0  0  0  0  0  0  0
    0.4681  -53.5429  -26.1524 N   0  0  0  0  0  0  0  0  0  0  0  0
    1.1206  -51.4331  -23.2285 N   0  0  0  0  0  0  0  0  0  0  0  0
    0.5977  -50.5205  -23.5239 H   0  0  0  0  0  0  0  0  0  0  0  0
    2.5104  -51.3275  -23.2709 C   0  0  0  0  0  0  0  0  0  0  0  0
    3.1784  -51.5676  -24.4857 C   0  0  0  0  0  0  0  0  0  0  0  0
    4.5380  -51.4413  -24.6325 C   0  0  0  0  0  0  0  0  0  0  0  0
    5.2984  -51.0562  -23.5295 C   0  0  0  0  0  0  0  0  0  0  0  0
    4.6783  -50.8116  -22.3210 C   0  0  0  0  0  0  0  0  0  0  0  0
    5.6565  -50.3309  -20.9440 Cl  0  0  0  0  0  0  0  0  0  0  0  0
    3.2899  -50.9540  -22.2135 C   0  0  0  0  0  0  0  0  0  0  0  0
    6.6657  -50.8970  -23.5971 O   0  0  0  0  0  0  0  0  0  0  0  0
    7.3658  -50.2066  -24.5766 C   0  0  0  0  0  0  0  0  0  0  0  0
    7.0077  -48.7512  -24.6253 C   0  0  0  0  0  0  0  0  0  0  0  0
    6.0586  -48.2629  -25.4849 C   0  0  0  0  0  0  0  0  0  0  0  0
    5.7111  -46.9175  -25.5393 C   0  0  0  0  0  0  0  0  0  0  0  0
    6.3551  -46.0509  -24.6893 C   0  0  0  0  0  0  0  0  0  0  0  0
    7.3128  -46.5543  -23.8248 C   0  0  0  0  0  0  0  0  0  0  0  0
    7.6285  -47.8637  -23.7951 N   0  0  0  0  0  0  0  0  0  0  0  0
   -1.0346  -52.7394  -17.4437 O   0  0  0  0  0  0  0  0  0  0  0  0
   -1.7950  -51.5870  -15.5275 C   0  0  0  0  0  0  0  0  0  0  0  0
   -2.1823  -52.3735  -16.7776 C   0  0  0  0  0  0  0  0  0  0  0  0
 44 45  1  0  0  0
 45 43  1  0  0  0
 43  1  1  0  0  0
  1  2  2  0  0  0
  2  3  1  0  0  0
  3  4  2  0  0  0
  4  5  1  0  0  0
  5  6  2  0  0  0
  6 24  1  0  0  0
 24 25  3  0  0  0
  6  7  1  0  0  0
  7 26  1  0  0  0
 26 28  1  0  0  0
 28 29  2  0  0  0
 29 30  1  0  0  0
 30 31  2  0  0  0
 31 35  1  0  0  0
 35 36  1  0  0  0
 36 37  1  0  0  0
 37 38  2  0  0  0
 38 39  1  0  0  0
 39 40  2  0  0  0
 40 41  1  0  0  0
 41 42  2  0  0  0
 31 32  1  0  0  0
 32 33  1  0  0  0
 32 34  2  0  0  0
  7  8  2  0  0  0
  8  9  1  0  0  0
  9 10  2  0  0  0
 10 11  1  0  0  0
 11 12  1  0  0  0
 12 13  2  0  0  0
 12 15  1  0  0  0
 15 16  2  0  0  0
 16 17  1  0  0  0
 17 18  1  0  0  0
 18 19  1  0  0  0
 19 20  1  0  0  0
 20 21  1  0  0  0
 21 22  1  0  0  0
 22 23  1  0  0  0
 10  1  1  0  0  0
 23 18  1  0  0  0
  8  3  1  0  0  0
 34 28  1  0  0  0
 42 37  1  0  0  0
 26 27  1  0  0  0
 11 14  1  0  0  0
M  END
> <minimizedAffinity>
-6.88869

> <CNNscore>
0.3383303583

> <CNNaffinity>
7.7722268105

> <CNN_VS>
2.6295802593

> <CNNaffinity_variance>
0.0904501826

$$$$
[H]/C(C(=O)N([H])c1c(OC([H])([H])C([H])([H])[H])c([H])c2nc([H])c(C#N)c(N([H])c3c([H])c([H])c(OC([H])([H])c4nc([H])c([H])c([H])c4[H])c(Cl)c3[H])c2c1[H])=C(/[H])C([H])([H])N1C([H])([H])C([H])([H])C([H])([H])C([H])([H])C1([H])[H]


 45 49  0  0  0  0  0  0  0  0999 V2000
   -0.6683  -52.8078  -19.3407 C   0  0  0  0  0  0  0  0  0  0  0  0
   -1.0733  -53.8705  -20.1039 C   0  0  0  0  0  0  0  0  0  0  0  0
   -0.9195  -53.9014  -21.4774 C   0  0  0  0  0  0  0  0  0  0  0  0
   -1.2991  -54.9776  -22.1924 N   0  0  0  0  0  0  0  0  0  0  0  0
   -1.1412  -55.0690  -23.5212 C   0  0  0  0  0  0  0  0  0  0  0  0
   -0.5568  -53.9982  -24.1889 C   0  0  0  0  0  0  0  0  0  0  0  0
   -0.1474  -52.8712  -23.5402 C   0  0  0  0  0  0  0  0  0  0  0  0
   -0.3513  -52.8589  -22.1463 C   0  0  0  0  0  0  0  0  0  0  0  0
    0.0542  -51.7937  -21.3945 C   0  0  0  0  0  0  0  0  0  0  0  0
   -0.0699  -51.6955  -19.9778 C   0  0  0  0  0  0  0  0  0  0  0  0
    0.4786  -50.7329  -19.2867 N   0  0  0  0  0  0  0  0  0  0  0  0
    1.0531  -49.7072  -18.5282 C   0  0  0  0  0  0  0  0  0  0  0  0
    0.7509  -49.4873  -17.2888 O   0  0  0  0  0  0  0  0  0  0  0  0
   -0.0792  -51.2065  -18.1311 H   0  0  0  0  0  0  0  0  0  0  0  0
    2.0541  -48.7481  -19.0475 C   0  0  0  0  0  0  0  0  0  0  0  0
    2.2846  -48.6381  -20.3082 C   0  0  0  0  0  0  0  0  0  0  0  0
    3.3111  -47.6557  -20.8371 C   0  0  0  0  0  0  0  0  0  0  0  0
    4.5657  -48.0696  -20.3360 N   0  0  0  0  0  0  0  0  0  0  0  0
    5.3802  -47.0972  -19.7047 C   0  0  0  0  0  0  0  0  0  0  0  0
    6.5401  -46.8034  -20.6775 C   0  0  0  0  0  0  0  0  0  0  0  0
    7.4044  -48.0322  -20.8365 C   0  0  0  0  0  0  0  0  0  0  0  0
    6.6202  -49.2880  -20.4302 C   0  0  0  0  0  0  0  0  0  0  0  0
    5.1885  -49.1946  -20.9065 C   0  0  0  0  0  0  0  0  0  0  0  0
   -0.3435  -54.0825  -25.5990 C   0  0  0  0  0  0  0  0  0  0  0  0
   -0.1825  -54.1320  -26.7347 N   0  0  0  0  0  0  0  0  0  0  0  0
    0.4936  -51.7490  -24.0647 N   0  0  0  0  0  0  0  0  0  0  0  0
   -0.1731  -50.9360  -24.3614 H   0  0  0  0  0  0  0  0  0  0  0  0
    1.8449  -51.4783  -24.2773 C   0  0  0  0  0  0  0  0  0  0  0  0
    2.2143  -50.2494  -24.8543 C   0  0  0  0  0  0  0  0  0  0  0  0
    3.5208  -49.8780  -25.0575 C   0  0  0  0  0  0  0  0  0  0  0  0
    4.5343  -50.7553  -24.6750 C   0  0  0  0  0  0  0  0  0  0  0  0
    4.2106  -51.9700  -24.1053 C   0  0  0  0  0  0  0  0  0  0  0  0
    5.5038  -53.0610  -23.6343 Cl  0  0  0  0  0  0  0  0  0  0  0  0
    2.8660  -52.3109  -23.9177 C   0  0  0  0  0  0  0  0  0  0  0  0
    5.8693  -50.4530  -24.8352 O   0  0  0  0  0  0  0  0  0  0  0  0
    6.5711  -49.4538  -24.1755 C   0  0  0  0  0  0  0  0  0  0  0  0
    6.6201  -48.1724  -24.9530 C   0  0  0  0  0  0  0  0  0  0  0  0
    6.3118  -46.9637  -24.3853 C   0  0  0  0  0  0  0  0  0  0  0  0
    6.3572  -45.7659  -25.0904 C   0  0  0  0  0  0  0  0  0  0  0  0
    6.7283  -45.8104  -26.4128 C   0  0  0  0  0  0  0  0  0  0  0  0
    7.0375  -47.0368  -26.9769 C   0  0  0  0  0  0  0  0  0  0  0  0
    6.9843  -48.1813  -26.2681 N   0  0  0  0  0  0  0  0  0  0  0  0
   -0.8397  -52.8061  -17.9886 O   0  0  0  0  0  0  0  0  0  0  0  0
   -1.8864  -51.7690  -16.1427 C   0  0  0  0  0  0  0  0  0  0  0  0
   -1.9844  -52.8418  -17.2248 C   0  0  0  0  0  0  0  0  0  0  0  0
 44 45  1  0  0  0
 45 43  1  0  0  0
 43  1  1  0  0  0
  1  2  2  0  0  0
  2  3  1  0  0  0
  3  4  2  0  0  0
  4  5  1  0  0  0
  5  6  2  0  0  0
  6 24  1  0  0  0
 24 25  3  0  0  0
  6  7  1  0  0  0
  7 26  1  0  0  0
 26 28  1  0  0  0
 28 29  2  0  0  0
 29 30  1  0  0  0
 30 31  2  0  0  0
 31 35  1  0  0  0
 35 36  1  0  0  0
 36 37  1  0  0  0
 37 38  2  0  0  0
 38 39  1  0  0  0
 39 40  2  0  0  0
 40 41  1  0  0  0
 41 42  2  0  0  0
 31 32  1  0  0  0
 32 33  1  0  0  0
 32 34  2  0  0  0
  7  8  2  0  0  0
  8  9  1  0  0  0
  9 10  2  0  0  0
 10 11  1  0  0  0
 11 12  1  0  0  0
 12 13  2  0  0  0
 12 15  1  0  0  0
 15 16  2  0  0  0
 16 17  1  0  0  0
 17 18  1  0  0  0
 18 19  1  0  0  0
 19 20  1  0  0  0
 20 21  1  0  0  0
 21 22  1  0  0  0
 22 23  1  0  0  0
 10  1  1  0  0  0
 23 18  1  0  0  0
  8  3  1  0  0  0
 34 28  1  0  0  0
 42 37  1  0  0  0
 26 27  1  0  0  0
 11 14  1  0  0  0
M  END
> <minimizedAffinity>
-7.24336

> <CNNscore>
0.3363123834

> <CNNaffinity>
7.7554044724

> <CNN_VS>
2.6082384586

> <CNNaffinity_variance>
0.2958562076

$$$$
[H]c1nc(N([H])c2c([H])c([H])c(OC([H])([H])c3c([H])c([H])c([H])c(F)c3[H])c(Cl)c2[H])c2c(n1)c([H])c([H])n2[H]


 28 31  0  0  0  0  0  0  0  0999 V2000
   -0.5285  -52.7315  -22.8285 C   0  0  0  0  0  0  0  0  0  0  0  0
   -0.1946  -51.6932  -21.9920 C   0  0  0  0  0  0  0  0  0  0  0  0
   -0.1664  -51.8864  -20.6343 C   0  0  0  0  0  0  0  0  0  0  0  0
   -0.4645  -53.1104  -20.0198 C   0  0  0  0  0  0  0  0  0  0  0  0
   -0.7945  -54.1327  -20.8728 C   0  0  0  0  0  0  0  0  0  0  0  0
   -0.8272  -53.9469  -22.2667 C   0  0  0  0  0  0  0  0  0  0  0  0
   -1.2527  -55.2730  -23.3189 Cl  0  0  0  0  0  0  0  0  0  0  0  0
   -0.3964  -53.2241  -18.6325 N   0  0  0  0  0  0  0  0  0  0  0  0
   -0.1264  -54.2046  -18.2629 H   0  0  0  0  0  0  0  0  0  0  0  0
   -0.6276  -52.2752  -17.6398 C   0  0  0  0  0  0  0  0  0  0  0  0
    0.2168  -51.3003  -17.2802 N   0  0  0  0  0  0  0  0  0  0  0  0
   -0.0308  -50.4071  -16.3072 C   0  0  0  0  0  0  0  0  0  0  0  0
   -1.1849  -50.4381  -15.6086 N   0  0  0  0  0  0  0  0  0  0  0  0
   -2.0957  -51.3897  -15.9051 C   0  0  0  0  0  0  0  0  0  0  0  0
   -3.3518  -51.6632  -15.3641 C   0  0  0  0  0  0  0  0  0  0  0  0
   -3.8158  -52.7531  -16.0688 C   0  0  0  0  0  0  0  0  0  0  0  0
   -2.8771  -53.1143  -16.9903 N   0  0  0  0  0  0  0  0  0  0  0  0
   -1.8220  -52.2946  -16.9051 C   0  0  0  0  0  0  0  0  0  0  0  0
   -2.9374  -53.9034  -17.6741 H   0  0  0  0  0  0  0  0  0  0  0  0
   -0.5532  -52.5199  -24.2028 O   0  0  0  0  0  0  0  0  0  0  0  0
    0.5538  -52.7505  -25.0331 C   0  0  0  0  0  0  0  0  0  0  0  0
   -2.9836  -52.3383  -28.3578 F   0  0  0  0  0  0  0  0  0  0  0  0
   -1.6812  -52.5709  -28.0752 C   0  0  0  0  0  0  0  0  0  0  0  0
   -0.7597  -52.8394  -29.0861 C   0  0  0  0  0  0  0  0  0  0  0  0
    0.5617  -53.0734  -28.7767 C   0  0  0  0  0  0  0  0  0  0  0  0
    0.9740  -53.0419  -27.4621 C   0  0  0  0  0  0  0  0  0  0  0  0
    0.0878  -52.7793  -26.4384 C   0  0  0  0  0  0  0  0  0  0  0  0
   -1.2231  -52.5489  -26.7663 C   0  0  0  0  0  0  0  0  0  0  0  0
 22 23  1  0  0  0
 23 24  2  0  0  0
 24 25  1  0  0  0
 25 26  2  0  0  0
 26 27  1  0  0  0
 27 21  1  0  0  0
 21 20  1  0  0  0
 20  1  1  0  0  0
  1  2  2  0  0  0
  2  3  1  0  0  0
  3  4  2  0  0  0
  4  8  1  0  0  0
  8 10  1  0  0  0
 10 11  2  0  0  0
 11 12  1  0  0  0
 12 13  2  0  0  0
 13 14  1  0  0  0
 14 15  1  0  0  0
 15 16  2  0  0  0
 16 17  1  0  0  0
 17 18  1  0  0  0
  4  5  1  0  0  0
  5  6  2  0  0  0
  6  7  1  0  0  0
 27 28  2  0  0  0
 28 23  1  0  0  0
  6  1  1  0  0  0
 18 10  1  0  0  0
 18 14  2  0  0  0
  8  9  1  0  0  0
 17 19  1  0  0  0
M  END
> <minimizedAffinity>
-8.85313

> <CNNscore>
0.6898839474

> <CNNaffinity>
6.8823914528

> <CNN_VS>
4.7480511665

> <CNNaffinity_variance>
0.0257328451

$$$$
[H]c1nc(N([H])c2c([H])c([H])c(OC([H])([H])c3c([H])c([H])c([H])c(F)c3[H])c(Cl)c2[H])c2c(n1)c([H])c([H])n2[H]


 28 31  0  0  0  0  0  0  0  0999 V2000
   -0.4912  -52.6436  -22.7497 C   0  0  0  0  0  0  0  0  0  0  0  0
   -0.1384  -51.6393  -21.8801 C   0  0  0  0  0  0  0  0  0  0  0  0
   -0.1434  -51.8680  -20.5277 C   0  0  0  0  0  0  0  0  0  0  0  0
   -0.4951  -53.0963  -19.9513 C   0  0  0  0  0  0  0  0  0  0  0  0
   -0.8432  -54.0843  -20.8367 C   0  0  0  0  0  0  0  0  0  0  0  0
   -0.8423  -53.8619  -22.2257 C   0  0  0  0  0  0  0  0  0  0  0  0
   -1.2923  -55.1450  -23.3201 Cl  0  0  0  0  0  0  0  0  0  0  0  0
   -0.4580  -53.2477  -18.5664 N   0  0  0  0  0  0  0  0  0  0  0  0
    0.3002  -53.9255  -18.1968 H   0  0  0  0  0  0  0  0  0  0  0  0
   -1.2484  -52.6686  -17.5767 C   0  0  0  0  0  0  0  0  0  0  0  0
   -2.4778  -53.0676  -17.2270 N   0  0  0  0  0  0  0  0  0  0  0  0
   -3.2211  -52.4781  -16.2753 C   0  0  0  0  0  0  0  0  0  0  0  0
   -2.7592  -51.4116  -15.5896 N   0  0  0  0  0  0  0  0  0  0  0  0
   -1.5266  -50.9413  -15.8775 C   0  0  0  0  0  0  0  0  0  0  0  0
   -0.7994  -49.8767  -15.3457 C   0  0  0  0  0  0  0  0  0  0  0  0
    0.3950  -49.8797  -16.0334 C   0  0  0  0  0  0  0  0  0  0  0  0
    0.3810  -50.9019  -16.9366 N   0  0  0  0  0  0  0  0  0  0  0  0
   -0.7822  -51.5598  -16.8558 C   0  0  0  0  0  0  0  0  0  0  0  0
    1.1424  -51.1618  -17.6049 H   0  0  0  0  0  0  0  0  0  0  0  0
   -0.4818  -52.3962  -24.1183 O   0  0  0  0  0  0  0  0  0  0  0  0
    0.6328  -52.6430  -24.9334 C   0  0  0  0  0  0  0  0  0  0  0  0
   -2.8827  -52.3574  -28.2944 F   0  0  0  0  0  0  0  0  0  0  0  0
   -1.5816  -52.5759  -27.9950 C   0  0  0  0  0  0  0  0  0  0  0  0
   -0.6524  -52.8761  -28.9898 C   0  0  0  0  0  0  0  0  0  0  0  0
    0.6676  -53.0950  -28.6635 C   0  0  0  0  0  0  0  0  0  0  0  0
    1.0707  -53.0168  -27.3480 C   0  0  0  0  0  0  0  0  0  0  0  0
    0.1767  -52.7219  -26.3400 C   0  0  0  0  0  0  0  0  0  0  0  0
   -1.1327  -52.5072  -26.6846 C   0  0  0  0  0  0  0  0  0  0  0  0
 22 23  1  0  0  0
 23 24  2  0  0  0
 24 25  1  0  0  0
 25 26  2  0  0  0
 26 27  1  0  0  0
 27 21  1  0  0  0
 21 20  1  0  0  0
 20  1  1  0  0  0
  1  2  2  0  0  0
  2  3  1  0  0  0
  3  4  2  0  0  0
  4  8  1  0  0  0
  8 10  1  0  0  0
 10 11  2  0  0  0
 11 12  1  0  0  0
 12 13  2  0  0  0
 13 14  1  0  0  0
 14 15  1  0  0  0
 15 16  2  0  0  0
 16 17  1  0  0  0
 17 18  1  0  0  0
  4  5  1  0  0  0
  5  6  2  0  0  0
  6  7  1  0  0  0
 27 28  2  0  0  0
 28 23  1  0  0  0
  6  1  1  0  0  0
 18 10  1  0  0  0
 18 14  2  0  0  0
  8  9  1  0  0  0
 17 19  1  0  0  0
M  END
> <minimizedAffinity>
-8.64745

> <CNNscore>
0.6802693605

> <CNNaffinity>
6.7995376587

> <CNN_VS>
4.6255173683

> <CNNaffinity_variance>
0.0973419696

$$$$
[H]c1nc(N([H])c2c([H])c([H])c(OC([H])([H])c3c([H])c([H])c([H])c(F)c3[H])c(Cl)c2[H])c2c(n1)c([H])c([H])n2[H]


 28 31  0  0  0  0  0  0  0  0999 V2000
   -0.1947  -52.4159  -22.5652 C   0  0  0  0  0  0  0  0  0  0  0  0
   -0.8265  -53.5575  -22.1331 C   0  0  0  0  0  0  0  0  0  0  0  0
   -0.9461  -53.8105  -20.7903 C   0  0  0  0  0  0  0  0  0  0  0  0
   -0.4521  -52.9568  -19.7944 C   0  0  0  0  0  0  0  0  0  0  0  0
    0.1742  -51.8236  -20.2474 C   0  0  0  0  0  0  0  0  0  0  0  0
    0.3033  -51.5533  -21.6218 C   0  0  0  0  0  0  0  0  0  0  0  0
    1.1077  -50.1002  -22.1584 Cl  0  0  0  0  0  0  0  0  0  0  0  0
   -0.6305  -53.2828  -18.4512 N   0  0  0  0  0  0  0  0  0  0  0  0
   -0.0112  -54.0919  -18.0869 H   0  0  0  0  0  0  0  0  0  0  0  0
   -1.4870  -52.7359  -17.4989 C   0  0  0  0  0  0  0  0  0  0  0  0
   -2.7417  -53.1356  -17.2567 N   0  0  0  0  0  0  0  0  0  0  0  0
   -3.5484  -52.5773  -16.3384 C   0  0  0  0  0  0  0  0  0  0  0  0
   -3.1299  -51.5444  -15.5775 N   0  0  0  0  0  0  0  0  0  0  0  0
   -1.8760  -51.0760  -15.7549 C   0  0  0  0  0  0  0  0  0  0  0  0
   -1.1817  -50.0417  -15.1280 C   0  0  0  0  0  0  0  0  0  0  0  0
    0.0600  -50.0296  -15.7261 C   0  0  0  0  0  0  0  0  0  0  0  0
    0.1045  -51.0141  -16.6692 N   0  0  0  0  0  0  0  0  0  0  0  0
   -1.0664  -51.6622  -16.7008 C   0  0  0  0  0  0  0  0  0  0  0  0
    0.9110  -51.2548  -17.2902 H   0  0  0  0  0  0  0  0  0  0  0  0
   -0.0809  -52.1735  -23.9299 O   0  0  0  0  0  0  0  0  0  0  0  0
    0.6797  -52.9794  -24.7900 C   0  0  0  0  0  0  0  0  0  0  0  0
   -3.0612  -52.2042  -27.8134 F   0  0  0  0  0  0  0  0  0  0  0  0
   -1.7469  -52.4755  -27.6429 C   0  0  0  0  0  0  0  0  0  0  0  0
   -0.8979  -52.6493  -28.7349 C   0  0  0  0  0  0  0  0  0  0  0  0
    0.4372  -52.9248  -28.5393 C   0  0  0  0  0  0  0  0  0  0  0  0
    0.9352  -53.0291  -27.2586 C   0  0  0  0  0  0  0  0  0  0  0  0
    0.1222  -52.8628  -26.1569 C   0  0  0  0  0  0  0  0  0  0  0  0
   -1.2037  -52.5891  -26.3719 C   0  0  0  0  0  0  0  0  0  0  0  0
 22 23  1  0  0  0
 23 24  2  0  0  0
 24 25  1  0  0  0
 25 26  2  0  0  0
 26 27  1  0  0  0
 27 21  1  0  0  0
 21 20  1  0  0  0
 20  1  1  0  0  0
  1  2  2  0  0  0
  2  3  1  0  0  0
  3  4  2  0  0  0
  4  8  1  0  0  0
  8 10  1  0  0  0
 10 11  2  0  0  0
 11 12  1  0  0  0
 12 13  2  0  0  0
 13 14  1  0  0  0
 14 15  1  0  0  0
 15 16  2  0  0  0
 16 17  1  0  0  0
 17 18  1  0  0  0
  4  5  1  0  0  0
  5  6  2  0  0  0
  6  7  1  0  0  0
 27 28  2  0  0  0
 28 23  1  0  0  0
  6  1  1  0  0  0
 18 10  1  0  0  0
 18 14  2  0  0  0
  8  9  1  0  0  0
 17 19  1  0  0  0
M  END
> <minimizedAffinity>
-8.38469

> <CNNscore>
0.6284341812

> <CNNaffinity>
6.7681198120

> <CNN_VS>
4.2533178329

> <CNNaffinity_variance>
0.0465080515

$$$$
[H]c1nc(N([H])c2c([H])c([H])c(OC([H])([H])c3c([H])c([H])c([H])c(F)c3[H])c(Cl)c2[H])c2c(n1)c([H])c([H])n2[H]


 28 31  0  0  0  0  0  0  0  0999 V2000
    0.2041  -53.0668  -22.9049 C   0  0  0  0  0  0  0  0  0  0  0  0
    0.6892  -52.1468  -22.0063 C   0  0  0  0  0  0  0  0  0  0  0  0
    0.4025  -52.2733  -20.6709 C   0  0  0  0  0  0  0  0  0  0  0  0
   -0.3770  -53.3106  -20.1411 C   0  0  0  0  0  0  0  0  0  0  0  0
   -0.8504  -54.2175  -21.0548 C   0  0  0  0  0  0  0  0  0  0  0  0
   -0.5636  -54.0983  -22.4268 C   0  0  0  0  0  0  0  0  0  0  0  0
   -1.1853  -55.2729  -23.5584 Cl  0  0  0  0  0  0  0  0  0  0  0  0
   -0.6069  -53.3728  -18.7679 N   0  0  0  0  0  0  0  0  0  0  0  0
   -0.7223  -54.3702  -18.3644 H   0  0  0  0  0  0  0  0  0  0  0  0
   -0.7189  -52.3518  -17.8274 C   0  0  0  0  0  0  0  0  0  0  0  0
    0.1784  -51.3798  -17.6203 N   0  0  0  0  0  0  0  0  0  0  0  0
    0.0469  -50.4153  -16.6939 C   0  0  0  0  0  0  0  0  0  0  0  0
   -1.0341  -50.3645  -15.8878 N   0  0  0  0  0  0  0  0  0  0  0  0
   -1.9908  -51.3071  -16.0277 C   0  0  0  0  0  0  0  0  0  0  0  0
   -3.1940  -51.5060  -15.3511 C   0  0  0  0  0  0  0  0  0  0  0  0
   -3.7489  -52.6275  -15.9291 C   0  0  0  0  0  0  0  0  0  0  0  0
   -2.9128  -53.0782  -16.9082 N   0  0  0  0  0  0  0  0  0  0  0  0
   -1.8362  -52.2860  -16.9825 C   0  0  0  0  0  0  0  0  0  0  0  0
   -3.0572  -53.9102  -17.5253 H   0  0  0  0  0  0  0  0  0  0  0  0
    0.5030  -52.9248  -24.2558 O   0  0  0  0  0  0  0  0  0  0  0  0
    0.3110  -51.7274  -24.9608 C   0  0  0  0  0  0  0  0  0  0  0  0
    0.1194  -52.9116  -29.6828 F   0  0  0  0  0  0  0  0  0  0  0  0
   -0.5337  -52.6142  -28.5360 C   0  0  0  0  0  0  0  0  0  0  0  0
   -1.9263  -52.5820  -28.4856 C   0  0  0  0  0  0  0  0  0  0  0  0
   -2.5716  -52.2769  -27.3078 C   0  0  0  0  0  0  0  0  0  0  0  0
   -1.8367  -52.0023  -26.1747 C   0  0  0  0  0  0  0  0  0  0  0  0
   -0.4578  -52.0257  -26.1908 C   0  0  0  0  0  0  0  0  0  0  0  0
    0.1662  -52.3316  -27.3725 C   0  0  0  0  0  0  0  0  0  0  0  0
 22 23  1  0  0  0
 23 24  2  0  0  0
 24 25  1  0  0  0
 25 26  2  0  0  0
 26 27  1  0  0  0
 27 21  1  0  0  0
 21 20  1  0  0  0
 20  1  1  0  0  0
  1  2  2  0  0  0
  2  3  1  0  0  0
  3  4  2  0  0  0
  4  8  1  0  0  0
  8 10  1  0  0  0
 10 11  2  0  0  0
 11 12  1  0  0  0
 12 13  2  0  0  0
 13 14  1  0  0  0
 14 15  1  0  0  0
 15 16  2  0  0  0
 16 17  1  0  0  0
 17 18  1  0  0  0
  4  5  1  0  0  0
  5  6  2  0  0  0
  6  7  1  0  0  0
 27 28  2  0  0  0
 28 23  1  0  0  0
  6  1  1  0  0  0
 18 10  1  0  0  0
 18 14  2  0  0  0
  8  9  1  0  0  0
 17 19  1  0  0  0
M  END
> <minimizedAffinity>
-8.96728

> <CNNscore>
0.5952264071

> <CNNaffinity>
6.8130364418

> <CNN_VS>
4.0552992821

> <CNNaffinity_variance>
0.0757973045

$$$$
[H]c1nc(N([H])c2c([H])c([H])c(OC([H])([H])c3c([H])c([H])c([H])c(F)c3[H])c(Cl)c2[H])c2c(n1)c([H])c([H])n2[H]


 28 31  0  0  0  0  0  0  0  0999 V2000
   -0.3434  -52.4893  -22.5392 C   0  0  0  0  0  0  0  0  0  0  0  0
   -1.0308  -53.5546  -22.0083 C   0  0  0  0  0  0  0  0  0  0  0  0
   -1.0837  -53.7296  -20.6489 C   0  0  0  0  0  0  0  0  0  0  0  0
   -0.4647  -52.8685  -19.7325 C   0  0  0  0  0  0  0  0  0  0  0  0
    0.2152  -51.8122  -20.2834 C   0  0  0  0  0  0  0  0  0  0  0  0
    0.2770  -51.6222  -21.6759 C   0  0  0  0  0  0  0  0  0  0  0  0
    1.1530  -50.2656  -22.3383 Cl  0  0  0  0  0  0  0  0  0  0  0  0
   -0.5817  -53.1115  -18.3652 N   0  0  0  0  0  0  0  0  0  0  0  0
   -0.4465  -54.1428  -18.0670 H   0  0  0  0  0  0  0  0  0  0  0  0
   -0.8527  -52.2367  -17.3160 C   0  0  0  0  0  0  0  0  0  0  0  0
   -0.0153  -51.3072  -16.8390 N   0  0  0  0  0  0  0  0  0  0  0  0
   -0.3024  -50.4862  -15.8146 C   0  0  0  0  0  0  0  0  0  0  0  0
   -1.4925  -50.5495  -15.1817 N   0  0  0  0  0  0  0  0  0  0  0  0
   -2.3992  -51.4595  -15.5977 C   0  0  0  0  0  0  0  0  0  0  0  0
   -3.6860  -51.7510  -15.1457 C   0  0  0  0  0  0  0  0  0  0  0  0
   -4.1266  -52.7757  -15.9552 C   0  0  0  0  0  0  0  0  0  0  0  0
   -3.1450  -53.0826  -16.8514 N   0  0  0  0  0  0  0  0  0  0  0  0
   -2.0848  -52.2907  -16.6485 C   0  0  0  0  0  0  0  0  0  0  0  0
   -3.1795  -53.8163  -17.5959 H   0  0  0  0  0  0  0  0  0  0  0  0
   -0.2983  -52.3256  -23.9196 O   0  0  0  0  0  0  0  0  0  0  0  0
    0.6899  -52.9068  -24.7278 C   0  0  0  0  0  0  0  0  0  0  0  0
   -2.8350  -52.3129  -28.0382 F   0  0  0  0  0  0  0  0  0  0  0  0
   -1.5360  -52.5720  -27.7635 C   0  0  0  0  0  0  0  0  0  0  0  0
   -0.6152  -52.8073  -28.7833 C   0  0  0  0  0  0  0  0  0  0  0  0
    0.7028  -53.0691  -28.4818 C   0  0  0  0  0  0  0  0  0  0  0  0
    1.1124  -53.0986  -27.1664 C   0  0  0  0  0  0  0  0  0  0  0  0
    0.2269  -52.8702  -26.1340 C   0  0  0  0  0  0  0  0  0  0  0  0
   -1.0807  -52.6112  -26.4540 C   0  0  0  0  0  0  0  0  0  0  0  0
 22 23  1  0  0  0
 23 24  2  0  0  0
 24 25  1  0  0  0
 25 26  2  0  0  0
 26 27  1  0  0  0
 27 21  1  0  0  0
 21 20  1  0  0  0
 20  1  1  0  0  0
  1  2  2  0  0  0
  2  3  1  0  0  0
  3  4  2  0  0  0
  4  8  1  0  0  0
  8 10  1  0  0  0
 10 11  2  0  0  0
 11 12  1  0  0  0
 12 13  2  0  0  0
 13 14  1  0  0  0
 14 15  1  0  0  0
 15 16  2  0  0  0
 16 17  1  0  0  0
 17 18  1  0  0  0
  4  5  1  0  0  0
  5  6  2  0  0  0
  6  7  1  0  0  0
 27 28  2  0  0  0
 28 23  1  0  0  0
  6  1  1  0  0  0
 18 10  1  0  0  0
 18 14  2  0  0  0
  8  9  1  0  0  0
 17 19  1  0  0  0
M  END
> <minimizedAffinity>
-8.55147

> <CNNscore>
0.5262928009

> <CNNaffinity>
6.6486954689

> <CNN_VS>
3.4991605282

> <CNNaffinity_variance>
0.0360059775

$$$$
[H]c1nc(N([H])c2c([H])c([H])c(OC([H])([H])c3c([H])c([H])c([H])c(F)c3[H])c(Cl)c2[H])c2c(n1)c([H])c([H])n2[H]


 28 31  0  0  0  0  0  0  0  0999 V2000
    0.8185  -51.9592  -21.2285 C   0  0  0  0  0  0  0  0  0  0  0  0
    1.5118  -51.6644  -22.3781 C   0  0  0  0  0  0  0  0  0  0  0  0
    1.2105  -52.3138  -23.5480 C   0  0  0  0  0  0  0  0  0  0  0  0
    0.2108  -53.2902  -23.6565 C   0  0  0  0  0  0  0  0  0  0  0  0
   -0.4688  -53.5686  -22.4981 C   0  0  0  0  0  0  0  0  0  0  0  0
   -0.1688  -52.9097  -21.2920 C   0  0  0  0  0  0  0  0  0  0  0  0
   -1.0562  -53.2927  -19.8386 Cl  0  0  0  0  0  0  0  0  0  0  0  0
   -0.0410  -53.8902  -24.8890 N   0  0  0  0  0  0  0  0  0  0  0  0
   -0.7002  -54.7477  -24.8582 H   0  0  0  0  0  0  0  0  0  0  0  0
    0.4272  -53.5657  -26.1598 C   0  0  0  0  0  0  0  0  0  0  0  0
    1.7063  -53.6047  -26.5537 N   0  0  0  0  0  0  0  0  0  0  0  0
    2.1278  -53.2718  -27.7855 C   0  0  0  0  0  0  0  0  0  0  0  0
    1.2590  -52.8641  -28.7340 N   0  0  0  0  0  0  0  0  0  0  0  0
   -0.0532  -52.7949  -28.4233 C   0  0  0  0  0  0  0  0  0  0  0  0
   -1.1608  -52.4164  -29.1816 C   0  0  0  0  0  0  0  0  0  0  0  0
   -2.2381  -52.5462  -28.3318 C   0  0  0  0  0  0  0  0  0  0  0  0
   -1.7925  -52.9832  -27.1188 N   0  0  0  0  0  0  0  0  0  0  0  0
   -0.4635  -53.1402  -27.1559 C   0  0  0  0  0  0  0  0  0  0  0  0
   -2.3700  -53.1765  -26.2685 H   0  0  0  0  0  0  0  0  0  0  0  0
    1.1359  -51.2926  -20.0499 O   0  0  0  0  0  0  0  0  0  0  0  0
    0.7118  -49.9848  -19.7717 C   0  0  0  0  0  0  0  0  0  0  0  0
    2.2308  -46.5855  -22.9139 F   0  0  0  0  0  0  0  0  0  0  0  0
    2.4816  -47.3562  -21.8307 C   0  0  0  0  0  0  0  0  0  0  0  0
    3.7010  -47.2830  -21.1592 C   0  0  0  0  0  0  0  0  0  0  0  0
    3.9360  -48.0765  -20.0584 C   0  0  0  0  0  0  0  0  0  0  0  0
    2.9612  -48.9463  -19.6195 C   0  0  0  0  0  0  0  0  0  0  0  0
    1.7443  -49.0430  -20.2614 C   0  0  0  0  0  0  0  0  0  0  0  0
    1.5292  -48.2450  -21.3551 C   0  0  0  0  0  0  0  0  0  0  0  0
 22 23  1  0  0  0
 23 24  2  0  0  0
 24 25  1  0  0  0
 25 26  2  0  0  0
 26 27  1  0  0  0
 27 21  1  0  0  0
 21 20  1  0  0  0
 20  1  1  0  0  0
  1  2  2  0  0  0
  2  3  1  0  0  0
  3  4  2  0  0  0
  4  8  1  0  0  0
  8 10  1  0  0  0
 10 11  2  0  0  0
 11 12  1  0  0  0
 12 13  2  0  0  0
 13 14  1  0  0  0
 14 15  1  0  0  0
 15 16  2  0  0  0
 16 17  1  0  0  0
 17 18  1  0  0  0
  4  5  1  0  0  0
  5  6  2  0  0  0
  6  7  1  0  0  0
 27 28  2  0  0  0
 28 23  1  0  0  0
  6  1  1  0  0  0
 18 10  1  0  0  0
 18 14  2  0  0  0
  8  9  1  0  0  0
 17 19  1  0  0  0
M  END
> <minimizedAffinity>
-7.68714

> <CNNscore>
0.5143427253

> <CNNaffinity>
6.9588136673

> <CNN_VS>
3.5792152882

> <CNNaffinity_variance>
0.0332148299

$$$$
[H]c1nc(N([H])c2c([H])c([H])c(OC([H])([H])c3c([H])c([H])c([H])c(F)c3[H])c(Cl)c2[H])c2c(n1)c([H])c([H])n2[H]


 28 31  0  0  0  0  0  0  0  0999 V2000
   -0.0812  -52.9254  -20.5971 C   0  0  0  0  0  0  0  0  0  0  0  0
   -0.4057  -54.1932  -21.0175 C   0  0  0  0  0  0  0  0  0  0  0  0
   -0.5960  -54.4470  -22.3519 C   0  0  0  0  0  0  0  0  0  0  0  0
   -0.4786  -53.4705  -23.3505 C   0  0  0  0  0  0  0  0  0  0  0  0
   -0.1539  -52.2130  -22.9093 C   0  0  0  0  0  0  0  0  0  0  0  0
    0.0435  -51.9401  -21.5435 C   0  0  0  0  0  0  0  0  0  0  0  0
    0.4552  -50.3261  -21.0217 Cl  0  0  0  0  0  0  0  0  0  0  0  0
   -0.6737  -53.8181  -24.6859 N   0  0  0  0  0  0  0  0  0  0  0  0
   -1.5318  -54.4488  -24.8776 H   0  0  0  0  0  0  0  0  0  0  0  0
    0.0660  -53.4877  -25.8187 C   0  0  0  0  0  0  0  0  0  0  0  0
    1.4021  -53.4872  -25.9055 N   0  0  0  0  0  0  0  0  0  0  0  0
    2.0871  -53.1497  -27.0112 C   0  0  0  0  0  0  0  0  0  0  0  0
    1.4496  -52.7779  -28.1409 N   0  0  0  0  0  0  0  0  0  0  0  0
    0.0996  -52.7498  -28.1431 C   0  0  0  0  0  0  0  0  0  0  0  0
   -0.8132  -52.4138  -29.1425 C   0  0  0  0  0  0  0  0  0  0  0  0
   -2.0536  -52.5729  -28.5630 C   0  0  0  0  0  0  0  0  0  0  0  0
   -1.8879  -52.9859  -27.2735 N   0  0  0  0  0  0  0  0  0  0  0  0
   -0.5823  -53.0992  -27.0000 C   0  0  0  0  0  0  0  0  0  0  0  0
   -2.6405  -53.1920  -26.5771 H   0  0  0  0  0  0  0  0  0  0  0  0
    0.1081  -52.6835  -19.2407 O   0  0  0  0  0  0  0  0  0  0  0  0
   -0.8470  -53.0047  -18.2649 C   0  0  0  0  0  0  0  0  0  0  0  0
   -2.9846  -50.7765  -14.4963 F   0  0  0  0  0  0  0  0  0  0  0  0
   -2.0115  -50.7858  -15.4361 C   0  0  0  0  0  0  0  0  0  0  0  0
   -1.0837  -49.7493  -15.5251 C   0  0  0  0  0  0  0  0  0  0  0  0
   -0.1009  -49.7783  -16.4894 C   0  0  0  0  0  0  0  0  0  0  0  0
   -0.0350  -50.8366  -17.3696 C   0  0  0  0  0  0  0  0  0  0  0  0
   -0.9374  -51.8778  -17.3085 C   0  0  0  0  0  0  0  0  0  0  0  0
   -1.9083  -51.8310  -16.3418 C   0  0  0  0  0  0  0  0  0  0  0  0
 22 23  1  0  0  0
 23 24  2  0  0  0
 24 25  1  0  0  0
 25 26  2  0  0  0
 26 27  1  0  0  0
 27 21  1  0  0  0
 21 20  1  0  0  0
 20  1  1  0  0  0
  1  2  2  0  0  0
  2  3  1  0  0  0
  3  4  2  0  0  0
  4  8  1  0  0  0
  8 10  1  0  0  0
 10 11  2  0  0  0
 11 12  1  0  0  0
 12 13  2  0  0  0
 13 14  1  0  0  0
 14 15  1  0  0  0
 15 16  2  0  0  0
 16 17  1  0  0  0
 17 18  1  0  0  0
  4  5  1  0  0  0
  5  6  2  0  0  0
  6  7  1  0  0  0
 27 28  2  0  0  0
 28 23  1  0  0  0
  6  1  1  0  0  0
 18 10  1  0  0  0
 18 14  2  0  0  0
  8  9  1  0  0  0
 17 19  1  0  0  0
M  END
> <minimizedAffinity>
-8.60290

> <CNNscore>
0.5067270994

> <CNNaffinity>
6.7319517136

> <CNN_VS>
3.4112622738

> <CNNaffinity_variance>
0.0750117227

$$$$
[H]c1nc(N([H])c2c([H])c([H])c(OC([H])([H])c3c([H])c([H])c([H])c(F)c3[H])c(Cl)c2[H])c2c(n1)c([H])c([H])n2[H]


 28 31  0  0  0  0  0  0  0  0999 V2000
    0.5362  -51.4591  -21.5275 C   0  0  0  0  0  0  0  0  0  0  0  0
    1.0870  -51.0895  -22.7313 C   0  0  0  0  0  0  0  0  0  0  0  0
    0.9740  -51.9147  -23.8210 C   0  0  0  0  0  0  0  0  0  0  0  0
    0.3133  -53.1505  -23.7915 C   0  0  0  0  0  0  0  0  0  0  0  0
   -0.2292  -53.4996  -22.5810 C   0  0  0  0  0  0  0  0  0  0  0  0
   -0.1196  -52.6620  -21.4562 C   0  0  0  0  0  0  0  0  0  0  0  0
   -0.8233  -53.1423  -19.9327 Cl  0  0  0  0  0  0  0  0  0  0  0  0
    0.2315  -53.9204  -24.9503 N   0  0  0  0  0  0  0  0  0  0  0  0
   -0.1165  -54.9348  -24.8062 H   0  0  0  0  0  0  0  0  0  0  0  0
    0.5333  -53.5943  -26.2701 C   0  0  0  0  0  0  0  0  0  0  0  0
    1.7462  -53.6633  -26.8332 N   0  0  0  0  0  0  0  0  0  0  0  0
    2.0074  -53.3280  -28.1080 C   0  0  0  0  0  0  0  0  0  0  0  0
    1.0307  -52.8862  -28.9276 N   0  0  0  0  0  0  0  0  0  0  0  0
   -0.2253  -52.7852  -28.4423 C   0  0  0  0  0  0  0  0  0  0  0  0
   -1.4137  -52.3685  -29.0414 C   0  0  0  0  0  0  0  0  0  0  0  0
   -2.3701  -52.4788  -28.0551 C   0  0  0  0  0  0  0  0  0  0  0  0
   -1.7778  -52.9413  -26.9167 N   0  0  0  0  0  0  0  0  0  0  0  0
   -0.4709  -53.1337  -27.1338 C   0  0  0  0  0  0  0  0  0  0  0  0
   -2.2409  -53.1286  -25.9978 H   0  0  0  0  0  0  0  0  0  0  0  0
    0.6595  -50.6119  -20.4314 O   0  0  0  0  0  0  0  0  0  0  0  0
    1.8928  -50.1208  -19.9782 C   0  0  0  0  0  0  0  0  0  0  0  0
   -0.1952  -49.2435  -15.6645 F   0  0  0  0  0  0  0  0  0  0  0  0
    0.8528  -49.7339  -16.3656 C   0  0  0  0  0  0  0  0  0  0  0  0
    1.9532  -50.2962  -15.7207 C   0  0  0  0  0  0  0  0  0  0  0  0
    3.0098  -50.7898  -16.4534 C   0  0  0  0  0  0  0  0  0  0  0  0
    2.9783  -50.7272  -17.8297 C   0  0  0  0  0  0  0  0  0  0  0  0
    1.9047  -50.1772  -18.4984 C   0  0  0  0  0  0  0  0  0  0  0  0
    0.8627  -49.6913  -17.7518 C   0  0  0  0  0  0  0  0  0  0  0  0
 22 23  1  0  0  0
 23 24  2  0  0  0
 24 25  1  0  0  0
 25 26  2  0  0  0
 26 27  1  0  0  0
 27 21  1  0  0  0
 21 20  1  0  0  0
 20  1  1  0  0  0
  1  2  2  0  0  0
  2  3  1  0  0  0
  3  4  2  0  0  0
  4  8  1  0  0  0
  8 10  1  0  0  0
 10 11  2  0  0  0
 11 12  1  0  0  0
 12 13  2  0  0  0
 13 14  1  0  0  0
 14 15  1  0  0  0
 15 16  2  0  0  0
 16 17  1  0  0  0
 17 18  1  0  0  0
  4  5  1  0  0  0
  5  6  2  0  0  0
  6  7  1  0  0  0
 27 28  2  0  0  0
 28 23  1  0  0  0
  6  1  1  0  0  0
 18 10  1  0  0  0
 18 14  2  0  0  0
  8  9  1  0  0  0
 17 19  1  0  0  0
M  END
> <minimizedAffinity>
-7.57030

> <CNNscore>
0.3955309391

> <CNNaffinity>
6.6974525452

> <CNN_VS>
2.6490497589

> <CNNaffinity_variance>
0.0485304296

$$$$
[H]c1nc(N([H])c2c([H])c([H])c(OC([H])([H])c3c([H])c([H])c([H])c(F)c3[H])c(Cl)c2[H])c2c(n1)c([H])c([H])n2[H]


 28 31  0  0  0  0  0  0  0  0999 V2000
   -0.0739  -52.8752  -20.8126 C   0  0  0  0  0  0  0  0  0  0  0  0
   -0.4547  -54.1630  -21.1055 C   0  0  0  0  0  0  0  0  0  0  0  0
   -0.6123  -54.5529  -22.4111 C   0  0  0  0  0  0  0  0  0  0  0  0
   -0.4050  -53.7005  -23.5043 C   0  0  0  0  0  0  0  0  0  0  0  0
   -0.0253  -52.4206  -23.1895 C   0  0  0  0  0  0  0  0  0  0  0  0
    0.1393  -52.0087  -21.8546 C   0  0  0  0  0  0  0  0  0  0  0  0
    0.6231  -50.3707  -21.4950 Cl  0  0  0  0  0  0  0  0  0  0  0  0
   -0.5726  -54.1832  -24.8009 N   0  0  0  0  0  0  0  0  0  0  0  0
   -0.9877  -55.1800  -24.8717 H   0  0  0  0  0  0  0  0  0  0  0  0
   -0.2842  -53.5883  -26.0266 C   0  0  0  0  0  0  0  0  0  0  0  0
   -1.1800  -53.2700  -26.9695 N   0  0  0  0  0  0  0  0  0  0  0  0
   -0.8674  -52.7081  -28.1494 C   0  0  0  0  0  0  0  0  0  0  0  0
    0.4117  -52.4197  -28.4681 N   0  0  0  0  0  0  0  0  0  0  0  0
    1.3821  -52.7075  -27.5744 C   0  0  0  0  0  0  0  0  0  0  0  0
    2.7641  -52.5270  -27.6250 C   0  0  0  0  0  0  0  0  0  0  0  0
    3.2328  -53.0099  -26.4222 C   0  0  0  0  0  0  0  0  0  0  0  0
    2.1761  -53.4591  -25.6857 N   0  0  0  0  0  0  0  0  0  0  0  0
    1.0402  -53.2829  -26.3720 C   0  0  0  0  0  0  0  0  0  0  0  0
    2.2096  -53.8817  -24.7296 H   0  0  0  0  0  0  0  0  0  0  0  0
    0.0813  -52.4947  -19.4839 O   0  0  0  0  0  0  0  0  0  0  0  0
   -0.7858  -52.9095  -18.4622 C   0  0  0  0  0  0  0  0  0  0  0  0
    0.7903  -48.6909  -16.6033 F   0  0  0  0  0  0  0  0  0  0  0  0
   -0.0549  -49.7447  -16.5306 C   0  0  0  0  0  0  0  0  0  0  0  0
   -0.9938  -49.8479  -15.5054 C   0  0  0  0  0  0  0  0  0  0  0  0
   -1.8451  -50.9290  -15.4498 C   0  0  0  0  0  0  0  0  0  0  0  0
   -1.7679  -51.9126  -16.4120 C   0  0  0  0  0  0  0  0  0  0  0  0
   -0.8505  -51.8407  -17.4394 C   0  0  0  0  0  0  0  0  0  0  0  0
   -0.0118  -50.7570  -17.4777 C   0  0  0  0  0  0  0  0  0  0  0  0
 22 23  1  0  0  0
 23 24  2  0  0  0
 24 25  1  0  0  0
 25 26  2  0  0  0
 26 27  1  0  0  0
 27 21  1  0  0  0
 21 20  1  0  0  0
 20  1  1  0  0  0
  1  2  2  0  0  0
  2  3  1  0  0  0
  3  4  2  0  0  0
  4  8  1  0  0  0
  8 10  1  0  0  0
 10 11  2  0  0  0
 11 12  1  0  0  0
 12 13  2  0  0  0
 13 14  1  0  0  0
 14 15  1  0  0  0
 15 16  2  0  0  0
 16 17  1  0  0  0
 17 18  1  0  0  0
  4  5  1  0  0  0
  5  6  2  0  0  0
  6  7  1  0  0  0
 27 28  2  0  0  0
 28 23  1  0  0  0
  6  1  1  0  0  0
 18 10  1  0  0  0
 18 14  2  0  0  0
  8  9  1  0  0  0
 17 19  1  0  0  0
M  END
> <minimizedAffinity>
-8.57606

> <CNNscore>
0.3920297325

> <CNNaffinity>
6.5656065941

> <CNN_VS>
2.5739130974

> <CNNaffinity_variance>
0.0434584245

$$$$
[H]c1nc(N([H])c2c([H])c([H])c(F)c(Cl)c2[H])c2c([H])c(OC([H])([H])[H])c(OC([H])([H])[H])c([H])c2n1


 24 26  0  0  0  0  0  0  0  0999 V2000
   -0.1995  -52.0244  -19.4244 C   0  0  0  0  0  0  0  0  0  0  0  0
   -0.7869  -53.1851  -19.8265 C   0  0  0  0  0  0  0  0  0  0  0  0
   -0.7834  -53.5506  -21.1362 C   0  0  0  0  0  0  0  0  0  0  0  0
   -1.3561  -54.6966  -21.5683 N   0  0  0  0  0  0  0  0  0  0  0  0
   -1.3675  -55.0845  -22.8542 C   0  0  0  0  0  0  0  0  0  0  0  0
   -0.7720  -54.2720  -23.7321 N   0  0  0  0  0  0  0  0  0  0  0  0
   -0.1679  -53.1093  -23.4372 C   0  0  0  0  0  0  0  0  0  0  0  0
   -0.1769  -52.7421  -22.0956 C   0  0  0  0  0  0  0  0  0  0  0  0
    0.4099  -51.5733  -21.6599 C   0  0  0  0  0  0  0  0  0  0  0  0
    0.4083  -51.1954  -20.3186 C   0  0  0  0  0  0  0  0  0  0  0  0
   -0.9906  -52.3923  -17.1246 C   0  0  0  0  0  0  0  0  0  0  0  0
   -0.2285  -51.6972  -18.0896 O   0  0  0  0  0  0  0  0  0  0  0  0
    0.4187  -52.2699  -24.3982 N   0  0  0  0  0  0  0  0  0  0  0  0
    1.0766  -51.4867  -24.1469 H   0  0  0  0  0  0  0  0  0  0  0  0
    0.1826  -52.3996  -25.7908 C   0  0  0  0  0  0  0  0  0  0  0  0
    1.2767  -52.5597  -26.6466 C   0  0  0  0  0  0  0  0  0  0  0  0
    1.0999  -52.7185  -27.9874 C   0  0  0  0  0  0  0  0  0  0  0  0
   -0.1293  -52.7324  -28.5774 C   0  0  0  0  0  0  0  0  0  0  0  0
   -0.3000  -52.8909  -29.9165 F   0  0  0  0  0  0  0  0  0  0  0  0
   -1.2209  -52.5771  -27.7553 C   0  0  0  0  0  0  0  0  0  0  0  0
   -2.8270  -52.5844  -28.4401 Cl  0  0  0  0  0  0  0  0  0  0  0  0
   -1.0473  -52.4136  -26.3747 C   0  0  0  0  0  0  0  0  0  0  0  0
    0.9992  -50.0253  -19.9051 O   0  0  0  0  0  0  0  0  0  0  0  0
    1.0823  -48.8565  -20.6654 C   0  0  0  0  0  0  0  0  0  0  0  0
 11 12  1  0  0  0
 12  1  1  0  0  0
  1  2  2  0  0  0
  2  3  1  0  0  0
  3  4  2  0  0  0
  4  5  1  0  0  0
  5  6  2  0  0  0
  6  7  1  0  0  0
  7 13  1  0  0  0
 13 15  1  0  0  0
 15 16  2  0  0  0
 16 17  1  0  0  0
 17 18  2  0  0  0
 18 19  1  0  0  0
 18 20  1  0  0  0
 20 21  1  0  0  0
 20 22  2  0  0  0
  7  8  2  0  0  0
  8  9  1  0  0  0
  9 10  2  0  0  0
 10 23  1  0  0  0
 23 24  1  0  0  0
 10  1  1  0  0  0
  8  3  1  0  0  0
 22 15  1  0  0  0
 13 14  1  0  0  0
M  END
> <minimizedAffinity>
-8.40391

> <CNNscore>
0.9788489342

> <CNNaffinity>
6.9709615707

> <CNN_VS>
6.8235182762

> <CNNaffinity_variance>
0.0980389863

$$$$
[H]c1nc(N([H])c2c([H])c([H])c(F)c(Cl)c2[H])c2c([H])c(OC([H])([H])[H])c(OC([H])([H])[H])c([H])c2n1


 24 26  0  0  0  0  0  0  0  0999 V2000
    0.3622  -52.4091  -26.2368 C   0  0  0  0  0  0  0  0  0  0  0  0
   -0.3827  -53.4600  -25.7957 C   0  0  0  0  0  0  0  0  0  0  0  0
   -0.4416  -53.7657  -24.4721 C   0  0  0  0  0  0  0  0  0  0  0  0
   -1.1725  -54.8010  -24.0012 N   0  0  0  0  0  0  0  0  0  0  0  0
   -1.2510  -55.1262  -22.7004 C   0  0  0  0  0  0  0  0  0  0  0  0
   -0.5571  -54.3662  -21.8481 N   0  0  0  0  0  0  0  0  0  0  0  0
    0.2058  -53.3126  -22.1822 C   0  0  0  0  0  0  0  0  0  0  0  0
    0.2615  -53.0073  -23.5382 C   0  0  0  0  0  0  0  0  0  0  0  0
    1.0071  -51.9496  -24.0130 C   0  0  0  0  0  0  0  0  0  0  0  0
    1.0699  -51.6333  -25.3687 C   0  0  0  0  0  0  0  0  0  0  0  0
    0.3423  -53.1318  -28.5879 C   0  0  0  0  0  0  0  0  0  0  0  0
    0.3908  -52.1390  -27.5843 O   0  0  0  0  0  0  0  0  0  0  0  0
    0.9446  -52.5599  -21.2549 N   0  0  0  0  0  0  0  0  0  0  0  0
    1.9225  -52.2187  -21.4463 H   0  0  0  0  0  0  0  0  0  0  0  0
    0.4440  -52.1890  -19.9807 C   0  0  0  0  0  0  0  0  0  0  0  0
   -0.4313  -53.0584  -19.3226 C   0  0  0  0  0  0  0  0  0  0  0  0
   -0.9150  -52.7610  -18.0849 C   0  0  0  0  0  0  0  0  0  0  0  0
   -0.5873  -51.6198  -17.4144 C   0  0  0  0  0  0  0  0  0  0  0  0
   -1.0734  -51.3280  -16.1792 F   0  0  0  0  0  0  0  0  0  0  0  0
    0.2728  -50.7493  -18.0419 C   0  0  0  0  0  0  0  0  0  0  0  0
    0.7374  -49.2673  -17.2442 Cl  0  0  0  0  0  0  0  0  0  0  0  0
    0.7753  -51.0482  -19.3152 C   0  0  0  0  0  0  0  0  0  0  0  0
    1.8197  -50.5740  -25.8215 O   0  0  0  0  0  0  0  0  0  0  0  0
    3.1127  -50.2654  -25.3927 C   0  0  0  0  0  0  0  0  0  0  0  0
 11 12  1  0  0  0
 12  1  1  0  0  0
  1  2  2  0  0  0
  2  3  1  0  0  0
  3  4  2  0  0  0
  4  5  1  0  0  0
  5  6  2  0  0  0
  6  7  1  0  0  0
  7 13  1  0  0  0
 13 15  1  0  0  0
 15 16  2  0  0  0
 16 17  1  0  0  0
 17 18  2  0  0  0
 18 19  1  0  0  0
 18 20  1  0  0  0
 20 21  1  0  0  0
 20 22  2  0  0  0
  7  8  2  0  0  0
  8  9  1  0  0  0
  9 10  2  0  0  0
 10 23  1  0  0  0
 23 24  1  0  0  0
 10  1  1  0  0  0
  8  3  1  0  0  0
 22 15  1  0  0  0
 13 14  1  0  0  0
M  END
> <minimizedAffinity>
-7.35234

> <CNNscore>
0.7605397701

> <CNNaffinity>
6.5635132790

> <CNN_VS>
4.9918127060

> <CNNaffinity_variance>
0.1203062534

$$$$
[H]c1nc(N([H])c2c([H])c([H])c(F)c(Cl)c2[H])c2c([H])c(OC([H])([H])[H])c(OC([H])([H])[H])c([H])c2n1


 24 26  0  0  0  0  0  0  0  0999 V2000
    1.4112  -49.3427  -21.5241 C   0  0  0  0  0  0  0  0  0  0  0  0
    0.5134  -50.2450  -21.0407 C   0  0  0  0  0  0  0  0  0  0  0  0
    0.2709  -51.4088  -21.7005 C   0  0  0  0  0  0  0  0  0  0  0  0
   -0.6128  -52.3262  -21.2473 N   0  0  0  0  0  0  0  0  0  0  0  0
   -0.8722  -53.4844  -21.8760 C   0  0  0  0  0  0  0  0  0  0  0  0
   -0.2046  -53.7149  -23.0103 N   0  0  0  0  0  0  0  0  0  0  0  0
    0.6970  -52.8908  -23.5688 C   0  0  0  0  0  0  0  0  0  0  0  0
    0.9384  -51.7020  -22.8882 C   0  0  0  0  0  0  0  0  0  0  0  0
    1.8416  -50.7706  -23.3538 C   0  0  0  0  0  0  0  0  0  0  0  0
    2.0927  -49.5768  -22.6803 C   0  0  0  0  0  0  0  0  0  0  0  0
    2.5969  -48.0376  -19.8091 C   0  0  0  0  0  0  0  0  0  0  0  0
    1.6227  -48.1800  -20.8218 O   0  0  0  0  0  0  0  0  0  0  0  0
    1.3527  -53.1596  -24.7812 N   0  0  0  0  0  0  0  0  0  0  0  0
    2.3535  -53.4846  -24.8292 H   0  0  0  0  0  0  0  0  0  0  0  0
    0.7305  -53.0210  -26.0484 C   0  0  0  0  0  0  0  0  0  0  0  0
    1.5022  -53.2026  -27.2001 C   0  0  0  0  0  0  0  0  0  0  0  0
    0.9442  -53.1099  -28.4388 C   0  0  0  0  0  0  0  0  0  0  0  0
   -0.3772  -52.8395  -28.6393 C   0  0  0  0  0  0  0  0  0  0  0  0
   -0.9288  -52.7478  -29.8781 F   0  0  0  0  0  0  0  0  0  0  0  0
   -1.1564  -52.6574  -27.5208 C   0  0  0  0  0  0  0  0  0  0  0  0
   -2.8576  -52.3077  -27.6997 Cl  0  0  0  0  0  0  0  0  0  0  0  0
   -0.5899  -52.7515  -26.2428 C   0  0  0  0  0  0  0  0  0  0  0  0
    2.9976  -48.6611  -23.1621 O   0  0  0  0  0  0  0  0  0  0  0  0
    4.1031  -48.9688  -23.9585 C   0  0  0  0  0  0  0  0  0  0  0  0
 11 12  1  0  0  0
 12  1  1  0  0  0
  1  2  2  0  0  0
  2  3  1  0  0  0
  3  4  2  0  0  0
  4  5  1  0  0  0
  5  6  2  0  0  0
  6  7  1  0  0  0
  7 13  1  0  0  0
 13 15  1  0  0  0
 15 16  2  0  0  0
 16 17  1  0  0  0
 17 18  2  0  0  0
 18 19  1  0  0  0
 18 20  1  0  0  0
 20 21  1  0  0  0
 20 22  2  0  0  0
  7  8  2  0  0  0
  8  9  1  0  0  0
  9 10  2  0  0  0
 10 23  1  0  0  0
 23 24  1  0  0  0
 10  1  1  0  0  0
  8  3  1  0  0  0
 22 15  1  0  0  0
 13 14  1  0  0  0
M  END
> <minimizedAffinity>
-7.40828

> <CNNscore>
0.6764506102

> <CNNaffinity>
6.4750299454

> <CNN_VS>
4.3800377846

> <CNNaffinity_variance>
0.3086544871

$$$$
[H]c1nc(N([H])c2c([H])c([H])c(F)c(Cl)c2[H])c2c([H])c(OC([H])([H])[H])c(OC([H])([H])[H])c([H])c2n1


 24 26  0  0  0  0  0  0  0  0999 V2000
    0.7901  -52.5964  -27.1190 C   0  0  0  0  0  0  0  0  0  0  0  0
   -0.0875  -53.4568  -26.5330 C   0  0  0  0  0  0  0  0  0  0  0  0
   -0.1223  -53.6039  -25.1818 C   0  0  0  0  0  0  0  0  0  0  0  0
   -0.9819  -54.4482  -24.5684 N   0  0  0  0  0  0  0  0  0  0  0  0
   -1.0403  -54.6137  -23.2368 C   0  0  0  0  0  0  0  0  0  0  0  0
   -0.1890  -53.8905  -22.5035 N   0  0  0  0  0  0  0  0  0  0  0  0
    0.7126  -53.0189  -22.9843 C   0  0  0  0  0  0  0  0  0  0  0  0
    0.7424  -52.8750  -24.3675 C   0  0  0  0  0  0  0  0  0  0  0  0
    1.6199  -52.0117  -24.9878 C   0  0  0  0  0  0  0  0  0  0  0  0
    1.6584  -51.8583  -26.3724 C   0  0  0  0  0  0  0  0  0  0  0  0
   -0.2983  -52.8586  -29.3092 C   0  0  0  0  0  0  0  0  0  0  0  0
    0.7880  -52.4817  -28.4889 O   0  0  0  0  0  0  0  0  0  0  0  0
    1.6111  -52.3022  -22.1773 N   0  0  0  0  0  0  0  0  0  0  0  0
    2.6255  -52.1717  -22.4290 H   0  0  0  0  0  0  0  0  0  0  0  0
    1.2373  -51.6881  -20.9545 C   0  0  0  0  0  0  0  0  0  0  0  0
    1.5825  -50.3502  -20.7405 C   0  0  0  0  0  0  0  0  0  0  0  0
    1.2200  -49.7078  -19.5959 C   0  0  0  0  0  0  0  0  0  0  0  0
    0.5104  -50.3103  -18.5995 C   0  0  0  0  0  0  0  0  0  0  0  0
    0.1515  -49.6643  -17.4588 F   0  0  0  0  0  0  0  0  0  0  0  0
    0.1590  -51.6265  -18.7879 C   0  0  0  0  0  0  0  0  0  0  0  0
   -0.7502  -52.4638  -17.5547 Cl  0  0  0  0  0  0  0  0  0  0  0  0
    0.5279  -52.2944  -19.9631 C   0  0  0  0  0  0  0  0  0  0  0  0
    2.5416  -50.9917  -26.9711 O   0  0  0  0  0  0  0  0  0  0  0  0
    3.1414  -49.8974  -26.3436 C   0  0  0  0  0  0  0  0  0  0  0  0
 11 12  1  0  0  0
 12  1  1  0  0  0
  1  2  2  0  0  0
  2  3  1  0  0  0
  3  4  2  0  0  0
  4  5  1  0  0  0
  5  6  2  0  0  0
  6  7  1  0  0  0
  7 13  1  0  0  0
 13 15  1  0  0  0
 15 16  2  0  0  0
 16 17  1  0  0  0
 17 18  2  0  0  0
 18 19  1  0  0  0
 18 20  1  0  0  0
 20 21  1  0  0  0
 20 22  2  0  0  0
  7  8  2  0  0  0
  8  9  1  0  0  0
  9 10  2  0  0  0
 10 23  1  0  0  0
 23 24  1  0  0  0
 10  1  1  0  0  0
  8  3  1  0  0  0
 22 15  1  0  0  0
 13 14  1  0  0  0
M  END
> <minimizedAffinity>
-7.21329

> <CNNscore>
0.5326315165

> <CNNaffinity>
6.5000329018

> <CNN_VS>
3.4621224403

> <CNNaffinity_variance>
0.2498326749

$$$$
[H]c1nc(N([H])c2c([H])c([H])c(F)c(Cl)c2[H])c2c([H])c(OC([H])([H])[H])c(OC([H])([H])[H])c([H])c2n1


 24 26  0  0  0  0  0  0  0  0999 V2000
   -0.1750  -54.0056  -24.7050 C   0  0  0  0  0  0  0  0  0  0  0  0
   -1.0276  -54.3226  -23.6919 C   0  0  0  0  0  0  0  0  0  0  0  0
   -0.7887  -53.8995  -22.4219 C   0  0  0  0  0  0  0  0  0  0  0  0
   -1.6155  -54.1955  -21.3939 N   0  0  0  0  0  0  0  0  0  0  0  0
   -1.4067  -53.7910  -20.1303 C   0  0  0  0  0  0  0  0  0  0  0  0
   -0.3126  -53.0569  -19.9074 N   0  0  0  0  0  0  0  0  0  0  0  0
    0.5878  -52.6931  -20.8351 C   0  0  0  0  0  0  0  0  0  0  0  0
    0.3367  -53.1309  -22.1313 C   0  0  0  0  0  0  0  0  0  0  0  0
    1.1822  -52.8251  -23.1763 C   0  0  0  0  0  0  0  0  0  0  0  0
    0.9407  -53.2569  -24.4790 C   0  0  0  0  0  0  0  0  0  0  0  0
    0.0737  -55.6427  -26.5239 C   0  0  0  0  0  0  0  0  0  0  0  0
   -0.4584  -54.4562  -25.9724 O   0  0  0  0  0  0  0  0  0  0  0  0
    1.7424  -51.9462  -20.5500 N   0  0  0  0  0  0  0  0  0  0  0  0
    2.5361  -52.3216  -19.9683 H   0  0  0  0  0  0  0  0  0  0  0  0
    1.9472  -50.6232  -21.0188 C   0  0  0  0  0  0  0  0  0  0  0  0
    0.9281  -49.6821  -20.8434 C   0  0  0  0  0  0  0  0  0  0  0  0
    1.0886  -48.3921  -21.2490 C   0  0  0  0  0  0  0  0  0  0  0  0
    2.2291  -47.9368  -21.8415 C   0  0  0  0  0  0  0  0  0  0  0  0
    2.3837  -46.6480  -22.2447 F   0  0  0  0  0  0  0  0  0  0  0  0
    3.2459  -48.8447  -22.0241 C   0  0  0  0  0  0  0  0  0  0  0  0
    4.7364  -48.3338  -22.7765 Cl  0  0  0  0  0  0  0  0  0  0  0  0
    3.0887  -50.1737  -21.6092 C   0  0  0  0  0  0  0  0  0  0  0  0
    1.7968  -52.9408  -25.5069 O   0  0  0  0  0  0  0  0  0  0  0  0
    3.1666  -52.7066  -25.3665 C   0  0  0  0  0  0  0  0  0  0  0  0
 11 12  1  0  0  0
 12  1  1  0  0  0
  1  2  2  0  0  0
  2  3  1  0  0  0
  3  4  2  0  0  0
  4  5  1  0  0  0
  5  6  2  0  0  0
  6  7  1  0  0  0
  7 13  1  0  0  0
 13 15  1  0  0  0
 15 16  2  0  0  0
 16 17  1  0  0  0
 17 18  2  0  0  0
 18 19  1  0  0  0
 18 20  1  0  0  0
 20 21  1  0  0  0
 20 22  2  0  0  0
  7  8  2  0  0  0
  8  9  1  0  0  0
  9 10  2  0  0  0
 10 23  1  0  0  0
 23 24  1  0  0  0
 10  1  1  0  0  0
  8  3  1  0  0  0
 22 15  1  0  0  0
 13 14  1  0  0  0
M  END
> <minimizedAffinity>
-6.77434

> <CNNscore>
0.5259697437

> <CNNaffinity>
6.3108143806

> <CNN_VS>
3.3192973137

> <CNNaffinity_variance>
0.3582153916

$$$$
[H]c1nc(N([H])c2c([H])c([H])c(F)c(Cl)c2[H])c2c([H])c(OC([H])([H])[H])c(OC([H])([H])[H])c([H])c2n1


 24 26  0  0  0  0  0  0  0  0999 V2000
   -0.4423  -53.7918  -24.9404 C   0  0  0  0  0  0  0  0  0  0  0  0
   -0.9124  -54.4393  -23.8388 C   0  0  0  0  0  0  0  0  0  0  0  0
   -0.8509  -53.8595  -22.6105 C   0  0  0  0  0  0  0  0  0  0  0  0
   -1.3096  -54.4743  -21.4971 N   0  0  0  0  0  0  0  0  0  0  0  0
   -1.2636  -53.9267  -20.2716 C   0  0  0  0  0  0  0  0  0  0  0  0
   -0.7290  -52.7056  -20.1787 N   0  0  0  0  0  0  0  0  0  0  0  0
   -0.2381  -51.9867  -21.2015 C   0  0  0  0  0  0  0  0  0  0  0  0
   -0.3038  -52.5874  -22.4543 C   0  0  0  0  0  0  0  0  0  0  0  0
    0.1641  -51.9556  -23.5866 C   0  0  0  0  0  0  0  0  0  0  0  0
    0.1027  -52.5466  -24.8471 C   0  0  0  0  0  0  0  0  0  0  0  0
    0.1750  -55.5998  -26.4898 C   0  0  0  0  0  0  0  0  0  0  0  0
   -0.5261  -54.4185  -26.1610 O   0  0  0  0  0  0  0  0  0  0  0  0
    0.3447  -50.7176  -21.0532 N   0  0  0  0  0  0  0  0  0  0  0  0
   -0.2213  -49.8301  -21.0168 H   0  0  0  0  0  0  0  0  0  0  0  0
    1.7437  -50.5140  -20.9370 C   0  0  0  0  0  0  0  0  0  0  0  0
    2.4615  -51.2842  -20.0170 C   0  0  0  0  0  0  0  0  0  0  0  0
    3.8103  -51.1469  -19.8900 C   0  0  0  0  0  0  0  0  0  0  0  0
    4.5403  -50.2683  -20.6346 C   0  0  0  0  0  0  0  0  0  0  0  0
    5.8866  -50.1353  -20.5034 F   0  0  0  0  0  0  0  0  0  0  0  0
    3.8557  -49.5000  -21.5468 C   0  0  0  0  0  0  0  0  0  0  0  0
    4.7242  -48.3526  -22.5357 Cl  0  0  0  0  0  0  0  0  0  0  0  0
    2.4679  -49.6355  -21.6838 C   0  0  0  0  0  0  0  0  0  0  0  0
    0.5752  -51.8992  -25.9638 O   0  0  0  0  0  0  0  0  0  0  0  0
    1.7971  -51.2274  -26.0444 C   0  0  0  0  0  0  0  0  0  0  0  0
 11 12  1  0  0  0
 12  1  1  0  0  0
  1  2  2  0  0  0
  2  3  1  0  0  0
  3  4  2  0  0  0
  4  5  1  0  0  0
  5  6  2  0  0  0
  6  7  1  0  0  0
  7 13  1  0  0  0
 13 15  1  0  0  0
 15 16  2  0  0  0
 16 17  1  0  0  0
 17 18  2  0  0  0
 18 19  1  0  0  0
 18 20  1  0  0  0
 20 21  1  0  0  0
 20 22  2  0  0  0
  7  8  2  0  0  0
  8  9  1  0  0  0
  9 10  2  0  0  0
 10 23  1  0  0  0
 23 24  1  0  0  0
 10  1  1  0  0  0
  8  3  1  0  0  0
 22 15  1  0  0  0
 13 14  1  0  0  0
M  END
> <minimizedAffinity>
-6.61683

> <CNNscore>
0.4295339584

> <CNNaffinity>
6.0949487686

> <CNN_VS>
2.6179873943

> <CNNaffinity_variance>
0.2526529431

$$$$
[H]c1nc(N([H])c2c([H])c([H])c(F)c(Cl)c2[H])c2c([H])c(OC([H])([H])[H])c(OC([H])([H])[H])c([H])c2n1


 24 26  0  0  0  0  0  0  0  0999 V2000
    0.4962  -50.8972  -20.3259 C   0  0  0  0  0  0  0  0  0  0  0  0
    1.2970  -50.0244  -20.9974 C   0  0  0  0  0  0  0  0  0  0  0  0
    1.6674  -50.2663  -22.2831 C   0  0  0  0  0  0  0  0  0  0  0  0
    2.4601  -49.4200  -22.9784 N   0  0  0  0  0  0  0  0  0  0  0  0
    2.8413  -49.6314  -24.2488 C   0  0  0  0  0  0  0  0  0  0  0  0
    2.3970  -50.7487  -24.8315 N   0  0  0  0  0  0  0  0  0  0  0  0
    1.6071  -51.6702  -24.2563 C   0  0  0  0  0  0  0  0  0  0  0  0
    1.2336  -51.4157  -22.9408 C   0  0  0  0  0  0  0  0  0  0  0  0
    0.4240  -52.2812  -22.2368 C   0  0  0  0  0  0  0  0  0  0  0  0
    0.0423  -52.0366  -20.9190 C   0  0  0  0  0  0  0  0  0  0  0  0
    0.8593  -51.0765  -17.8997 C   0  0  0  0  0  0  0  0  0  0  0  0
    0.1484  -50.6096  -19.0274 O   0  0  0  0  0  0  0  0  0  0  0  0
    1.1892  -52.8479  -24.8970 N   0  0  0  0  0  0  0  0  0  0  0  0
    1.2855  -53.8011  -24.4592 H   0  0  0  0  0  0  0  0  0  0  0  0
    0.5991  -52.8633  -26.1868 C   0  0  0  0  0  0  0  0  0  0  0  0
    1.4048  -53.1544  -27.2918 C   0  0  0  0  0  0  0  0  0  0  0  0
    0.8790  -53.2109  -28.5466 C   0  0  0  0  0  0  0  0  0  0  0  0
   -0.4412  -52.9924  -28.8086 C   0  0  0  0  0  0  0  0  0  0  0  0
   -0.9606  -53.0497  -30.0634 F   0  0  0  0  0  0  0  0  0  0  0  0
   -1.2536  -52.7046  -27.7369 C   0  0  0  0  0  0  0  0  0  0  0  0
   -2.9555  -52.4129  -27.9958 Cl  0  0  0  0  0  0  0  0  0  0  0  0
   -0.7203  -52.6451  -26.4427 C   0  0  0  0  0  0  0  0  0  0  0  0
   -0.7658  -52.9130  -20.2347 O   0  0  0  0  0  0  0  0  0  0  0  0
   -1.5383  -53.9173  -20.8224 C   0  0  0  0  0  0  0  0  0  0  0  0
 11 12  1  0  0  0
 12  1  1  0  0  0
  1  2  2  0  0  0
  2  3  1  0  0  0
  3  4  2  0  0  0
  4  5  1  0  0  0
  5  6  2  0  0  0
  6  7  1  0  0  0
  7 13  1  0  0  0
 13 15  1  0  0  0
 15 16  2  0  0  0
 16 17  1  0  0  0
 17 18  2  0  0  0
 18 19  1  0  0  0
 18 20  1  0  0  0
 20 21  1  0  0  0
 20 22  2  0  0  0
  7  8  2  0  0  0
  8  9  1  0  0  0
  9 10  2  0  0  0
 10 23  1  0  0  0
 23 24  1  0  0  0
 10  1  1  0  0  0
  8  3  1  0  0  0
 22 15  1  0  0  0
 13 14  1  0  0  0
M  END
> <minimizedAffinity>
-7.39429

> <CNNscore>
0.4141389132

> <CNNaffinity>
6.2595200539

> <CNN_VS>
2.5923109055

> <CNNaffinity_variance>
0.1350523531

$$$$
[H]c1nc(N([H])c2c([H])c([H])c(F)c(Cl)c2[H])c2c([H])c(OC([H])([H])[H])c(OC([H])([H])[H])c([H])c2n1


 24 26  0  0  0  0  0  0  0  0999 V2000
    0.4269  -53.5014  -26.0098 C   0  0  0  0  0  0  0  0  0  0  0  0
   -0.2348  -54.4053  -25.2358 C   0  0  0  0  0  0  0  0  0  0  0  0
   -0.5723  -54.1091  -23.9524 C   0  0  0  0  0  0  0  0  0  0  0  0
   -1.2302  -54.9831  -23.1578 N   0  0  0  0  0  0  0  0  0  0  0  0
   -1.5778  -54.7186  -21.8877 C   0  0  0  0  0  0  0  0  0  0  0  0
   -1.2410  -53.5168  -21.4104 N   0  0  0  0  0  0  0  0  0  0  0  0
   -0.5891  -52.5595  -22.0905 C   0  0  0  0  0  0  0  0  0  0  0  0
   -0.2466  -52.8709  -23.4021 C   0  0  0  0  0  0  0  0  0  0  0  0
    0.4230  -51.9756  -24.2086 C   0  0  0  0  0  0  0  0  0  0  0  0
    0.7705  -52.2757  -25.5243 C   0  0  0  0  0  0  0  0  0  0  0  0
   -0.0016  -53.4483  -28.4313 C   0  0  0  0  0  0  0  0  0  0  0  0
    0.7467  -53.8464  -27.3014 O   0  0  0  0  0  0  0  0  0  0  0  0
   -0.2268  -51.3203  -21.5381 N   0  0  0  0  0  0  0  0  0  0  0  0
   -0.7501  -50.4293  -21.7421 H   0  0  0  0  0  0  0  0  0  0  0  0
    0.8716  -51.1542  -20.6560 C   0  0  0  0  0  0  0  0  0  0  0  0
    0.6326  -51.1437  -19.2784 C   0  0  0  0  0  0  0  0  0  0  0  0
    1.6574  -51.0176  -18.3907 C   0  0  0  0  0  0  0  0  0  0  0  0
    2.9603  -50.8953  -18.7736 C   0  0  0  0  0  0  0  0  0  0  0  0
    3.9793  -50.7693  -17.8830 F   0  0  0  0  0  0  0  0  0  0  0  0
    3.2200  -50.9035  -20.1241 C   0  0  0  0  0  0  0  0  0  0  0  0
    4.8650  -50.7511  -20.6892 Cl  0  0  0  0  0  0  0  0  0  0  0  0
    2.1712  -51.0333  -21.0440 C   0  0  0  0  0  0  0  0  0  0  0  0
    1.4384  -51.3683  -26.3117 O   0  0  0  0  0  0  0  0  0  0  0  0
    2.7716  -50.9878  -26.1424 C   0  0  0  0  0  0  0  0  0  0  0  0
 11 12  1  0  0  0
 12  1  1  0  0  0
  1  2  2  0  0  0
  2  3  1  0  0  0
  3  4  2  0  0  0
  4  5  1  0  0  0
  5  6  2  0  0  0
  6  7  1  0  0  0
  7 13  1  0  0  0
 13 15  1  0  0  0
 15 16  2  0  0  0
 16 17  1  0  0  0
 17 18  2  0  0  0
 18 19  1  0  0  0
 18 20  1  0  0  0
 20 21  1  0  0  0
 20 22  2  0  0  0
  7  8  2  0  0  0
  8  9  1  0  0  0
  9 10  2  0  0  0
 10 23  1  0  0  0
 23 24  1  0  0  0
 10  1  1  0  0  0
  8  3  1  0  0  0
 22 15  1  0  0  0
 13 14  1  0  0  0
M  END
> <minimizedAffinity>
-6.62454

> <CNNscore>
0.3536728621

> <CNNaffinity>
6.2913446426

> <CNN_VS>
2.2250778675

> <CNNaffinity_variance>
0.2142713964

$$$$
[H]c1nc(N([H])c2c([H])c([H])c(F)c(Cl)c2[H])c2c([H])c(OC([H])([H])[H])c(OC([H])([H])[H])c([H])c2n1


 24 26  0  0  0  0  0  0  0  0999 V2000
    0.7672  -53.1499  -24.5379 C   0  0  0  0  0  0  0  0  0  0  0  0
   -0.1917  -53.6257  -23.6965 C   0  0  0  0  0  0  0  0  0  0  0  0
   -0.1763  -53.3117  -22.3737 C   0  0  0  0  0  0  0  0  0  0  0  0
   -1.1137  -53.7662  -21.5119 N   0  0  0  0  0  0  0  0  0  0  0  0
   -1.1254  -53.4722  -20.2014 C   0  0  0  0  0  0  0  0  0  0  0  0
   -0.1431  -52.6848  -19.7534 N   0  0  0  0  0  0  0  0  0  0  0  0
    0.8466  -52.1674  -20.4995 C   0  0  0  0  0  0  0  0  0  0  0  0
    0.8242  -52.4943  -21.8513 C   0  0  0  0  0  0  0  0  0  0  0  0
    1.7816  -52.0270  -22.7261 C   0  0  0  0  0  0  0  0  0  0  0  0
    1.7691  -52.3467  -24.0824 C   0  0  0  0  0  0  0  0  0  0  0  0
   -0.0070  -54.6065  -26.3625 C   0  0  0  0  0  0  0  0  0  0  0  0
    0.7099  -53.4948  -25.8673 O   0  0  0  0  0  0  0  0  0  0  0  0
    1.8784  -51.3689  -19.9801 N   0  0  0  0  0  0  0  0  0  0  0  0
    2.7521  -51.1408  -20.5224 H   0  0  0  0  0  0  0  0  0  0  0  0
    1.8394  -50.7958  -18.6831 C   0  0  0  0  0  0  0  0  0  0  0  0
    0.7998  -49.9155  -18.3676 C   0  0  0  0  0  0  0  0  0  0  0  0
    0.7019  -49.3633  -17.1268 C   0  0  0  0  0  0  0  0  0  0  0  0
    1.5908  -49.6239  -16.1262 C   0  0  0  0  0  0  0  0  0  0  0  0
    1.4884  -49.0695  -14.8894 F   0  0  0  0  0  0  0  0  0  0  0  0
    2.6219  -50.4875  -16.4130 C   0  0  0  0  0  0  0  0  0  0  0  0
    3.7989  -50.8684  -15.1809 Cl  0  0  0  0  0  0  0  0  0  0  0  0
    2.7294  -51.0602  -17.6872 C   0  0  0  0  0  0  0  0  0  0  0  0
    2.7336  -51.8701  -24.9379 O   0  0  0  0  0  0  0  0  0  0  0  0
    4.1006  -52.1373  -24.8340 C   0  0  0  0  0  0  0  0  0  0  0  0
 11 12  1  0  0  0
 12  1  1  0  0  0
  1  2  2  0  0  0
  2  3  1  0  0  0
  3  4  2  0  0  0
  4  5  1  0  0  0
  5  6  2  0  0  0
  6  7  1  0  0  0
  7 13  1  0  0  0
 13 15  1  0  0  0
 15 16  2  0  0  0
 16 17  1  0  0  0
 17 18  2  0  0  0
 18 19  1  0  0  0
 18 20  1  0  0  0
 20 21  1  0  0  0
 20 22  2  0  0  0
  7  8  2  0  0  0
  8  9  1  0  0  0
  9 10  2  0  0  0
 10 23  1  0  0  0
 23 24  1  0  0  0
 10  1  1  0  0  0
  8  3  1  0  0  0
 22 15  1  0  0  0
 13 14  1  0  0  0
M  END
> <minimizedAffinity>
-6.08326

> <CNNscore>
0.3532441556

> <CNNaffinity>
6.1324276924

> <CNN_VS>
2.1662442684

> <CNNaffinity_variance>
0.5404648781

$$$$
