[H]/C(=C1/C(=O)N([H])c2c([H])c([H])c(F)c([H])c21)c1c(C([H])([H])[H])c(C(=O)N([H])C([H])([H])C([H])([H])N(C([H])([H])C([H])([H])[H])C([H])([H])C([H])([H])[H])c(C([H])([H])[H])n1[H]


 32 34  0  0  0  0  0  0  0  0999 V2000
  -11.1242   -8.1156    8.1513 C   0  0  0  0  0  0  0  0  0  0  0  0
  -11.0089   -6.9486    8.8430 C   0  0  0  0  0  0  0  0  0  0  0  0
  -12.0962   -6.1239    9.4408 C   0  0  0  0  0  0  0  0  0  0  0  0
   -9.6907   -6.5904    8.9713 N   0  0  0  0  0  0  0  0  0  0  0  0
   -8.9574   -7.5062    8.3762 C   0  0  0  0  0  0  0  0  0  0  0  0
   -9.8199   -8.4763    7.8515 C   0  0  0  0  0  0  0  0  0  0  0  0
   -9.4086   -9.6866    7.0951 C   0  0  0  0  0  0  0  0  0  0  0  0
   -9.3757   -5.7145    9.4605 H   0  0  0  0  0  0  0  0  0  0  0  0
   -7.5282   -7.6102    8.2452 C   0  0  0  0  0  0  0  0  0  0  0  0
   -6.8550   -7.0641    7.2747 C   0  0  0  0  0  0  0  0  0  0  0  0
   -7.3167   -6.2657    6.1599 C   0  0  0  0  0  0  0  0  0  0  0  0
   -8.5014   -5.9185    5.9091 O   0  0  0  0  0  0  0  0  0  0  0  0
   -6.1574   -5.9350    5.3813 N   0  0  0  0  0  0  0  0  0  0  0  0
   -5.0016   -6.4940    5.9690 C   0  0  0  0  0  0  0  0  0  0  0  0
   -3.6645   -6.4818    5.6421 C   0  0  0  0  0  0  0  0  0  0  0  0
   -2.7105   -7.1211    6.4031 C   0  0  0  0  0  0  0  0  0  0  0  0
   -3.0872   -7.8090    7.5448 C   0  0  0  0  0  0  0  0  0  0  0  0
   -2.1869   -8.4526    8.3249 F   0  0  0  0  0  0  0  0  0  0  0  0
   -4.4245   -7.8130    7.8597 C   0  0  0  0  0  0  0  0  0  0  0  0
   -5.3889   -7.1727    7.0999 C   0  0  0  0  0  0  0  0  0  0  0  0
   -6.1616   -5.3673    4.5133 H   0  0  0  0  0  0  0  0  0  0  0  0
  -12.9974   -8.6762    6.5247 N   0  0  0  0  0  0  0  0  0  0  0  0
  -12.2902   -8.8783    7.7175 C   0  0  0  0  0  0  0  0  0  0  0  0
  -12.6485   -9.8044    8.5433 O   0  0  0  0  0  0  0  0  0  0  0  0
  -12.5881   -7.8861    5.8830 H   0  0  0  0  0  0  0  0  0  0  0  0
  -14.1263   -9.3037    5.9565 C   0  0  0  0  0  0  0  0  0  0  0  0
  -14.7570   -8.7268    4.7396 C   0  0  0  0  0  0  0  0  0  0  0  0
  -15.8895   -7.9180    4.9457 N   0  0  0  0  0  0  0  0  0  0  0  0
  -15.0319   -5.6075    5.1260 C   0  0  0  0  0  0  0  0  0  0  0  0
  -15.7101   -6.6392    4.2474 C   0  0  0  0  0  0  0  0  0  0  0  0
  -17.1303   -8.4752    4.5025 C   0  0  0  0  0  0  0  0  0  0  0  0
  -18.0164   -7.5098    3.7823 C   0  0  0  0  0  0  0  0  0  0  0  0
 29 30  1  0  0  0
 30 28  1  0  0  0
 28 31  1  0  0  0
 31 32  1  0  0  0
 28 27  1  0  0  0
 27 26  1  0  0  0
 26 22  1  0  0  0
 22 23  1  0  0  0
 23 24  2  0  0  0
 23  1  1  0  0  0
  1  2  2  0  0  0
  2  3  1  0  0  0
  2  4  1  0  0  0
  4  5  1  0  0  0
  5  9  1  0  0  0
  9 10  2  0  0  0
 10 11  1  0  0  0
 11 12  2  0  0  0
 11 13  1  0  0  0
 13 14  1  0  0  0
 14 15  2  0  0  0
 15 16  1  0  0  0
 16 17  2  0  0  0
 17 18  1  0  0  0
 17 19  1  0  0  0
 19 20  2  0  0  0
  5  6  2  0  0  0
  6  7  1  0  0  0
  6  1  1  0  0  0
 20 10  1  0  0  0
 20 14  1  0  0  0
 22 25  1  0  0  0
  4  8  1  0  0  0
 13 21  1  0  0  0
M  END
> <minimizedAffinity>
-8.12281

> <CNNscore>
0.6000937819

> <CNNaffinity>
7.1681547165

> <CNN_VS>
4.3015651703

> <CNNaffinity_variance>
0.0177923646

$$$$
[H]/C(=C1/C(=O)N([H])c2c([H])c([H])c(F)c([H])c21)c1c(C([H])([H])[H])c(C(=O)N([H])C([H])([H])C([H])([H])N(C([H])([H])C([H])([H])[H])C([H])([H])C([H])([H])[H])c(C([H])([H])[H])n1[H]


 32 34  0  0  0  0  0  0  0  0999 V2000
  -11.2228   -8.8668    6.6165 C   0  0  0  0  0  0  0  0  0  0  0  0
  -10.5021   -9.7014    5.8181 C   0  0  0  0  0  0  0  0  0  0  0  0
  -11.0097  -10.7541    4.8939 C   0  0  0  0  0  0  0  0  0  0  0  0
   -9.1598   -9.4420    5.9334 N   0  0  0  0  0  0  0  0  0  0  0  0
   -9.0052   -8.4556    6.7900 C   0  0  0  0  0  0  0  0  0  0  0  0
  -10.2743   -8.0699    7.2382 C   0  0  0  0  0  0  0  0  0  0  0  0
  -10.5584   -6.9919    8.2196 C   0  0  0  0  0  0  0  0  0  0  0  0
   -8.4213   -9.9799    5.4128 H   0  0  0  0  0  0  0  0  0  0  0  0
   -7.8080   -7.7973    7.2416 C   0  0  0  0  0  0  0  0  0  0  0  0
   -6.6223   -8.0678    6.7789 C   0  0  0  0  0  0  0  0  0  0  0  0
   -6.2163   -9.0181    5.7662 C   0  0  0  0  0  0  0  0  0  0  0  0
   -6.9591   -9.7872    5.1001 O   0  0  0  0  0  0  0  0  0  0  0  0
   -4.7887   -8.9197    5.6569 N   0  0  0  0  0  0  0  0  0  0  0  0
   -4.2981   -7.9491    6.5575 C   0  0  0  0  0  0  0  0  0  0  0  0
   -3.0417   -7.4697    6.8515 C   0  0  0  0  0  0  0  0  0  0  0  0
   -2.8251   -6.4917    7.7972 C   0  0  0  0  0  0  0  0  0  0  0  0
   -3.8969   -5.9555    8.4918 C   0  0  0  0  0  0  0  0  0  0  0  0
   -3.7349   -4.9928    9.4301 F   0  0  0  0  0  0  0  0  0  0  0  0
   -5.1452   -6.4426    8.1886 C   0  0  0  0  0  0  0  0  0  0  0  0
   -5.3706   -7.4252    7.2393 C   0  0  0  0  0  0  0  0  0  0  0  0
   -4.1983   -9.4767    5.0113 H   0  0  0  0  0  0  0  0  0  0  0  0
  -13.6356   -8.4226    5.9456 N   0  0  0  0  0  0  0  0  0  0  0  0
  -12.6543   -8.7712    6.8833 C   0  0  0  0  0  0  0  0  0  0  0  0
  -12.9805   -9.0462    8.1023 O   0  0  0  0  0  0  0  0  0  0  0  0
  -13.2522   -8.2411    4.9340 H   0  0  0  0  0  0  0  0  0  0  0  0
  -15.0371   -8.2800    6.0264 C   0  0  0  0  0  0  0  0  0  0  0  0
  -15.6218   -7.0090    6.5303 C   0  0  0  0  0  0  0  0  0  0  0  0
  -16.9490   -6.7374    6.1509 N   0  0  0  0  0  0  0  0  0  0  0  0
  -18.4142   -8.5512    6.9694 C   0  0  0  0  0  0  0  0  0  0  0  0
  -17.6243   -7.9936    5.8026 C   0  0  0  0  0  0  0  0  0  0  0  0
  -17.7487   -6.0838    7.1408 C   0  0  0  0  0  0  0  0  0  0  0  0
  -18.9770   -5.4228    6.6018 C   0  0  0  0  0  0  0  0  0  0  0  0
 29 30  1  0  0  0
 30 28  1  0  0  0
 28 31  1  0  0  0
 31 32  1  0  0  0
 28 27  1  0  0  0
 27 26  1  0  0  0
 26 22  1  0  0  0
 22 23  1  0  0  0
 23 24  2  0  0  0
 23  1  1  0  0  0
  1  2  2  0  0  0
  2  3  1  0  0  0
  2  4  1  0  0  0
  4  5  1  0  0  0
  5  9  1  0  0  0
  9 10  2  0  0  0
 10 11  1  0  0  0
 11 12  2  0  0  0
 11 13  1  0  0  0
 13 14  1  0  0  0
 14 15  2  0  0  0
 15 16  1  0  0  0
 16 17  2  0  0  0
 17 18  1  0  0  0
 17 19  1  0  0  0
 19 20  2  0  0  0
  5  6  2  0  0  0
  6  7  1  0  0  0
  6  1  1  0  0  0
 20 10  1  0  0  0
 20 14  1  0  0  0
 22 25  1  0  0  0
  4  8  1  0  0  0
 13 21  1  0  0  0
M  END
> <minimizedAffinity>
10.31046

> <CNNscore>
0.4587467611

> <CNNaffinity>
7.0689773560

> <CNN_VS>
3.2428705692

> <CNNaffinity_variance>
2.6717081070

$$$$
[H]/C(=C1/C(=O)N([H])c2c([H])c([H])c(F)c([H])c21)c1c(C([H])([H])[H])c(C(=O)N([H])C([H])([H])C([H])([H])N(C([H])([H])C([H])([H])[H])C([H])([H])C([H])([H])[H])c(C([H])([H])[H])n1[H]


 32 34  0  0  0  0  0  0  0  0999 V2000
  -11.5183   -7.3918    8.4696 C   0  0  0  0  0  0  0  0  0  0  0  0
  -12.0825   -6.5699    9.3969 C   0  0  0  0  0  0  0  0  0  0  0  0
  -11.5775   -6.2381   10.7588 C   0  0  0  0  0  0  0  0  0  0  0  0
  -13.2367   -6.0106    8.9095 N   0  0  0  0  0  0  0  0  0  0  0  0
  -13.4234   -6.4569    7.6862 C   0  0  0  0  0  0  0  0  0  0  0  0
  -12.3681   -7.3235    7.3768 C   0  0  0  0  0  0  0  0  0  0  0  0
  -12.1902   -8.0528    6.0952 C   0  0  0  0  0  0  0  0  0  0  0  0
  -13.8394   -5.3534    9.4666 H   0  0  0  0  0  0  0  0  0  0  0  0
  -14.4663   -6.1621    6.7395 C   0  0  0  0  0  0  0  0  0  0  0  0
  -15.4423   -6.9791    6.4698 C   0  0  0  0  0  0  0  0  0  0  0  0
  -15.7275   -8.2927    7.0052 C   0  0  0  0  0  0  0  0  0  0  0  0
  -15.0710   -8.9193    7.8791 O   0  0  0  0  0  0  0  0  0  0  0  0
  -16.9162   -8.7567    6.3486 N   0  0  0  0  0  0  0  0  0  0  0  0
  -17.3763   -7.7853    5.4329 C   0  0  0  0  0  0  0  0  0  0  0  0
  -18.4456   -7.7205    4.5684 C   0  0  0  0  0  0  0  0  0  0  0  0
  -18.6799   -6.6290    3.7613 C   0  0  0  0  0  0  0  0  0  0  0  0
  -17.8203   -5.5436    3.8036 C   0  0  0  0  0  0  0  0  0  0  0  0
  -18.0085   -4.4484    3.0300 F   0  0  0  0  0  0  0  0  0  0  0  0
  -16.7575   -5.6212    4.6706 C   0  0  0  0  0  0  0  0  0  0  0  0
  -16.5157   -6.7147    5.4850 C   0  0  0  0  0  0  0  0  0  0  0  0
  -17.3757   -9.6708    6.5188 H   0  0  0  0  0  0  0  0  0  0  0  0
   -9.0062   -7.7862    8.5220 N   0  0  0  0  0  0  0  0  0  0  0  0
  -10.3320   -8.2402    8.5151 C   0  0  0  0  0  0  0  0  0  0  0  0
  -10.5922   -9.5046    8.5545 O   0  0  0  0  0  0  0  0  0  0  0  0
   -8.9007   -6.6943    8.5189 H   0  0  0  0  0  0  0  0  0  0  0  0
   -7.7615   -8.4496    8.5594 C   0  0  0  0  0  0  0  0  0  0  0  0
   -6.9176   -8.5048    7.3362 C   0  0  0  0  0  0  0  0  0  0  0  0
   -5.8598   -7.5800    7.2638 N   0  0  0  0  0  0  0  0  0  0  0  0
   -3.3941   -7.5752    7.1012 C   0  0  0  0  0  0  0  0  0  0  0  0
   -4.6891   -8.2236    6.6553 C   0  0  0  0  0  0  0  0  0  0  0  0
   -6.1325   -6.3934    6.5127 C   0  0  0  0  0  0  0  0  0  0  0  0
   -6.8731   -6.6300    5.2353 C   0  0  0  0  0  0  0  0  0  0  0  0
 29 30  1  0  0  0
 30 28  1  0  0  0
 28 31  1  0  0  0
 31 32  1  0  0  0
 28 27  1  0  0  0
 27 26  1  0  0  0
 26 22  1  0  0  0
 22 23  1  0  0  0
 23 24  2  0  0  0
 23  1  1  0  0  0
  1  2  2  0  0  0
  2  3  1  0  0  0
  2  4  1  0  0  0
  4  5  1  0  0  0
  5  9  1  0  0  0
  9 10  2  0  0  0
 10 11  1  0  0  0
 11 12  2  0  0  0
 11 13  1  0  0  0
 13 14  1  0  0  0
 14 15  2  0  0  0
 15 16  1  0  0  0
 16 17  2  0  0  0
 17 18  1  0  0  0
 17 19  1  0  0  0
 19 20  2  0  0  0
  5  6  2  0  0  0
  6  7  1  0  0  0
  6  1  1  0  0  0
 20 10  1  0  0  0
 20 14  1  0  0  0
 22 25  1  0  0  0
  4  8  1  0  0  0
 13 21  1  0  0  0
M  END
> <minimizedAffinity>
-5.23184

> <CNNscore>
0.3135017455

> <CNNaffinity>
6.8220548630

> <CNN_VS>
2.1387259960

> <CNNaffinity_variance>
0.0097259507

$$$$
[H]/C(=C1/C(=O)N([H])c2c([H])c([H])c(F)c([H])c21)c1c(C([H])([H])[H])c(C(=O)N([H])C([H])([H])C([H])([H])N(C([H])([H])C([H])([H])[H])C([H])([H])C([H])([H])[H])c(C([H])([H])[H])n1[H]


 32 34  0  0  0  0  0  0  0  0999 V2000
  -13.2889   -8.6399    6.4492 C   0  0  0  0  0  0  0  0  0  0  0  0
  -13.7089   -8.9539    5.1928 C   0  0  0  0  0  0  0  0  0  0  0  0
  -13.2131  -10.0417    4.3036 C   0  0  0  0  0  0  0  0  0  0  0  0
  -14.7314   -8.1262    4.8034 N   0  0  0  0  0  0  0  0  0  0  0  0
  -14.9767   -7.2874    5.7867 C   0  0  0  0  0  0  0  0  0  0  0  0
  -14.0936   -7.5788    6.8333 C   0  0  0  0  0  0  0  0  0  0  0  0
  -14.0249   -6.8675    8.1354 C   0  0  0  0  0  0  0  0  0  0  0  0
  -15.1958   -8.1863    3.8619 H   0  0  0  0  0  0  0  0  0  0  0  0
  -15.9586   -6.2406    5.8909 C   0  0  0  0  0  0  0  0  0  0  0  0
  -16.9958   -6.1497    5.1106 C   0  0  0  0  0  0  0  0  0  0  0  0
  -17.4154   -7.0049    4.0216 C   0  0  0  0  0  0  0  0  0  0  0  0
  -16.8460   -8.0506    3.6099 O   0  0  0  0  0  0  0  0  0  0  0  0
  -18.6203   -6.4348    3.4900 N   0  0  0  0  0  0  0  0  0  0  0  0
  -18.9617   -5.2661    4.2051 C   0  0  0  0  0  0  0  0  0  0  0  0
  -19.9933   -4.3592    4.1136 C   0  0  0  0  0  0  0  0  0  0  0  0
  -20.1024   -3.2747    4.9559 C   0  0  0  0  0  0  0  0  0  0  0  0
  -19.1497   -3.0679    5.9399 C   0  0  0  0  0  0  0  0  0  0  0  0
  -19.2137   -2.0171    6.7915 F   0  0  0  0  0  0  0  0  0  0  0  0
  -18.1258   -3.9804    6.0205 C   0  0  0  0  0  0  0  0  0  0  0  0
  -18.0097   -5.0728    5.1776 C   0  0  0  0  0  0  0  0  0  0  0  0
  -19.1659   -6.8211    2.6970 H   0  0  0  0  0  0  0  0  0  0  0  0
  -10.9355   -9.5237    6.8357 N   0  0  0  0  0  0  0  0  0  0  0  0
  -12.2193   -9.1814    7.2812 C   0  0  0  0  0  0  0  0  0  0  0  0
  -12.5443   -9.3309    8.5222 O   0  0  0  0  0  0  0  0  0  0  0  0
  -10.7569   -9.3261    5.7716 H   0  0  0  0  0  0  0  0  0  0  0  0
   -9.8000  -10.0523    7.4855 C   0  0  0  0  0  0  0  0  0  0  0  0
   -8.6759   -9.1521    7.8563 C   0  0  0  0  0  0  0  0  0  0  0  0
   -8.2196   -8.2762    6.8544 N   0  0  0  0  0  0  0  0  0  0  0  0
   -9.5427   -6.8525    8.3806 C   0  0  0  0  0  0  0  0  0  0  0  0
   -8.5876   -6.8989    7.2051 C   0  0  0  0  0  0  0  0  0  0  0  0
   -6.8084   -8.2938    6.6201 C   0  0  0  0  0  0  0  0  0  0  0  0
   -5.9860   -7.8288    7.7792 C   0  0  0  0  0  0  0  0  0  0  0  0
 29 30  1  0  0  0
 30 28  1  0  0  0
 28 31  1  0  0  0
 31 32  1  0  0  0
 28 27  1  0  0  0
 27 26  1  0  0  0
 26 22  1  0  0  0
 22 23  1  0  0  0
 23 24  2  0  0  0
 23  1  1  0  0  0
  1  2  2  0  0  0
  2  3  1  0  0  0
  2  4  1  0  0  0
  4  5  1  0  0  0
  5  9  1  0  0  0
  9 10  2  0  0  0
 10 11  1  0  0  0
 11 12  2  0  0  0
 11 13  1  0  0  0
 13 14  1  0  0  0
 14 15  2  0  0  0
 15 16  1  0  0  0
 16 17  2  0  0  0
 17 18  1  0  0  0
 17 19  1  0  0  0
 19 20  2  0  0  0
  5  6  2  0  0  0
  6  7  1  0  0  0
  6  1  1  0  0  0
 20 10  1  0  0  0
 20 14  1  0  0  0
 22 25  1  0  0  0
  4  8  1  0  0  0
 13 21  1  0  0  0
M  END
> <minimizedAffinity>
1.51934

> <CNNscore>
0.2980853021

> <CNNaffinity>
6.7862868309

> <CNN_VS>
2.0228924751

> <CNNaffinity_variance>
0.5054842830

$$$$
[H]/C(=C1/C(=O)N([H])c2c([H])c([H])c(F)c([H])c21)c1c(C([H])([H])[H])c(C(=O)N([H])C([H])([H])C([H])([H])N(C([H])([H])C([H])([H])[H])C([H])([H])C([H])([H])[H])c(C([H])([H])[H])n1[H]


 32 34  0  0  0  0  0  0  0  0999 V2000
  -10.1480   -8.1891    7.8837 C   0  0  0  0  0  0  0  0  0  0  0  0
   -9.7050   -7.0038    8.3862 C   0  0  0  0  0  0  0  0  0  0  0  0
  -10.4841   -5.9704    9.1243 C   0  0  0  0  0  0  0  0  0  0  0  0
   -8.3612   -6.8521    8.1545 N   0  0  0  0  0  0  0  0  0  0  0  0
   -7.9329   -7.9182    7.5139 C   0  0  0  0  0  0  0  0  0  0  0  0
   -9.0230   -8.7767    7.3269 C   0  0  0  0  0  0  0  0  0  0  0  0
   -8.9838  -10.0940    6.6419 C   0  0  0  0  0  0  0  0  0  0  0  0
   -7.8174   -6.0014    8.4485 H   0  0  0  0  0  0  0  0  0  0  0  0
   -6.6108   -8.2599    7.0600 C   0  0  0  0  0  0  0  0  0  0  0  0
   -5.5281   -7.7049    7.5214 C   0  0  0  0  0  0  0  0  0  0  0  0
   -5.3680   -6.6844    8.5345 C   0  0  0  0  0  0  0  0  0  0  0  0
   -6.2769   -6.1232    9.2024 O   0  0  0  0  0  0  0  0  0  0  0  0
   -3.9603   -6.4269    8.6417 N   0  0  0  0  0  0  0  0  0  0  0  0
   -3.2464   -7.2454    7.7395 C   0  0  0  0  0  0  0  0  0  0  0  0
   -1.9108   -7.3991    7.4433 C   0  0  0  0  0  0  0  0  0  0  0  0
   -1.4607   -8.2926    6.4964 C   0  0  0  0  0  0  0  0  0  0  0  0
   -2.3677   -9.0768    5.8027 C   0  0  0  0  0  0  0  0  0  0  0  0
   -1.9742   -9.9688    4.8632 F   0  0  0  0  0  0  0  0  0  0  0  0
   -3.6972   -8.9135    6.1081 C   0  0  0  0  0  0  0  0  0  0  0  0
   -4.1571   -8.0178    7.0586 C   0  0  0  0  0  0  0  0  0  0  0  0
   -3.5249   -5.7415    9.2871 H   0  0  0  0  0  0  0  0  0  0  0  0
  -12.2764   -8.8995    6.6860 N   0  0  0  0  0  0  0  0  0  0  0  0
  -11.4779   -8.7876    7.8322 C   0  0  0  0  0  0  0  0  0  0  0  0
  -11.8960   -9.2360    8.9689 O   0  0  0  0  0  0  0  0  0  0  0  0
  -11.8110   -8.5157    5.7698 H   0  0  0  0  0  0  0  0  0  0  0  0
  -13.5617   -9.4344    6.4565 C   0  0  0  0  0  0  0  0  0  0  0  0
  -14.5535   -8.6587    5.6652 C   0  0  0  0  0  0  0  0  0  0  0  0
  -15.3422   -7.7388    6.3801 N   0  0  0  0  0  0  0  0  0  0  0  0
  -14.6997   -5.9259    4.8286 C   0  0  0  0  0  0  0  0  0  0  0  0
  -14.7531   -6.3989    6.2672 C   0  0  0  0  0  0  0  0  0  0  0  0
  -16.7058   -7.6418    5.9585 C   0  0  0  0  0  0  0  0  0  0  0  0
  -17.0604   -8.5334    4.8116 C   0  0  0  0  0  0  0  0  0  0  0  0
 29 30  1  0  0  0
 30 28  1  0  0  0
 28 31  1  0  0  0
 31 32  1  0  0  0
 28 27  1  0  0  0
 27 26  1  0  0  0
 26 22  1  0  0  0
 22 23  1  0  0  0
 23 24  2  0  0  0
 23  1  1  0  0  0
  1  2  2  0  0  0
  2  3  1  0  0  0
  2  4  1  0  0  0
  4  5  1  0  0  0
  5  9  1  0  0  0
  9 10  2  0  0  0
 10 11  1  0  0  0
 11 12  2  0  0  0
 11 13  1  0  0  0
 13 14  1  0  0  0
 14 15  2  0  0  0
 15 16  1  0  0  0
 16 17  2  0  0  0
 17 18  1  0  0  0
 17 19  1  0  0  0
 19 20  2  0  0  0
  5  6  2  0  0  0
  6  7  1  0  0  0
  6  1  1  0  0  0
 20 10  1  0  0  0
 20 14  1  0  0  0
 22 25  1  0  0  0
  4  8  1  0  0  0
 13 21  1  0  0  0
M  END
> <minimizedAffinity>
-6.57380

> <CNNscore>
0.2894632220

> <CNNaffinity>
6.6456208229

> <CNN_VS>
1.9236627817

> <CNNaffinity_variance>
0.0449445359

$$$$
[H]/C(=C1/C(=O)N([H])c2c([H])c([H])c(F)c([H])c21)c1c(C([H])([H])[H])c(C(=O)N([H])C([H])([H])C([H])([H])N(C([H])([H])C([H])([H])[H])C([H])([H])C([H])([H])[H])c(C([H])([H])[H])n1[H]


 32 34  0  0  0  0  0  0  0  0999 V2000
  -11.8333   -7.3017    8.6606 C   0  0  0  0  0  0  0  0  0  0  0  0
  -11.4931   -6.4042    9.6263 C   0  0  0  0  0  0  0  0  0  0  0  0
  -12.2849   -5.9953   10.8203 C   0  0  0  0  0  0  0  0  0  0  0  0
  -10.2418   -5.8925    9.3922 N   0  0  0  0  0  0  0  0  0  0  0  0
   -9.7716   -6.4456    8.2951 C   0  0  0  0  0  0  0  0  0  0  0  0
  -10.7398   -7.3328    7.8095 C   0  0  0  0  0  0  0  0  0  0  0  0
  -10.6197   -8.1644    6.5847 C   0  0  0  0  0  0  0  0  0  0  0  0
   -9.7881   -5.1722   10.0095 H   0  0  0  0  0  0  0  0  0  0  0  0
   -8.5052   -6.2682    7.6352 C   0  0  0  0  0  0  0  0  0  0  0  0
   -7.5640   -7.1665    7.6357 C   0  0  0  0  0  0  0  0  0  0  0  0
   -7.5355   -8.4801    8.2417 C   0  0  0  0  0  0  0  0  0  0  0  0
   -8.4546   -9.0370    8.8991 O   0  0  0  0  0  0  0  0  0  0  0  0
   -6.2476   -9.0415    7.9491 N   0  0  0  0  0  0  0  0  0  0  0  0
   -5.4821   -8.1312    7.1881 C   0  0  0  0  0  0  0  0  0  0  0  0
   -4.2143   -8.1656    6.6527 C   0  0  0  0  0  0  0  0  0  0  0  0
   -3.6878   -7.1186    5.9288 C   0  0  0  0  0  0  0  0  0  0  0  0
   -4.4439   -5.9771    5.7187 C   0  0  0  0  0  0  0  0  0  0  0  0
   -3.9706   -4.9222    5.0141 F   0  0  0  0  0  0  0  0  0  0  0  0
   -5.7072   -5.9559    6.2581 C   0  0  0  0  0  0  0  0  0  0  0  0
   -6.2432   -7.0045    6.9866 C   0  0  0  0  0  0  0  0  0  0  0  0
   -5.9215   -9.9793    8.2491 H   0  0  0  0  0  0  0  0  0  0  0  0
  -14.1701   -7.6341    7.7132 N   0  0  0  0  0  0  0  0  0  0  0  0
  -13.0515   -8.0724    8.4346 C   0  0  0  0  0  0  0  0  0  0  0  0
  -13.0340   -9.2495    8.9658 O   0  0  0  0  0  0  0  0  0  0  0  0
  -14.0654   -6.6325    7.2783 H   0  0  0  0  0  0  0  0  0  0  0  0
  -15.4103   -8.2313    7.4029 C   0  0  0  0  0  0  0  0  0  0  0  0
  -16.0069   -8.0358    6.0549 C   0  0  0  0  0  0  0  0  0  0  0  0
  -16.2001   -6.7043    5.6436 N   0  0  0  0  0  0  0  0  0  0  0  0
  -15.0426   -4.8316    4.5214 C   0  0  0  0  0  0  0  0  0  0  0  0
  -15.1561   -6.3343    4.6802 C   0  0  0  0  0  0  0  0  0  0  0  0
  -17.4630   -6.4286    5.0305 C   0  0  0  0  0  0  0  0  0  0  0  0
  -17.9408   -7.4957    4.0984 C   0  0  0  0  0  0  0  0  0  0  0  0
 29 30  1  0  0  0
 30 28  1  0  0  0
 28 31  1  0  0  0
 31 32  1  0  0  0
 28 27  1  0  0  0
 27 26  1  0  0  0
 26 22  1  0  0  0
 22 23  1  0  0  0
 23 24  2  0  0  0
 23  1  1  0  0  0
  1  2  2  0  0  0
  2  3  1  0  0  0
  2  4  1  0  0  0
  4  5  1  0  0  0
  5  9  1  0  0  0
  9 10  2  0  0  0
 10 11  1  0  0  0
 11 12  2  0  0  0
 11 13  1  0  0  0
 13 14  1  0  0  0
 14 15  2  0  0  0
 15 16  1  0  0  0
 16 17  2  0  0  0
 17 18  1  0  0  0
 17 19  1  0  0  0
 19 20  2  0  0  0
  5  6  2  0  0  0
  6  7  1  0  0  0
  6  1  1  0  0  0
 20 10  1  0  0  0
 20 14  1  0  0  0
 22 25  1  0  0  0
  4  8  1  0  0  0
 13 21  1  0  0  0
M  END
> <minimizedAffinity>
-6.39967

> <CNNscore>
0.2849066854

> <CNNaffinity>
6.7460227013

> <CNN_VS>
1.9219869375

> <CNNaffinity_variance>
0.0169133805

$$$$
[H]/C(=C1/C(=O)N([H])c2c([H])c([H])c(F)c([H])c21)c1c(C([H])([H])[H])c(C(=O)N([H])C([H])([H])C([H])([H])N(C([H])([H])C([H])([H])[H])C([H])([H])C([H])([H])[H])c(C([H])([H])[H])n1[H]


 32 34  0  0  0  0  0  0  0  0999 V2000
   -9.0234   -8.0237    7.3481 C   0  0  0  0  0  0  0  0  0  0  0  0
   -9.1432   -6.7998    7.9324 C   0  0  0  0  0  0  0  0  0  0  0  0
  -10.2202   -6.3177    8.8421 C   0  0  0  0  0  0  0  0  0  0  0  0
   -8.0800   -5.9988    7.6002 N   0  0  0  0  0  0  0  0  0  0  0  0
   -7.2791   -6.6858    6.8146 C   0  0  0  0  0  0  0  0  0  0  0  0
   -7.8369   -7.9574    6.6348 C   0  0  0  0  0  0  0  0  0  0  0  0
   -7.2588   -9.0513    5.8130 C   0  0  0  0  0  0  0  0  0  0  0  0
   -7.9786   -5.0067    7.9334 H   0  0  0  0  0  0  0  0  0  0  0  0
   -6.0265   -6.3140    6.2118 C   0  0  0  0  0  0  0  0  0  0  0  0
   -4.9378   -6.1021    6.8921 C   0  0  0  0  0  0  0  0  0  0  0  0
   -4.7047   -6.1809    8.3179 C   0  0  0  0  0  0  0  0  0  0  0  0
   -5.5362   -6.4953    9.2106 O   0  0  0  0  0  0  0  0  0  0  0  0
   -3.3291   -5.8318    8.5309 N   0  0  0  0  0  0  0  0  0  0  0  0
   -2.7046   -5.5425    7.2980 C   0  0  0  0  0  0  0  0  0  0  0  0
   -1.4297   -5.1667    6.9399 C   0  0  0  0  0  0  0  0  0  0  0  0
   -1.0646   -4.9414    5.6308 C   0  0  0  0  0  0  0  0  0  0  0  0
   -1.9988   -5.0922    4.6192 C   0  0  0  0  0  0  0  0  0  0  0  0
   -1.6881   -4.8822    3.3181 F   0  0  0  0  0  0  0  0  0  0  0  0
   -3.2671   -5.4677    4.9903 C   0  0  0  0  0  0  0  0  0  0  0  0
   -3.6413   -5.6961    6.3038 C   0  0  0  0  0  0  0  0  0  0  0  0
   -2.8567   -5.7966    9.4536 H   0  0  0  0  0  0  0  0  0  0  0  0
  -11.2913   -9.1676    7.2171 N   0  0  0  0  0  0  0  0  0  0  0  0
   -9.8966   -9.1928    7.3513 C   0  0  0  0  0  0  0  0  0  0  0  0
   -9.2713  -10.3145    7.4890 O   0  0  0  0  0  0  0  0  0  0  0  0
  -11.7151   -8.1660    7.0737 H   0  0  0  0  0  0  0  0  0  0  0  0
  -12.2755  -10.1786    7.2014 C   0  0  0  0  0  0  0  0  0  0  0  0
  -13.5794   -9.9499    7.8788 C   0  0  0  0  0  0  0  0  0  0  0  0
  -14.4373   -9.0079    7.2824 N   0  0  0  0  0  0  0  0  0  0  0  0
  -14.1584   -7.8474    9.4462 C   0  0  0  0  0  0  0  0  0  0  0  0
  -14.2681   -7.7070    7.9414 C   0  0  0  0  0  0  0  0  0  0  0  0
  -14.2439   -8.8035    5.8797 C   0  0  0  0  0  0  0  0  0  0  0  0
  -14.5531   -7.4175    5.4112 C   0  0  0  0  0  0  0  0  0  0  0  0
 29 30  1  0  0  0
 30 28  1  0  0  0
 28 31  1  0  0  0
 31 32  1  0  0  0
 28 27  1  0  0  0
 27 26  1  0  0  0
 26 22  1  0  0  0
 22 23  1  0  0  0
 23 24  2  0  0  0
 23  1  1  0  0  0
  1  2  2  0  0  0
  2  3  1  0  0  0
  2  4  1  0  0  0
  4  5  1  0  0  0
  5  9  1  0  0  0
  9 10  2  0  0  0
 10 11  1  0  0  0
 11 12  2  0  0  0
 11 13  1  0  0  0
 13 14  1  0  0  0
 14 15  2  0  0  0
 15 16  1  0  0  0
 16 17  2  0  0  0
 17 18  1  0  0  0
 17 19  1  0  0  0
 19 20  2  0  0  0
  5  6  2  0  0  0
  6  7  1  0  0  0
  6  1  1  0  0  0
 20 10  1  0  0  0
 20 14  1  0  0  0
 22 25  1  0  0  0
  4  8  1  0  0  0
 13 21  1  0  0  0
M  END
> <minimizedAffinity>
-6.85501

> <CNNscore>
0.2522999048

> <CNNaffinity>
6.4696159363

> <CNN_VS>
1.6322834492

> <CNNaffinity_variance>
0.0250835605

$$$$
[H]/C(=C1/C(=O)N([H])c2c([H])c([H])c(F)c([H])c21)c1c(C([H])([H])[H])c(C(=O)N([H])C([H])([H])C([H])([H])N(C([H])([H])C([H])([H])[H])C([H])([H])C([H])([H])[H])c(C([H])([H])[H])n1[H]


 32 34  0  0  0  0  0  0  0  0999 V2000
  -15.4650   -6.9206    4.8720 C   0  0  0  0  0  0  0  0  0  0  0  0
  -16.3174   -6.4025    3.9454 C   0  0  0  0  0  0  0  0  0  0  0  0
  -16.0995   -5.2320    3.0497 C   0  0  0  0  0  0  0  0  0  0  0  0
  -17.4764   -7.1348    3.8911 N   0  0  0  0  0  0  0  0  0  0  0  0
  -17.3835   -8.1143    4.7643 C   0  0  0  0  0  0  0  0  0  0  0  0
  -16.1386   -8.0122    5.3969 C   0  0  0  0  0  0  0  0  0  0  0  0
  -15.6262   -8.9174    6.4572 C   0  0  0  0  0  0  0  0  0  0  0  0
  -18.2773   -6.9010    3.2511 H   0  0  0  0  0  0  0  0  0  0  0  0
  -18.3121   -9.1669    5.0811 C   0  0  0  0  0  0  0  0  0  0  0  0
  -18.8946   -9.2855    6.2385 C   0  0  0  0  0  0  0  0  0  0  0  0
  -18.7839   -8.4601    7.4217 C   0  0  0  0  0  0  0  0  0  0  0  0
  -18.0880   -7.4196    7.5637 O   0  0  0  0  0  0  0  0  0  0  0  0
  -19.6284   -9.0534    8.4189 N   0  0  0  0  0  0  0  0  0  0  0  0
  -20.2553  -10.2076    7.9008 C   0  0  0  0  0  0  0  0  0  0  0  0
  -21.1411  -11.1254    8.4184 C   0  0  0  0  0  0  0  0  0  0  0  0
  -21.6163  -12.1905    7.6853 C   0  0  0  0  0  0  0  0  0  0  0  0
  -21.2010  -12.3654    6.3755 C   0  0  0  0  0  0  0  0  0  0  0  0
  -21.6397  -13.3962    5.6149 F   0  0  0  0  0  0  0  0  0  0  0  0
  -20.3171  -11.4424    5.8713 C   0  0  0  0  0  0  0  0  0  0  0  0
  -19.8354  -10.3693    6.6020 C   0  0  0  0  0  0  0  0  0  0  0  0
  -19.7635   -8.6908    9.3812 H   0  0  0  0  0  0  0  0  0  0  0  0
  -13.2825   -7.2383    6.1389 N   0  0  0  0  0  0  0  0  0  0  0  0
  -14.1498   -6.4882    5.3332 C   0  0  0  0  0  0  0  0  0  0  0  0
  -13.8133   -5.3088    4.9285 O   0  0  0  0  0  0  0  0  0  0  0  0
  -13.6541   -8.2375    6.3976 H   0  0  0  0  0  0  0  0  0  0  0  0
  -12.0015   -6.9828    6.6724 C   0  0  0  0  0  0  0  0  0  0  0  0
  -11.6606   -7.4657    8.0369 C   0  0  0  0  0  0  0  0  0  0  0  0
  -12.4715   -6.9974    9.0868 N   0  0  0  0  0  0  0  0  0  0  0  0
  -12.4956   -7.4136   11.5225 C   0  0  0  0  0  0  0  0  0  0  0  0
  -12.5525   -8.0214   10.1356 C   0  0  0  0  0  0  0  0  0  0  0  0
  -12.0326   -5.7854    9.7074 C   0  0  0  0  0  0  0  0  0  0  0  0
  -12.6353   -5.5288   11.0516 C   0  0  0  0  0  0  0  0  0  0  0  0
 29 30  1  0  0  0
 30 28  1  0  0  0
 28 31  1  0  0  0
 31 32  1  0  0  0
 28 27  1  0  0  0
 27 26  1  0  0  0
 26 22  1  0  0  0
 22 23  1  0  0  0
 23 24  2  0  0  0
 23  1  1  0  0  0
  1  2  2  0  0  0
  2  3  1  0  0  0
  2  4  1  0  0  0
  4  5  1  0  0  0
  5  9  1  0  0  0
  9 10  2  0  0  0
 10 11  1  0  0  0
 11 12  2  0  0  0
 11 13  1  0  0  0
 13 14  1  0  0  0
 14 15  2  0  0  0
 15 16  1  0  0  0
 16 17  2  0  0  0
 17 18  1  0  0  0
 17 19  1  0  0  0
 19 20  2  0  0  0
  5  6  2  0  0  0
  6  7  1  0  0  0
  6  1  1  0  0  0
 20 10  1  0  0  0
 20 14  1  0  0  0
 22 25  1  0  0  0
  4  8  1  0  0  0
 13 21  1  0  0  0
M  END
> <minimizedAffinity>
6.10365

> <CNNscore>
0.2464467287

> <CNNaffinity>
6.5230584145

> <CNN_VS>
1.6075863838

> <CNNaffinity_variance>
0.3676511943

$$$$
[H]/C(=C1/C(=O)N([H])c2c([H])c([H])c(F)c([H])c21)c1c(C([H])([H])[H])c(C(=O)N([H])C([H])([H])C([H])([H])N(C([H])([H])C([H])([H])[H])C([H])([H])C([H])([H])[H])c(C([H])([H])[H])n1[H]


 32 34  0  0  0  0  0  0  0  0999 V2000
   -9.5798   -6.0622    6.3502 C   0  0  0  0  0  0  0  0  0  0  0  0
   -9.1644   -5.8801    7.6339 C   0  0  0  0  0  0  0  0  0  0  0  0
   -9.9460   -5.3485    8.7856 C   0  0  0  0  0  0  0  0  0  0  0  0
   -7.8641   -6.2910    7.7846 N   0  0  0  0  0  0  0  0  0  0  0  0
   -7.4372   -6.7346    6.6221 C   0  0  0  0  0  0  0  0  0  0  0  0
   -8.4835   -6.6071    5.7005 C   0  0  0  0  0  0  0  0  0  0  0  0
   -8.4280   -6.9861    4.2654 C   0  0  0  0  0  0  0  0  0  0  0  0
   -7.3405   -6.2272    8.6943 H   0  0  0  0  0  0  0  0  0  0  0  0
   -6.1630   -7.2917    6.2520 C   0  0  0  0  0  0  0  0  0  0  0  0
   -5.0868   -7.1612    6.9715 C   0  0  0  0  0  0  0  0  0  0  0  0
   -4.8922   -6.4843    8.2354 C   0  0  0  0  0  0  0  0  0  0  0  0
   -5.7607   -5.8791    8.9183 O   0  0  0  0  0  0  0  0  0  0  0  0
   -3.5057   -6.6339    8.5742 N   0  0  0  0  0  0  0  0  0  0  0  0
   -2.8382   -7.3746    7.5744 C   0  0  0  0  0  0  0  0  0  0  0  0
   -1.5384   -7.7961    7.4077 C   0  0  0  0  0  0  0  0  0  0  0  0
   -1.1321   -8.5280    6.3136 C   0  0  0  0  0  0  0  0  0  0  0  0
   -2.0484   -8.8643    5.3308 C   0  0  0  0  0  0  0  0  0  0  0  0
   -1.6975   -9.5819    4.2375 F   0  0  0  0  0  0  0  0  0  0  0  0
   -3.3420   -8.4376    5.5096 C   0  0  0  0  0  0  0  0  0  0  0  0
   -3.7578   -7.7019    6.6066 C   0  0  0  0  0  0  0  0  0  0  0  0
   -3.0544   -6.2563    9.4283 H   0  0  0  0  0  0  0  0  0  0  0  0
  -10.9983   -4.8192    4.6437 N   0  0  0  0  0  0  0  0  0  0  0  0
  -10.8378   -5.7478    5.6809 C   0  0  0  0  0  0  0  0  0  0  0  0
  -11.8496   -6.4170    6.1242 O   0  0  0  0  0  0  0  0  0  0  0  0
  -10.0692   -4.3318    4.3235 H   0  0  0  0  0  0  0  0  0  0  0  0
  -12.1174   -4.3937    3.8970 C   0  0  0  0  0  0  0  0  0  0  0  0
  -13.4888   -4.7082    4.3783 C   0  0  0  0  0  0  0  0  0  0  0  0
  -13.7094   -6.0251    4.8213 N   0  0  0  0  0  0  0  0  0  0  0  0
  -15.5626   -6.7358    6.2934 C   0  0  0  0  0  0  0  0  0  0  0  0
  -14.2434   -5.9976    6.1885 C   0  0  0  0  0  0  0  0  0  0  0  0
  -14.6141   -6.7967    4.0258 C   0  0  0  0  0  0  0  0  0  0  0  0
  -15.3212   -7.8810    4.7744 C   0  0  0  0  0  0  0  0  0  0  0  0
 29 30  1  0  0  0
 30 28  1  0  0  0
 28 31  1  0  0  0
 31 32  1  0  0  0
 28 27  1  0  0  0
 27 26  1  0  0  0
 26 22  1  0  0  0
 22 23  1  0  0  0
 23 24  2  0  0  0
 23  1  1  0  0  0
  1  2  2  0  0  0
  2  3  1  0  0  0
  2  4  1  0  0  0
  4  5  1  0  0  0
  5  9  1  0  0  0
  9 10  2  0  0  0
 10 11  1  0  0  0
 11 12  2  0  0  0
 11 13  1  0  0  0
 13 14  1  0  0  0
 14 15  2  0  0  0
 15 16  1  0  0  0
 16 17  2  0  0  0
 17 18  1  0  0  0
 17 19  1  0  0  0
 19 20  2  0  0  0
  5  6  2  0  0  0
  6  7  1  0  0  0
  6  1  1  0  0  0
 20 10  1  0  0  0
 20 14  1  0  0  0
 22 25  1  0  0  0
  4  8  1  0  0  0
 13 21  1  0  0  0
M  END
> <minimizedAffinity>
19.35028

> <CNNscore>
0.2374346852

> <CNNaffinity>
5.9616131783

> <CNN_VS>
1.4154937267

> <CNNaffinity_variance>
0.5792465806

$$$$
[H]C1=C(C([H])([H])N([H])C(=O)c2nc([H])c([H])c([H])c2N([H])[H])C([H])([H])C([H])([H])N(C([H])([H])C([H])([H])N2C(=O)c3c([H])c([H])c([H])c([H])c32)C1([H])[H]


 31 34  0  0  0  0  0  0  0  0999 V2000
  -14.1847   -8.9862    6.9655 C   0  0  0  0  0  0  0  0  0  0  0  0
  -13.7045   -9.8350    7.9076 C   0  0  0  0  0  0  0  0  0  0  0  0
  -12.8007  -10.9255    7.4075 C   0  0  0  0  0  0  0  0  0  0  0  0
  -11.8063  -10.3257    6.6308 N   0  0  0  0  0  0  0  0  0  0  0  0
  -12.2363   -9.5569    5.5264 C   0  0  0  0  0  0  0  0  0  0  0  0
  -13.7044   -9.1765    5.5823 C   0  0  0  0  0  0  0  0  0  0  0  0
  -15.0724   -7.9194    7.4453 C   0  0  0  0  0  0  0  0  0  0  0  0
  -13.2739   -6.5548    8.5797 C   0  0  0  0  0  0  0  0  0  0  0  0
  -12.3197   -6.7335    7.8205 O   0  0  0  0  0  0  0  0  0  0  0  0
  -14.5270   -7.0787    8.4340 N   0  0  0  0  0  0  0  0  0  0  0  0
  -15.2407   -6.8026    9.2167 H   0  0  0  0  0  0  0  0  0  0  0  0
  -12.3470   -7.6328   11.0377 N   0  0  0  0  0  0  0  0  0  0  0  0
  -12.5545   -6.2321   10.9323 C   0  0  0  0  0  0  0  0  0  0  0  0
  -12.2992   -5.4209   12.0463 C   0  0  0  0  0  0  0  0  0  0  0  0
  -12.5015   -4.0653   11.9237 C   0  0  0  0  0  0  0  0  0  0  0  0
  -12.9443   -3.5333   10.7307 C   0  0  0  0  0  0  0  0  0  0  0  0
  -13.1744   -4.3620    9.6899 N   0  0  0  0  0  0  0  0  0  0  0  0
  -12.9954   -5.6809    9.7527 C   0  0  0  0  0  0  0  0  0  0  0  0
  -11.3964   -8.0303   10.9300 H   0  0  0  0  0  0  0  0  0  0  0  0
  -13.1373   -8.2748   11.2227 H   0  0  0  0  0  0  0  0  0  0  0  0
  -10.4629  -10.6377    6.7757 C   0  0  0  0  0  0  0  0  0  0  0  0
   -9.4299   -9.9202    5.9673 C   0  0  0  0  0  0  0  0  0  0  0  0
   -8.3486   -9.3344    6.6998 N   0  0  0  0  0  0  0  0  0  0  0  0
   -7.4343   -8.2568    6.3954 C   0  0  0  0  0  0  0  0  0  0  0  0
   -7.0069   -7.2879    5.4959 C   0  0  0  0  0  0  0  0  0  0  0  0
   -5.9587   -6.4477    5.7871 C   0  0  0  0  0  0  0  0  0  0  0  0
   -5.3117   -6.5592    6.9915 C   0  0  0  0  0  0  0  0  0  0  0  0
   -5.7082   -7.5101    7.9099 C   0  0  0  0  0  0  0  0  0  0  0  0
   -6.7638   -8.3405    7.5906 C   0  0  0  0  0  0  0  0  0  0  0  0
   -7.6558   -9.4336    7.9538 C   0  0  0  0  0  0  0  0  0  0  0  0
   -7.8123  -10.1960    8.9402 O   0  0  0  0  0  0  0  0  0  0  0  0
 12 13  1  0  0  0
 13 14  2  0  0  0
 14 15  1  0  0  0
 15 16  2  0  0  0
 16 17  1  0  0  0
 17 18  2  0  0  0
 18  8  1  0  0  0
  8  9  2  0  0  0
  8 10  1  0  0  0
 10  7  1  0  0  0
  7  1  1  0  0  0
  1  2  2  0  0  0
  2  3  1  0  0  0
  3  4  1  0  0  0
  4 21  1  0  0  0
 21 22  1  0  0  0
 22 23  1  0  0  0
 23 24  1  0  0  0
 24 25  2  0  0  0
 25 26  1  0  0  0
 26 27  2  0  0  0
 27 28  1  0  0  0
 28 29  2  0  0  0
 29 30  1  0  0  0
 30 31  2  0  0  0
  4  5  1  0  0  0
  5  6  1  0  0  0
 18 13  1  0  0  0
  6  1  1  0  0  0
 30 23  1  0  0  0
 29 24  1  0  0  0
 12 19  1  0  0  0
 12 20  1  0  0  0
 10 11  1  0  0  0
M  END
> <minimizedAffinity>
2.32410

> <CNNscore>
0.4630452394

> <CNNaffinity>
6.5093092918

> <CNN_VS>
3.0141046047

> <CNNaffinity_variance>
0.4577985406

$$$$
[H]C1=C(C([H])([H])N([H])C(=O)c2nc([H])c([H])c([H])c2N([H])[H])C([H])([H])C([H])([H])N(C([H])([H])C([H])([H])N2C(=O)c3c([H])c([H])c([H])c([H])c32)C1([H])[H]


 31 34  0  0  0  0  0  0  0  0999 V2000
  -12.3206   -9.1608    6.9670 C   0  0  0  0  0  0  0  0  0  0  0  0
  -12.4750   -7.9381    7.5324 C   0  0  0  0  0  0  0  0  0  0  0  0
  -11.4170   -7.5342    8.5191 C   0  0  0  0  0  0  0  0  0  0  0  0
  -10.1757   -7.7176    7.9048 N   0  0  0  0  0  0  0  0  0  0  0  0
   -9.8811   -9.0178    7.4374 C   0  0  0  0  0  0  0  0  0  0  0  0
  -11.1000   -9.9140    7.3178 C   0  0  0  0  0  0  0  0  0  0  0  0
  -13.3527   -9.5654    6.0041 C   0  0  0  0  0  0  0  0  0  0  0  0
  -15.0736   -8.4148    4.5556 C   0  0  0  0  0  0  0  0  0  0  0  0
  -15.1268   -9.1788    3.5900 O   0  0  0  0  0  0  0  0  0  0  0  0
  -14.2813   -8.5654    5.6580 N   0  0  0  0  0  0  0  0  0  0  0  0
  -14.3772   -7.7770    6.4113 H   0  0  0  0  0  0  0  0  0  0  0  0
  -17.8859   -8.6691    4.8543 N   0  0  0  0  0  0  0  0  0  0  0  0
  -17.3299   -7.3843    4.6171 C   0  0  0  0  0  0  0  0  0  0  0  0
  -18.1857   -6.2776    4.5336 C   0  0  0  0  0  0  0  0  0  0  0  0
  -17.6282   -5.0398    4.3081 C   0  0  0  0  0  0  0  0  0  0  0  0
  -16.2623   -4.9072    4.1695 C   0  0  0  0  0  0  0  0  0  0  0  0
  -15.4854   -6.0078    4.2589 N   0  0  0  0  0  0  0  0  0  0  0  0
  -15.9714   -7.2294    4.4760 C   0  0  0  0  0  0  0  0  0  0  0  0
  -18.1285   -8.9645    5.8172 H   0  0  0  0  0  0  0  0  0  0  0  0
  -18.0567   -9.3267    4.0737 H   0  0  0  0  0  0  0  0  0  0  0  0
   -9.1792   -6.7539    7.9437 C   0  0  0  0  0  0  0  0  0  0  0  0
   -8.3813   -6.4433    6.7181 C   0  0  0  0  0  0  0  0  0  0  0  0
   -7.0924   -7.0596    6.6299 N   0  0  0  0  0  0  0  0  0  0  0  0
   -5.8262   -6.7688    7.2640 C   0  0  0  0  0  0  0  0  0  0  0  0
   -5.0951   -5.9655    8.1304 C   0  0  0  0  0  0  0  0  0  0  0  0
   -3.7620   -6.1960    8.3736 C   0  0  0  0  0  0  0  0  0  0  0  0
   -3.1278   -7.2413    7.7517 C   0  0  0  0  0  0  0  0  0  0  0  0
   -3.8217   -8.0606    6.8843 C   0  0  0  0  0  0  0  0  0  0  0  0
   -5.1595   -7.8054    6.6588 C   0  0  0  0  0  0  0  0  0  0  0  0
   -6.4075   -8.1473    5.9894 C   0  0  0  0  0  0  0  0  0  0  0  0
   -6.7977   -9.0199    5.1740 O   0  0  0  0  0  0  0  0  0  0  0  0
 12 13  1  0  0  0
 13 14  2  0  0  0
 14 15  1  0  0  0
 15 16  2  0  0  0
 16 17  1  0  0  0
 17 18  2  0  0  0
 18  8  1  0  0  0
  8  9  2  0  0  0
  8 10  1  0  0  0
 10  7  1  0  0  0
  7  1  1  0  0  0
  1  2  2  0  0  0
  2  3  1  0  0  0
  3  4  1  0  0  0
  4 21  1  0  0  0
 21 22  1  0  0  0
 22 23  1  0  0  0
 23 24  1  0  0  0
 24 25  2  0  0  0
 25 26  1  0  0  0
 26 27  2  0  0  0
 27 28  1  0  0  0
 28 29  2  0  0  0
 29 30  1  0  0  0
 30 31  2  0  0  0
  4  5  1  0  0  0
  5  6  1  0  0  0
 18 13  1  0  0  0
  6  1  1  0  0  0
 30 23  1  0  0  0
 29 24  1  0  0  0
 12 19  1  0  0  0
 12 20  1  0  0  0
 10 11  1  0  0  0
M  END
> <minimizedAffinity>
-9.07007

> <CNNscore>
0.4270663857

> <CNNaffinity>
6.9398565292

> <CNN_VS>
2.9637794495

> <CNNaffinity_variance>
0.0598107986

$$$$
[H]C1=C(C([H])([H])N([H])C(=O)c2nc([H])c([H])c([H])c2N([H])[H])C([H])([H])C([H])([H])N(C([H])([H])C([H])([H])N2C(=O)c3c([H])c([H])c([H])c([H])c32)C1([H])[H]


 31 34  0  0  0  0  0  0  0  0999 V2000
   -9.6351   -7.1828    7.8665 C   0  0  0  0  0  0  0  0  0  0  0  0
   -9.5223   -8.3713    7.2237 C   0  0  0  0  0  0  0  0  0  0  0  0
  -10.3510   -9.4959    7.7757 C   0  0  0  0  0  0  0  0  0  0  0  0
  -11.6661   -9.0368    7.8836 N   0  0  0  0  0  0  0  0  0  0  0  0
  -11.8780   -7.8896    8.6804 C   0  0  0  0  0  0  0  0  0  0  0  0
  -10.6111   -7.1066    8.9719 C   0  0  0  0  0  0  0  0  0  0  0  0
   -8.8252   -6.0788    7.3359 C   0  0  0  0  0  0  0  0  0  0  0  0
   -6.6785   -6.5444    6.0875 C   0  0  0  0  0  0  0  0  0  0  0  0
   -7.0679   -6.5177    4.9185 O   0  0  0  0  0  0  0  0  0  0  0  0
   -7.4508   -6.3501    7.1973 N   0  0  0  0  0  0  0  0  0  0  0  0
   -6.9183   -6.4133    8.1517 H   0  0  0  0  0  0  0  0  0  0  0  0
   -4.7181   -4.6115    5.3921 N   0  0  0  0  0  0  0  0  0  0  0  0
   -4.2988   -5.8641    5.9129 C   0  0  0  0  0  0  0  0  0  0  0  0
   -2.9280   -6.1126    6.0659 C   0  0  0  0  0  0  0  0  0  0  0  0
   -2.5408   -7.3304    6.5767 C   0  0  0  0  0  0  0  0  0  0  0  0
   -3.4875   -8.2715    6.9240 C   0  0  0  0  0  0  0  0  0  0  0  0
   -4.7946   -7.9783    6.7551 N   0  0  0  0  0  0  0  0  0  0  0  0
   -5.2253   -6.8163    6.2654 C   0  0  0  0  0  0  0  0  0  0  0  0
   -4.7827   -3.7829    6.0106 H   0  0  0  0  0  0  0  0  0  0  0  0
   -4.9644   -4.5071    4.3923 H   0  0  0  0  0  0  0  0  0  0  0  0
  -12.7493   -9.7769    7.4341 C   0  0  0  0  0  0  0  0  0  0  0  0
  -13.4135   -9.4329    6.1396 C   0  0  0  0  0  0  0  0  0  0  0  0
  -14.5712   -8.5956    6.2260 N   0  0  0  0  0  0  0  0  0  0  0  0
  -15.3889   -7.9541    5.2212 C   0  0  0  0  0  0  0  0  0  0  0  0
  -15.6302   -7.7058    3.8756 C   0  0  0  0  0  0  0  0  0  0  0  0
  -16.6855   -6.9263    3.4654 C   0  0  0  0  0  0  0  0  0  0  0  0
  -17.5272   -6.3754    4.3979 C   0  0  0  0  0  0  0  0  0  0  0  0
  -17.3187   -6.6000    5.7436 C   0  0  0  0  0  0  0  0  0  0  0  0
  -16.2510   -7.3866    6.1268 C   0  0  0  0  0  0  0  0  0  0  0  0
  -15.4647   -8.0076    7.1844 C   0  0  0  0  0  0  0  0  0  0  0  0
  -15.4958   -8.0529    8.4396 O   0  0  0  0  0  0  0  0  0  0  0  0
 12 13  1  0  0  0
 13 14  2  0  0  0
 14 15  1  0  0  0
 15 16  2  0  0  0
 16 17  1  0  0  0
 17 18  2  0  0  0
 18  8  1  0  0  0
  8  9  2  0  0  0
  8 10  1  0  0  0
 10  7  1  0  0  0
  7  1  1  0  0  0
  1  2  2  0  0  0
  2  3  1  0  0  0
  3  4  1  0  0  0
  4 21  1  0  0  0
 21 22  1  0  0  0
 22 23  1  0  0  0
 23 24  1  0  0  0
 24 25  2  0  0  0
 25 26  1  0  0  0
 26 27  2  0  0  0
 27 28  1  0  0  0
 28 29  2  0  0  0
 29 30  1  0  0  0
 30 31  2  0  0  0
  4  5  1  0  0  0
  5  6  1  0  0  0
 18 13  1  0  0  0
  6  1  1  0  0  0
 30 23  1  0  0  0
 29 24  1  0  0  0
 12 19  1  0  0  0
 12 20  1  0  0  0
 10 11  1  0  0  0
M  END
> <minimizedAffinity>
-8.60455

> <CNNscore>
0.3462354541

> <CNNaffinity>
6.7457876205

> <CNN_VS>
2.3356308937

> <CNNaffinity_variance>
0.1285518259

$$$$
[H]C1=C(C([H])([H])N([H])C(=O)c2nc([H])c([H])c([H])c2N([H])[H])C([H])([H])C([H])([H])N(C([H])([H])C([H])([H])N2C(=O)c3c([H])c([H])c([H])c([H])c32)C1([H])[H]


 31 34  0  0  0  0  0  0  0  0999 V2000
   -6.3737   -7.7151    7.0828 C   0  0  0  0  0  0  0  0  0  0  0  0
   -6.0846   -7.2500    5.8424 C   0  0  0  0  0  0  0  0  0  0  0  0
   -5.2751   -5.9859    5.7890 C   0  0  0  0  0  0  0  0  0  0  0  0
   -4.1506   -6.1708    6.5972 N   0  0  0  0  0  0  0  0  0  0  0  0
   -4.3851   -6.4971    7.9516 C   0  0  0  0  0  0  0  0  0  0  0  0
   -5.7967   -6.9815    8.2270 C   0  0  0  0  0  0  0  0  0  0  0  0
   -7.1682   -8.9485    7.1444 C   0  0  0  0  0  0  0  0  0  0  0  0
   -9.3906   -7.8109    7.5317 C   0  0  0  0  0  0  0  0  0  0  0  0
   -9.2529   -6.7797    6.8710 O   0  0  0  0  0  0  0  0  0  0  0  0
   -8.4654   -8.8058    7.6725 N   0  0  0  0  0  0  0  0  0  0  0  0
   -8.7762   -9.6446    8.3035 H   0  0  0  0  0  0  0  0  0  0  0  0
  -10.3417   -5.8051    9.3024 N   0  0  0  0  0  0  0  0  0  0  0  0
  -11.1318   -6.9643    9.0835 C   0  0  0  0  0  0  0  0  0  0  0  0
  -12.3582   -7.0876    9.7507 C   0  0  0  0  0  0  0  0  0  0  0  0
  -13.1123   -8.2158    9.5223 C   0  0  0  0  0  0  0  0  0  0  0  0
  -12.6606   -9.1909    8.6577 C   0  0  0  0  0  0  0  0  0  0  0  0
  -11.4713   -9.0199    8.0420 N   0  0  0  0  0  0  0  0  0  0  0  0
  -10.7008   -7.9484    8.2260 C   0  0  0  0  0  0  0  0  0  0  0  0
  -10.5459   -4.9283    8.7896 H   0  0  0  0  0  0  0  0  0  0  0  0
   -9.5541   -5.8176    9.9736 H   0  0  0  0  0  0  0  0  0  0  0  0
   -2.8723   -5.8349    6.1776 C   0  0  0  0  0  0  0  0  0  0  0  0
   -2.5006   -4.4027    5.9624 C   0  0  0  0  0  0  0  0  0  0  0  0
   -2.8546   -3.8415    4.6941 N   0  0  0  0  0  0  0  0  0  0  0  0
   -2.4128   -4.1201    3.3461 C   0  0  0  0  0  0  0  0  0  0  0  0
   -1.5968   -4.8594    2.4987 C   0  0  0  0  0  0  0  0  0  0  0  0
   -1.6053   -4.6625    1.1384 C   0  0  0  0  0  0  0  0  0  0  0  0
   -2.4353   -3.7162    0.5931 C   0  0  0  0  0  0  0  0  0  0  0  0
   -3.2599   -2.9625    1.4036 C   0  0  0  0  0  0  0  0  0  0  0  0
   -3.2303   -3.1816    2.7663 C   0  0  0  0  0  0  0  0  0  0  0  0
   -3.7144   -2.8558    4.1012 C   0  0  0  0  0  0  0  0  0  0  0  0
   -4.5414   -2.0538    4.6028 O   0  0  0  0  0  0  0  0  0  0  0  0
 12 13  1  0  0  0
 13 14  2  0  0  0
 14 15  1  0  0  0
 15 16  2  0  0  0
 16 17  1  0  0  0
 17 18  2  0  0  0
 18  8  1  0  0  0
  8  9  2  0  0  0
  8 10  1  0  0  0
 10  7  1  0  0  0
  7  1  1  0  0  0
  1  2  2  0  0  0
  2  3  1  0  0  0
  3  4  1  0  0  0
  4 21  1  0  0  0
 21 22  1  0  0  0
 22 23  1  0  0  0
 23 24  1  0  0  0
 24 25  2  0  0  0
 25 26  1  0  0  0
 26 27  2  0  0  0
 27 28  1  0  0  0
 28 29  2  0  0  0
 29 30  1  0  0  0
 30 31  2  0  0  0
  4  5  1  0  0  0
  5  6  1  0  0  0
 18 13  1  0  0  0
  6  1  1  0  0  0
 30 23  1  0  0  0
 29 24  1  0  0  0
 12 19  1  0  0  0
 12 20  1  0  0  0
 10 11  1  0  0  0
M  END
> <minimizedAffinity>
-7.24234

> <CNNscore>
0.2911580801

> <CNNaffinity>
5.6313810349

> <CNN_VS>
1.6396220922

> <CNNaffinity_variance>
0.0391483270

$$$$
[H]C1=C(C([H])([H])N([H])C(=O)c2nc([H])c([H])c([H])c2N([H])[H])C([H])([H])C([H])([H])N(C([H])([H])C([H])([H])N2C(=O)c3c([H])c([H])c([H])c([H])c32)C1([H])[H]


 31 34  0  0  0  0  0  0  0  0999 V2000
  -10.8333   -7.6132    8.4695 C   0  0  0  0  0  0  0  0  0  0  0  0
  -10.5961   -8.4802    7.4542 C   0  0  0  0  0  0  0  0  0  0  0  0
  -11.4725   -9.6995    7.4157 C   0  0  0  0  0  0  0  0  0  0  0  0
  -12.7991   -9.2676    7.4888 N   0  0  0  0  0  0  0  0  0  0  0  0
  -13.1567   -8.4929    8.6148 C   0  0  0  0  0  0  0  0  0  0  0  0
  -11.9676   -7.9198    9.3637 C   0  0  0  0  0  0  0  0  0  0  0  0
   -9.9784   -6.4203    8.5170 C   0  0  0  0  0  0  0  0  0  0  0  0
   -7.8437   -6.5470    7.1715 C   0  0  0  0  0  0  0  0  0  0  0  0
   -8.2411   -6.2092    6.0550 O   0  0  0  0  0  0  0  0  0  0  0  0
   -8.6067   -6.6510    8.2997 N   0  0  0  0  0  0  0  0  0  0  0  0
   -8.0680   -6.9677    9.1984 H   0  0  0  0  0  0  0  0  0  0  0  0
   -6.7093   -8.6981    5.7057 N   0  0  0  0  0  0  0  0  0  0  0  0
   -5.8714   -7.9150    6.5428 C   0  0  0  0  0  0  0  0  0  0  0  0
   -4.5078   -8.2282    6.6248 C   0  0  0  0  0  0  0  0  0  0  0  0
   -3.7106   -7.4551    7.4375 C   0  0  0  0  0  0  0  0  0  0  0  0
   -4.2529   -6.4037    8.1467 C   0  0  0  0  0  0  0  0  0  0  0  0
   -5.5733   -6.1473    8.0300 N   0  0  0  0  0  0  0  0  0  0  0  0
   -6.3910   -6.8626    7.2584 C   0  0  0  0  0  0  0  0  0  0  0  0
   -6.7519   -8.5124    4.6874 H   0  0  0  0  0  0  0  0  0  0  0  0
   -7.2871   -9.4622    6.0973 H   0  0  0  0  0  0  0  0  0  0  0  0
  -13.7836   -9.7486    6.6388 C   0  0  0  0  0  0  0  0  0  0  0  0
  -14.0502   -9.0711    5.3329 C   0  0  0  0  0  0  0  0  0  0  0  0
  -14.9084   -7.9265    5.3782 N   0  0  0  0  0  0  0  0  0  0  0  0
  -16.1508   -7.6112    4.7097 C   0  0  0  0  0  0  0  0  0  0  0  0
  -17.1433   -7.9961    3.8167 C   0  0  0  0  0  0  0  0  0  0  0  0
  -18.2176   -7.1842    3.5409 C   0  0  0  0  0  0  0  0  0  0  0  0
  -18.3230   -5.9627    4.1560 C   0  0  0  0  0  0  0  0  0  0  0  0
  -17.3562   -5.5465    5.0488 C   0  0  0  0  0  0  0  0  0  0  0  0
  -16.2882   -6.3824    5.3066 C   0  0  0  0  0  0  0  0  0  0  0  0
  -15.0390   -6.6432    6.0094 C   0  0  0  0  0  0  0  0  0  0  0  0
  -14.3145   -6.0395    6.8397 O   0  0  0  0  0  0  0  0  0  0  0  0
 12 13  1  0  0  0
 13 14  2  0  0  0
 14 15  1  0  0  0
 15 16  2  0  0  0
 16 17  1  0  0  0
 17 18  2  0  0  0
 18  8  1  0  0  0
  8  9  2  0  0  0
  8 10  1  0  0  0
 10  7  1  0  0  0
  7  1  1  0  0  0
  1  2  2  0  0  0
  2  3  1  0  0  0
  3  4  1  0  0  0
  4 21  1  0  0  0
 21 22  1  0  0  0
 22 23  1  0  0  0
 23 24  1  0  0  0
 24 25  2  0  0  0
 25 26  1  0  0  0
 26 27  2  0  0  0
 27 28  1  0  0  0
 28 29  2  0  0  0
 29 30  1  0  0  0
 30 31  2  0  0  0
  4  5  1  0  0  0
  5  6  1  0  0  0
 18 13  1  0  0  0
  6  1  1  0  0  0
 30 23  1  0  0  0
 29 24  1  0  0  0
 12 19  1  0  0  0
 12 20  1  0  0  0
 10 11  1  0  0  0
M  END
> <minimizedAffinity>
-9.15378

> <CNNscore>
0.2909344733

> <CNNaffinity>
6.6277670860

> <CNN_VS>
1.9282459021

> <CNNaffinity_variance>
0.0383115187

$$$$
[H]C1=C(C([H])([H])N([H])C(=O)c2nc([H])c([H])c([H])c2N([H])[H])C([H])([H])C([H])([H])N(C([H])([H])C([H])([H])N2C(=O)c3c([H])c([H])c([H])c([H])c32)C1([H])[H]


 31 34  0  0  0  0  0  0  0  0999 V2000
  -10.2653   -8.4485    7.6947 C   0  0  0  0  0  0  0  0  0  0  0  0
   -9.3074   -9.3876    7.4969 C   0  0  0  0  0  0  0  0  0  0  0  0
   -8.0085   -8.8893    6.9306 C   0  0  0  0  0  0  0  0  0  0  0  0
   -7.5893   -7.8150    7.7193 N   0  0  0  0  0  0  0  0  0  0  0  0
   -8.4779   -6.7227    7.8337 C   0  0  0  0  0  0  0  0  0  0  0  0
   -9.8997   -7.0460    7.4129 C   0  0  0  0  0  0  0  0  0  0  0  0
  -11.5399   -8.9277    8.2444 C   0  0  0  0  0  0  0  0  0  0  0  0
  -13.6117   -7.5110    7.9535 C   0  0  0  0  0  0  0  0  0  0  0  0
  -13.5995   -6.8485    8.9926 O   0  0  0  0  0  0  0  0  0  0  0  0
  -12.6946   -8.4564    7.5913 N   0  0  0  0  0  0  0  0  0  0  0  0
  -12.8792   -8.9380    6.6258 H   0  0  0  0  0  0  0  0  0  0  0  0
  -16.2132   -8.5317    8.4563 N   0  0  0  0  0  0  0  0  0  0  0  0
  -15.9939   -7.7396    7.2986 C   0  0  0  0  0  0  0  0  0  0  0  0
  -17.0677   -7.4865    6.4341 C   0  0  0  0  0  0  0  0  0  0  0  0
  -16.8371   -6.7128    5.3197 C   0  0  0  0  0  0  0  0  0  0  0  0
  -15.5778   -6.2070    5.0728 C   0  0  0  0  0  0  0  0  0  0  0  0
  -14.5801   -6.4828    5.9396 N   0  0  0  0  0  0  0  0  0  0  0  0
  -14.7470   -7.2256    7.0332 C   0  0  0  0  0  0  0  0  0  0  0  0
  -16.6159   -8.1079    9.3116 H   0  0  0  0  0  0  0  0  0  0  0  0
  -15.9758   -9.5390    8.4640 H   0  0  0  0  0  0  0  0  0  0  0  0
   -6.2886   -7.7009    8.1863 C   0  0  0  0  0  0  0  0  0  0  0  0
   -5.5119   -6.4441    7.9570 C   0  0  0  0  0  0  0  0  0  0  0  0
   -4.3617   -6.5570    7.1125 N   0  0  0  0  0  0  0  0  0  0  0  0
   -3.8354   -5.7142    6.0625 C   0  0  0  0  0  0  0  0  0  0  0  0
   -3.9616   -4.5613    5.2973 C   0  0  0  0  0  0  0  0  0  0  0  0
   -3.0446   -4.2383    4.3257 C   0  0  0  0  0  0  0  0  0  0  0  0
   -1.9752   -5.0664    4.0972 C   0  0  0  0  0  0  0  0  0  0  0  0
   -1.8170   -6.2205    4.8375 C   0  0  0  0  0  0  0  0  0  0  0  0
   -2.7535   -6.5199    5.8066 C   0  0  0  0  0  0  0  0  0  0  0  0
   -3.2350   -7.4095    6.8551 C   0  0  0  0  0  0  0  0  0  0  0  0
   -2.8679   -8.4935    7.3736 O   0  0  0  0  0  0  0  0  0  0  0  0
 12 13  1  0  0  0
 13 14  2  0  0  0
 14 15  1  0  0  0
 15 16  2  0  0  0
 16 17  1  0  0  0
 17 18  2  0  0  0
 18  8  1  0  0  0
  8  9  2  0  0  0
  8 10  1  0  0  0
 10  7  1  0  0  0
  7  1  1  0  0  0
  1  2  2  0  0  0
  2  3  1  0  0  0
  3  4  1  0  0  0
  4 21  1  0  0  0
 21 22  1  0  0  0
 22 23  1  0  0  0
 23 24  1  0  0  0
 24 25  2  0  0  0
 25 26  1  0  0  0
 26 27  2  0  0  0
 27 28  1  0  0  0
 28 29  2  0  0  0
 29 30  1  0  0  0
 30 31  2  0  0  0
  4  5  1  0  0  0
  5  6  1  0  0  0
 18 13  1  0  0  0
  6  1  1  0  0  0
 30 23  1  0  0  0
 29 24  1  0  0  0
 12 19  1  0  0  0
 12 20  1  0  0  0
 10 11  1  0  0  0
M  END
> <minimizedAffinity>
-7.67748

> <CNNscore>
0.2470035851

> <CNNaffinity>
6.4737091064

> <CNN_VS>
1.5990293026

> <CNNaffinity_variance>
0.0425777957

$$$$
[H]C1=C(C([H])([H])N([H])C(=O)c2nc([H])c([H])c([H])c2N([H])[H])C([H])([H])C([H])([H])N(C([H])([H])C([H])([H])N2C(=O)c3c([H])c([H])c([H])c([H])c32)C1([H])[H]


 31 34  0  0  0  0  0  0  0  0999 V2000
  -10.3297   -8.4848    7.7054 C   0  0  0  0  0  0  0  0  0  0  0  0
   -9.3908   -9.4360    7.4769 C   0  0  0  0  0  0  0  0  0  0  0  0
   -8.0825   -8.9459    6.9252 C   0  0  0  0  0  0  0  0  0  0  0  0
   -7.6416   -7.9056    7.7470 N   0  0  0  0  0  0  0  0  0  0  0  0
   -8.5082   -6.8000    7.8968 C   0  0  0  0  0  0  0  0  0  0  0  0
   -9.9364   -7.0816    7.4676 C   0  0  0  0  0  0  0  0  0  0  0  0
  -11.6133   -8.9556    8.2410 C   0  0  0  0  0  0  0  0  0  0  0  0
  -13.6664   -7.5124    7.9487 C   0  0  0  0  0  0  0  0  0  0  0  0
  -13.6533   -6.8587    8.9933 O   0  0  0  0  0  0  0  0  0  0  0  0
  -12.7582   -8.4655    7.5845 N   0  0  0  0  0  0  0  0  0  0  0  0
  -12.9420   -8.9368    6.6138 H   0  0  0  0  0  0  0  0  0  0  0  0
  -16.2808   -8.5150    8.4207 N   0  0  0  0  0  0  0  0  0  0  0  0
  -16.0458   -7.7116    7.2738 C   0  0  0  0  0  0  0  0  0  0  0  0
  -17.1107   -7.4388    6.4045 C   0  0  0  0  0  0  0  0  0  0  0  0
  -16.8649   -6.6545    5.3008 C   0  0  0  0  0  0  0  0  0  0  0  0
  -15.5993   -6.1575    5.0689 C   0  0  0  0  0  0  0  0  0  0  0  0
  -14.6106   -6.4524    5.9397 N   0  0  0  0  0  0  0  0  0  0  0  0
  -14.7923   -7.2061    7.0235 C   0  0  0  0  0  0  0  0  0  0  0  0
  -16.6859   -8.0973    9.2779 H   0  0  0  0  0  0  0  0  0  0  0  0
  -16.0526   -9.5244    8.4185 H   0  0  0  0  0  0  0  0  0  0  0  0
   -6.3387   -7.8322    8.2160 C   0  0  0  0  0  0  0  0  0  0  0  0
   -5.2007   -7.6674    7.2603 C   0  0  0  0  0  0  0  0  0  0  0  0
   -4.5180   -6.4100    7.3011 N   0  0  0  0  0  0  0  0  0  0  0  0
   -4.2138   -5.4993    8.3818 C   0  0  0  0  0  0  0  0  0  0  0  0
   -4.3036   -5.1995    9.7356 C   0  0  0  0  0  0  0  0  0  0  0  0
   -3.7601   -4.0491   10.2556 C   0  0  0  0  0  0  0  0  0  0  0  0
   -3.1111   -3.1685    9.4278 C   0  0  0  0  0  0  0  0  0  0  0  0
   -3.0024   -3.4327    8.0775 C   0  0  0  0  0  0  0  0  0  0  0  0
   -3.5579   -4.5956    7.5827 C   0  0  0  0  0  0  0  0  0  0  0  0
   -3.8352   -5.4732    6.4534 C   0  0  0  0  0  0  0  0  0  0  0  0
   -3.6037   -5.4739    5.2185 O   0  0  0  0  0  0  0  0  0  0  0  0
 12 13  1  0  0  0
 13 14  2  0  0  0
 14 15  1  0  0  0
 15 16  2  0  0  0
 16 17  1  0  0  0
 17 18  2  0  0  0
 18  8  1  0  0  0
  8  9  2  0  0  0
  8 10  1  0  0  0
 10  7  1  0  0  0
  7  1  1  0  0  0
  1  2  2  0  0  0
  2  3  1  0  0  0
  3  4  1  0  0  0
  4 21  1  0  0  0
 21 22  1  0  0  0
 22 23  1  0  0  0
 23 24  1  0  0  0
 24 25  2  0  0  0
 25 26  1  0  0  0
 26 27  2  0  0  0
 27 28  1  0  0  0
 28 29  2  0  0  0
 29 30  1  0  0  0
 30 31  2  0  0  0
  4  5  1  0  0  0
  5  6  1  0  0  0
 18 13  1  0  0  0
  6  1  1  0  0  0
 30 23  1  0  0  0
 29 24  1  0  0  0
 12 19  1  0  0  0
 12 20  1  0  0  0
 10 11  1  0  0  0
M  END
> <minimizedAffinity>
-7.42268

> <CNNscore>
0.2462674081

> <CNNaffinity>
6.5308136940

> <CNN_VS>
1.6083265543

> <CNNaffinity_variance>
0.1136310473

$$$$
[H]C1=C(C([H])([H])N([H])C(=O)c2nc([H])c([H])c([H])c2N([H])[H])C([H])([H])C([H])([H])N(C([H])([H])C([H])([H])N2C(=O)c3c([H])c([H])c([H])c([H])c32)C1([H])[H]


 31 34  0  0  0  0  0  0  0  0999 V2000
   -8.5310   -7.5678    7.4394 C   0  0  0  0  0  0  0  0  0  0  0  0
   -8.4864   -8.8560    7.0185 C   0  0  0  0  0  0  0  0  0  0  0  0
   -9.5596   -9.7586    7.5568 C   0  0  0  0  0  0  0  0  0  0  0  0
  -10.7886   -9.1343    7.3295 N   0  0  0  0  0  0  0  0  0  0  0  0
  -10.9631   -7.8476    7.8859 C   0  0  0  0  0  0  0  0  0  0  0  0
   -9.6647   -7.1820    8.3032 C   0  0  0  0  0  0  0  0  0  0  0  0
   -7.4830   -6.6792    6.9212 C   0  0  0  0  0  0  0  0  0  0  0  0
   -4.9646   -6.6064    6.7327 C   0  0  0  0  0  0  0  0  0  0  0  0
   -4.8072   -5.6605    5.9586 O   0  0  0  0  0  0  0  0  0  0  0  0
   -6.1613   -7.0872    7.1829 N   0  0  0  0  0  0  0  0  0  0  0  0
   -6.0930   -7.9379    7.8683 H   0  0  0  0  0  0  0  0  0  0  0  0
   -3.3024   -5.3887    8.6865 N   0  0  0  0  0  0  0  0  0  0  0  0
   -2.9215   -6.6427    8.1402 C   0  0  0  0  0  0  0  0  0  0  0  0
   -1.7333   -7.2429    8.5784 C   0  0  0  0  0  0  0  0  0  0  0  0
   -1.3829   -8.4604    8.0412 C   0  0  0  0  0  0  0  0  0  0  0  0
   -2.1891   -9.0618    7.0973 C   0  0  0  0  0  0  0  0  0  0  0  0
   -3.3228   -8.4381    6.7117 N   0  0  0  0  0  0  0  0  0  0  0  0
   -3.7101   -7.2597    7.1984 C   0  0  0  0  0  0  0  0  0  0  0  0
   -3.7846   -5.3418    9.6022 H   0  0  0  0  0  0  0  0  0  0  0  0
   -3.1056   -4.5071    8.1815 H   0  0  0  0  0  0  0  0  0  0  0  0
  -11.8738   -9.8078    6.7894 C   0  0  0  0  0  0  0  0  0  0  0  0
  -13.1407   -9.9473    7.5711 C   0  0  0  0  0  0  0  0  0  0  0  0
  -14.2288   -9.1101    7.1662 N   0  0  0  0  0  0  0  0  0  0  0  0
  -14.7104   -8.6955    5.8678 C   0  0  0  0  0  0  0  0  0  0  0  0
  -14.5694   -8.7375    4.4861 C   0  0  0  0  0  0  0  0  0  0  0  0
  -15.4300   -8.0620    3.6539 C   0  0  0  0  0  0  0  0  0  0  0  0
  -16.4562   -7.3257    4.1890 C   0  0  0  0  0  0  0  0  0  0  0  0
  -16.6274   -7.2604    5.5570 C   0  0  0  0  0  0  0  0  0  0  0  0
  -15.7480   -7.9487    6.3686 C   0  0  0  0  0  0  0  0  0  0  0  0
  -15.3095   -8.3321    7.7040 C   0  0  0  0  0  0  0  0  0  0  0  0
  -15.6766   -8.1105    8.8850 O   0  0  0  0  0  0  0  0  0  0  0  0
 12 13  1  0  0  0
 13 14  2  0  0  0
 14 15  1  0  0  0
 15 16  2  0  0  0
 16 17  1  0  0  0
 17 18  2  0  0  0
 18  8  1  0  0  0
  8  9  2  0  0  0
  8 10  1  0  0  0
 10  7  1  0  0  0
  7  1  1  0  0  0
  1  2  2  0  0  0
  2  3  1  0  0  0
  3  4  1  0  0  0
  4 21  1  0  0  0
 21 22  1  0  0  0
 22 23  1  0  0  0
 23 24  1  0  0  0
 24 25  2  0  0  0
 25 26  1  0  0  0
 26 27  2  0  0  0
 27 28  1  0  0  0
 28 29  2  0  0  0
 29 30  1  0  0  0
 30 31  2  0  0  0
  4  5  1  0  0  0
  5  6  1  0  0  0
 18 13  1  0  0  0
  6  1  1  0  0  0
 30 23  1  0  0  0
 29 24  1  0  0  0
 12 19  1  0  0  0
 12 20  1  0  0  0
 10 11  1  0  0  0
M  END
> <minimizedAffinity>
-8.01632

> <CNNscore>
0.2394413799

> <CNNaffinity>
6.3779935837

> <CNN_VS>
1.5271556377

> <CNNaffinity_variance>
0.2149635106

$$$$
[H]C1=C(C([H])([H])N([H])C(=O)c2nc([H])c([H])c([H])c2N([H])[H])C([H])([H])C([H])([H])N(C([H])([H])C([H])([H])N2C(=O)c3c([H])c([H])c([H])c([H])c32)C1([H])[H]


 31 34  0  0  0  0  0  0  0  0999 V2000
  -13.9932   -8.9128    6.3166 C   0  0  0  0  0  0  0  0  0  0  0  0
  -15.1948   -8.5592    6.8358 C   0  0  0  0  0  0  0  0  0  0  0  0
  -16.1135   -7.8120    5.9117 C   0  0  0  0  0  0  0  0  0  0  0  0
  -16.2063   -8.5451    4.7261 N   0  0  0  0  0  0  0  0  0  0  0  0
  -14.9983   -8.8082    4.0425 C   0  0  0  0  0  0  0  0  0  0  0  0
  -13.7584   -8.6007    4.8926 C   0  0  0  0  0  0  0  0  0  0  0  0
  -13.0871   -9.6401    7.2146 C   0  0  0  0  0  0  0  0  0  0  0  0
  -10.9056   -8.6222    7.9814 C   0  0  0  0  0  0  0  0  0  0  0  0
  -11.2222   -8.1747    9.0852 O   0  0  0  0  0  0  0  0  0  0  0  0
  -11.7278   -9.2871    7.1168 N   0  0  0  0  0  0  0  0  0  0  0  0
  -11.2583   -9.6071    6.1811 H   0  0  0  0  0  0  0  0  0  0  0  0
   -9.7182   -6.0480    8.1452 N   0  0  0  0  0  0  0  0  0  0  0  0
   -8.9410   -7.1383    7.6727 C   0  0  0  0  0  0  0  0  0  0  0  0
   -7.6099   -6.9125    7.2969 C   0  0  0  0  0  0  0  0  0  0  0  0
   -6.8709   -7.9821    6.8459 C   0  0  0  0  0  0  0  0  0  0  0  0
   -7.4384   -9.2370    6.7707 C   0  0  0  0  0  0  0  0  0  0  0  0
   -8.7255   -9.3969    7.1459 N   0  0  0  0  0  0  0  0  0  0  0  0
   -9.4866   -8.3973    7.5897 C   0  0  0  0  0  0  0  0  0  0  0  0
   -9.6421   -5.7400    9.1315 H   0  0  0  0  0  0  0  0  0  0  0  0
  -10.3690   -5.5468    7.5157 H   0  0  0  0  0  0  0  0  0  0  0  0
  -17.4209   -8.8134    4.1131 C   0  0  0  0  0  0  0  0  0  0  0  0
  -18.6916   -8.2739    4.6873 C   0  0  0  0  0  0  0  0  0  0  0  0
  -19.1747   -8.9189    5.8702 N   0  0  0  0  0  0  0  0  0  0  0  0
  -20.1062  -10.0046    6.0787 C   0  0  0  0  0  0  0  0  0  0  0  0
  -20.9704  -10.9428    5.5277 C   0  0  0  0  0  0  0  0  0  0  0  0
  -21.6759  -11.8213    6.3150 C   0  0  0  0  0  0  0  0  0  0  0  0
  -21.5312  -11.7802    7.6784 C   0  0  0  0  0  0  0  0  0  0  0  0
  -20.6819  -10.8616    8.2615 C   0  0  0  0  0  0  0  0  0  0  0  0
  -19.9862   -9.9914    7.4464 C   0  0  0  0  0  0  0  0  0  0  0  0
  -19.0399   -8.8935    7.2998 C   0  0  0  0  0  0  0  0  0  0  0  0
  -18.3515   -8.1723    8.0644 O   0  0  0  0  0  0  0  0  0  0  0  0
 12 13  1  0  0  0
 13 14  2  0  0  0
 14 15  1  0  0  0
 15 16  2  0  0  0
 16 17  1  0  0  0
 17 18  2  0  0  0
 18  8  1  0  0  0
  8  9  2  0  0  0
  8 10  1  0  0  0
 10  7  1  0  0  0
  7  1  1  0  0  0
  1  2  2  0  0  0
  2  3  1  0  0  0
  3  4  1  0  0  0
  4 21  1  0  0  0
 21 22  1  0  0  0
 22 23  1  0  0  0
 23 24  1  0  0  0
 24 25  2  0  0  0
 25 26  1  0  0  0
 26 27  2  0  0  0
 27 28  1  0  0  0
 28 29  2  0  0  0
 29 30  1  0  0  0
 30 31  2  0  0  0
  4  5  1  0  0  0
  5  6  1  0  0  0
 18 13  1  0  0  0
  6  1  1  0  0  0
 30 23  1  0  0  0
 29 24  1  0  0  0
 12 19  1  0  0  0
 12 20  1  0  0  0
 10 11  1  0  0  0
M  END
> <minimizedAffinity>
-1.96701

> <CNNscore>
0.2135518938

> <CNNaffinity>
6.4858207703

> <CNN_VS>
1.3850593567

> <CNNaffinity_variance>
0.1050242186

$$$$
[H]c1c([H])c([H])c(C([H])([H])OC(=O)N([H])[C@]([H])(C(=O)N([H])[C@]([H])(C(=O)N([H])[C@]([H])(C(=O)N2C([H])([H])C([H])([H])C([H])([H])[C@@]2([H])C(=O)N([H])[C@@]([H])(C(=O)N2C([H])([H])C([H])([H])C([H])([H])[C@@]2([H])C(=O)N([H])[C@@]([H])(C(=O)N([H])[H])C([H])([H])[H])C([H])([H])c2c([H])c([H])c(Cl)c([H])c2[H])C([H])([H])c2c([H])c([H])c([H])c([H])c2[H])C([H])([H])c2c([H])c([H])c([H])c([H])c2[H])C([H])([H])c2c([H])c([H])c([H])c([H])c2[H])c([H])c1[H]


 82 88  0  0  0  0  0  0  0  0999 V2000
   -9.2347   -7.7278    8.3929 C   0  0  0  0  0  0  0  0  0  0  0  0
  -12.0275  -10.2497    7.3835 C   0  0  0  0  0  0  0  0  0  0  0  0
  -13.0441  -10.7477    8.3447 C   0  0  0  0  0  0  0  0  0  0  0  0
  -13.2177   -9.6215    9.3317 C   0  0  0  0  0  0  0  0  0  0  0  0
  -11.9438   -8.8025    9.2263 C   0  0  0  0  0  0  0  0  0  0  0  0
  -11.2653   -9.2546    8.0556 N   0  0  0  0  0  0  0  0  0  0  0  0
   -9.9752   -8.7873    7.6558 C   0  0  0  0  0  0  0  0  0  0  0  0
   -9.3987   -9.2804    6.6297 O   0  0  0  0  0  0  0  0  0  0  0  0
  -13.8687   -9.3791    5.9514 N   0  0  0  0  0  0  0  0  0  0  0  0
  -12.5535   -9.8409    6.0513 C   0  0  0  0  0  0  0  0  0  0  0  0
  -11.7997   -9.9227    5.0595 O   0  0  0  0  0  0  0  0  0  0  0  0
  -14.4643   -9.3379    6.8096 H   0  0  0  0  0  0  0  0  0  0  0  0
  -14.5478   -8.9530    4.7379 C   0  0  0  0  0  0  0  0  0  0  0  0
  -17.9905   -8.5396    6.6074 C   0  0  0  0  0  0  0  0  0  0  0  0
  -18.2089   -7.0299    6.7081 C   0  0  0  0  0  0  0  0  0  0  0  0
  -16.8939   -6.6524    7.4074 C   0  0  0  0  0  0  0  0  0  0  0  0
  -15.9300   -7.8121    7.1105 C   0  0  0  0  0  0  0  0  0  0  0  0
  -16.6882   -8.5674    6.0608 N   0  0  0  0  0  0  0  0  0  0  0  0
  -16.0161   -9.0208    4.9224 C   0  0  0  0  0  0  0  0  0  0  0  0
  -16.6236   -9.5501    3.9172 O   0  0  0  0  0  0  0  0  0  0  0  0
  -19.9436  -10.0210    6.8986 N   0  0  0  0  0  0  0  0  0  0  0  0
  -19.0889   -9.2533    6.0456 C   0  0  0  0  0  0  0  0  0  0  0  0
  -19.3774   -9.2717    4.8435 O   0  0  0  0  0  0  0  0  0  0  0  0
  -19.7385  -10.0343    7.9241 H   0  0  0  0  0  0  0  0  0  0  0  0
  -22.2664   -9.9314    6.0491 C   0  0  0  0  0  0  0  0  0  0  0  0
  -21.0671  -10.7682    6.3711 C   0  0  0  0  0  0  0  0  0  0  0  0
  -21.4964  -11.8276    7.3418 C   0  0  0  0  0  0  0  0  0  0  0  0
  -21.9756  -13.0507    6.8182 N   0  0  0  0  0  0  0  0  0  0  0  0
  -21.4555  -11.6910    8.5880 O   0  0  0  0  0  0  0  0  0  0  0  0
  -22.5943  -13.6786    7.4064 H   0  0  0  0  0  0  0  0  0  0  0  0
  -21.7346  -13.3621    5.8529 H   0  0  0  0  0  0  0  0  0  0  0  0
  -14.0622   -7.5431    4.4104 C   0  0  0  0  0  0  0  0  0  0  0  0
  -15.1119   -6.5652    4.1385 C   0  0  0  0  0  0  0  0  0  0  0  0
  -16.1892   -6.9189    3.3622 C   0  0  0  0  0  0  0  0  0  0  0  0
  -17.2136   -6.0591    3.0748 C   0  0  0  0  0  0  0  0  0  0  0  0
  -17.1461   -4.7885    3.5957 C   0  0  0  0  0  0  0  0  0  0  0  0
  -18.4473   -3.6872    3.2352 Cl  0  0  0  0  0  0  0  0  0  0  0  0
  -16.0781   -4.4092    4.3778 C   0  0  0  0  0  0  0  0  0  0  0  0
  -15.0580   -5.2936    4.6519 C   0  0  0  0  0  0  0  0  0  0  0  0
   -7.8248   -7.7043    7.9784 N   0  0  0  0  0  0  0  0  0  0  0  0
   -7.3566   -6.9219    6.9161 C   0  0  0  0  0  0  0  0  0  0  0  0
   -8.1971   -6.1792    6.3090 O   0  0  0  0  0  0  0  0  0  0  0  0
   -7.1837   -8.2925    8.5133 H   0  0  0  0  0  0  0  0  0  0  0  0
   -5.9409   -6.8977    6.4401 C   0  0  0  0  0  0  0  0  0  0  0  0
   -5.4674   -5.5994    6.0647 N   0  0  0  0  0  0  0  0  0  0  0  0
   -4.2708   -5.2869    5.3961 C   0  0  0  0  0  0  0  0  0  0  0  0
   -3.4500   -6.1562    5.0245 O   0  0  0  0  0  0  0  0  0  0  0  0
   -6.0759   -4.7437    6.3133 H   0  0  0  0  0  0  0  0  0  0  0  0
   -3.9027   -3.8484    5.0816 C   0  0  0  0  0  0  0  0  0  0  0  0
   -3.6227   -3.1398    6.3058 N   0  0  0  0  0  0  0  0  0  0  0  0
   -3.9449   -1.7797    6.4447 C   0  0  0  0  0  0  0  0  0  0  0  0
   -4.4746   -1.1612    5.4958 O   0  0  0  0  0  0  0  0  0  0  0  0
   -3.1755   -3.6482    7.0854 H   0  0  0  0  0  0  0  0  0  0  0  0
   -3.6736   -1.1343    7.6399 O   0  0  0  0  0  0  0  0  0  0  0  0
   -2.6377   -0.1987    7.7077 C   0  0  0  0  0  0  0  0  0  0  0  0
   -2.9929    0.8775    8.6504 C   0  0  0  0  0  0  0  0  0  0  0  0
   -3.4740    2.1043    8.2234 C   0  0  0  0  0  0  0  0  0  0  0  0
   -3.8041    3.0693    9.1784 C   0  0  0  0  0  0  0  0  0  0  0  0
   -3.6706    2.8497   10.5221 C   0  0  0  0  0  0  0  0  0  0  0  0
   -3.1900    1.6230   10.9139 C   0  0  0  0  0  0  0  0  0  0  0  0
   -2.8508    0.6371   10.0011 C   0  0  0  0  0  0  0  0  0  0  0  0
   -2.7045   -3.8361    4.1746 C   0  0  0  0  0  0  0  0  0  0  0  0
   -2.7233   -2.7899    3.1473 C   0  0  0  0  0  0  0  0  0  0  0  0
   -1.7007   -1.8797    3.0234 C   0  0  0  0  0  0  0  0  0  0  0  0
   -1.7247   -0.8895    2.0403 C   0  0  0  0  0  0  0  0  0  0  0  0
   -2.7968   -0.8207    1.1732 C   0  0  0  0  0  0  0  0  0  0  0  0
   -3.8367   -1.7187    1.2708 C   0  0  0  0  0  0  0  0  0  0  0  0
   -3.7781   -2.6743    2.2459 C   0  0  0  0  0  0  0  0  0  0  0  0
   -5.0770   -7.6168    7.3959 C   0  0  0  0  0  0  0  0  0  0  0  0
   -4.2474   -6.7551    8.2786 C   0  0  0  0  0  0  0  0  0  0  0  0
   -2.8690   -6.9293    8.2606 C   0  0  0  0  0  0  0  0  0  0  0  0
   -2.0663   -6.1398    9.0654 C   0  0  0  0  0  0  0  0  0  0  0  0
   -2.6890   -5.2005    9.8614 C   0  0  0  0  0  0  0  0  0  0  0  0
   -4.0541   -5.0246    9.8839 C   0  0  0  0  0  0  0  0  0  0  0  0
   -4.8625   -5.8102    9.0820 C   0  0  0  0  0  0  0  0  0  0  0  0
   -9.7924   -6.3367    8.1563 C   0  0  0  0  0  0  0  0  0  0  0  0
  -10.9832   -6.0833    8.9996 C   0  0  0  0  0  0  0  0  0  0  0  0
  -10.8815   -5.7886   10.3534 C   0  0  0  0  0  0  0  0  0  0  0  0
  -12.0251   -5.5599   11.0745 C   0  0  0  0  0  0  0  0  0  0  0  0
  -13.2865   -5.6110   10.5043 C   0  0  0  0  0  0  0  0  0  0  0  0
  -13.3851   -5.9038    9.1611 C   0  0  0  0  0  0  0  0  0  0  0  0
  -12.2366   -6.1338    8.4327 C   0  0  0  0  0  0  0  0  0  0  0  0
 25 26  1  0  0  0
 26 21  1  0  0  0
 21 22  1  0  0  0
 22 23  2  0  0  0
 22 14  1  0  0  0
 14 15  1  0  0  0
 15 16  1  0  0  0
 16 17  1  0  0  0
 17 18  1  0  0  0
 18 19  1  0  0  0
 19 20  2  0  0  0
 19 13  1  0  0  0
 13 32  1  0  0  0
 32 33  1  0  0  0
 33 34  2  0  0  0
 34 35  1  0  0  0
 35 36  2  0  0  0
 36 37  1  0  0  0
 36 38  1  0  0  0
 38 39  2  0  0  0
 13  9  1  0  0  0
  9 10  1  0  0  0
 10 11  2  0  0  0
 10  2  1  0  0  0
  2  3  1  0  0  0
  3  4  1  0  0  0
  4  5  1  0  0  0
  5  6  1  0  0  0
  6  7  1  0  0  0
  7  8  2  0  0  0
  7  1  1  0  0  0
  1 76  1  0  0  0
 76 77  1  0  0  0
 77 78  2  0  0  0
 78 79  1  0  0  0
 79 80  2  0  0  0
 80 81  1  0  0  0
 81 82  2  0  0  0
  1 40  1  0  0  0
 40 41  1  0  0  0
 41 42  2  0  0  0
 41 44  1  0  0  0
 44 69  1  0  0  0
 69 70  1  0  0  0
 70 71  2  0  0  0
 71 72  1  0  0  0
 72 73  2  0  0  0
 73 74  1  0  0  0
 74 75  2  0  0  0
 44 45  1  0  0  0
 45 46  1  0  0  0
 46 47  2  0  0  0
 46 49  1  0  0  0
 49 62  1  0  0  0
 62 63  1  0  0  0
 63 64  2  0  0  0
 64 65  1  0  0  0
 65 66  2  0  0  0
 66 67  1  0  0  0
 67 68  2  0  0  0
 49 50  1  0  0  0
 50 51  1  0  0  0
 51 52  2  0  0  0
 51 54  1  0  0  0
 54 55  1  0  0  0
 55 56  1  0  0  0
 56 57  2  0  0  0
 57 58  1  0  0  0
 58 59  2  0  0  0
 59 60  1  0  0  0
 60 61  2  0  0  0
 26 27  1  0  0  0
 27 28  1  0  0  0
 27 29  2  0  0  0
 18 14  1  0  0  0
 39 33  1  0  0  0
  6  2  1  0  0  0
 82 77  1  0  0  0
 75 70  1  0  0  0
 68 63  1  0  0  0
 61 56  1  0  0  0
 21 24  1  0  0  0
  9 12  1  0  0  0
 40 43  1  0  0  0
 45 48  1  0  0  0
 50 53  1  0  0  0
 28 30  1  0  0  0
 28 31  1  0  0  0
M  END
> <minimizedAffinity>
-3.19914

> <CNNscore>
0.3640991151

> <CNNaffinity>
8.4907808304

> <CNN_VS>
3.0914857388

> <CNNaffinity_variance>
0.0798986852

$$$$
[H]c1c([H])c([H])c(C([H])([H])OC(=O)N([H])[C@]([H])(C(=O)N([H])[C@]([H])(C(=O)N([H])[C@]([H])(C(=O)N2C([H])([H])C([H])([H])C([H])([H])[C@@]2([H])C(=O)N([H])[C@@]([H])(C(=O)N2C([H])([H])C([H])([H])C([H])([H])[C@@]2([H])C(=O)N([H])[C@@]([H])(C(=O)N([H])[H])C([H])([H])[H])C([H])([H])c2c([H])c([H])c(Cl)c([H])c2[H])C([H])([H])c2c([H])c([H])c([H])c([H])c2[H])C([H])([H])c2c([H])c([H])c([H])c([H])c2[H])C([H])([H])c2c([H])c([H])c([H])c([H])c2[H])c([H])c1[H]


 82 88  0  0  0  0  0  0  0  0999 V2000
   -9.1664   -7.7306    8.3978 C   0  0  0  0  0  0  0  0  0  0  0  0
  -11.9730  -10.2436    7.4046 C   0  0  0  0  0  0  0  0  0  0  0  0
  -12.9992  -10.7209    8.3660 C   0  0  0  0  0  0  0  0  0  0  0  0
  -13.1698   -9.5806    9.3372 C   0  0  0  0  0  0  0  0  0  0  0  0
  -11.8888   -8.7730    9.2288 C   0  0  0  0  0  0  0  0  0  0  0  0
  -11.2069   -9.2458    8.0682 N   0  0  0  0  0  0  0  0  0  0  0  0
   -9.9109   -8.7939    7.6701 C   0  0  0  0  0  0  0  0  0  0  0  0
   -9.3322   -9.3049    6.6541 O   0  0  0  0  0  0  0  0  0  0  0  0
  -13.8060   -9.3991    5.9466 N   0  0  0  0  0  0  0  0  0  0  0  0
  -12.4879   -9.8481    6.0640 C   0  0  0  0  0  0  0  0  0  0  0  0
  -11.7224   -9.9294    5.0811 O   0  0  0  0  0  0  0  0  0  0  0  0
  -14.4115   -9.3578    6.7978 H   0  0  0  0  0  0  0  0  0  0  0  0
  -14.4754   -8.9870    4.7229 C   0  0  0  0  0  0  0  0  0  0  0  0
  -17.9220   -8.5309    6.5752 C   0  0  0  0  0  0  0  0  0  0  0  0
  -18.1254   -7.0187    6.6689 C   0  0  0  0  0  0  0  0  0  0  0  0
  -16.8097   -6.6517    7.3726 C   0  0  0  0  0  0  0  0  0  0  0  0
  -15.8564   -7.8225    7.0846 C   0  0  0  0  0  0  0  0  0  0  0  0
  -16.6176   -8.5742    6.0346 N   0  0  0  0  0  0  0  0  0  0  0  0
  -15.9452   -9.0390    4.9010 C   0  0  0  0  0  0  0  0  0  0  0  0
  -16.5536   -9.5662    3.8952 O   0  0  0  0  0  0  0  0  0  0  0  0
  -19.9027   -9.9752    6.8659 N   0  0  0  0  0  0  0  0  0  0  0  0
  -19.0251   -9.2356    6.0114 C   0  0  0  0  0  0  0  0  0  0  0  0
  -19.2992   -9.2690    4.8062 O   0  0  0  0  0  0  0  0  0  0  0  0
  -19.7104   -9.9751    7.8939 H   0  0  0  0  0  0  0  0  0  0  0  0
  -22.2517   -9.8789    6.0922 C   0  0  0  0  0  0  0  0  0  0  0  0
  -21.0319  -10.7125    6.3365 C   0  0  0  0  0  0  0  0  0  0  0  0
  -21.4170  -11.8240    7.2667 C   0  0  0  0  0  0  0  0  0  0  0  0
  -21.6280  -13.1080    6.7129 N   0  0  0  0  0  0  0  0  0  0  0  0
  -21.5628  -11.6801    8.5042 O   0  0  0  0  0  0  0  0  0  0  0  0
  -22.2146  -13.8235    7.2295 H   0  0  0  0  0  0  0  0  0  0  0  0
  -21.2163  -13.3798    5.7945 H   0  0  0  0  0  0  0  0  0  0  0  0
  -13.9759   -7.5868    4.3749 C   0  0  0  0  0  0  0  0  0  0  0  0
  -15.0165   -6.5963    4.1134 C   0  0  0  0  0  0  0  0  0  0  0  0
  -16.1211   -6.9462    3.3747 C   0  0  0  0  0  0  0  0  0  0  0  0
  -17.1387   -6.0745    3.0994 C   0  0  0  0  0  0  0  0  0  0  0  0
  -17.0352   -4.7955    3.5933 C   0  0  0  0  0  0  0  0  0  0  0  0
  -18.3275   -3.6790    3.2479 Cl  0  0  0  0  0  0  0  0  0  0  0  0
  -15.9393   -4.4199    4.3376 C   0  0  0  0  0  0  0  0  0  0  0  0
  -14.9268   -5.3162    4.6002 C   0  0  0  0  0  0  0  0  0  0  0  0
   -7.7497   -7.7367    8.0065 N   0  0  0  0  0  0  0  0  0  0  0  0
   -7.2306   -6.8978    7.0132 C   0  0  0  0  0  0  0  0  0  0  0  0
   -8.0285   -6.0762    6.4520 O   0  0  0  0  0  0  0  0  0  0  0  0
   -7.1432   -8.3904    8.5045 H   0  0  0  0  0  0  0  0  0  0  0  0
   -5.8071   -6.8989    6.5607 C   0  0  0  0  0  0  0  0  0  0  0  0
   -5.2940   -5.6046    6.2260 N   0  0  0  0  0  0  0  0  0  0  0  0
   -4.0965   -5.3086    5.5516 C   0  0  0  0  0  0  0  0  0  0  0  0
   -3.3115   -6.1911    5.1362 O   0  0  0  0  0  0  0  0  0  0  0  0
   -5.8689   -4.7383    6.5148 H   0  0  0  0  0  0  0  0  0  0  0  0
   -3.6830   -3.8728    5.2844 C   0  0  0  0  0  0  0  0  0  0  0  0
   -4.4008   -3.3653    4.1415 N   0  0  0  0  0  0  0  0  0  0  0  0
   -3.7279   -3.0289    2.9552 C   0  0  0  0  0  0  0  0  0  0  0  0
   -2.4866   -3.1587    2.8806 O   0  0  0  0  0  0  0  0  0  0  0  0
   -5.4246   -3.2480    4.2071 H   0  0  0  0  0  0  0  0  0  0  0  0
   -4.4515   -2.5566    1.8726 O   0  0  0  0  0  0  0  0  0  0  0  0
   -3.9236   -1.5411    1.0706 C   0  0  0  0  0  0  0  0  0  0  0  0
   -4.2998   -1.7650   -0.3371 C   0  0  0  0  0  0  0  0  0  0  0  0
   -5.5412   -1.4057   -0.8357 C   0  0  0  0  0  0  0  0  0  0  0  0
   -5.8185   -1.6356   -2.1857 C   0  0  0  0  0  0  0  0  0  0  0  0
   -4.9099   -2.2031   -3.0366 C   0  0  0  0  0  0  0  0  0  0  0  0
   -3.6877   -2.5492   -2.5115 C   0  0  0  0  0  0  0  0  0  0  0  0
   -3.3703   -2.3387   -1.1791 C   0  0  0  0  0  0  0  0  0  0  0  0
   -3.9722   -3.0443    6.5043 C   0  0  0  0  0  0  0  0  0  0  0  0
   -2.8062   -2.7696    7.3501 C   0  0  0  0  0  0  0  0  0  0  0  0
   -2.8923   -1.9649    8.4612 C   0  0  0  0  0  0  0  0  0  0  0  0
   -1.7783   -1.7117    9.2629 C   0  0  0  0  0  0  0  0  0  0  0  0
   -0.5637   -2.2802    8.9350 C   0  0  0  0  0  0  0  0  0  0  0  0
   -0.4449   -3.0919    7.8285 C   0  0  0  0  0  0  0  0  0  0  0  0
   -1.5575   -3.3169    7.0676 C   0  0  0  0  0  0  0  0  0  0  0  0
   -4.9781   -7.6641    7.5117 C   0  0  0  0  0  0  0  0  0  0  0  0
   -4.1168   -6.8477    8.4070 C   0  0  0  0  0  0  0  0  0  0  0  0
   -2.7471   -7.0808    8.3936 C   0  0  0  0  0  0  0  0  0  0  0  0
   -1.9153   -6.3345    9.2101 C   0  0  0  0  0  0  0  0  0  0  0  0
   -2.5012   -5.3773   10.0128 C   0  0  0  0  0  0  0  0  0  0  0  0
   -3.8576   -5.1433   10.0309 C   0  0  0  0  0  0  0  0  0  0  0  0
   -4.6949   -5.8853    9.2172 C   0  0  0  0  0  0  0  0  0  0  0  0
   -9.6988   -6.3364    8.1237 C   0  0  0  0  0  0  0  0  0  0  0  0
  -10.9381   -6.0728    8.8904 C   0  0  0  0  0  0  0  0  0  0  0  0
  -12.1970   -6.1380    8.3065 C   0  0  0  0  0  0  0  0  0  0  0  0
  -13.3036   -5.8869    9.0763 C   0  0  0  0  0  0  0  0  0  0  0  0
  -13.2171   -5.5686   10.4216 C   0  0  0  0  0  0  0  0  0  0  0  0
  -11.9671   -5.5042   10.9988 C   0  0  0  0  0  0  0  0  0  0  0  0
  -10.8519   -5.7568   10.2274 C   0  0  0  0  0  0  0  0  0  0  0  0
 25 26  1  0  0  0
 26 21  1  0  0  0
 21 22  1  0  0  0
 22 23  2  0  0  0
 22 14  1  0  0  0
 14 15  1  0  0  0
 15 16  1  0  0  0
 16 17  1  0  0  0
 17 18  1  0  0  0
 18 19  1  0  0  0
 19 20  2  0  0  0
 19 13  1  0  0  0
 13 32  1  0  0  0
 32 33  1  0  0  0
 33 34  2  0  0  0
 34 35  1  0  0  0
 35 36  2  0  0  0
 36 37  1  0  0  0
 36 38  1  0  0  0
 38 39  2  0  0  0
 13  9  1  0  0  0
  9 10  1  0  0  0
 10 11  2  0  0  0
 10  2  1  0  0  0
  2  3  1  0  0  0
  3  4  1  0  0  0
  4  5  1  0  0  0
  5  6  1  0  0  0
  6  7  1  0  0  0
  7  8  2  0  0  0
  7  1  1  0  0  0
  1 76  1  0  0  0
 76 77  1  0  0  0
 77 78  2  0  0  0
 78 79  1  0  0  0
 79 80  2  0  0  0
 80 81  1  0  0  0
 81 82  2  0  0  0
  1 40  1  0  0  0
 40 41  1  0  0  0
 41 42  2  0  0  0
 41 44  1  0  0  0
 44 69  1  0  0  0
 69 70  1  0  0  0
 70 71  2  0  0  0
 71 72  1  0  0  0
 72 73  2  0  0  0
 73 74  1  0  0  0
 74 75  2  0  0  0
 44 45  1  0  0  0
 45 46  1  0  0  0
 46 47  2  0  0  0
 46 49  1  0  0  0
 49 62  1  0  0  0
 62 63  1  0  0  0
 63 64  2  0  0  0
 64 65  1  0  0  0
 65 66  2  0  0  0
 66 67  1  0  0  0
 67 68  2  0  0  0
 49 50  1  0  0  0
 50 51  1  0  0  0
 51 52  2  0  0  0
 51 54  1  0  0  0
 54 55  1  0  0  0
 55 56  1  0  0  0
 56 57  2  0  0  0
 57 58  1  0  0  0
 58 59  2  0  0  0
 59 60  1  0  0  0
 60 61  2  0  0  0
 26 27  1  0  0  0
 27 28  1  0  0  0
 27 29  2  0  0  0
 18 14  1  0  0  0
 39 33  1  0  0  0
  6  2  1  0  0  0
 82 77  1  0  0  0
 75 70  1  0  0  0
 68 63  1  0  0  0
 61 56  1  0  0  0
 21 24  1  0  0  0
  9 12  1  0  0  0
 40 43  1  0  0  0
 45 48  1  0  0  0
 50 53  1  0  0  0
 28 30  1  0  0  0
 28 31  1  0  0  0
M  END
> <minimizedAffinity>
-2.61158

> <CNNscore>
0.3553395867

> <CNNaffinity>
8.4887094498

> <CNN_VS>
3.0163745880

> <CNNaffinity_variance>
0.0920812562

$$$$
[H]c1c([H])c([H])c(C([H])([H])OC(=O)N([H])[C@]([H])(C(=O)N([H])[C@]([H])(C(=O)N([H])[C@]([H])(C(=O)N2C([H])([H])C([H])([H])C([H])([H])[C@@]2([H])C(=O)N([H])[C@@]([H])(C(=O)N2C([H])([H])C([H])([H])C([H])([H])[C@@]2([H])C(=O)N([H])[C@@]([H])(C(=O)N([H])[H])C([H])([H])[H])C([H])([H])c2c([H])c([H])c(Cl)c([H])c2[H])C([H])([H])c2c([H])c([H])c([H])c([H])c2[H])C([H])([H])c2c([H])c([H])c([H])c([H])c2[H])C([H])([H])c2c([H])c([H])c([H])c([H])c2[H])c([H])c1[H]


 82 88  0  0  0  0  0  0  0  0999 V2000
   -3.5571   -1.2607    4.2398 C   0  0  0  0  0  0  0  0  0  0  0  0
   -1.2428   -2.9808    6.8597 C   0  0  0  0  0  0  0  0  0  0  0  0
   -0.3106   -2.2190    7.7291 C   0  0  0  0  0  0  0  0  0  0  0  0
   -0.9752   -0.8789    7.9167 C   0  0  0  0  0  0  0  0  0  0  0  0
   -1.9282   -0.7416    6.7429 C   0  0  0  0  0  0  0  0  0  0  0  0
   -2.0154   -2.0303    6.1369 N   0  0  0  0  0  0  0  0  0  0  0  0
   -2.7510   -2.2966    4.9409 C   0  0  0  0  0  0  0  0  0  0  0  0
   -2.7357   -3.4607    4.4185 O   0  0  0  0  0  0  0  0  0  0  0  0
   -1.3670   -5.0143    8.2908 N   0  0  0  0  0  0  0  0  0  0  0  0
   -2.0352   -4.0395    7.5452 C   0  0  0  0  0  0  0  0  0  0  0  0
   -3.2785   -4.0233    7.4331 O   0  0  0  0  0  0  0  0  0  0  0  0
   -0.3234   -4.9912    8.3469 H   0  0  0  0  0  0  0  0  0  0  0  0
   -1.9745   -6.1225    9.0106 C   0  0  0  0  0  0  0  0  0  0  0  0
   -4.5163   -7.4284    6.2992 C   0  0  0  0  0  0  0  0  0  0  0  0
   -4.2964   -8.9402    6.2442 C   0  0  0  0  0  0  0  0  0  0  0  0
   -2.7863   -8.9438    5.9603 C   0  0  0  0  0  0  0  0  0  0  0  0
   -2.2825   -7.5705    6.4320 C   0  0  0  0  0  0  0  0  0  0  0  0
   -3.4760   -7.0567    7.1796 N   0  0  0  0  0  0  0  0  0  0  0  0
   -3.2955   -6.4501    8.4256 C   0  0  0  0  0  0  0  0  0  0  0  0
   -4.2785   -6.1130    9.1871 O   0  0  0  0  0  0  0  0  0  0  0  0
   -6.8205   -7.9969    6.9787 N   0  0  0  0  0  0  0  0  0  0  0  0
   -5.8750   -7.0415    6.4881 C   0  0  0  0  0  0  0  0  0  0  0  0
   -6.3265   -5.9144    6.2543 O   0  0  0  0  0  0  0  0  0  0  0  0
   -6.4835   -8.9639    7.1914 H   0  0  0  0  0  0  0  0  0  0  0  0
   -8.4741   -6.8358    8.4079 C   0  0  0  0  0  0  0  0  0  0  0  0
   -8.2129   -7.6508    7.1790 C   0  0  0  0  0  0  0  0  0  0  0  0
   -9.0556   -8.8884    7.2638 C   0  0  0  0  0  0  0  0  0  0  0  0
   -8.7198   -9.9769    6.4258 N   0  0  0  0  0  0  0  0  0  0  0  0
  -10.0387   -9.0126    8.0327 O   0  0  0  0  0  0  0  0  0  0  0  0
   -9.4442  -10.7133    6.1893 H   0  0  0  0  0  0  0  0  0  0  0  0
   -7.7629  -10.0816    6.0254 H   0  0  0  0  0  0  0  0  0  0  0  0
   -1.0003   -7.2967    8.9538 C   0  0  0  0  0  0  0  0  0  0  0  0
   -0.8755   -8.0687   10.1870 C   0  0  0  0  0  0  0  0  0  0  0  0
   -0.6465   -7.4210   11.3770 C   0  0  0  0  0  0  0  0  0  0  0  0
   -0.5289   -8.0778   12.5711 C   0  0  0  0  0  0  0  0  0  0  0  0
   -0.6494   -9.4474   12.5612 C   0  0  0  0  0  0  0  0  0  0  0  0
   -0.5018  -10.2919   14.0781 Cl  0  0  0  0  0  0  0  0  0  0  0  0
   -0.8804  -10.1205   11.3823 C   0  0  0  0  0  0  0  0  0  0  0  0
   -0.9938   -9.4360   10.1923 C   0  0  0  0  0  0  0  0  0  0  0  0
   -3.7976   -0.1120    5.1246 N   0  0  0  0  0  0  0  0  0  0  0  0
   -4.5648   -0.1981    6.2925 C   0  0  0  0  0  0  0  0  0  0  0  0
   -5.0457   -1.3371    6.6055 O   0  0  0  0  0  0  0  0  0  0  0  0
   -3.3675    0.7724    4.8488 H   0  0  0  0  0  0  0  0  0  0  0  0
   -4.8635    0.9519    7.1978 C   0  0  0  0  0  0  0  0  0  0  0  0
   -4.1278    0.9415    8.4263 N   0  0  0  0  0  0  0  0  0  0  0  0
   -3.8875   -0.1580    9.2689 C   0  0  0  0  0  0  0  0  0  0  0  0
   -4.3014   -1.3127    9.0182 O   0  0  0  0  0  0  0  0  0  0  0  0
   -3.7002    1.8699    8.7719 H   0  0  0  0  0  0  0  0  0  0  0  0
   -3.0957   -0.0008   10.5543 C   0  0  0  0  0  0  0  0  0  0  0  0
   -3.8448    0.7991   11.4914 N   0  0  0  0  0  0  0  0  0  0  0  0
   -3.3049    1.9790   12.0295 C   0  0  0  0  0  0  0  0  0  0  0  0
   -2.1546    2.3464   11.7052 O   0  0  0  0  0  0  0  0  0  0  0  0
   -4.7905    0.4896   11.7673 H   0  0  0  0  0  0  0  0  0  0  0  0
   -4.0583    2.7294   12.9171 O   0  0  0  0  0  0  0  0  0  0  0  0
   -3.4306    3.4042   13.9676 C   0  0  0  0  0  0  0  0  0  0  0  0
   -3.6235    2.6637   15.2277 C   0  0  0  0  0  0  0  0  0  0  0  0
   -2.5656    2.3286   16.0567 C   0  0  0  0  0  0  0  0  0  0  0  0
   -2.8298    1.6395   17.2430 C   0  0  0  0  0  0  0  0  0  0  0  0
   -4.0957    1.2818   17.6191 C   0  0  0  0  0  0  0  0  0  0  0  0
   -5.1237    1.6278   16.7750 C   0  0  0  0  0  0  0  0  0  0  0  0
   -4.9070    2.3115   15.5893 C   0  0  0  0  0  0  0  0  0  0  0  0
   -2.8122   -1.3617   11.1249 C   0  0  0  0  0  0  0  0  0  0  0  0
   -2.2078   -1.3532   12.4609 C   0  0  0  0  0  0  0  0  0  0  0  0
   -0.8861   -1.6750   12.6587 C   0  0  0  0  0  0  0  0  0  0  0  0
   -0.3178   -1.6607   13.9333 C   0  0  0  0  0  0  0  0  0  0  0  0
   -1.0974   -1.3165   15.0194 C   0  0  0  0  0  0  0  0  0  0  0  0
   -2.4249   -0.9881   14.8542 C   0  0  0  0  0  0  0  0  0  0  0  0
   -2.9462   -1.0132   13.5913 C   0  0  0  0  0  0  0  0  0  0  0  0
   -4.7875    2.2179    6.4439 C   0  0  0  0  0  0  0  0  0  0  0  0
   -3.4175    2.6528    6.0647 C   0  0  0  0  0  0  0  0  0  0  0  0
   -2.4514    2.7258    7.0606 C   0  0  0  0  0  0  0  0  0  0  0  0
   -1.1641    3.1211    6.7414 C   0  0  0  0  0  0  0  0  0  0  0  0
   -0.9004    3.4293    5.4226 C   0  0  0  0  0  0  0  0  0  0  0  0
   -1.8540    3.3600    4.4322 C   0  0  0  0  0  0  0  0  0  0  0  0
   -3.1428    2.9654    4.7442 C   0  0  0  0  0  0  0  0  0  0  0  0
   -2.8834   -0.7270    2.9894 C   0  0  0  0  0  0  0  0  0  0  0  0
   -2.9306   -1.7163    1.8883 C   0  0  0  0  0  0  0  0  0  0  0  0
   -4.1276   -2.1334    1.3196 C   0  0  0  0  0  0  0  0  0  0  0  0
   -4.0985   -3.0492    0.2995 C   0  0  0  0  0  0  0  0  0  0  0  0
   -2.9163   -3.5793   -0.1906 C   0  0  0  0  0  0  0  0  0  0  0  0
   -1.7300   -3.1644    0.3752 C   0  0  0  0  0  0  0  0  0  0  0  0
   -1.7556   -2.2428    1.4013 C   0  0  0  0  0  0  0  0  0  0  0  0
 25 26  1  0  0  0
 26 21  1  0  0  0
 21 22  1  0  0  0
 22 23  2  0  0  0
 22 14  1  0  0  0
 14 15  1  0  0  0
 15 16  1  0  0  0
 16 17  1  0  0  0
 17 18  1  0  0  0
 18 19  1  0  0  0
 19 20  2  0  0  0
 19 13  1  0  0  0
 13 32  1  0  0  0
 32 33  1  0  0  0
 33 34  2  0  0  0
 34 35  1  0  0  0
 35 36  2  0  0  0
 36 37  1  0  0  0
 36 38  1  0  0  0
 38 39  2  0  0  0
 13  9  1  0  0  0
  9 10  1  0  0  0
 10 11  2  0  0  0
 10  2  1  0  0  0
  2  3  1  0  0  0
  3  4  1  0  0  0
  4  5  1  0  0  0
  5  6  1  0  0  0
  6  7  1  0  0  0
  7  8  2  0  0  0
  7  1  1  0  0  0
  1 76  1  0  0  0
 76 77  1  0  0  0
 77 78  2  0  0  0
 78 79  1  0  0  0
 79 80  2  0  0  0
 80 81  1  0  0  0
 81 82  2  0  0  0
  1 40  1  0  0  0
 40 41  1  0  0  0
 41 42  2  0  0  0
 41 44  1  0  0  0
 44 69  1  0  0  0
 69 70  1  0  0  0
 70 71  2  0  0  0
 71 72  1  0  0  0
 72 73  2  0  0  0
 73 74  1  0  0  0
 74 75  2  0  0  0
 44 45  1  0  0  0
 45 46  1  0  0  0
 46 47  2  0  0  0
 46 49  1  0  0  0
 49 62  1  0  0  0
 62 63  1  0  0  0
 63 64  2  0  0  0
 64 65  1  0  0  0
 65 66  2  0  0  0
 66 67  1  0  0  0
 67 68  2  0  0  0
 49 50  1  0  0  0
 50 51  1  0  0  0
 51 52  2  0  0  0
 51 54  1  0  0  0
 54 55  1  0  0  0
 55 56  1  0  0  0
 56 57  2  0  0  0
 57 58  1  0  0  0
 58 59  2  0  0  0
 59 60  1  0  0  0
 60 61  2  0  0  0
 26 27  1  0  0  0
 27 28  1  0  0  0
 27 29  2  0  0  0
 18 14  1  0  0  0
 39 33  1  0  0  0
  6  2  1  0  0  0
 82 77  1  0  0  0
 75 70  1  0  0  0
 68 63  1  0  0  0
 61 56  1  0  0  0
 21 24  1  0  0  0
  9 12  1  0  0  0
 40 43  1  0  0  0
 45 48  1  0  0  0
 50 53  1  0  0  0
 28 30  1  0  0  0
 28 31  1  0  0  0
M  END
> <minimizedAffinity>
-2.81379

> <CNNscore>
0.3157451749

> <CNNaffinity>
7.8755922318

> <CNN_VS>
2.4866802692

> <CNNaffinity_variance>
0.4055378437

$$$$
[H]c1c([H])c([H])c(C([H])([H])OC(=O)N([H])[C@]([H])(C(=O)N([H])[C@]([H])(C(=O)N([H])[C@]([H])(C(=O)N2C([H])([H])C([H])([H])C([H])([H])[C@@]2([H])C(=O)N([H])[C@@]([H])(C(=O)N2C([H])([H])C([H])([H])C([H])([H])[C@@]2([H])C(=O)N([H])[C@@]([H])(C(=O)N([H])[H])C([H])([H])[H])C([H])([H])c2c([H])c([H])c(Cl)c([H])c2[H])C([H])([H])c2c([H])c([H])c([H])c([H])c2[H])C([H])([H])c2c([H])c([H])c([H])c([H])c2[H])C([H])([H])c2c([H])c([H])c([H])c([H])c2[H])c([H])c1[H]


 82 88  0  0  0  0  0  0  0  0999 V2000
   -4.5870   -6.1441    6.9507 C   0  0  0  0  0  0  0  0  0  0  0  0
   -4.3228   -3.9686   10.1718 C   0  0  0  0  0  0  0  0  0  0  0  0
   -4.3607   -4.5501   11.5377 C   0  0  0  0  0  0  0  0  0  0  0  0
   -3.7721   -5.9290   11.3803 C   0  0  0  0  0  0  0  0  0  0  0  0
   -3.9442   -6.2676    9.9104 C   0  0  0  0  0  0  0  0  0  0  0  0
   -4.3056   -5.0541    9.2530 N   0  0  0  0  0  0  0  0  0  0  0  0
   -4.6424   -4.9726    7.8665 C   0  0  0  0  0  0  0  0  0  0  0  0
   -5.0169   -3.8644    7.3566 O   0  0  0  0  0  0  0  0  0  0  0  0
   -2.6984   -2.8205    8.6745 N   0  0  0  0  0  0  0  0  0  0  0  0
   -3.2701   -2.9397    9.9441 C   0  0  0  0  0  0  0  0  0  0  0  0
   -2.9294   -2.2107   10.8986 O   0  0  0  0  0  0  0  0  0  0  0  0
   -3.0104   -3.4608    7.9093 H   0  0  0  0  0  0  0  0  0  0  0  0
   -1.6562   -1.8870    8.2776 C   0  0  0  0  0  0  0  0  0  0  0  0
   -2.5340    1.9391    8.6078 C   0  0  0  0  0  0  0  0  0  0  0  0
   -4.0422    2.0222    8.3730 C   0  0  0  0  0  0  0  0  0  0  0  0
   -4.1017    1.3259    7.0046 C   0  0  0  0  0  0  0  0  0  0  0  0
   -2.8141    0.4909    6.9190 C   0  0  0  0  0  0  0  0  0  0  0  0
   -2.3130    0.5719    8.3295 N   0  0  0  0  0  0  0  0  0  0  0  0
   -1.8477   -0.5857    8.9593 C   0  0  0  0  0  0  0  0  0  0  0  0
   -1.5353   -0.6236   10.2085 O   0  0  0  0  0  0  0  0  0  0  0  0
   -2.6777    2.2048   11.0579 N   0  0  0  0  0  0  0  0  0  0  0  0
   -2.0926    2.5737    9.8053 C   0  0  0  0  0  0  0  0  0  0  0  0
   -1.2203    3.4483    9.8599 O   0  0  0  0  0  0  0  0  0  0  0  0
   -3.4197    1.4677   11.0607 H   0  0  0  0  0  0  0  0  0  0  0  0
   -1.1059    2.1588   12.9691 C   0  0  0  0  0  0  0  0  0  0  0  0
   -2.2660    2.8280   12.2992 C   0  0  0  0  0  0  0  0  0  0  0  0
   -3.4035    2.8564   13.2760 C   0  0  0  0  0  0  0  0  0  0  0  0
   -3.2151    2.2311   14.5304 N   0  0  0  0  0  0  0  0  0  0  0  0
   -4.5095    3.4007   13.0445 O   0  0  0  0  0  0  0  0  0  0  0  0
   -4.0501    1.9209   15.1043 H   0  0  0  0  0  0  0  0  0  0  0  0
   -2.2620    2.0625   14.9176 H   0  0  0  0  0  0  0  0  0  0  0  0
   -0.3120   -2.5306    8.6091 C   0  0  0  0  0  0  0  0  0  0  0  0
   -0.3817   -3.8820    9.1578 C   0  0  0  0  0  0  0  0  0  0  0  0
   -0.3267   -4.0696   10.5180 C   0  0  0  0  0  0  0  0  0  0  0  0
   -0.3965   -5.3045   11.1022 C   0  0  0  0  0  0  0  0  0  0  0  0
   -0.5289   -6.3954   10.2759 C   0  0  0  0  0  0  0  0  0  0  0  0
   -0.6194   -7.9720   11.0121 Cl  0  0  0  0  0  0  0  0  0  0  0  0
   -0.5877   -6.2346    8.9096 C   0  0  0  0  0  0  0  0  0  0  0  0
   -0.5140   -4.9801    8.3453 C   0  0  0  0  0  0  0  0  0  0  0  0
   -3.2723   -6.2235    6.2983 N   0  0  0  0  0  0  0  0  0  0  0  0
   -2.9939   -5.6127    5.0697 C   0  0  0  0  0  0  0  0  0  0  0  0
   -3.9234   -4.9358    4.5180 O   0  0  0  0  0  0  0  0  0  0  0  0
   -2.5507   -6.7513    6.7922 H   0  0  0  0  0  0  0  0  0  0  0  0
   -1.6844   -5.7003    4.3564 C   0  0  0  0  0  0  0  0  0  0  0  0
   -1.2367   -4.4627    3.7920 N   0  0  0  0  0  0  0  0  0  0  0  0
   -0.8010   -4.2324    2.4754 C   0  0  0  0  0  0  0  0  0  0  0  0
   -0.7666   -5.1284    1.6017 O   0  0  0  0  0  0  0  0  0  0  0  0
   -1.2174   -3.5906    4.4271 H   0  0  0  0  0  0  0  0  0  0  0  0
   -0.3402   -2.8554    2.0330 C   0  0  0  0  0  0  0  0  0  0  0  0
   -1.2088   -2.3635    0.9926 N   0  0  0  0  0  0  0  0  0  0  0  0
   -2.4430   -2.9801    0.7285 C   0  0  0  0  0  0  0  0  0  0  0  0
   -2.8002   -3.9771    1.3932 O   0  0  0  0  0  0  0  0  0  0  0  0
   -0.9086   -1.5467    0.4367 H   0  0  0  0  0  0  0  0  0  0  0  0
   -3.2579   -2.4723   -0.2699 O   0  0  0  0  0  0  0  0  0  0  0  0
   -2.8493   -1.3545   -1.0024 C   0  0  0  0  0  0  0  0  0  0  0  0
   -3.6654   -0.1843   -0.6316 C   0  0  0  0  0  0  0  0  0  0  0  0
   -3.2024    1.1136   -0.7730 C   0  0  0  0  0  0  0  0  0  0  0  0
   -4.0410    2.1721   -0.4144 C   0  0  0  0  0  0  0  0  0  0  0  0
   -5.3046    1.9766    0.0721 C   0  0  0  0  0  0  0  0  0  0  0  0
   -5.7345    0.6776    0.2014 C   0  0  0  0  0  0  0  0  0  0  0  0
   -4.9365   -0.4019   -0.1425 C   0  0  0  0  0  0  0  0  0  0  0  0
   -0.3527   -1.9305    3.2173 C   0  0  0  0  0  0  0  0  0  0  0  0
   -1.4345   -0.9404    3.2112 C   0  0  0  0  0  0  0  0  0  0  0  0
   -2.7186   -1.2702    3.5742 C   0  0  0  0  0  0  0  0  0  0  0  0
   -3.7415   -0.3208    3.5692 C   0  0  0  0  0  0  0  0  0  0  0  0
   -3.4601    0.9771    3.1920 C   0  0  0  0  0  0  0  0  0  0  0  0
   -2.1832    1.3394    2.8236 C   0  0  0  0  0  0  0  0  0  0  0  0
   -1.2078    0.3825    2.8409 C   0  0  0  0  0  0  0  0  0  0  0  0
   -0.6928   -6.3842    5.2084 C   0  0  0  0  0  0  0  0  0  0  0  0
   -0.5963   -7.8556    5.0191 C   0  0  0  0  0  0  0  0  0  0  0  0
   -0.6441   -8.6680    6.1453 C   0  0  0  0  0  0  0  0  0  0  0  0
   -0.5632  -10.0424    6.0048 C   0  0  0  0  0  0  0  0  0  0  0  0
   -0.4362  -10.5463    4.7266 C   0  0  0  0  0  0  0  0  0  0  0  0
   -0.3871   -9.7459    3.6077 C   0  0  0  0  0  0  0  0  0  0  0  0
   -0.4676   -8.3712    3.7407 C   0  0  0  0  0  0  0  0  0  0  0  0
   -4.8134   -7.4661    7.6601 C   0  0  0  0  0  0  0  0  0  0  0  0
   -6.2483   -7.8324    7.6712 C   0  0  0  0  0  0  0  0  0  0  0  0
   -7.2338   -6.9494    8.0945 C   0  0  0  0  0  0  0  0  0  0  0  0
   -8.5443   -7.3523    8.0743 C   0  0  0  0  0  0  0  0  0  0  0  0
   -8.9286   -8.6124    7.6462 C   0  0  0  0  0  0  0  0  0  0  0  0
   -7.9492   -9.4869    7.2270 C   0  0  0  0  0  0  0  0  0  0  0  0
   -6.6299   -9.0847    7.2454 C   0  0  0  0  0  0  0  0  0  0  0  0
 25 26  1  0  0  0
 26 21  1  0  0  0
 21 22  1  0  0  0
 22 23  2  0  0  0
 22 14  1  0  0  0
 14 15  1  0  0  0
 15 16  1  0  0  0
 16 17  1  0  0  0
 17 18  1  0  0  0
 18 19  1  0  0  0
 19 20  2  0  0  0
 19 13  1  0  0  0
 13 32  1  0  0  0
 32 33  1  0  0  0
 33 34  2  0  0  0
 34 35  1  0  0  0
 35 36  2  0  0  0
 36 37  1  0  0  0
 36 38  1  0  0  0
 38 39  2  0  0  0
 13  9  1  0  0  0
  9 10  1  0  0  0
 10 11  2  0  0  0
 10  2  1  0  0  0
  2  3  1  0  0  0
  3  4  1  0  0  0
  4  5  1  0  0  0
  5  6  1  0  0  0
  6  7  1  0  0  0
  7  8  2  0  0  0
  7  1  1  0  0  0
  1 76  1  0  0  0
 76 77  1  0  0  0
 77 78  2  0  0  0
 78 79  1  0  0  0
 79 80  2  0  0  0
 80 81  1  0  0  0
 81 82  2  0  0  0
  1 40  1  0  0  0
 40 41  1  0  0  0
 41 42  2  0  0  0
 41 44  1  0  0  0
 44 69  1  0  0  0
 69 70  1  0  0  0
 70 71  2  0  0  0
 71 72  1  0  0  0
 72 73  2  0  0  0
 73 74  1  0  0  0
 74 75  2  0  0  0
 44 45  1  0  0  0
 45 46  1  0  0  0
 46 47  2  0  0  0
 46 49  1  0  0  0
 49 62  1  0  0  0
 62 63  1  0  0  0
 63 64  2  0  0  0
 64 65  1  0  0  0
 65 66  2  0  0  0
 66 67  1  0  0  0
 67 68  2  0  0  0
 49 50  1  0  0  0
 50 51  1  0  0  0
 51 52  2  0  0  0
 51 54  1  0  0  0
 54 55  1  0  0  0
 55 56  1  0  0  0
 56 57  2  0  0  0
 57 58  1  0  0  0
 58 59  2  0  0  0
 59 60  1  0  0  0
 60 61  2  0  0  0
 26 27  1  0  0  0
 27 28  1  0  0  0
 27 29  2  0  0  0
 18 14  1  0  0  0
 39 33  1  0  0  0
  6  2  1  0  0  0
 82 77  1  0  0  0
 75 70  1  0  0  0
 68 63  1  0  0  0
 61 56  1  0  0  0
 21 24  1  0  0  0
  9 12  1  0  0  0
 40 43  1  0  0  0
 45 48  1  0  0  0
 50 53  1  0  0  0
 28 30  1  0  0  0
 28 31  1  0  0  0
M  END
> <minimizedAffinity>
-2.70992

> <CNNscore>
0.2968237400

> <CNNaffinity>
7.6707181931

> <CNN_VS>
2.2768511772

> <CNNaffinity_variance>
1.1421979666

$$$$
[H]c1c([H])c([H])c(C([H])([H])OC(=O)N([H])[C@]([H])(C(=O)N([H])[C@]([H])(C(=O)N([H])[C@]([H])(C(=O)N2C([H])([H])C([H])([H])C([H])([H])[C@@]2([H])C(=O)N([H])[C@@]([H])(C(=O)N2C([H])([H])C([H])([H])C([H])([H])[C@@]2([H])C(=O)N([H])[C@@]([H])(C(=O)N([H])[H])C([H])([H])[H])C([H])([H])c2c([H])c([H])c(Cl)c([H])c2[H])C([H])([H])c2c([H])c([H])c([H])c([H])c2[H])C([H])([H])c2c([H])c([H])c([H])c([H])c2[H])C([H])([H])c2c([H])c([H])c([H])c([H])c2[H])c([H])c1[H]


 82 88  0  0  0  0  0  0  0  0999 V2000
   -9.2290   -7.7122    8.4864 C   0  0  0  0  0  0  0  0  0  0  0  0
  -12.0110  -10.2436    7.4710 C   0  0  0  0  0  0  0  0  0  0  0  0
  -13.0383  -10.7320    8.4257 C   0  0  0  0  0  0  0  0  0  0  0  0
  -13.2226   -9.5961    9.3997 C   0  0  0  0  0  0  0  0  0  0  0  0
  -11.9473   -8.7783    9.3003 C   0  0  0  0  0  0  0  0  0  0  0  0
  -11.2560   -9.2420    8.1416 N   0  0  0  0  0  0  0  0  0  0  0  0
   -9.9615   -8.7788    7.7516 C   0  0  0  0  0  0  0  0  0  0  0  0
   -9.3738   -9.2821    6.7368 O   0  0  0  0  0  0  0  0  0  0  0  0
  -13.8249   -9.3552    6.0152 N   0  0  0  0  0  0  0  0  0  0  0  0
  -12.5221   -9.8479    6.1291 C   0  0  0  0  0  0  0  0  0  0  0  0
  -11.7674   -9.9680    5.1419 O   0  0  0  0  0  0  0  0  0  0  0  0
  -14.4221   -9.2822    6.8702 H   0  0  0  0  0  0  0  0  0  0  0  0
  -14.4890   -8.9361    4.7911 C   0  0  0  0  0  0  0  0  0  0  0  0
  -17.9549   -8.5195    6.6166 C   0  0  0  0  0  0  0  0  0  0  0  0
  -18.1753   -7.0097    6.7106 C   0  0  0  0  0  0  0  0  0  0  0  0
  -16.8692   -6.6297    7.4253 C   0  0  0  0  0  0  0  0  0  0  0  0
  -15.9012   -7.7897    7.1433 C   0  0  0  0  0  0  0  0  0  0  0  0
  -16.6459   -8.5481    6.0862 N   0  0  0  0  0  0  0  0  0  0  0  0
  -15.9596   -9.0041    4.9575 C   0  0  0  0  0  0  0  0  0  0  0  0
  -16.5543   -9.5364    3.9462 O   0  0  0  0  0  0  0  0  0  0  0  0
  -19.9237   -9.9836    6.8898 N   0  0  0  0  0  0  0  0  0  0  0  0
  -19.0459   -9.2352    6.0430 C   0  0  0  0  0  0  0  0  0  0  0  0
  -19.3089   -9.2714    4.8354 O   0  0  0  0  0  0  0  0  0  0  0  0
  -19.7405   -9.9815    7.9195 H   0  0  0  0  0  0  0  0  0  0  0  0
  -22.2517   -9.9028    6.0538 C   0  0  0  0  0  0  0  0  0  0  0  0
  -21.0407  -10.7321    6.3506 C   0  0  0  0  0  0  0  0  0  0  0  0
  -21.4521  -11.8188    7.2985 C   0  0  0  0  0  0  0  0  0  0  0  0
  -21.7247  -13.0982    6.7613 N   0  0  0  0  0  0  0  0  0  0  0  0
  -21.5687  -11.6581    8.5370 O   0  0  0  0  0  0  0  0  0  0  0  0
  -22.3295  -13.7850    7.2955 H   0  0  0  0  0  0  0  0  0  0  0  0
  -21.3416  -13.3946    5.8381 H   0  0  0  0  0  0  0  0  0  0  0  0
  -14.0005   -7.5275    4.4623 C   0  0  0  0  0  0  0  0  0  0  0  0
  -15.0474   -6.5524    4.1701 C   0  0  0  0  0  0  0  0  0  0  0  0
  -16.0985   -6.9030    3.3574 C   0  0  0  0  0  0  0  0  0  0  0  0
  -17.1189   -6.0457    3.0492 C   0  0  0  0  0  0  0  0  0  0  0  0
  -17.0748   -4.7810    3.5867 C   0  0  0  0  0  0  0  0  0  0  0  0
  -18.3711   -3.6829    3.1998 Cl  0  0  0  0  0  0  0  0  0  0  0  0
  -16.0334   -4.4049    4.4053 C   0  0  0  0  0  0  0  0  0  0  0  0
  -15.0167   -5.2866    4.6998 C   0  0  0  0  0  0  0  0  0  0  0  0
   -7.8105   -7.7054    8.1015 N   0  0  0  0  0  0  0  0  0  0  0  0
   -7.3201   -6.9713    7.0149 C   0  0  0  0  0  0  0  0  0  0  0  0
   -8.1477   -6.2581    6.3569 O   0  0  0  0  0  0  0  0  0  0  0  0
   -7.1807   -8.2678    8.6760 H   0  0  0  0  0  0  0  0  0  0  0  0
   -5.8946   -6.9667    6.5687 C   0  0  0  0  0  0  0  0  0  0  0  0
   -5.2196   -5.7190    6.7649 N   0  0  0  0  0  0  0  0  0  0  0  0
   -4.2933   -5.1043    5.9044 C   0  0  0  0  0  0  0  0  0  0  0  0
   -3.9478   -5.6000    4.8079 O   0  0  0  0  0  0  0  0  0  0  0  0
   -5.4226   -5.1667    7.6694 H   0  0  0  0  0  0  0  0  0  0  0  0
   -3.6496   -3.7781    6.2659 C   0  0  0  0  0  0  0  0  0  0  0  0
   -4.3409   -2.7042    5.5965 N   0  0  0  0  0  0  0  0  0  0  0  0
   -3.7672   -2.0509    4.4933 C   0  0  0  0  0  0  0  0  0  0  0  0
   -2.6364   -2.3911    4.0822 O   0  0  0  0  0  0  0  0  0  0  0  0
   -5.2700   -2.4164    5.9430 H   0  0  0  0  0  0  0  0  0  0  0  0
   -4.4657   -1.0322    3.8664 O   0  0  0  0  0  0  0  0  0  0  0  0
   -3.9716    0.2747    3.8987 C   0  0  0  0  0  0  0  0  0  0  0  0
   -3.5242    0.6097    5.2628 C   0  0  0  0  0  0  0  0  0  0  0  0
   -4.4109    0.7461    6.3181 C   0  0  0  0  0  0  0  0  0  0  0  0
   -3.9092    1.0495    7.5863 C   0  0  0  0  0  0  0  0  0  0  0  0
   -2.5730    1.2178    7.8274 C   0  0  0  0  0  0  0  0  0  0  0  0
   -1.7189    1.0769    6.7597 C   0  0  0  0  0  0  0  0  0  0  0  0
   -2.1733    0.7759    5.4856 C   0  0  0  0  0  0  0  0  0  0  0  0
   -3.7040   -3.5972    7.7568 C   0  0  0  0  0  0  0  0  0  0  0  0
   -2.5660   -2.8702    8.3285 C   0  0  0  0  0  0  0  0  0  0  0  0
   -2.5724   -2.4243    9.6288 C   0  0  0  0  0  0  0  0  0  0  0  0
   -1.4834   -1.7364   10.1662 C   0  0  0  0  0  0  0  0  0  0  0  0
   -0.3758   -1.4978    9.3773 C   0  0  0  0  0  0  0  0  0  0  0  0
   -0.3383   -1.9325    8.0708 C   0  0  0  0  0  0  0  0  0  0  0  0
   -1.4232   -2.6026    7.5796 C   0  0  0  0  0  0  0  0  0  0  0  0
   -5.1918   -8.1415    7.1191 C   0  0  0  0  0  0  0  0  0  0  0  0
   -3.7128   -8.0176    7.2041 C   0  0  0  0  0  0  0  0  0  0  0  0
   -3.1717   -7.3257    8.2807 C   0  0  0  0  0  0  0  0  0  0  0  0
   -1.7985   -7.1966    8.3941 C   0  0  0  0  0  0  0  0  0  0  0  0
   -1.0205   -7.7736    7.4115 C   0  0  0  0  0  0  0  0  0  0  0  0
   -1.5514   -8.4590    6.3422 C   0  0  0  0  0  0  0  0  0  0  0  0
   -2.9233   -8.5920    6.2226 C   0  0  0  0  0  0  0  0  0  0  0  0
   -9.7715   -6.3214    8.2148 C   0  0  0  0  0  0  0  0  0  0  0  0
  -10.9883   -6.0523    9.0149 C   0  0  0  0  0  0  0  0  0  0  0  0
  -12.2597   -6.0660    8.4550 C   0  0  0  0  0  0  0  0  0  0  0  0
  -13.3441   -5.8129    9.2550 C   0  0  0  0  0  0  0  0  0  0  0  0
  -13.2230   -5.5420   10.6081 C   0  0  0  0  0  0  0  0  0  0  0  0
  -11.9608   -5.5285   11.1614 C   0  0  0  0  0  0  0  0  0  0  0  0
  -10.8677   -5.7834   10.3596 C   0  0  0  0  0  0  0  0  0  0  0  0
 25 26  1  0  0  0
 26 21  1  0  0  0
 21 22  1  0  0  0
 22 23  2  0  0  0
 22 14  1  0  0  0
 14 15  1  0  0  0
 15 16  1  0  0  0
 16 17  1  0  0  0
 17 18  1  0  0  0
 18 19  1  0  0  0
 19 20  2  0  0  0
 19 13  1  0  0  0
 13 32  1  0  0  0
 32 33  1  0  0  0
 33 34  2  0  0  0
 34 35  1  0  0  0
 35 36  2  0  0  0
 36 37  1  0  0  0
 36 38  1  0  0  0
 38 39  2  0  0  0
 13  9  1  0  0  0
  9 10  1  0  0  0
 10 11  2  0  0  0
 10  2  1  0  0  0
  2  3  1  0  0  0
  3  4  1  0  0  0
  4  5  1  0  0  0
  5  6  1  0  0  0
  6  7  1  0  0  0
  7  8  2  0  0  0
  7  1  1  0  0  0
  1 76  1  0  0  0
 76 77  1  0  0  0
 77 78  2  0  0  0
 78 79  1  0  0  0
 79 80  2  0  0  0
 80 81  1  0  0  0
 81 82  2  0  0  0
  1 40  1  0  0  0
 40 41  1  0  0  0
 41 42  2  0  0  0
 41 44  1  0  0  0
 44 69  1  0  0  0
 69 70  1  0  0  0
 70 71  2  0  0  0
 71 72  1  0  0  0
 72 73  2  0  0  0
 73 74  1  0  0  0
 74 75  2  0  0  0
 44 45  1  0  0  0
 45 46  1  0  0  0
 46 47  2  0  0  0
 46 49  1  0  0  0
 49 62  1  0  0  0
 62 63  1  0  0  0
 63 64  2  0  0  0
 64 65  1  0  0  0
 65 66  2  0  0  0
 66 67  1  0  0  0
 67 68  2  0  0  0
 49 50  1  0  0  0
 50 51  1  0  0  0
 51 52  2  0  0  0
 51 54  1  0  0  0
 54 55  1  0  0  0
 55 56  1  0  0  0
 56 57  2  0  0  0
 57 58  1  0  0  0
 58 59  2  0  0  0
 59 60  1  0  0  0
 60 61  2  0  0  0
 26 27  1  0  0  0
 27 28  1  0  0  0
 27 29  2  0  0  0
 18 14  1  0  0  0
 39 33  1  0  0  0
  6  2  1  0  0  0
 82 77  1  0  0  0
 75 70  1  0  0  0
 68 63  1  0  0  0
 61 56  1  0  0  0
 21 24  1  0  0  0
  9 12  1  0  0  0
 40 43  1  0  0  0
 45 48  1  0  0  0
 50 53  1  0  0  0
 28 30  1  0  0  0
 28 31  1  0  0  0
M  END
> <minimizedAffinity>
-2.55745

> <CNNscore>
0.2668661475

> <CNNaffinity>
8.3244218826

> <CNN_VS>
2.2215063572

> <CNNaffinity_variance>
0.0779761970

$$$$
[H]c1c([H])c([H])c(C([H])([H])OC(=O)N([H])[C@]([H])(C(=O)N([H])[C@]([H])(C(=O)N([H])[C@]([H])(C(=O)N2C([H])([H])C([H])([H])C([H])([H])[C@@]2([H])C(=O)N([H])[C@@]([H])(C(=O)N2C([H])([H])C([H])([H])C([H])([H])[C@@]2([H])C(=O)N([H])[C@@]([H])(C(=O)N([H])[H])C([H])([H])[H])C([H])([H])c2c([H])c([H])c(Cl)c([H])c2[H])C([H])([H])c2c([H])c([H])c([H])c([H])c2[H])C([H])([H])c2c([H])c([H])c([H])c([H])c2[H])C([H])([H])c2c([H])c([H])c([H])c([H])c2[H])c([H])c1[H]


 82 88  0  0  0  0  0  0  0  0999 V2000
   -9.2678   -7.6886    8.5054 C   0  0  0  0  0  0  0  0  0  0  0  0
  -12.0157  -10.2397    7.4475 C   0  0  0  0  0  0  0  0  0  0  0  0
  -13.0470  -10.7442    8.3893 C   0  0  0  0  0  0  0  0  0  0  0  0
  -13.2512   -9.6167    9.3689 C   0  0  0  0  0  0  0  0  0  0  0  0
  -11.9831   -8.7861    9.2868 C   0  0  0  0  0  0  0  0  0  0  0  0
  -11.2766   -9.2354    8.1317 N   0  0  0  0  0  0  0  0  0  0  0  0
   -9.9831   -8.7573    7.7567 C   0  0  0  0  0  0  0  0  0  0  0  0
   -9.3811   -9.2481    6.7443 O   0  0  0  0  0  0  0  0  0  0  0  0
  -13.8348   -9.3896    5.9755 N   0  0  0  0  0  0  0  0  0  0  0  0
  -12.5181   -9.8400    6.1035 C   0  0  0  0  0  0  0  0  0  0  0  0
  -11.7439   -9.9189    5.1273 O   0  0  0  0  0  0  0  0  0  0  0  0
  -14.4479   -9.3504    6.8213 H   0  0  0  0  0  0  0  0  0  0  0  0
  -14.4929   -8.9735    4.7471 C   0  0  0  0  0  0  0  0  0  0  0  0
  -17.9653   -8.4869    6.5426 C   0  0  0  0  0  0  0  0  0  0  0  0
  -18.1821   -6.9742    6.5846 C   0  0  0  0  0  0  0  0  0  0  0  0
  -16.8781   -6.5735    7.2915 C   0  0  0  0  0  0  0  0  0  0  0  0
  -15.9118   -7.7448    7.0531 C   0  0  0  0  0  0  0  0  0  0  0  0
  -16.6542   -8.5366    6.0191 N   0  0  0  0  0  0  0  0  0  0  0  0
  -15.9643   -9.0323    4.9093 C   0  0  0  0  0  0  0  0  0  0  0  0
  -16.5561   -9.5969    3.9141 O   0  0  0  0  0  0  0  0  0  0  0  0
  -19.9226   -9.9585    6.8543 N   0  0  0  0  0  0  0  0  0  0  0  0
  -19.0557   -9.2189    5.9889 C   0  0  0  0  0  0  0  0  0  0  0  0
  -19.3271   -9.2768    4.7840 O   0  0  0  0  0  0  0  0  0  0  0  0
  -19.7322   -9.9381    7.8825 H   0  0  0  0  0  0  0  0  0  0  0  0
  -22.2447   -9.9012    5.9999 C   0  0  0  0  0  0  0  0  0  0  0  0
  -21.0387  -10.7229    6.3357 C   0  0  0  0  0  0  0  0  0  0  0  0
  -21.4604  -11.7721    7.3207 C   0  0  0  0  0  0  0  0  0  0  0  0
  -21.9602  -12.9939    6.8135 N   0  0  0  0  0  0  0  0  0  0  0  0
  -21.3961  -11.6280    8.5649 O   0  0  0  0  0  0  0  0  0  0  0  0
  -22.5741  -13.6123    7.4165 H   0  0  0  0  0  0  0  0  0  0  0  0
  -21.7393  -13.3135    5.8461 H   0  0  0  0  0  0  0  0  0  0  0  0
  -13.9953   -7.5696    4.4119 C   0  0  0  0  0  0  0  0  0  0  0  0
  -15.0364   -6.5866    4.1251 C   0  0  0  0  0  0  0  0  0  0  0  0
  -16.1163   -6.9422    3.3534 C   0  0  0  0  0  0  0  0  0  0  0  0
  -17.1330   -6.0779    3.0529 C   0  0  0  0  0  0  0  0  0  0  0  0
  -17.0547   -4.8004    3.5553 C   0  0  0  0  0  0  0  0  0  0  0  0
  -18.3460   -3.6932    3.1779 Cl  0  0  0  0  0  0  0  0  0  0  0  0
  -15.9838   -4.4191    4.3324 C   0  0  0  0  0  0  0  0  0  0  0  0
  -14.9716   -5.3081    4.6200 C   0  0  0  0  0  0  0  0  0  0  0  0
   -7.8490   -7.6558    8.1227 N   0  0  0  0  0  0  0  0  0  0  0  0
   -7.3696   -6.9084    7.0403 C   0  0  0  0  0  0  0  0  0  0  0  0
   -8.2083   -6.2064    6.3843 O   0  0  0  0  0  0  0  0  0  0  0  0
   -7.2106   -8.2100    8.6957 H   0  0  0  0  0  0  0  0  0  0  0  0
   -5.9436   -6.8774    6.5964 C   0  0  0  0  0  0  0  0  0  0  0  0
   -5.2490   -5.6701    6.9289 N   0  0  0  0  0  0  0  0  0  0  0  0
   -4.3613   -4.9437    6.1160 C   0  0  0  0  0  0  0  0  0  0  0  0
   -4.0751   -5.2833    4.9454 O   0  0  0  0  0  0  0  0  0  0  0  0
   -5.4019   -5.2481    7.9102 H   0  0  0  0  0  0  0  0  0  0  0  0
   -3.6890   -3.6814    6.6245 C   0  0  0  0  0  0  0  0  0  0  0  0
   -3.0702   -3.9410    7.9007 N   0  0  0  0  0  0  0  0  0  0  0  0
   -2.9936   -2.9415    8.8846 C   0  0  0  0  0  0  0  0  0  0  0  0
   -3.4575   -1.8026    8.6582 O   0  0  0  0  0  0  0  0  0  0  0  0
   -2.6776   -4.8784    8.0833 H   0  0  0  0  0  0  0  0  0  0  0  0
   -2.4038   -3.2303   10.1042 O   0  0  0  0  0  0  0  0  0  0  0  0
   -2.1506   -4.5581   10.4593 C   0  0  0  0  0  0  0  0  0  0  0  0
   -3.0958   -4.9878   11.5058 C   0  0  0  0  0  0  0  0  0  0  0  0
   -4.4680   -4.8768   11.3522 C   0  0  0  0  0  0  0  0  0  0  0  0
   -5.3005   -5.3208   12.3827 C   0  0  0  0  0  0  0  0  0  0  0  0
   -4.8125   -5.8622   13.5405 C   0  0  0  0  0  0  0  0  0  0  0  0
   -3.4469   -5.9579   13.6630 C   0  0  0  0  0  0  0  0  0  0  0  0
   -2.5845   -5.5306   12.6660 C   0  0  0  0  0  0  0  0  0  0  0  0
   -2.6660   -3.2321    5.6196 C   0  0  0  0  0  0  0  0  0  0  0  0
   -3.0713   -2.0833    4.8031 C   0  0  0  0  0  0  0  0  0  0  0  0
   -4.1494   -1.3004    5.1411 C   0  0  0  0  0  0  0  0  0  0  0  0
   -4.5261   -0.2066    4.3604 C   0  0  0  0  0  0  0  0  0  0  0  0
   -3.8023    0.0971    3.2247 C   0  0  0  0  0  0  0  0  0  0  0  0
   -2.7163   -0.6675    2.8595 C   0  0  0  0  0  0  0  0  0  0  0  0
   -2.3776   -1.7304    3.6486 C   0  0  0  0  0  0  0  0  0  0  0  0
   -5.2604   -8.1170    7.0130 C   0  0  0  0  0  0  0  0  0  0  0  0
   -3.7757   -8.0484    7.0401 C   0  0  0  0  0  0  0  0  0  0  0  0
   -3.1613   -7.5482    8.1816 C   0  0  0  0  0  0  0  0  0  0  0  0
   -1.7806   -7.4760    8.2430 C   0  0  0  0  0  0  0  0  0  0  0  0
   -1.0698   -7.9134    7.1442 C   0  0  0  0  0  0  0  0  0  0  0  0
   -1.6734   -8.4086    6.0105 C   0  0  0  0  0  0  0  0  0  0  0  0
   -3.0532   -8.4838    5.9424 C   0  0  0  0  0  0  0  0  0  0  0  0
   -9.8308   -6.3030    8.2495 C   0  0  0  0  0  0  0  0  0  0  0  0
  -11.0158   -6.0383    9.0974 C   0  0  0  0  0  0  0  0  0  0  0  0
  -10.9055   -5.7343   10.4485 C   0  0  0  0  0  0  0  0  0  0  0  0
  -12.0442   -5.4954   11.1740 C   0  0  0  0  0  0  0  0  0  0  0  0
  -13.3089   -5.5451   10.6111 C   0  0  0  0  0  0  0  0  0  0  0  0
  -13.4161   -5.8472    9.2706 C   0  0  0  0  0  0  0  0  0  0  0  0
  -12.2725   -6.0875    8.5377 C   0  0  0  0  0  0  0  0  0  0  0  0
 25 26  1  0  0  0
 26 21  1  0  0  0
 21 22  1  0  0  0
 22 23  2  0  0  0
 22 14  1  0  0  0
 14 15  1  0  0  0
 15 16  1  0  0  0
 16 17  1  0  0  0
 17 18  1  0  0  0
 18 19  1  0  0  0
 19 20  2  0  0  0
 19 13  1  0  0  0
 13 32  1  0  0  0
 32 33  1  0  0  0
 33 34  2  0  0  0
 34 35  1  0  0  0
 35 36  2  0  0  0
 36 37  1  0  0  0
 36 38  1  0  0  0
 38 39  2  0  0  0
 13  9  1  0  0  0
  9 10  1  0  0  0
 10 11  2  0  0  0
 10  2  1  0  0  0
  2  3  1  0  0  0
  3  4  1  0  0  0
  4  5  1  0  0  0
  5  6  1  0  0  0
  6  7  1  0  0  0
  7  8  2  0  0  0
  7  1  1  0  0  0
  1 76  1  0  0  0
 76 77  1  0  0  0
 77 78  2  0  0  0
 78 79  1  0  0  0
 79 80  2  0  0  0
 80 81  1  0  0  0
 81 82  2  0  0  0
  1 40  1  0  0  0
 40 41  1  0  0  0
 41 42  2  0  0  0
 41 44  1  0  0  0
 44 69  1  0  0  0
 69 70  1  0  0  0
 70 71  2  0  0  0
 71 72  1  0  0  0
 72 73  2  0  0  0
 73 74  1  0  0  0
 74 75  2  0  0  0
 44 45  1  0  0  0
 45 46  1  0  0  0
 46 47  2  0  0  0
 46 49  1  0  0  0
 49 62  1  0  0  0
 62 63  1  0  0  0
 63 64  2  0  0  0
 64 65  1  0  0  0
 65 66  2  0  0  0
 66 67  1  0  0  0
 67 68  2  0  0  0
 49 50  1  0  0  0
 50 51  1  0  0  0
 51 52  2  0  0  0
 51 54  1  0  0  0
 54 55  1  0  0  0
 55 56  1  0  0  0
 56 57  2  0  0  0
 57 58  1  0  0  0
 58 59  2  0  0  0
 59 60  1  0  0  0
 60 61  2  0  0  0
 26 27  1  0  0  0
 27 28  1  0  0  0
 27 29  2  0  0  0
 18 14  1  0  0  0
 39 33  1  0  0  0
  6  2  1  0  0  0
 82 77  1  0  0  0
 75 70  1  0  0  0
 68 63  1  0  0  0
 61 56  1  0  0  0
 21 24  1  0  0  0
  9 12  1  0  0  0
 40 43  1  0  0  0
 45 48  1  0  0  0
 50 53  1  0  0  0
 28 30  1  0  0  0
 28 31  1  0  0  0
M  END
> <minimizedAffinity>
-3.25399

> <CNNscore>
0.2668469846

> <CNNaffinity>
8.4080142975

> <CNN_VS>
2.2436532974

> <CNNaffinity_variance>
0.1929677576

$$$$
[H]c1c([H])c([H])c(C([H])([H])OC(=O)N([H])[C@]([H])(C(=O)N([H])[C@]([H])(C(=O)N([H])[C@]([H])(C(=O)N2C([H])([H])C([H])([H])C([H])([H])[C@@]2([H])C(=O)N([H])[C@@]([H])(C(=O)N2C([H])([H])C([H])([H])C([H])([H])[C@@]2([H])C(=O)N([H])[C@@]([H])(C(=O)N([H])[H])C([H])([H])[H])C([H])([H])c2c([H])c([H])c(Cl)c([H])c2[H])C([H])([H])c2c([H])c([H])c([H])c([H])c2[H])C([H])([H])c2c([H])c([H])c([H])c([H])c2[H])C([H])([H])c2c([H])c([H])c([H])c([H])c2[H])c([H])c1[H]


 82 88  0  0  0  0  0  0  0  0999 V2000
   -4.5087   -1.3875    4.2981 C   0  0  0  0  0  0  0  0  0  0  0  0
   -2.1670   -4.5000    4.2139 C   0  0  0  0  0  0  0  0  0  0  0  0
   -0.7349   -4.4161    3.8301 C   0  0  0  0  0  0  0  0  0  0  0  0
   -0.3102   -3.0311    4.2472 C   0  0  0  0  0  0  0  0  0  0  0  0
   -1.5966   -2.2285    4.3236 C   0  0  0  0  0  0  0  0  0  0  0  0
   -2.6673   -3.1696    4.2653 N   0  0  0  0  0  0  0  0  0  0  0  0
   -4.0471   -2.8000    4.2218 C   0  0  0  0  0  0  0  0  0  0  0  0
   -4.9518   -3.6926    4.1075 O   0  0  0  0  0  0  0  0  0  0  0  0
   -3.7665   -5.3760    5.9089 N   0  0  0  0  0  0  0  0  0  0  0  0
   -2.4585   -5.3248    5.4194 C   0  0  0  0  0  0  0  0  0  0  0  0
   -1.5213   -5.9492    5.9583 O   0  0  0  0  0  0  0  0  0  0  0  0
   -4.5157   -4.8276    5.4284 H   0  0  0  0  0  0  0  0  0  0  0  0
   -4.2274   -6.1141    7.0742 C   0  0  0  0  0  0  0  0  0  0  0  0
   -1.6765   -6.7406   10.0099 C   0  0  0  0  0  0  0  0  0  0  0  0
   -0.3279   -6.9597    9.3242 C   0  0  0  0  0  0  0  0  0  0  0  0
   -0.7300   -8.1074    8.3851 C   0  0  0  0  0  0  0  0  0  0  0  0
   -2.2578   -8.0049    8.2516 C   0  0  0  0  0  0  0  0  0  0  0  0
   -2.5221   -6.6701    8.8806 N   0  0  0  0  0  0  0  0  0  0  0  0
   -3.3971   -5.7783    8.2543 C   0  0  0  0  0  0  0  0  0  0  0  0
   -3.5648   -4.5660    8.6565 O   0  0  0  0  0  0  0  0  0  0  0  0
   -2.0247   -6.1079   12.3705 N   0  0  0  0  0  0  0  0  0  0  0  0
   -1.6575   -5.7501   11.0346 C   0  0  0  0  0  0  0  0  0  0  0  0
   -1.3442   -4.5660   10.8655 O   0  0  0  0  0  0  0  0  0  0  0  0
   -2.2966   -7.0996   12.5614 H   0  0  0  0  0  0  0  0  0  0  0  0
   -0.7735   -5.1145   14.2607 C   0  0  0  0  0  0  0  0  0  0  0  0
   -2.0274   -5.1331   13.4423 C   0  0  0  0  0  0  0  0  0  0  0  0
   -3.1772   -5.3784   14.3733 C   0  0  0  0  0  0  0  0  0  0  0  0
   -3.2372   -4.6202   15.5656 N   0  0  0  0  0  0  0  0  0  0  0  0
   -4.0855   -6.2156   14.1560 O   0  0  0  0  0  0  0  0  0  0  0  0
   -3.7979   -4.9698   16.3941 H   0  0  0  0  0  0  0  0  0  0  0  0
   -2.7386   -3.7094   15.6580 H   0  0  0  0  0  0  0  0  0  0  0  0
   -5.7020   -5.7756    7.2790 C   0  0  0  0  0  0  0  0  0  0  0  0
   -6.6185   -6.9116    7.2361 C   0  0  0  0  0  0  0  0  0  0  0  0
   -7.9644   -6.7096    7.4257 C   0  0  0  0  0  0  0  0  0  0  0  0
   -8.8815   -7.7239    7.3888 C   0  0  0  0  0  0  0  0  0  0  0  0
   -8.4177   -8.9958    7.1487 C   0  0  0  0  0  0  0  0  0  0  0  0
   -9.5794  -10.2935    7.0993 Cl  0  0  0  0  0  0  0  0  0  0  0  0
   -7.0740   -9.2250    6.9540 C   0  0  0  0  0  0  0  0  0  0  0  0
   -6.1700   -8.1865    6.9972 C   0  0  0  0  0  0  0  0  0  0  0  0
   -3.4866   -0.5476    4.9387 N   0  0  0  0  0  0  0  0  0  0  0  0
   -3.6341   -0.0177    6.2261 C   0  0  0  0  0  0  0  0  0  0  0  0
   -4.6948   -0.3093    6.8713 O   0  0  0  0  0  0  0  0  0  0  0  0
   -2.6412   -0.3660    4.3951 H   0  0  0  0  0  0  0  0  0  0  0  0
   -2.6371    0.8692    6.8975 C   0  0  0  0  0  0  0  0  0  0  0  0
   -2.7144    0.8662    8.3274 N   0  0  0  0  0  0  0  0  0  0  0  0
   -3.3320    1.8233    9.1516 C   0  0  0  0  0  0  0  0  0  0  0  0
   -3.9247    2.8302    8.7017 O   0  0  0  0  0  0  0  0  0  0  0  0
   -2.2517    0.0504    8.8609 H   0  0  0  0  0  0  0  0  0  0  0  0
   -3.3136    1.6834   10.6629 C   0  0  0  0  0  0  0  0  0  0  0  0
   -2.8847    0.3547   11.0226 N   0  0  0  0  0  0  0  0  0  0  0  0
   -1.5521   -0.0500   10.8395 C   0  0  0  0  0  0  0  0  0  0  0  0
   -0.7183    0.7425   10.3496 O   0  0  0  0  0  0  0  0  0  0  0  0
   -3.5760   -0.3031   11.4172 H   0  0  0  0  0  0  0  0  0  0  0  0
   -1.1724   -1.3300   11.2087 O   0  0  0  0  0  0  0  0  0  0  0  0
   -0.3342   -1.5181   12.3110 C   0  0  0  0  0  0  0  0  0  0  0  0
   -1.0891   -1.3055   13.5592 C   0  0  0  0  0  0  0  0  0  0  0  0
   -0.4793   -0.8784   14.7273 C   0  0  0  0  0  0  0  0  0  0  0  0
   -1.2646   -0.6841   15.8665 C   0  0  0  0  0  0  0  0  0  0  0  0
   -2.6156   -0.8995   15.8736 C   0  0  0  0  0  0  0  0  0  0  0  0
   -3.1908   -1.3236   14.6995 C   0  0  0  0  0  0  0  0  0  0  0  0
   -2.4501   -1.5285   13.5464 C   0  0  0  0  0  0  0  0  0  0  0  0
   -2.3859    2.7156   11.2394 C   0  0  0  0  0  0  0  0  0  0  0  0
   -2.3510    2.7590   12.7048 C   0  0  0  0  0  0  0  0  0  0  0  0
   -3.4411    2.4077   13.4648 C   0  0  0  0  0  0  0  0  0  0  0  0
   -3.3980    2.4483   14.8592 C   0  0  0  0  0  0  0  0  0  0  0  0
   -2.2376    2.8495   15.4903 C   0  0  0  0  0  0  0  0  0  0  0  0
   -1.1278    3.2070   14.7569 C   0  0  0  0  0  0  0  0  0  0  0  0
   -1.2076    3.1546   13.3938 C   0  0  0  0  0  0  0  0  0  0  0  0
   -1.2901    0.6146    6.3520 C   0  0  0  0  0  0  0  0  0  0  0  0
   -0.9408    1.3860    5.1302 C   0  0  0  0  0  0  0  0  0  0  0  0
   -0.6673    0.6820    3.9639 C   0  0  0  0  0  0  0  0  0  0  0  0
   -0.3446    1.3689    2.8066 C   0  0  0  0  0  0  0  0  0  0  0  0
   -0.3100    2.7467    2.8715 C   0  0  0  0  0  0  0  0  0  0  0  0
   -0.5788    3.4490    4.0246 C   0  0  0  0  0  0  0  0  0  0  0  0
   -0.9022    2.7688    5.1851 C   0  0  0  0  0  0  0  0  0  0  0  0
   -4.7962   -0.7803    2.9376 C   0  0  0  0  0  0  0  0  0  0  0  0
   -4.4758    0.6654    2.9146 C   0  0  0  0  0  0  0  0  0  0  0  0
   -3.7856    1.2533    1.8620 C   0  0  0  0  0  0  0  0  0  0  0  0
   -3.5264    2.5992    1.9027 C   0  0  0  0  0  0  0  0  0  0  0  0
   -3.9273    3.4022    2.9578 C   0  0  0  0  0  0  0  0  0  0  0  0
   -4.6117    2.8169    4.0012 C   0  0  0  0  0  0  0  0  0  0  0  0
   -4.8746    1.4633    3.9631 C   0  0  0  0  0  0  0  0  0  0  0  0
 25 26  1  0  0  0
 26 21  1  0  0  0
 21 22  1  0  0  0
 22 23  2  0  0  0
 22 14  1  0  0  0
 14 15  1  0  0  0
 15 16  1  0  0  0
 16 17  1  0  0  0
 17 18  1  0  0  0
 18 19  1  0  0  0
 19 20  2  0  0  0
 19 13  1  0  0  0
 13 32  1  0  0  0
 32 33  1  0  0  0
 33 34  2  0  0  0
 34 35  1  0  0  0
 35 36  2  0  0  0
 36 37  1  0  0  0
 36 38  1  0  0  0
 38 39  2  0  0  0
 13  9  1  0  0  0
  9 10  1  0  0  0
 10 11  2  0  0  0
 10  2  1  0  0  0
  2  3  1  0  0  0
  3  4  1  0  0  0
  4  5  1  0  0  0
  5  6  1  0  0  0
  6  7  1  0  0  0
  7  8  2  0  0  0
  7  1  1  0  0  0
  1 76  1  0  0  0
 76 77  1  0  0  0
 77 78  2  0  0  0
 78 79  1  0  0  0
 79 80  2  0  0  0
 80 81  1  0  0  0
 81 82  2  0  0  0
  1 40  1  0  0  0
 40 41  1  0  0  0
 41 42  2  0  0  0
 41 44  1  0  0  0
 44 69  1  0  0  0
 69 70  1  0  0  0
 70 71  2  0  0  0
 71 72  1  0  0  0
 72 73  2  0  0  0
 73 74  1  0  0  0
 74 75  2  0  0  0
 44 45  1  0  0  0
 45 46  1  0  0  0
 46 47  2  0  0  0
 46 49  1  0  0  0
 49 62  1  0  0  0
 62 63  1  0  0  0
 63 64  2  0  0  0
 64 65  1  0  0  0
 65 66  2  0  0  0
 66 67  1  0  0  0
 67 68  2  0  0  0
 49 50  1  0  0  0
 50 51  1  0  0  0
 51 52  2  0  0  0
 51 54  1  0  0  0
 54 55  1  0  0  0
 55 56  1  0  0  0
 56 57  2  0  0  0
 57 58  1  0  0  0
 58 59  2  0  0  0
 59 60  1  0  0  0
 60 61  2  0  0  0
 26 27  1  0  0  0
 27 28  1  0  0  0
 27 29  2  0  0  0
 18 14  1  0  0  0
 39 33  1  0  0  0
  6  2  1  0  0  0
 82 77  1  0  0  0
 75 70  1  0  0  0
 68 63  1  0  0  0
 61 56  1  0  0  0
 21 24  1  0  0  0
  9 12  1  0  0  0
 40 43  1  0  0  0
 45 48  1  0  0  0
 50 53  1  0  0  0
 28 30  1  0  0  0
 28 31  1  0  0  0
M  END
> <minimizedAffinity>
-4.09243

> <CNNscore>
0.2379022688

> <CNNaffinity>
7.9918456078

> <CNN_VS>
1.9012782574

> <CNNaffinity_variance>
0.5248343349

$$$$
[H]c1c([H])c([H])c(C([H])([H])OC(=O)N([H])[C@]([H])(C(=O)N([H])[C@]([H])(C(=O)N([H])[C@]([H])(C(=O)N2C([H])([H])C([H])([H])C([H])([H])[C@@]2([H])C(=O)N([H])[C@@]([H])(C(=O)N2C([H])([H])C([H])([H])C([H])([H])[C@@]2([H])C(=O)N([H])[C@@]([H])(C(=O)N([H])[H])C([H])([H])[H])C([H])([H])c2c([H])c([H])c(Cl)c([H])c2[H])C([H])([H])c2c([H])c([H])c([H])c([H])c2[H])C([H])([H])c2c([H])c([H])c([H])c([H])c2[H])C([H])([H])c2c([H])c([H])c([H])c([H])c2[H])c([H])c1[H]


 82 88  0  0  0  0  0  0  0  0999 V2000
   -4.6287   -1.3618    4.5359 C   0  0  0  0  0  0  0  0  0  0  0  0
   -2.0883   -4.2141    3.7684 C   0  0  0  0  0  0  0  0  0  0  0  0
   -0.6372   -3.9650    3.5748 C   0  0  0  0  0  0  0  0  0  0  0  0
   -0.3421   -2.7562    4.4259 C   0  0  0  0  0  0  0  0  0  0  0  0
   -1.6805   -2.0626    4.6062 C   0  0  0  0  0  0  0  0  0  0  0  0
   -2.6778   -2.9810    4.1620 N   0  0  0  0  0  0  0  0  0  0  0  0
   -4.0701   -2.6670    4.0903 C   0  0  0  0  0  0  0  0  0  0  0  0
   -4.9009   -3.5162    3.6242 O   0  0  0  0  0  0  0  0  0  0  0  0
   -3.5716   -5.3150    5.4376 N   0  0  0  0  0  0  0  0  0  0  0  0
   -2.4272   -5.3750    4.6379 C   0  0  0  0  0  0  0  0  0  0  0  0
   -1.6756   -6.3717    4.6252 O   0  0  0  0  0  0  0  0  0  0  0  0
   -4.1646   -4.4542    5.4208 H   0  0  0  0  0  0  0  0  0  0  0  0
   -4.0454   -6.3428    6.3511 C   0  0  0  0  0  0  0  0  0  0  0  0
   -1.5207   -8.8029    8.1095 C   0  0  0  0  0  0  0  0  0  0  0  0
   -0.5339   -9.2087    7.0147 C   0  0  0  0  0  0  0  0  0  0  0  0
   -1.5405   -9.7357    5.9803 C   0  0  0  0  0  0  0  0  0  0  0  0
   -2.8804   -9.0785    6.3479 C   0  0  0  0  0  0  0  0  0  0  0  0
   -2.4429   -8.0511    7.3481 N   0  0  0  0  0  0  0  0  0  0  0  0
   -2.9569   -6.7539    7.2681 C   0  0  0  0  0  0  0  0  0  0  0  0
   -2.5250   -5.7853    7.9995 O   0  0  0  0  0  0  0  0  0  0  0  0
   -0.9421   -9.1032   10.4905 N   0  0  0  0  0  0  0  0  0  0  0  0
   -0.9061   -8.3126    9.2984 C   0  0  0  0  0  0  0  0  0  0  0  0
   -0.3269   -7.2246    9.3960 O   0  0  0  0  0  0  0  0  0  0  0  0
   -1.4210  -10.0324   10.4551 H   0  0  0  0  0  0  0  0  0  0  0  0
   -0.3483   -9.6520   12.8296 C   0  0  0  0  0  0  0  0  0  0  0  0
   -0.3377   -8.6423   11.7238 C   0  0  0  0  0  0  0  0  0  0  0  0
   -1.0336   -7.4111   12.2225 C   0  0  0  0  0  0  0  0  0  0  0  0
   -0.4093   -6.1617   12.0008 N   0  0  0  0  0  0  0  0  0  0  0  0
   -2.1341   -7.4262   12.8240 O   0  0  0  0  0  0  0  0  0  0  0  0
   -0.6564   -5.3258   12.6033 H   0  0  0  0  0  0  0  0  0  0  0  0
    0.3002   -6.0329   11.2479 H   0  0  0  0  0  0  0  0  0  0  0  0
   -5.2545   -5.7773    7.0922 C   0  0  0  0  0  0  0  0  0  0  0  0
   -6.3812   -6.6933    7.2460 C   0  0  0  0  0  0  0  0  0  0  0  0
   -7.6621   -6.2391    7.0434 C   0  0  0  0  0  0  0  0  0  0  0  0
   -8.7634   -7.0420    7.1597 C   0  0  0  0  0  0  0  0  0  0  0  0
   -8.5604   -8.3602    7.4937 C   0  0  0  0  0  0  0  0  0  0  0  0
   -9.9579   -9.3901    7.6431 Cl  0  0  0  0  0  0  0  0  0  0  0  0
   -7.2867   -8.8409    7.7007 C   0  0  0  0  0  0  0  0  0  0  0  0
   -6.1936   -8.0115    7.5786 C   0  0  0  0  0  0  0  0  0  0  0  0
   -3.7366   -0.7307    5.5188 N   0  0  0  0  0  0  0  0  0  0  0  0
   -3.5129   -1.2613    6.7949 C   0  0  0  0  0  0  0  0  0  0  0  0
   -4.0930   -2.3572    7.0933 O   0  0  0  0  0  0  0  0  0  0  0  0
   -3.2710    0.1292    5.2240 H   0  0  0  0  0  0  0  0  0  0  0  0
   -2.6445   -0.6322    7.8348 C   0  0  0  0  0  0  0  0  0  0  0  0
   -2.6265   -1.3269    9.0868 N   0  0  0  0  0  0  0  0  0  0  0  0
   -1.5001   -1.6991    9.8412 C   0  0  0  0  0  0  0  0  0  0  0  0
   -0.3271   -1.4390    9.4891 O   0  0  0  0  0  0  0  0  0  0  0  0
   -3.5705   -1.6137    9.5239 H   0  0  0  0  0  0  0  0  0  0  0  0
   -1.6490   -2.4511   11.1512 C   0  0  0  0  0  0  0  0  0  0  0  0
   -0.8506   -1.8153   12.1697 N   0  0  0  0  0  0  0  0  0  0  0  0
   -1.1046   -0.4923   12.5676 C   0  0  0  0  0  0  0  0  0  0  0  0
   -2.0288    0.1568   12.0310 O   0  0  0  0  0  0  0  0  0  0  0  0
   -0.0806   -2.3480   12.6050 H   0  0  0  0  0  0  0  0  0  0  0  0
   -0.3257    0.0821   13.5586 O   0  0  0  0  0  0  0  0  0  0  0  0
   -0.3812    1.4613   13.7775 C   0  0  0  0  0  0  0  0  0  0  0  0
   -1.0559    1.7405   15.0581 C   0  0  0  0  0  0  0  0  0  0  0  0
   -2.2329    1.1094   15.4257 C   0  0  0  0  0  0  0  0  0  0  0  0
   -2.8047    1.4152   16.6633 C   0  0  0  0  0  0  0  0  0  0  0  0
   -2.2463    2.3158   17.5287 C   0  0  0  0  0  0  0  0  0  0  0  0
   -1.0792    2.9257   17.1349 C   0  0  0  0  0  0  0  0  0  0  0  0
   -0.4777    2.6518   15.9168 C   0  0  0  0  0  0  0  0  0  0  0  0
   -3.0991   -2.4665   11.5454 C   0  0  0  0  0  0  0  0  0  0  0  0
   -3.3734   -3.0739   12.8516 C   0  0  0  0  0  0  0  0  0  0  0  0
   -3.5181   -4.4327   13.0012 C   0  0  0  0  0  0  0  0  0  0  0  0
   -3.7754   -5.0028   14.2488 C   0  0  0  0  0  0  0  0  0  0  0  0
   -3.8873   -4.1871   15.3570 C   0  0  0  0  0  0  0  0  0  0  0  0
   -3.7467   -2.8219   15.2402 C   0  0  0  0  0  0  0  0  0  0  0  0
   -3.4952   -2.3000   14.0026 C   0  0  0  0  0  0  0  0  0  0  0  0
   -1.3122   -0.3442    7.2698 C   0  0  0  0  0  0  0  0  0  0  0  0
   -1.1778    0.9723    6.5925 C   0  0  0  0  0  0  0  0  0  0  0  0
   -0.4518    1.0319    5.4094 C   0  0  0  0  0  0  0  0  0  0  0  0
   -0.3119    2.2404    4.7494 C   0  0  0  0  0  0  0  0  0  0  0  0
   -0.9131    3.3474    5.3122 C   0  0  0  0  0  0  0  0  0  0  0  0
   -1.6324    3.2941    6.4847 C   0  0  0  0  0  0  0  0  0  0  0  0
   -1.7764    2.0895    7.1495 C   0  0  0  0  0  0  0  0  0  0  0  0
   -4.8113   -0.3728    3.3997 C   0  0  0  0  0  0  0  0  0  0  0  0
   -3.7407   -0.5135    2.3862 C   0  0  0  0  0  0  0  0  0  0  0  0
   -2.5424    0.1839    2.4744 C   0  0  0  0  0  0  0  0  0  0  0  0
   -1.5916    0.0027    1.5031 C   0  0  0  0  0  0  0  0  0  0  0  0
   -1.7783   -0.8532    0.4301 C   0  0  0  0  0  0  0  0  0  0  0  0
   -2.9679   -1.5439    0.3444 C   0  0  0  0  0  0  0  0  0  0  0  0
   -3.9263   -1.3644    1.3201 C   0  0  0  0  0  0  0  0  0  0  0  0
 25 26  1  0  0  0
 26 21  1  0  0  0
 21 22  1  0  0  0
 22 23  2  0  0  0
 22 14  1  0  0  0
 14 15  1  0  0  0
 15 16  1  0  0  0
 16 17  1  0  0  0
 17 18  1  0  0  0
 18 19  1  0  0  0
 19 20  2  0  0  0
 19 13  1  0  0  0
 13 32  1  0  0  0
 32 33  1  0  0  0
 33 34  2  0  0  0
 34 35  1  0  0  0
 35 36  2  0  0  0
 36 37  1  0  0  0
 36 38  1  0  0  0
 38 39  2  0  0  0
 13  9  1  0  0  0
  9 10  1  0  0  0
 10 11  2  0  0  0
 10  2  1  0  0  0
  2  3  1  0  0  0
  3  4  1  0  0  0
  4  5  1  0  0  0
  5  6  1  0  0  0
  6  7  1  0  0  0
  7  8  2  0  0  0
  7  1  1  0  0  0
  1 76  1  0  0  0
 76 77  1  0  0  0
 77 78  2  0  0  0
 78 79  1  0  0  0
 79 80  2  0  0  0
 80 81  1  0  0  0
 81 82  2  0  0  0
  1 40  1  0  0  0
 40 41  1  0  0  0
 41 42  2  0  0  0
 41 44  1  0  0  0
 44 69  1  0  0  0
 69 70  1  0  0  0
 70 71  2  0  0  0
 71 72  1  0  0  0
 72 73  2  0  0  0
 73 74  1  0  0  0
 74 75  2  0  0  0
 44 45  1  0  0  0
 45 46  1  0  0  0
 46 47  2  0  0  0
 46 49  1  0  0  0
 49 62  1  0  0  0
 62 63  1  0  0  0
 63 64  2  0  0  0
 64 65  1  0  0  0
 65 66  2  0  0  0
 66 67  1  0  0  0
 67 68  2  0  0  0
 49 50  1  0  0  0
 50 51  1  0  0  0
 51 52  2  0  0  0
 51 54  1  0  0  0
 54 55  1  0  0  0
 55 56  1  0  0  0
 56 57  2  0  0  0
 57 58  1  0  0  0
 58 59  2  0  0  0
 59 60  1  0  0  0
 60 61  2  0  0  0
 26 27  1  0  0  0
 27 28  1  0  0  0
 27 29  2  0  0  0
 18 14  1  0  0  0
 39 33  1  0  0  0
  6  2  1  0  0  0
 82 77  1  0  0  0
 75 70  1  0  0  0
 68 63  1  0  0  0
 61 56  1  0  0  0
 21 24  1  0  0  0
  9 12  1  0  0  0
 40 43  1  0  0  0
 45 48  1  0  0  0
 50 53  1  0  0  0
 28 30  1  0  0  0
 28 31  1  0  0  0
M  END
> <minimizedAffinity>
-3.53714

> <CNNscore>
0.2254254818

> <CNNaffinity>
7.6198973656

> <CNN_VS>
1.7177190781

> <CNNaffinity_variance>
0.2341992408

$$$$
[H]c1c([H])c([H])c(C([H])([H])OC(=O)N([H])[C@]([H])(C(=O)N([H])[C@]([H])(C(=O)N([H])[C@]([H])(C(=O)N2C([H])([H])C([H])([H])C([H])([H])[C@@]2([H])C(=O)N([H])[C@@]([H])(C(=O)N2C([H])([H])C([H])([H])C([H])([H])[C@@]2([H])C(=O)N([H])[C@@]([H])(C(=O)N([H])[H])C([H])([H])[H])C([H])([H])c2c([H])c([H])c(Cl)c([H])c2[H])C([H])([H])c2c([H])c([H])c([H])c([H])c2[H])C([H])([H])c2c([H])c([H])c([H])c([H])c2[H])C([H])([H])c2c([H])c([H])c([H])c([H])c2[H])c([H])c1[H]


 82 88  0  0  0  0  0  0  0  0999 V2000
   -9.2308   -7.7009    8.4530 C   0  0  0  0  0  0  0  0  0  0  0  0
  -12.0053  -10.2355    7.4252 C   0  0  0  0  0  0  0  0  0  0  0  0
  -13.0281  -10.7354    8.3788 C   0  0  0  0  0  0  0  0  0  0  0  0
  -13.2144   -9.6079    9.3620 C   0  0  0  0  0  0  0  0  0  0  0  0
  -11.9427   -8.7842    9.2656 C   0  0  0  0  0  0  0  0  0  0  0  0
  -11.2526   -9.2361    8.1016 N   0  0  0  0  0  0  0  0  0  0  0  0
   -9.9610   -8.7647    7.7118 C   0  0  0  0  0  0  0  0  0  0  0  0
   -9.3739   -9.2578    6.6917 O   0  0  0  0  0  0  0  0  0  0  0  0
  -13.8346   -9.3659    5.9774 N   0  0  0  0  0  0  0  0  0  0  0  0
  -12.5216   -9.8315    6.0878 C   0  0  0  0  0  0  0  0  0  0  0  0
  -11.7618   -9.9205    5.1012 O   0  0  0  0  0  0  0  0  0  0  0  0
  -14.4355   -9.3186    6.8315 H   0  0  0  0  0  0  0  0  0  0  0  0
  -14.5047   -8.9436    4.7576 C   0  0  0  0  0  0  0  0  0  0  0  0
  -17.9709   -8.5251    6.5820 C   0  0  0  0  0  0  0  0  0  0  0  0
  -18.2037   -7.0159    6.6509 C   0  0  0  0  0  0  0  0  0  0  0  0
  -16.8997   -6.6129    7.3567 C   0  0  0  0  0  0  0  0  0  0  0  0
  -15.9224   -7.7694    7.0926 C   0  0  0  0  0  0  0  0  0  0  0  0
  -16.6626   -8.5518    6.0498 N   0  0  0  0  0  0  0  0  0  0  0  0
  -15.9743   -9.0211    4.9277 C   0  0  0  0  0  0  0  0  0  0  0  0
  -16.5662   -9.5753    3.9266 O   0  0  0  0  0  0  0  0  0  0  0  0
  -19.9313   -9.9946    6.8841 N   0  0  0  0  0  0  0  0  0  0  0  0
  -19.0567   -9.2595    6.0226 C   0  0  0  0  0  0  0  0  0  0  0  0
  -19.3178   -9.3232    4.8157 O   0  0  0  0  0  0  0  0  0  0  0  0
  -19.7496   -9.9693    7.9138 H   0  0  0  0  0  0  0  0  0  0  0  0
  -22.2588   -9.9458    6.0442 C   0  0  0  0  0  0  0  0  0  0  0  0
  -21.0431  -10.7613    6.3597 C   0  0  0  0  0  0  0  0  0  0  0  0
  -21.4490  -11.8302    7.3300 C   0  0  0  0  0  0  0  0  0  0  0  0
  -21.8456  -13.0831    6.8075 N   0  0  0  0  0  0  0  0  0  0  0  0
  -21.4576  -11.6767    8.5748 O   0  0  0  0  0  0  0  0  0  0  0  0
  -22.4501  -13.7356    7.3833 H   0  0  0  0  0  0  0  0  0  0  0  0
  -21.5560  -13.3927    5.8551 H   0  0  0  0  0  0  0  0  0  0  0  0
  -14.0252   -7.5303    4.4355 C   0  0  0  0  0  0  0  0  0  0  0  0
  -15.0785   -6.5593    4.1529 C   0  0  0  0  0  0  0  0  0  0  0  0
  -16.1528   -6.9246    3.3778 C   0  0  0  0  0  0  0  0  0  0  0  0
  -17.1803   -6.0718    3.0808 C   0  0  0  0  0  0  0  0  0  0  0  0
  -17.1192   -4.7964    3.5905 C   0  0  0  0  0  0  0  0  0  0  0  0
  -18.4244   -3.7039    3.2177 Cl  0  0  0  0  0  0  0  0  0  0  0  0
  -16.0544   -4.4055    4.3712 C   0  0  0  0  0  0  0  0  0  0  0  0
  -15.0311   -5.2829    4.6551 C   0  0  0  0  0  0  0  0  0  0  0  0
   -7.8177   -7.6722    8.0497 N   0  0  0  0  0  0  0  0  0  0  0  0
   -7.3507   -6.9202    6.9651 C   0  0  0  0  0  0  0  0  0  0  0  0
   -8.1956   -6.2102    6.3259 O   0  0  0  0  0  0  0  0  0  0  0  0
   -7.1735   -8.2330    8.6097 H   0  0  0  0  0  0  0  0  0  0  0  0
   -5.9313   -6.8929    6.5004 C   0  0  0  0  0  0  0  0  0  0  0  0
   -5.2091   -5.7163    6.8808 N   0  0  0  0  0  0  0  0  0  0  0  0
   -4.3100   -4.9744    6.0949 C   0  0  0  0  0  0  0  0  0  0  0  0
   -4.0370   -5.2689    4.9090 O   0  0  0  0  0  0  0  0  0  0  0  0
   -5.3481   -5.3341    7.8803 H   0  0  0  0  0  0  0  0  0  0  0  0
   -3.6082   -3.7500    6.6536 C   0  0  0  0  0  0  0  0  0  0  0  0
   -4.1064   -2.5646    6.0012 N   0  0  0  0  0  0  0  0  0  0  0  0
   -3.2537   -1.4877    5.7071 C   0  0  0  0  0  0  0  0  0  0  0  0
   -2.0442   -1.5429    6.0193 O   0  0  0  0  0  0  0  0  0  0  0  0
   -5.1075   -2.5150    5.7532 H   0  0  0  0  0  0  0  0  0  0  0  0
   -3.7642   -0.3700    5.0677 O   0  0  0  0  0  0  0  0  0  0  0  0
   -4.2830   -0.4823    3.7749 C   0  0  0  0  0  0  0  0  0  0  0  0
   -3.3232   -1.1888    2.9073 C   0  0  0  0  0  0  0  0  0  0  0  0
   -2.1150   -0.6256    2.5307 C   0  0  0  0  0  0  0  0  0  0  0  0
   -1.2501   -1.3639    1.7189 C   0  0  0  0  0  0  0  0  0  0  0  0
   -1.5504   -2.6244    1.2801 C   0  0  0  0  0  0  0  0  0  0  0  0
   -2.7568   -3.1551    1.6701 C   0  0  0  0  0  0  0  0  0  0  0  0
   -3.6442   -2.4585    2.4748 C   0  0  0  0  0  0  0  0  0  0  0  0
   -3.8476   -3.6814    8.1355 C   0  0  0  0  0  0  0  0  0  0  0  0
   -2.7123   -4.1063    8.9608 C   0  0  0  0  0  0  0  0  0  0  0  0
   -2.8904   -4.6514   10.2101 C   0  0  0  0  0  0  0  0  0  0  0  0
   -1.8045   -5.0566   10.9874 C   0  0  0  0  0  0  0  0  0  0  0  0
   -0.5240   -4.9079   10.4934 C   0  0  0  0  0  0  0  0  0  0  0  0
   -0.3123   -4.3659    9.2449 C   0  0  0  0  0  0  0  0  0  0  0  0
   -1.4000   -3.9807    8.5129 C   0  0  0  0  0  0  0  0  0  0  0  0
   -5.2653   -8.1637    6.8446 C   0  0  0  0  0  0  0  0  0  0  0  0
   -3.7831   -8.1010    6.9413 C   0  0  0  0  0  0  0  0  0  0  0  0
   -3.0357   -8.4619    5.8270 C   0  0  0  0  0  0  0  0  0  0  0  0
   -1.6537   -8.4093    5.8805 C   0  0  0  0  0  0  0  0  0  0  0  0
   -1.0768   -7.9927    7.0626 C   0  0  0  0  0  0  0  0  0  0  0  0
   -1.8126   -7.6353    8.1697 C   0  0  0  0  0  0  0  0  0  0  0  0
   -3.1943   -7.6853    8.1233 C   0  0  0  0  0  0  0  0  0  0  0  0
   -9.7923   -6.3125    8.2093 C   0  0  0  0  0  0  0  0  0  0  0  0
  -10.9855   -6.0592    9.0493 C   0  0  0  0  0  0  0  0  0  0  0  0
  -10.8887   -5.7810   10.4069 C   0  0  0  0  0  0  0  0  0  0  0  0
  -12.0344   -5.5514   11.1245 C   0  0  0  0  0  0  0  0  0  0  0  0
  -13.2931   -5.5858   10.5472 C   0  0  0  0  0  0  0  0  0  0  0  0
  -13.3868   -5.8623    9.2002 C   0  0  0  0  0  0  0  0  0  0  0  0
  -12.2362   -6.0932    8.4752 C   0  0  0  0  0  0  0  0  0  0  0  0
 25 26  1  0  0  0
 26 21  1  0  0  0
 21 22  1  0  0  0
 22 23  2  0  0  0
 22 14  1  0  0  0
 14 15  1  0  0  0
 15 16  1  0  0  0
 16 17  1  0  0  0
 17 18  1  0  0  0
 18 19  1  0  0  0
 19 20  2  0  0  0
 19 13  1  0  0  0
 13 32  1  0  0  0
 32 33  1  0  0  0
 33 34  2  0  0  0
 34 35  1  0  0  0
 35 36  2  0  0  0
 36 37  1  0  0  0
 36 38  1  0  0  0
 38 39  2  0  0  0
 13  9  1  0  0  0
  9 10  1  0  0  0
 10 11  2  0  0  0
 10  2  1  0  0  0
  2  3  1  0  0  0
  3  4  1  0  0  0
  4  5  1  0  0  0
  5  6  1  0  0  0
  6  7  1  0  0  0
  7  8  2  0  0  0
  7  1  1  0  0  0
  1 76  1  0  0  0
 76 77  1  0  0  0
 77 78  2  0  0  0
 78 79  1  0  0  0
 79 80  2  0  0  0
 80 81  1  0  0  0
 81 82  2  0  0  0
  1 40  1  0  0  0
 40 41  1  0  0  0
 41 42  2  0  0  0
 41 44  1  0  0  0
 44 69  1  0  0  0
 69 70  1  0  0  0
 70 71  2  0  0  0
 71 72  1  0  0  0
 72 73  2  0  0  0
 73 74  1  0  0  0
 74 75  2  0  0  0
 44 45  1  0  0  0
 45 46  1  0  0  0
 46 47  2  0  0  0
 46 49  1  0  0  0
 49 62  1  0  0  0
 62 63  1  0  0  0
 63 64  2  0  0  0
 64 65  1  0  0  0
 65 66  2  0  0  0
 66 67  1  0  0  0
 67 68  2  0  0  0
 49 50  1  0  0  0
 50 51  1  0  0  0
 51 52  2  0  0  0
 51 54  1  0  0  0
 54 55  1  0  0  0
 55 56  1  0  0  0
 56 57  2  0  0  0
 57 58  1  0  0  0
 58 59  2  0  0  0
 59 60  1  0  0  0
 60 61  2  0  0  0
 26 27  1  0  0  0
 27 28  1  0  0  0
 27 29  2  0  0  0
 18 14  1  0  0  0
 39 33  1  0  0  0
  6  2  1  0  0  0
 82 77  1  0  0  0
 75 70  1  0  0  0
 68 63  1  0  0  0
 61 56  1  0  0  0
 21 24  1  0  0  0
  9 12  1  0  0  0
 40 43  1  0  0  0
 45 48  1  0  0  0
 50 53  1  0  0  0
 28 30  1  0  0  0
 28 31  1  0  0  0
M  END
> <minimizedAffinity>
-2.65774

> <CNNscore>
0.2111579925

> <CNNaffinity>
8.2300548553

> <CNN_VS>
1.7378418446

> <CNNaffinity_variance>
0.1874205023

$$$$
[H]c1c([H])c(N([H])C(=O)c2c([H])c([H])c(OC([H])([H])C([H])([H])C([H])([H])[H])c([H])c2[H])c([H])c(C([H])([H])[H])c1[H]


 21 22  0  0  0  0  0  0  0  0999 V2000
   -7.2606   -8.0753    6.8125 C   0  0  0  0  0  0  0  0  0  0  0  0
   -6.8614   -8.8990    5.9342 O   0  0  0  0  0  0  0  0  0  0  0  0
   -6.3799   -7.1060    7.3260 N   0  0  0  0  0  0  0  0  0  0  0  0
   -6.7292   -6.4153    8.0606 H   0  0  0  0  0  0  0  0  0  0  0  0
   -5.0216   -6.9666    6.9423 C   0  0  0  0  0  0  0  0  0  0  0  0
   -4.7511   -5.9515    6.0104 C   0  0  0  0  0  0  0  0  0  0  0  0
   -3.4556   -5.7523    5.6181 C   0  0  0  0  0  0  0  0  0  0  0  0
   -2.4159   -6.5109    6.1055 C   0  0  0  0  0  0  0  0  0  0  0  0
   -2.6930   -7.5059    7.0215 C   0  0  0  0  0  0  0  0  0  0  0  0
   -1.5517   -8.3374    7.5553 C   0  0  0  0  0  0  0  0  0  0  0  0
   -3.9840   -7.7211    7.4275 C   0  0  0  0  0  0  0  0  0  0  0  0
  -11.2676   -8.2193    8.1845 C   0  0  0  0  0  0  0  0  0  0  0  0
  -10.5131   -7.0805    8.2944 C   0  0  0  0  0  0  0  0  0  0  0  0
   -9.2011   -7.0244    7.8505 C   0  0  0  0  0  0  0  0  0  0  0  0
   -8.6417   -8.1415    7.2848 C   0  0  0  0  0  0  0  0  0  0  0  0
   -9.3768   -9.2861    7.1659 C   0  0  0  0  0  0  0  0  0  0  0  0
  -10.7068   -9.3323    7.6194 C   0  0  0  0  0  0  0  0  0  0  0  0
  -12.5640   -8.2394    8.6346 O   0  0  0  0  0  0  0  0  0  0  0  0
  -12.8787   -7.6962    9.8873 C   0  0  0  0  0  0  0  0  0  0  0  0
  -12.9384   -5.3164   10.4957 C   0  0  0  0  0  0  0  0  0  0  0  0
  -13.6797   -6.4244    9.7884 C   0  0  0  0  0  0  0  0  0  0  0  0
 20 21  1  0  0  0
 21 19  1  0  0  0
 19 18  1  0  0  0
 18 12  1  0  0  0
 12 13  2  0  0  0
 13 14  1  0  0  0
 14 15  2  0  0  0
 15 16  1  0  0  0
 16 17  2  0  0  0
 15  1  1  0  0  0
  1  2  2  0  0  0
  1  3  1  0  0  0
  3  5  1  0  0  0
  5  6  2  0  0  0
  6  7  1  0  0  0
  7  8  2  0  0  0
  8  9  1  0  0  0
  9 10  1  0  0  0
  9 11  2  0  0  0
 17 12  1  0  0  0
 11  5  1  0  0  0
  3  4  1  0  0  0
M  END
> <minimizedAffinity>
-7.00769

> <CNNscore>
0.5918383598

> <CNNaffinity>
5.1431512833

> <CNN_VS>
3.0439143181

> <CNNaffinity_variance>
0.1408740580

$$$$
[H]c1c([H])c(N([H])C(=O)c2c([H])c([H])c(OC([H])([H])C([H])([H])C([H])([H])[H])c([H])c2[H])c([H])c(C([H])([H])[H])c1[H]


 21 22  0  0  0  0  0  0  0  0999 V2000
   -7.1100   -7.9630    6.7344 C   0  0  0  0  0  0  0  0  0  0  0  0
   -6.7180   -8.8150    5.8801 O   0  0  0  0  0  0  0  0  0  0  0  0
   -6.2350   -6.9575    7.1840 N   0  0  0  0  0  0  0  0  0  0  0  0
   -6.5782   -6.2434    7.8989 H   0  0  0  0  0  0  0  0  0  0  0  0
   -4.8900   -6.8094    6.7586 C   0  0  0  0  0  0  0  0  0  0  0  0
   -3.9707   -7.7149    7.3127 C   0  0  0  0  0  0  0  0  0  0  0  0
   -2.6613   -7.6376    6.9239 C   0  0  0  0  0  0  0  0  0  0  0  0
   -2.2199   -6.7058    6.0122 C   0  0  0  0  0  0  0  0  0  0  0  0
   -3.1322   -5.8207    5.4735 C   0  0  0  0  0  0  0  0  0  0  0  0
   -2.6466   -4.7990    4.4737 C   0  0  0  0  0  0  0  0  0  0  0  0
   -4.4483   -5.8820    5.8497 C   0  0  0  0  0  0  0  0  0  0  0  0
  -11.0718   -8.2191    8.2168 C   0  0  0  0  0  0  0  0  0  0  0  0
  -10.4502   -9.2974    7.6431 C   0  0  0  0  0  0  0  0  0  0  0  0
   -9.1556   -9.2228    7.1536 C   0  0  0  0  0  0  0  0  0  0  0  0
   -8.4767   -8.0347    7.2460 C   0  0  0  0  0  0  0  0  0  0  0  0
   -9.0782   -6.9485    7.8143 C   0  0  0  0  0  0  0  0  0  0  0  0
  -10.3918   -7.0350    8.3077 C   0  0  0  0  0  0  0  0  0  0  0  0
  -12.3549   -8.3286    8.6913 O   0  0  0  0  0  0  0  0  0  0  0  0
  -13.2028   -7.2132    8.6809 C   0  0  0  0  0  0  0  0  0  0  0  0
  -13.0957   -5.4246   10.3621 C   0  0  0  0  0  0  0  0  0  0  0  0
  -13.6410   -6.7992   10.0613 C   0  0  0  0  0  0  0  0  0  0  0  0
 20 21  1  0  0  0
 21 19  1  0  0  0
 19 18  1  0  0  0
 18 12  1  0  0  0
 12 13  2  0  0  0
 13 14  1  0  0  0
 14 15  2  0  0  0
 15 16  1  0  0  0
 16 17  2  0  0  0
 15  1  1  0  0  0
  1  2  2  0  0  0
  1  3  1  0  0  0
  3  5  1  0  0  0
  5  6  2  0  0  0
  6  7  1  0  0  0
  7  8  2  0  0  0
  8  9  1  0  0  0
  9 10  1  0  0  0
  9 11  2  0  0  0
 17 12  1  0  0  0
 11  5  1  0  0  0
  3  4  1  0  0  0
M  END
> <minimizedAffinity>
-7.06032

> <CNNscore>
0.5798732042

> <CNNaffinity>
5.1181054115

> <CNN_VS>
2.9678521156

> <CNNaffinity_variance>
0.1707493365

$$$$
[H]c1c([H])c(N([H])C(=O)c2c([H])c([H])c(OC([H])([H])C([H])([H])C([H])([H])[H])c([H])c2[H])c([H])c(C([H])([H])[H])c1[H]


 21 22  0  0  0  0  0  0  0  0999 V2000
  -15.0154   -7.3579    7.1019 C   0  0  0  0  0  0  0  0  0  0  0  0
  -14.4844   -6.3350    6.5716 O   0  0  0  0  0  0  0  0  0  0  0  0
  -16.1266   -7.9725    6.4966 N   0  0  0  0  0  0  0  0  0  0  0  0
  -16.5611   -8.8355    6.9495 H   0  0  0  0  0  0  0  0  0  0  0  0
  -16.7424   -7.5261    5.2995 C   0  0  0  0  0  0  0  0  0  0  0  0
  -16.4414   -8.2664    4.1447 C   0  0  0  0  0  0  0  0  0  0  0  0
  -17.0232   -7.8988    2.9622 C   0  0  0  0  0  0  0  0  0  0  0  0
  -17.8889   -6.8329    2.8699 C   0  0  0  0  0  0  0  0  0  0  0  0
  -18.1781   -6.1123    4.0114 C   0  0  0  0  0  0  0  0  0  0  0  0
  -19.1278   -4.9433    3.9087 C   0  0  0  0  0  0  0  0  0  0  0  0
  -17.6059   -6.4645    5.2056 C   0  0  0  0  0  0  0  0  0  0  0  0
  -13.4576   -8.9155   10.7221 C   0  0  0  0  0  0  0  0  0  0  0  0
  -14.7805   -8.5801   10.5968 C   0  0  0  0  0  0  0  0  0  0  0  0
  -15.2987   -8.0681    9.4176 C   0  0  0  0  0  0  0  0  0  0  0  0
  -14.4629   -7.8917    8.3447 C   0  0  0  0  0  0  0  0  0  0  0  0
  -13.1415   -8.2198    8.4490 C   0  0  0  0  0  0  0  0  0  0  0  0
  -12.6261   -8.7385    9.6498 C   0  0  0  0  0  0  0  0  0  0  0  0
  -12.9782   -9.4201   11.9049 O   0  0  0  0  0  0  0  0  0  0  0  0
  -12.8187  -10.8032   12.0626 C   0  0  0  0  0  0  0  0  0  0  0  0
  -12.0824   -9.9447   14.2438 C   0  0  0  0  0  0  0  0  0  0  0  0
  -12.4263  -11.1903   13.4643 C   0  0  0  0  0  0  0  0  0  0  0  0
 20 21  1  0  0  0
 21 19  1  0  0  0
 19 18  1  0  0  0
 18 12  1  0  0  0
 12 13  2  0  0  0
 13 14  1  0  0  0
 14 15  2  0  0  0
 15 16  1  0  0  0
 16 17  2  0  0  0
 15  1  1  0  0  0
  1  2  2  0  0  0
  1  3  1  0  0  0
  3  5  1  0  0  0
  5  6  2  0  0  0
  6  7  1  0  0  0
  7  8  2  0  0  0
  8  9  1  0  0  0
  9 10  1  0  0  0
  9 11  2  0  0  0
 17 12  1  0  0  0
 11  5  1  0  0  0
  3  4  1  0  0  0
M  END
> <minimizedAffinity>
4.89506

> <CNNscore>
0.5519368052

> <CNNaffinity>
5.4965353012

> <CNN_VS>
3.0337400436

> <CNNaffinity_variance>
0.3863392770

$$$$
[H]c1c([H])c(N([H])C(=O)c2c([H])c([H])c(OC([H])([H])C([H])([H])C([H])([H])[H])c([H])c2[H])c([H])c(C([H])([H])[H])c1[H]


 21 22  0  0  0  0  0  0  0  0999 V2000
   -8.0545   -7.8258    7.6133 C   0  0  0  0  0  0  0  0  0  0  0  0
   -7.3973   -8.8612    7.2884 O   0  0  0  0  0  0  0  0  0  0  0  0
   -7.4145   -6.5753    7.6859 N   0  0  0  0  0  0  0  0  0  0  0  0
   -7.9793   -5.7108    7.9551 H   0  0  0  0  0  0  0  0  0  0  0  0
   -6.0367   -6.3583    7.4284 C   0  0  0  0  0  0  0  0  0  0  0  0
   -5.6780   -6.2485    6.0752 C   0  0  0  0  0  0  0  0  0  0  0  0
   -4.3664   -6.0157    5.7632 C   0  0  0  0  0  0  0  0  0  0  0  0
   -3.3938   -5.8865    6.7284 C   0  0  0  0  0  0  0  0  0  0  0  0
   -3.7576   -5.9958    8.0556 C   0  0  0  0  0  0  0  0  0  0  0  0
   -2.6898   -5.8539    9.1133 C   0  0  0  0  0  0  0  0  0  0  0  0
   -5.0661   -6.2285    8.3889 C   0  0  0  0  0  0  0  0  0  0  0  0
  -12.1911   -8.1201    8.4857 C   0  0  0  0  0  0  0  0  0  0  0  0
  -11.4471   -7.0446    8.8955 C   0  0  0  0  0  0  0  0  0  0  0  0
  -10.0933   -6.9405    8.6168 C   0  0  0  0  0  0  0  0  0  0  0  0
   -9.4803   -7.9435    7.9102 C   0  0  0  0  0  0  0  0  0  0  0  0
  -10.2040   -9.0234    7.4926 C   0  0  0  0  0  0  0  0  0  0  0  0
  -11.5768   -9.1192    7.7806 C   0  0  0  0  0  0  0  0  0  0  0  0
  -13.5299   -8.1905    8.7792 O   0  0  0  0  0  0  0  0  0  0  0  0
  -14.4775   -8.1100    7.7502 C   0  0  0  0  0  0  0  0  0  0  0  0
  -14.3253   -6.9515    5.5888 C   0  0  0  0  0  0  0  0  0  0  0  0
  -14.4957   -6.7630    7.0764 C   0  0  0  0  0  0  0  0  0  0  0  0
 20 21  1  0  0  0
 21 19  1  0  0  0
 19 18  1  0  0  0
 18 12  1  0  0  0
 12 13  2  0  0  0
 13 14  1  0  0  0
 14 15  2  0  0  0
 15 16  1  0  0  0
 16 17  2  0  0  0
 15  1  1  0  0  0
  1  2  2  0  0  0
  1  3  1  0  0  0
  3  5  1  0  0  0
  5  6  2  0  0  0
  6  7  1  0  0  0
  7  8  2  0  0  0
  8  9  1  0  0  0
  9 10  1  0  0  0
  9 11  2  0  0  0
 17 12  1  0  0  0
 11  5  1  0  0  0
  3  4  1  0  0  0
M  END
> <minimizedAffinity>
-6.96657

> <CNNscore>
0.5358966589

> <CNNaffinity>
5.3977265358

> <CNN_VS>
2.8926236629

> <CNNaffinity_variance>
0.0922930166

$$$$
[H]c1c([H])c(N([H])C(=O)c2c([H])c([H])c(OC([H])([H])C([H])([H])C([H])([H])[H])c([H])c2[H])c([H])c(C([H])([H])[H])c1[H]


 21 22  0  0  0  0  0  0  0  0999 V2000
   -9.0590   -7.9052    7.9720 C   0  0  0  0  0  0  0  0  0  0  0  0
   -9.7584   -8.9558    7.8433 O   0  0  0  0  0  0  0  0  0  0  0  0
   -9.6358   -6.7297    8.4862 N   0  0  0  0  0  0  0  0  0  0  0  0
   -9.0358   -5.8539    8.5947 H   0  0  0  0  0  0  0  0  0  0  0  0
  -10.9921   -6.6029    8.8812 C   0  0  0  0  0  0  0  0  0  0  0  0
  -11.2145   -5.9381   10.0980 C   0  0  0  0  0  0  0  0  0  0  0  0
  -12.5036   -5.7639   10.5219 C   0  0  0  0  0  0  0  0  0  0  0  0
  -13.5824   -6.2170    9.7973 C   0  0  0  0  0  0  0  0  0  0  0  0
  -13.3524   -6.8689    8.6024 C   0  0  0  0  0  0  0  0  0  0  0  0
  -14.5366   -7.3655    7.8086 C   0  0  0  0  0  0  0  0  0  0  0  0
  -12.0686   -7.0531    8.1602 C   0  0  0  0  0  0  0  0  0  0  0  0
   -4.9877   -7.9814    6.7982 C   0  0  0  0  0  0  0  0  0  0  0  0
   -5.9640   -8.5697    6.0373 C   0  0  0  0  0  0  0  0  0  0  0  0
   -7.2979   -8.5518    6.4139 C   0  0  0  0  0  0  0  0  0  0  0  0
   -7.6509   -7.9270    7.5827 C   0  0  0  0  0  0  0  0  0  0  0  0
   -6.6932   -7.3347    8.3551 C   0  0  0  0  0  0  0  0  0  0  0  0
   -5.3431   -7.3587    7.9638 C   0  0  0  0  0  0  0  0  0  0  0  0
   -3.6764   -8.0182    6.3948 O   0  0  0  0  0  0  0  0  0  0  0  0
   -2.7007   -7.3228    7.1212 C   0  0  0  0  0  0  0  0  0  0  0  0
   -1.4666   -9.1334    8.2329 C   0  0  0  0  0  0  0  0  0  0  0  0
   -1.3851   -8.0539    7.1814 C   0  0  0  0  0  0  0  0  0  0  0  0
 20 21  1  0  0  0
 21 19  1  0  0  0
 19 18  1  0  0  0
 18 12  1  0  0  0
 12 13  2  0  0  0
 13 14  1  0  0  0
 14 15  2  0  0  0
 15 16  1  0  0  0
 16 17  2  0  0  0
 15  1  1  0  0  0
  1  2  2  0  0  0
  1  3  1  0  0  0
  3  5  1  0  0  0
  5  6  2  0  0  0
  6  7  1  0  0  0
  7  8  2  0  0  0
  8  9  1  0  0  0
  9 10  1  0  0  0
  9 11  2  0  0  0
 17 12  1  0  0  0
 11  5  1  0  0  0
  3  4  1  0  0  0
M  END
> <minimizedAffinity>
-7.43766

> <CNNscore>
0.5281853080

> <CNNaffinity>
5.1838331223

> <CNN_VS>
2.7380244732

> <CNNaffinity_variance>
0.1130454764

$$$$
[H]c1c([H])c(N([H])C(=O)c2c([H])c([H])c(OC([H])([H])C([H])([H])C([H])([H])[H])c([H])c2[H])c([H])c(C([H])([H])[H])c1[H]


 21 22  0  0  0  0  0  0  0  0999 V2000
  -13.7966   -8.3063    6.7088 C   0  0  0  0  0  0  0  0  0  0  0  0
  -14.6867   -8.4927    7.5933 O   0  0  0  0  0  0  0  0  0  0  0  0
  -14.1550   -7.8371    5.4320 N   0  0  0  0  0  0  0  0  0  0  0  0
  -13.3965   -7.6791    4.6983 H   0  0  0  0  0  0  0  0  0  0  0  0
  -15.4821   -7.5513    5.0210 C   0  0  0  0  0  0  0  0  0  0  0  0
  -16.1915   -8.6240    4.4571 C   0  0  0  0  0  0  0  0  0  0  0  0
  -17.4849   -8.4170    4.0620 C   0  0  0  0  0  0  0  0  0  0  0  0
  -18.1084   -7.1977    4.1993 C   0  0  0  0  0  0  0  0  0  0  0  0
  -17.4018   -6.1501    4.7553 C   0  0  0  0  0  0  0  0  0  0  0  0
  -18.0869   -4.8133    4.9054 C   0  0  0  0  0  0  0  0  0  0  0  0
  -16.1054   -6.3371    5.1577 C   0  0  0  0  0  0  0  0  0  0  0  0
   -9.7391   -9.1420    7.6020 C   0  0  0  0  0  0  0  0  0  0  0  0
  -10.5230  -10.0386    6.9240 C   0  0  0  0  0  0  0  0  0  0  0  0
  -11.8515   -9.7752    6.6291 C   0  0  0  0  0  0  0  0  0  0  0  0
  -12.3977   -8.5820    7.0278 C   0  0  0  0  0  0  0  0  0  0  0  0
  -11.6334   -7.6750    7.7044 C   0  0  0  0  0  0  0  0  0  0  0  0
  -10.2868   -7.9522    7.9984 C   0  0  0  0  0  0  0  0  0  0  0  0
   -8.4271   -9.4357    7.8771 O   0  0  0  0  0  0  0  0  0  0  0  0
   -7.4251   -8.4986    7.5921 C   0  0  0  0  0  0  0  0  0  0  0  0
   -6.7277   -7.2101    5.6197 C   0  0  0  0  0  0  0  0  0  0  0  0
   -6.9157   -8.5994    6.1782 C   0  0  0  0  0  0  0  0  0  0  0  0
 20 21  1  0  0  0
 21 19  1  0  0  0
 19 18  1  0  0  0
 18 12  1  0  0  0
 12 13  2  0  0  0
 13 14  1  0  0  0
 14 15  2  0  0  0
 15 16  1  0  0  0
 16 17  2  0  0  0
 15  1  1  0  0  0
  1  2  2  0  0  0
  1  3  1  0  0  0
  3  5  1  0  0  0
  5  6  2  0  0  0
  6  7  1  0  0  0
  7  8  2  0  0  0
  8  9  1  0  0  0
  9 10  1  0  0  0
  9 11  2  0  0  0
 17 12  1  0  0  0
 11  5  1  0  0  0
  3  4  1  0  0  0
M  END
> <minimizedAffinity>
-8.32821

> <CNNscore>
0.5066651702

> <CNNaffinity>
5.8132376671

> <CNN_VS>
2.9453649521

> <CNNaffinity_variance>
0.0800885260

$$$$
[H]c1c([H])c(N([H])C(=O)c2c([H])c([H])c(OC([H])([H])C([H])([H])C([H])([H])[H])c([H])c2[H])c([H])c(C([H])([H])[H])c1[H]


 21 22  0  0  0  0  0  0  0  0999 V2000
   -7.5059   -7.9438    7.4345 C   0  0  0  0  0  0  0  0  0  0  0  0
   -6.6912   -8.8885    7.2036 O   0  0  0  0  0  0  0  0  0  0  0  0
   -7.0420   -6.6205    7.5453 N   0  0  0  0  0  0  0  0  0  0  0  0
   -7.7379   -5.8339    7.7344 H   0  0  0  0  0  0  0  0  0  0  0  0
   -5.6836   -6.2296    7.4285 C   0  0  0  0  0  0  0  0  0  0  0  0
   -4.9667   -6.1442    8.6330 C   0  0  0  0  0  0  0  0  0  0  0  0
   -3.6449   -5.7943    8.5839 C   0  0  0  0  0  0  0  0  0  0  0  0
   -3.0002   -5.5251    7.3981 C   0  0  0  0  0  0  0  0  0  0  0  0
   -3.7144   -5.6124    6.2199 C   0  0  0  0  0  0  0  0  0  0  0  0
   -3.0061   -5.3168    4.9200 C   0  0  0  0  0  0  0  0  0  0  0  0
   -5.0391   -5.9617    6.2477 C   0  0  0  0  0  0  0  0  0  0  0  0
  -11.6411   -8.7616    7.8715 C   0  0  0  0  0  0  0  0  0  0  0  0
  -11.1064   -7.5547    8.2401 C   0  0  0  0  0  0  0  0  0  0  0  0
   -9.7549   -7.2788    8.1030 C   0  0  0  0  0  0  0  0  0  0  0  0
   -8.9285   -8.2420    7.5832 C   0  0  0  0  0  0  0  0  0  0  0  0
   -9.4417   -9.4510    7.2097 C   0  0  0  0  0  0  0  0  0  0  0  0
  -10.8140   -9.7206    7.3531 C   0  0  0  0  0  0  0  0  0  0  0  0
  -12.9841   -9.0008    8.0213 O   0  0  0  0  0  0  0  0  0  0  0  0
  -13.8162   -8.0097    8.5587 C   0  0  0  0  0  0  0  0  0  0  0  0
  -14.4160   -6.6301    6.6160 C   0  0  0  0  0  0  0  0  0  0  0  0
  -14.9359   -7.6198    7.6297 C   0  0  0  0  0  0  0  0  0  0  0  0
 20 21  1  0  0  0
 21 19  1  0  0  0
 19 18  1  0  0  0
 18 12  1  0  0  0
 12 13  2  0  0  0
 13 14  1  0  0  0
 14 15  2  0  0  0
 15 16  1  0  0  0
 16 17  2  0  0  0
 15  1  1  0  0  0
  1  2  2  0  0  0
  1  3  1  0  0  0
  3  5  1  0  0  0
  5  6  2  0  0  0
  6  7  1  0  0  0
  7  8  2  0  0  0
  8  9  1  0  0  0
  9 10  1  0  0  0
  9 11  2  0  0  0
 17 12  1  0  0  0
 11  5  1  0  0  0
  3  4  1  0  0  0
M  END
> <minimizedAffinity>
-6.84081

> <CNNscore>
0.5031949282

> <CNNaffinity>
5.2478127480

> <CNN_VS>
2.6406726837

> <CNNaffinity_variance>
0.0759131312

$$$$
[H]c1c([H])c(N([H])C(=O)c2c([H])c([H])c(OC([H])([H])C([H])([H])C([H])([H])[H])c([H])c2[H])c([H])c(C([H])([H])[H])c1[H]


 21 22  0  0  0  0  0  0  0  0999 V2000
  -13.3065   -7.9087    7.1421 C   0  0  0  0  0  0  0  0  0  0  0  0
  -14.1026   -7.8788    8.1294 O   0  0  0  0  0  0  0  0  0  0  0  0
  -13.7677   -7.5932    5.8512 N   0  0  0  0  0  0  0  0  0  0  0  0
  -13.0871   -7.6168    5.0297 H   0  0  0  0  0  0  0  0  0  0  0  0
  -15.1048   -7.2395    5.5366 C   0  0  0  0  0  0  0  0  0  0  0  0
  -15.3505   -5.8671    5.3690 C   0  0  0  0  0  0  0  0  0  0  0  0
  -16.6164   -5.4646    5.0417 C   0  0  0  0  0  0  0  0  0  0  0  0
  -17.6501   -6.3574    4.8725 C   0  0  0  0  0  0  0  0  0  0  0  0
  -17.3974   -7.7043    5.0393 C   0  0  0  0  0  0  0  0  0  0  0  0
  -18.5321   -8.6826    4.8535 C   0  0  0  0  0  0  0  0  0  0  0  0
  -16.1361   -8.1278    5.3669 C   0  0  0  0  0  0  0  0  0  0  0  0
   -9.2554   -9.0015    7.7368 C   0  0  0  0  0  0  0  0  0  0  0  0
  -10.1561   -9.8677    7.1741 C   0  0  0  0  0  0  0  0  0  0  0  0
  -11.4834   -9.5202    6.9775 C   0  0  0  0  0  0  0  0  0  0  0  0
  -11.9079   -8.2726    7.3575 C   0  0  0  0  0  0  0  0  0  0  0  0
  -11.0261   -7.3947    7.9199 C   0  0  0  0  0  0  0  0  0  0  0  0
   -9.6819   -7.7574    8.1149 C   0  0  0  0  0  0  0  0  0  0  0  0
   -7.9482   -9.3790    7.9167 O   0  0  0  0  0  0  0  0  0  0  0  0
   -6.9118   -8.5113    7.5478 C   0  0  0  0  0  0  0  0  0  0  0  0
   -6.7868   -7.1145    5.5302 C   0  0  0  0  0  0  0  0  0  0  0  0
   -6.6434   -8.5182    6.0656 C   0  0  0  0  0  0  0  0  0  0  0  0
 20 21  1  0  0  0
 21 19  1  0  0  0
 19 18  1  0  0  0
 18 12  1  0  0  0
 12 13  2  0  0  0
 13 14  1  0  0  0
 14 15  2  0  0  0
 15 16  1  0  0  0
 16 17  2  0  0  0
 15  1  1  0  0  0
  1  2  2  0  0  0
  1  3  1  0  0  0
  3  5  1  0  0  0
  5  6  2  0  0  0
  6  7  1  0  0  0
  7  8  2  0  0  0
  8  9  1  0  0  0
  9 10  1  0  0  0
  9 11  2  0  0  0
 17 12  1  0  0  0
 11  5  1  0  0  0
  3  4  1  0  0  0
M  END
> <minimizedAffinity>
-8.19437

> <CNNscore>
0.4992673993

> <CNNaffinity>
5.8225412369

> <CNN_VS>
2.9070050716

> <CNNaffinity_variance>
0.1155320853

$$$$
[H]c1c([H])c(N([H])C(=O)c2c([H])c([H])c(OC([H])([H])C([H])([H])C([H])([H])[H])c([H])c2[H])c([H])c(C([H])([H])[H])c1[H]


 21 22  0  0  0  0  0  0  0  0999 V2000
   -9.0797   -7.9006    7.9362 C   0  0  0  0  0  0  0  0  0  0  0  0
   -9.7744   -8.9533    7.7997 O   0  0  0  0  0  0  0  0  0  0  0  0
   -9.6583   -6.7353    8.4712 N   0  0  0  0  0  0  0  0  0  0  0  0
   -9.0622   -5.8577    8.5860 H   0  0  0  0  0  0  0  0  0  0  0  0
  -11.0117   -6.6214    8.8799 C   0  0  0  0  0  0  0  0  0  0  0  0
  -11.2271   -5.9699   10.1051 C   0  0  0  0  0  0  0  0  0  0  0  0
  -12.5134   -5.8084   10.5426 C   0  0  0  0  0  0  0  0  0  0  0  0
  -13.5958   -6.2617    9.8236 C   0  0  0  0  0  0  0  0  0  0  0  0
  -13.3726   -6.9004    8.6202 C   0  0  0  0  0  0  0  0  0  0  0  0
  -14.5608   -7.3972    7.8326 C   0  0  0  0  0  0  0  0  0  0  0  0
  -12.0918   -7.0718    8.1645 C   0  0  0  0  0  0  0  0  0  0  0  0
   -4.9929   -7.9144    6.8151 C   0  0  0  0  0  0  0  0  0  0  0  0
   -5.4130   -7.3383    7.9856 C   0  0  0  0  0  0  0  0  0  0  0  0
   -6.7476   -7.3270    8.3597 C   0  0  0  0  0  0  0  0  0  0  0  0
   -7.6750   -7.9093    7.5341 C   0  0  0  0  0  0  0  0  0  0  0  0
   -7.2769   -8.4888    6.3636 C   0  0  0  0  0  0  0  0  0  0  0  0
   -5.9206   -8.4948    5.9935 C   0  0  0  0  0  0  0  0  0  0  0  0
   -3.6631   -7.9074    6.4759 O   0  0  0  0  0  0  0  0  0  0  0  0
   -2.9170   -6.7271    6.5921 C   0  0  0  0  0  0  0  0  0  0  0  0
   -3.8805   -4.6246    5.7626 C   0  0  0  0  0  0  0  0  0  0  0  0
   -3.0519   -5.8296    5.3900 C   0  0  0  0  0  0  0  0  0  0  0  0
 20 21  1  0  0  0
 21 19  1  0  0  0
 19 18  1  0  0  0
 18 12  1  0  0  0
 12 13  2  0  0  0
 13 14  1  0  0  0
 14 15  2  0  0  0
 15 16  1  0  0  0
 16 17  2  0  0  0
 15  1  1  0  0  0
  1  2  2  0  0  0
  1  3  1  0  0  0
  3  5  1  0  0  0
  5  6  2  0  0  0
  6  7  1  0  0  0
  7  8  2  0  0  0
  8  9  1  0  0  0
  9 10  1  0  0  0
  9 11  2  0  0  0
 17 12  1  0  0  0
 11  5  1  0  0  0
  3  4  1  0  0  0
M  END
> <minimizedAffinity>
-7.54177

> <CNNscore>
0.4879516959

> <CNNaffinity>
5.1792960167

> <CNN_VS>
2.5272462368

> <CNNaffinity_variance>
0.1894823164

$$$$
[H]OC([H])([H])C(=O)[C@]1(O[H])C([H])([H])C([H])([H])[C@]2([H])[C@]1(C([H])([H])[H])C([H])([H])[C@]1([H])[C@]3(C([H])([H])[H])C(=C([H])C(=O)C([H])([H])C3([H])[H])C([H])([H])C([H])([H])[C@@]21[H]


 26 29  0  0  0  0  0  0  0  0999 V2000
  -11.7277   -6.3372    9.4199 C   0  0  0  0  0  0  0  0  0  0  0  0
  -11.6487   -7.4686    8.4438 C   0  0  0  0  0  0  0  0  0  0  0  0
  -10.3966   -8.2238    8.5632 C   0  0  0  0  0  0  0  0  0  0  0  0
   -9.5108   -7.6191    7.5150 C   0  0  0  0  0  0  0  0  0  0  0  0
  -10.2396   -6.3532    7.0137 C   0  0  0  0  0  0  0  0  0  0  0  0
   -9.6223   -6.0446    5.6723 C   0  0  0  0  0  0  0  0  0  0  0  0
   -8.1803   -5.7242    5.8780 C   0  0  0  0  0  0  0  0  0  0  0  0
   -7.4509   -6.6842    6.7465 C   0  0  0  0  0  0  0  0  0  0  0  0
   -6.1654   -6.8829    6.4392 C   0  0  0  0  0  0  0  0  0  0  0  0
   -5.3580   -7.7933    7.2134 C   0  0  0  0  0  0  0  0  0  0  0  0
   -4.1224   -7.9456    7.0246 O   0  0  0  0  0  0  0  0  0  0  0  0
   -5.9755   -8.6053    8.2907 C   0  0  0  0  0  0  0  0  0  0  0  0
   -7.4657   -8.7475    8.0918 C   0  0  0  0  0  0  0  0  0  0  0  0
   -8.1172   -7.3733    7.8850 C   0  0  0  0  0  0  0  0  0  0  0  0
   -7.9302   -6.5029    9.0987 C   0  0  0  0  0  0  0  0  0  0  0  0
  -11.5606   -6.9417    6.9969 C   0  0  0  0  0  0  0  0  0  0  0  0
  -12.8015   -6.2198    6.9092 C   0  0  0  0  0  0  0  0  0  0  0  0
  -13.7738   -7.2945    7.4364 C   0  0  0  0  0  0  0  0  0  0  0  0
  -12.9376   -8.1740    8.3824 C   0  0  0  0  0  0  0  0  0  0  0  0
  -13.5609   -8.0430    9.6318 O   0  0  0  0  0  0  0  0  0  0  0  0
  -12.8752   -8.1956   10.3558 H   0  0  0  0  0  0  0  0  0  0  0  0
  -12.9406   -9.5748    7.9863 C   0  0  0  0  0  0  0  0  0  0  0  0
  -12.6115  -10.4974    8.7568 O   0  0  0  0  0  0  0  0  0  0  0  0
  -13.3330  -10.0423    6.6342 C   0  0  0  0  0  0  0  0  0  0  0  0
  -14.6702  -10.0596    6.3710 O   0  0  0  0  0  0  0  0  0  0  0  0
  -15.0681  -10.9452    6.2862 H   0  0  0  0  0  0  0  0  0  0  0  0
  2  1  1  0  0  0
  2  3  1  0  0  0
  3  4  1  0  0  0
  4  5  1  0  0  0
  5  6  1  0  0  0
  6  7  1  0  0  0
  7  8  1  0  0  0
  8  9  2  0  0  0
  9 10  1  0  0  0
 10 11  2  0  0  0
 10 12  1  0  0  0
 12 13  1  0  0  0
 13 14  1  0  0  0
 14 15  1  0  0  0
  5 16  1  0  0  0
 16 17  1  0  0  0
 17 18  1  0  0  0
 18 19  1  0  0  0
 19 20  1  0  0  0
 19 22  1  0  0  0
 22 23  2  0  0  0
 22 24  1  0  0  0
 24 25  1  0  0  0
 16  2  1  0  0  0
 19  2  1  0  0  0
 14  4  1  0  0  0
 14  8  1  0  0  0
 20 21  1  0  0  0
 25 26  1  0  0  0
M  END
> <minimizedAffinity>
2.92496

> <CNNscore>
0.4910912514

> <CNNaffinity>
6.0597066879

> <CNN_VS>
2.9758689404

> <CNNaffinity_variance>
0.7352871299

$$$$
[H]OC([H])([H])C(=O)[C@]1(O[H])C([H])([H])C([H])([H])[C@]2([H])[C@]1(C([H])([H])[H])C([H])([H])[C@]1([H])[C@]3(C([H])([H])[H])C(=C([H])C(=O)C([H])([H])C3([H])[H])C([H])([H])C([H])([H])[C@@]21[H]


 26 29  0  0  0  0  0  0  0  0999 V2000
  -17.4985   -5.0367    6.0854 C   0  0  0  0  0  0  0  0  0  0  0  0
  -17.1516   -6.2092    5.2229 C   0  0  0  0  0  0  0  0  0  0  0  0
  -16.7396   -7.3783    6.0076 C   0  0  0  0  0  0  0  0  0  0  0  0
  -15.2424   -7.2932    6.0201 C   0  0  0  0  0  0  0  0  0  0  0  0
  -14.8852   -5.9075    5.4397 C   0  0  0  0  0  0  0  0  0  0  0  0
  -13.4463   -6.0196    5.0011 C   0  0  0  0  0  0  0  0  0  0  0  0
  -12.6033   -6.2726    6.2051 C   0  0  0  0  0  0  0  0  0  0  0  0
  -13.1145   -7.3386    7.1054 C   0  0  0  0  0  0  0  0  0  0  0  0
  -12.1834   -8.0609    7.7358 C   0  0  0  0  0  0  0  0  0  0  0  0
  -12.5626   -9.1230    8.6350 C   0  0  0  0  0  0  0  0  0  0  0  0
  -11.7298   -9.7701    9.3231 O   0  0  0  0  0  0  0  0  0  0  0  0
  -13.9899   -9.4995    8.7835 C   0  0  0  0  0  0  0  0  0  0  0  0
  -14.8045   -9.0641    7.5888 C   0  0  0  0  0  0  0  0  0  0  0  0
  -14.5721   -7.5770    7.2888 C   0  0  0  0  0  0  0  0  0  0  0  0
  -15.0179   -6.7207    8.4438 C   0  0  0  0  0  0  0  0  0  0  0  0
  -15.8829   -5.9254    4.3929 C   0  0  0  0  0  0  0  0  0  0  0  0
  -16.3224   -4.7876    3.6307 C   0  0  0  0  0  0  0  0  0  0  0  0
  -17.6658   -5.3256    3.0977 C   0  0  0  0  0  0  0  0  0  0  0  0
  -18.1391   -6.3515    4.1424 C   0  0  0  0  0  0  0  0  0  0  0  0
  -19.3621   -5.8463    4.6066 O   0  0  0  0  0  0  0  0  0  0  0  0
  -19.5142   -6.1746    5.5483 H   0  0  0  0  0  0  0  0  0  0  0  0
  -18.3495   -7.6724    3.5680 C   0  0  0  0  0  0  0  0  0  0  0  0
  -18.5075   -7.8625    2.3465 O   0  0  0  0  0  0  0  0  0  0  0  0
  -18.3971   -8.9173    4.3734 C   0  0  0  0  0  0  0  0  0  0  0  0
  -19.4506   -9.0366    5.2299 O   0  0  0  0  0  0  0  0  0  0  0  0
  -19.2274   -8.9824    6.1771 H   0  0  0  0  0  0  0  0  0  0  0  0
  2  1  1  0  0  0
  2  3  1  0  0  0
  3  4  1  0  0  0
  4  5  1  0  0  0
  5  6  1  0  0  0
  6  7  1  0  0  0
  7  8  1  0  0  0
  8  9  2  0  0  0
  9 10  1  0  0  0
 10 11  2  0  0  0
 10 12  1  0  0  0
 12 13  1  0  0  0
 13 14  1  0  0  0
 14 15  1  0  0  0
  5 16  1  0  0  0
 16 17  1  0  0  0
 17 18  1  0  0  0
 18 19  1  0  0  0
 19 20  1  0  0  0
 19 22  1  0  0  0
 22 23  2  0  0  0
 22 24  1  0  0  0
 24 25  1  0  0  0
 16  2  1  0  0  0
 19  2  1  0  0  0
 14  4  1  0  0  0
 14  8  1  0  0  0
 20 21  1  0  0  0
 25 26  1  0  0  0
M  END
> <minimizedAffinity>
1.43439

> <CNNscore>
0.4859797657

> <CNNaffinity>
6.3160576820

> <CNN_VS>
3.0694761276

> <CNNaffinity_variance>
0.6793990135

$$$$
[H]OC([H])([H])C(=O)[C@]1(O[H])C([H])([H])C([H])([H])[C@]2([H])[C@]1(C([H])([H])[H])C([H])([H])[C@]1([H])[C@]3(C([H])([H])[H])C(=C([H])C(=O)C([H])([H])C3([H])[H])C([H])([H])C([H])([H])[C@@]21[H]


 26 29  0  0  0  0  0  0  0  0999 V2000
  -12.9539   -5.9423    5.8161 C   0  0  0  0  0  0  0  0  0  0  0  0
  -13.6160   -7.1543    6.3921 C   0  0  0  0  0  0  0  0  0  0  0  0
  -14.2114   -8.0101    5.3599 C   0  0  0  0  0  0  0  0  0  0  0  0
  -15.6478   -7.5808    5.3217 C   0  0  0  0  0  0  0  0  0  0  0  0
  -15.7369   -6.2993    6.1788 C   0  0  0  0  0  0  0  0  0  0  0  0
  -17.1954   -6.1635    6.5395 C   0  0  0  0  0  0  0  0  0  0  0  0
  -17.9760   -5.9626    5.2847 C   0  0  0  0  0  0  0  0  0  0  0  0
  -17.6419   -6.9099    4.1898 C   0  0  0  0  0  0  0  0  0  0  0  0
  -18.6563   -7.2526    3.3898 C   0  0  0  0  0  0  0  0  0  0  0  0
  -18.4497   -8.1659    2.2928 C   0  0  0  0  0  0  0  0  0  0  0  0
  -19.3474   -8.4480    1.4560 O   0  0  0  0  0  0  0  0  0  0  0  0
  -17.1325   -8.8233    2.1085 C   0  0  0  0  0  0  0  0  0  0  0  0
  -16.3387   -8.8423    3.3931 C   0  0  0  0  0  0  0  0  0  0  0  0
  -16.2622   -7.4357    4.0023 C   0  0  0  0  0  0  0  0  0  0  0  0
  -15.5503   -6.4875    3.0751 C   0  0  0  0  0  0  0  0  0  0  0  0
  -14.8529   -6.7614    7.2258 C   0  0  0  0  0  0  0  0  0  0  0  0
  -14.2359   -5.9371    8.2300 C   0  0  0  0  0  0  0  0  0  0  0  0
  -13.0892   -6.8683    8.6730 C   0  0  0  0  0  0  0  0  0  0  0  0
  -12.7718   -7.7392    7.4447 C   0  0  0  0  0  0  0  0  0  0  0  0
  -11.4352   -7.4460    7.1381 O   0  0  0  0  0  0  0  0  0  0  0  0
  -11.2853   -7.6004    6.1525 H   0  0  0  0  0  0  0  0  0  0  0  0
  -12.9019   -9.1619    7.7240 C   0  0  0  0  0  0  0  0  0  0  0  0
  -13.9915   -9.7649    7.6754 O   0  0  0  0  0  0  0  0  0  0  0  0
  -11.7582  -10.0318    8.0925 C   0  0  0  0  0  0  0  0  0  0  0  0
  -10.7288   -9.4229    8.7461 O   0  0  0  0  0  0  0  0  0  0  0  0
   -9.9019   -9.3386    8.2371 H   0  0  0  0  0  0  0  0  0  0  0  0
  2  1  1  0  0  0
  2  3  1  0  0  0
  3  4  1  0  0  0
  4  5  1  0  0  0
  5  6  1  0  0  0
  6  7  1  0  0  0
  7  8  1  0  0  0
  8  9  2  0  0  0
  9 10  1  0  0  0
 10 11  2  0  0  0
 10 12  1  0  0  0
 12 13  1  0  0  0
 13 14  1  0  0  0
 14 15  1  0  0  0
  5 16  1  0  0  0
 16 17  1  0  0  0
 17 18  1  0  0  0
 18 19  1  0  0  0
 19 20  1  0  0  0
 19 22  1  0  0  0
 22 23  2  0  0  0
 22 24  1  0  0  0
 24 25  1  0  0  0
 16  2  1  0  0  0
 19  2  1  0  0  0
 14  4  1  0  0  0
 14  8  1  0  0  0
 20 21  1  0  0  0
 25 26  1  0  0  0
M  END
> <minimizedAffinity>
10.93382

> <CNNscore>
0.4673487544

> <CNNaffinity>
6.3213338852

> <CNN_VS>
2.9542675018

> <CNNaffinity_variance>
1.1023131609

$$$$
[H]OC([H])([H])C(=O)[C@]1(O[H])C([H])([H])C([H])([H])[C@]2([H])[C@]1(C([H])([H])[H])C([H])([H])[C@]1([H])[C@]3(C([H])([H])[H])C(=C([H])C(=O)C([H])([H])C3([H])[H])C([H])([H])C([H])([H])[C@@]21[H]


 26 29  0  0  0  0  0  0  0  0999 V2000
  -12.6849   -9.6957    8.9724 C   0  0  0  0  0  0  0  0  0  0  0  0
  -12.6415   -8.6993    7.8570 C   0  0  0  0  0  0  0  0  0  0  0  0
  -11.4947   -8.9070    6.9658 C   0  0  0  0  0  0  0  0  0  0  0  0
  -10.4575   -7.9578    7.4875 C   0  0  0  0  0  0  0  0  0  0  0  0
  -10.9963   -7.4299    8.8350 C   0  0  0  0  0  0  0  0  0  0  0  0
  -10.2306   -6.1569    9.0975 C   0  0  0  0  0  0  0  0  0  0  0  0
   -8.7868   -6.4971    9.2526 C   0  0  0  0  0  0  0  0  0  0  0  0
   -8.2474   -7.3992    8.2023 C   0  0  0  0  0  0  0  0  0  0  0  0
   -6.9686   -7.2006    7.8681 C   0  0  0  0  0  0  0  0  0  0  0  0
   -6.3381   -8.0170    6.8602 C   0  0  0  0  0  0  0  0  0  0  0  0
   -5.1143   -7.9332    6.5755 O   0  0  0  0  0  0  0  0  0  0  0  0
   -7.1348   -9.0130    6.1023 C   0  0  0  0  0  0  0  0  0  0  0  0
   -8.6076   -8.6802    6.1295 C   0  0  0  0  0  0  0  0  0  0  0  0
   -9.0846   -8.4554    7.5708 C   0  0  0  0  0  0  0  0  0  0  0  0
   -8.9145   -9.7045    8.3932 C   0  0  0  0  0  0  0  0  0  0  0  0
  -12.3664   -7.2808    8.3968 C   0  0  0  0  0  0  0  0  0  0  0  0
  -13.5086   -7.1047    9.2530 C   0  0  0  0  0  0  0  0  0  0  0  0
  -14.6355   -7.5145    8.2833 C   0  0  0  0  0  0  0  0  0  0  0  0
  -13.9886   -8.5055    7.2998 C   0  0  0  0  0  0  0  0  0  0  0  0
  -14.7042   -9.6985    7.4765 O   0  0  0  0  0  0  0  0  0  0  0  0
  -14.1073  -10.4754    7.2360 H   0  0  0  0  0  0  0  0  0  0  0  0
  -14.1080   -8.0718    5.9153 C   0  0  0  0  0  0  0  0  0  0  0  0
  -14.0410   -6.8756    5.5720 O   0  0  0  0  0  0  0  0  0  0  0  0
  -14.3204   -9.0038    4.7809 C   0  0  0  0  0  0  0  0  0  0  0  0
  -15.6162   -9.3185    4.4987 O   0  0  0  0  0  0  0  0  0  0  0  0
  -15.8763  -10.2365    4.6979 H   0  0  0  0  0  0  0  0  0  0  0  0
  2  1  1  0  0  0
  2  3  1  0  0  0
  3  4  1  0  0  0
  4  5  1  0  0  0
  5  6  1  0  0  0
  6  7  1  0  0  0
  7  8  1  0  0  0
  8  9  2  0  0  0
  9 10  1  0  0  0
 10 11  2  0  0  0
 10 12  1  0  0  0
 12 13  1  0  0  0
 13 14  1  0  0  0
 14 15  1  0  0  0
  5 16  1  0  0  0
 16 17  1  0  0  0
 17 18  1  0  0  0
 18 19  1  0  0  0
 19 20  1  0  0  0
 19 22  1  0  0  0
 22 23  2  0  0  0
 22 24  1  0  0  0
 24 25  1  0  0  0
 16  2  1  0  0  0
 19  2  1  0  0  0
 14  4  1  0  0  0
 14  8  1  0  0  0
 20 21  1  0  0  0
 25 26  1  0  0  0
M  END
> <minimizedAffinity>
-6.64732

> <CNNscore>
0.4426709116

> <CNNaffinity>
6.2643256187

> <CNN_VS>
2.7730348110

> <CNNaffinity_variance>
0.3508111537

$$$$
[H]OC([H])([H])C(=O)[C@]1(O[H])C([H])([H])C([H])([H])[C@]2([H])[C@]1(C([H])([H])[H])C([H])([H])[C@]1([H])[C@]3(C([H])([H])[H])C(=C([H])C(=O)C([H])([H])C3([H])[H])C([H])([H])C([H])([H])[C@@]21[H]


 26 29  0  0  0  0  0  0  0  0999 V2000
   -6.7926   -8.4470    8.6597 C   0  0  0  0  0  0  0  0  0  0  0  0
   -7.3671   -7.6786    7.5114 C   0  0  0  0  0  0  0  0  0  0  0  0
   -8.1448   -6.5147    7.9506 C   0  0  0  0  0  0  0  0  0  0  0  0
   -9.5590   -7.0133    7.9684 C   0  0  0  0  0  0  0  0  0  0  0  0
   -9.4783   -8.5434    7.7753 C   0  0  0  0  0  0  0  0  0  0  0  0
  -10.8510   -8.9574    7.3064 C   0  0  0  0  0  0  0  0  0  0  0  0
  -11.8312   -8.6566    8.3894 C   0  0  0  0  0  0  0  0  0  0  0  0
  -11.7055   -7.2980    8.9779 C   0  0  0  0  0  0  0  0  0  0  0  0
  -12.8475   -6.7332    9.3819 C   0  0  0  0  0  0  0  0  0  0  0  0
  -12.8473   -5.4158    9.9690 C   0  0  0  0  0  0  0  0  0  0  0  0
  -13.8795   -4.8782   10.4497 O   0  0  0  0  0  0  0  0  0  0  0  0
  -11.5925   -4.6264   10.0276 C   0  0  0  0  0  0  0  0  0  0  0  0
  -10.5911   -5.1015    9.0019 C   0  0  0  0  0  0  0  0  0  0  0  0
  -10.3875   -6.6190    9.1076 C   0  0  0  0  0  0  0  0  0  0  0  0
   -9.8285   -6.9929   10.4542 C   0  0  0  0  0  0  0  0  0  0  0  0
   -8.4362   -8.5098    6.7731 C   0  0  0  0  0  0  0  0  0  0  0  0
   -7.6425   -9.6313    6.3476 C   0  0  0  0  0  0  0  0  0  0  0  0
   -6.4531   -8.8888    5.7055 C   0  0  0  0  0  0  0  0  0  0  0  0
   -6.3654   -7.5414    6.4435 C   0  0  0  0  0  0  0  0  0  0  0  0
   -5.0961   -7.5457    7.0396 O   0  0  0  0  0  0  0  0  0  0  0  0
   -5.1197   -6.9604    7.8610 H   0  0  0  0  0  0  0  0  0  0  0  0
   -6.4701   -6.4052    5.5395 C   0  0  0  0  0  0  0  0  0  0  0  0
   -7.3821   -6.2911    4.6978 O   0  0  0  0  0  0  0  0  0  0  0  0
   -5.5080   -5.2761    5.5288 C   0  0  0  0  0  0  0  0  0  0  0  0
   -4.2055   -5.6013    5.2935 O   0  0  0  0  0  0  0  0  0  0  0  0
   -3.6051   -5.4992    6.0545 H   0  0  0  0  0  0  0  0  0  0  0  0
  2  1  1  0  0  0
  2  3  1  0  0  0
  3  4  1  0  0  0
  4  5  1  0  0  0
  5  6  1  0  0  0
  6  7  1  0  0  0
  7  8  1  0  0  0
  8  9  2  0  0  0
  9 10  1  0  0  0
 10 11  2  0  0  0
 10 12  1  0  0  0
 12 13  1  0  0  0
 13 14  1  0  0  0
 14 15  1  0  0  0
  5 16  1  0  0  0
 16 17  1  0  0  0
 17 18  1  0  0  0
 18 19  1  0  0  0
 19 20  1  0  0  0
 19 22  1  0  0  0
 22 23  2  0  0  0
 22 24  1  0  0  0
 24 25  1  0  0  0
 16  2  1  0  0  0
 19  2  1  0  0  0
 14  4  1  0  0  0
 14  8  1  0  0  0
 20 21  1  0  0  0
 25 26  1  0  0  0
M  END
> <minimizedAffinity>
-1.73088

> <CNNscore>
0.3934837282

> <CNNaffinity>
5.5497865677

> <CNN_VS>
2.1837506294

> <CNNaffinity_variance>
0.2649671137

$$$$
[H]OC([H])([H])C(=O)[C@]1(O[H])C([H])([H])C([H])([H])[C@]2([H])[C@]1(C([H])([H])[H])C([H])([H])[C@]1([H])[C@]3(C([H])([H])[H])C(=C([H])C(=O)C([H])([H])C3([H])[H])C([H])([H])C([H])([H])[C@@]21[H]


 26 29  0  0  0  0  0  0  0  0999 V2000
   -2.8134   -7.9380    6.3178 C   0  0  0  0  0  0  0  0  0  0  0  0
   -3.2875   -6.7401    7.0792 C   0  0  0  0  0  0  0  0  0  0  0  0
   -4.3869   -7.0596    7.9964 C   0  0  0  0  0  0  0  0  0  0  0  0
   -5.6190   -6.7099    7.2162 C   0  0  0  0  0  0  0  0  0  0  0  0
   -5.1502   -6.4402    5.7697 C   0  0  0  0  0  0  0  0  0  0  0  0
   -6.2574   -5.6341    5.1373 C   0  0  0  0  0  0  0  0  0  0  0  0
   -7.4902   -6.4727    5.0988 C   0  0  0  0  0  0  0  0  0  0  0  0
   -7.8089   -7.1630    6.3755 C   0  0  0  0  0  0  0  0  0  0  0  0
   -9.1094   -7.3226    6.6394 C   0  0  0  0  0  0  0  0  0  0  0  0
   -9.5374   -7.9792    7.8501 C   0  0  0  0  0  0  0  0  0  0  0  0
  -10.7441   -8.2372    8.1014 O   0  0  0  0  0  0  0  0  0  0  0  0
   -8.5398   -8.3847    8.8706 C   0  0  0  0  0  0  0  0  0  0  0  0
   -7.2594   -7.5951    8.7374 C   0  0  0  0  0  0  0  0  0  0  0  0
   -6.7412   -7.6449    7.2936 C   0  0  0  0  0  0  0  0  0  0  0  0
   -6.4151   -9.0576    6.8890 C   0  0  0  0  0  0  0  0  0  0  0  0
   -3.9528   -5.7168    6.1362 C   0  0  0  0  0  0  0  0  0  0  0  0
   -2.8508   -5.4172    5.2618 C   0  0  0  0  0  0  0  0  0  0  0  0
   -1.7535   -5.1248    6.3052 C   0  0  0  0  0  0  0  0  0  0  0  0
   -2.1379   -5.9503    7.5455 C   0  0  0  0  0  0  0  0  0  0  0  0
   -1.0604   -6.8276    7.7354 O   0  0  0  0  0  0  0  0  0  0  0  0
   -1.3939   -7.6572    8.2027 H   0  0  0  0  0  0  0  0  0  0  0  0
   -2.3028   -5.1246    8.7330 C   0  0  0  0  0  0  0  0  0  0  0  0
   -2.3473   -5.5968    9.8855 O   0  0  0  0  0  0  0  0  0  0  0  0
   -2.4340   -3.6476    8.6913 C   0  0  0  0  0  0  0  0  0  0  0  0
   -1.3643   -2.9650    8.1938 O   0  0  0  0  0  0  0  0  0  0  0  0
   -0.8649   -2.4387    8.8445 H   0  0  0  0  0  0  0  0  0  0  0  0
  2  1  1  0  0  0
  2  3  1  0  0  0
  3  4  1  0  0  0
  4  5  1  0  0  0
  5  6  1  0  0  0
  6  7  1  0  0  0
  7  8  1  0  0  0
  8  9  2  0  0  0
  9 10  1  0  0  0
 10 11  2  0  0  0
 10 12  1  0  0  0
 12 13  1  0  0  0
 13 14  1  0  0  0
 14 15  1  0  0  0
  5 16  1  0  0  0
 16 17  1  0  0  0
 17 18  1  0  0  0
 18 19  1  0  0  0
 19 20  1  0  0  0
 19 22  1  0  0  0
 22 23  2  0  0  0
 22 24  1  0  0  0
 24 25  1  0  0  0
 16  2  1  0  0  0
 19  2  1  0  0  0
 14  4  1  0  0  0
 14  8  1  0  0  0
 20 21  1  0  0  0
 25 26  1  0  0  0
M  END
> <minimizedAffinity>
-3.75409

> <CNNscore>
0.3871017694

> <CNNaffinity>
4.9569420815

> <CNN_VS>
1.9188410044

> <CNNaffinity_variance>
0.2982156873

$$$$
[H]OC([H])([H])C(=O)[C@]1(O[H])C([H])([H])C([H])([H])[C@]2([H])[C@]1(C([H])([H])[H])C([H])([H])[C@]1([H])[C@]3(C([H])([H])[H])C(=C([H])C(=O)C([H])([H])C3([H])[H])C([H])([H])C([H])([H])[C@@]21[H]


 26 29  0  0  0  0  0  0  0  0999 V2000
  -14.1925   -8.0524    3.7980 C   0  0  0  0  0  0  0  0  0  0  0  0
  -15.0365   -7.0243    4.4833 C   0  0  0  0  0  0  0  0  0  0  0  0
  -14.2741   -6.2316    5.4542 C   0  0  0  0  0  0  0  0  0  0  0  0
  -14.5334   -6.9185    6.7618 C   0  0  0  0  0  0  0  0  0  0  0  0
  -15.2443   -8.2455    6.4172 C   0  0  0  0  0  0  0  0  0  0  0  0
  -15.9255   -8.6740    7.6932 C   0  0  0  0  0  0  0  0  0  0  0  0
  -14.8788   -8.9379    8.7223 C   0  0  0  0  0  0  0  0  0  0  0  0
  -13.8441   -7.8778    8.8384 C   0  0  0  0  0  0  0  0  0  0  0  0
  -13.3506   -7.6811   10.0648 C   0  0  0  0  0  0  0  0  0  0  0  0
  -12.3406   -6.6780   10.2974 C   0  0  0  0  0  0  0  0  0  0  0  0
  -11.7771   -6.5166   11.4119 O   0  0  0  0  0  0  0  0  0  0  0  0
  -11.9193   -5.7757    9.1977 C   0  0  0  0  0  0  0  0  0  0  0  0
  -12.9721   -5.6895    8.1183 C   0  0  0  0  0  0  0  0  0  0  0  0
  -13.3907   -7.0926    7.6582 C   0  0  0  0  0  0  0  0  0  0  0  0
  -12.2242   -7.8307    7.0581 C   0  0  0  0  0  0  0  0  0  0  0  0
  -16.0938   -7.6931    5.3855 C   0  0  0  0  0  0  0  0  0  0  0  0
  -16.8275   -8.4491    4.4063 C   0  0  0  0  0  0  0  0  0  0  0  0
  -17.0818   -7.3497    3.3552 C   0  0  0  0  0  0  0  0  0  0  0  0
  -15.9141   -6.3593    3.5084 C   0  0  0  0  0  0  0  0  0  0  0  0
  -15.2681   -6.3775    2.2639 O   0  0  0  0  0  0  0  0  0  0  0  0
  -14.2976   -6.1362    2.3967 H   0  0  0  0  0  0  0  0  0  0  0  0
  -16.3675   -5.0064    3.7969 C   0  0  0  0  0  0  0  0  0  0  0  0
  -17.5480   -4.7359    4.0911 O   0  0  0  0  0  0  0  0  0  0  0  0
  -15.4761   -3.8209    3.7697 C   0  0  0  0  0  0  0  0  0  0  0  0
  -14.8464   -3.5180    4.9399 O   0  0  0  0  0  0  0  0  0  0  0  0
  -15.1495   -2.7023    5.3787 H   0  0  0  0  0  0  0  0  0  0  0  0
  2  1  1  0  0  0
  2  3  1  0  0  0
  3  4  1  0  0  0
  4  5  1  0  0  0
  5  6  1  0  0  0
  6  7  1  0  0  0
  7  8  1  0  0  0
  8  9  2  0  0  0
  9 10  1  0  0  0
 10 11  2  0  0  0
 10 12  1  0  0  0
 12 13  1  0  0  0
 13 14  1  0  0  0
 14 15  1  0  0  0
  5 16  1  0  0  0
 16 17  1  0  0  0
 17 18  1  0  0  0
 18 19  1  0  0  0
 19 20  1  0  0  0
 19 22  1  0  0  0
 22 23  2  0  0  0
 22 24  1  0  0  0
 24 25  1  0  0  0
 16  2  1  0  0  0
 19  2  1  0  0  0
 14  4  1  0  0  0
 14  8  1  0  0  0
 20 21  1  0  0  0
 25 26  1  0  0  0
M  END
> <minimizedAffinity>
-1.72872

> <CNNscore>
0.3686410487

> <CNNaffinity>
6.1320219040

> <CNN_VS>
2.2605149746

> <CNNaffinity_variance>
0.4453125894

$$$$
[H]OC([H])([H])C(=O)[C@]1(O[H])C([H])([H])C([H])([H])[C@]2([H])[C@]1(C([H])([H])[H])C([H])([H])[C@]1([H])[C@]3(C([H])([H])[H])C(=C([H])C(=O)C([H])([H])C3([H])[H])C([H])([H])C([H])([H])[C@@]21[H]


 26 29  0  0  0  0  0  0  0  0999 V2000
  -11.5690  -10.8573    7.9862 C   0  0  0  0  0  0  0  0  0  0  0  0
  -10.6812   -9.7147    7.6048 C   0  0  0  0  0  0  0  0  0  0  0  0
  -10.5325   -8.7363    8.6878 C   0  0  0  0  0  0  0  0  0  0  0  0
  -11.5571   -7.6887    8.3689 C   0  0  0  0  0  0  0  0  0  0  0  0
  -12.4260   -8.2687    7.2316 C   0  0  0  0  0  0  0  0  0  0  0  0
  -13.0971   -7.0761    6.5969 C   0  0  0  0  0  0  0  0  0  0  0  0
  -13.9871   -6.4395    7.6103 C   0  0  0  0  0  0  0  0  0  0  0  0
  -13.3578   -6.2258    8.9393 C   0  0  0  0  0  0  0  0  0  0  0  0
  -13.7635   -5.1403    9.6051 C   0  0  0  0  0  0  0  0  0  0  0  0
  -13.2213   -4.8315   10.9055 C   0  0  0  0  0  0  0  0  0  0  0  0
  -13.6358   -3.8758   11.6128 O   0  0  0  0  0  0  0  0  0  0  0  0
  -12.1238   -5.6550   11.4698 C   0  0  0  0  0  0  0  0  0  0  0  0
  -11.3721   -6.3925   10.3873 C   0  0  0  0  0  0  0  0  0  0  0  0
  -12.3436   -7.1675    9.4866 C   0  0  0  0  0  0  0  0  0  0  0  0
  -13.0893   -8.2109   10.2746 C   0  0  0  0  0  0  0  0  0  0  0  0
  -11.3298   -8.8601    6.4967 C   0  0  0  0  0  0  0  0  0  0  0  0
  -11.4503   -9.8410    5.4516 C   0  0  0  0  0  0  0  0  0  0  0  0
  -10.0165  -10.4087    5.4512 C   0  0  0  0  0  0  0  0  0  0  0  0
   -9.4981  -10.2119    6.8866 C   0  0  0  0  0  0  0  0  0  0  0  0
   -9.2276  -11.5087    7.3467 O   0  0  0  0  0  0  0  0  0  0  0  0
   -9.3175  -11.5235    8.3514 H   0  0  0  0  0  0  0  0  0  0  0  0
   -8.2779   -9.4193    6.9326 C   0  0  0  0  0  0  0  0  0  0  0  0
   -7.4996   -9.4299    7.9059 O   0  0  0  0  0  0  0  0  0  0  0  0
   -7.8409   -8.5247    5.8330 C   0  0  0  0  0  0  0  0  0  0  0  0
   -6.6409   -8.8228    5.2593 O   0  0  0  0  0  0  0  0  0  0  0  0
   -5.9231   -8.1883    5.4381 H   0  0  0  0  0  0  0  0  0  0  0  0
  2  1  1  0  0  0
  2  3  1  0  0  0
  3  4  1  0  0  0
  4  5  1  0  0  0
  5  6  1  0  0  0
  6  7  1  0  0  0
  7  8  1  0  0  0
  8  9  2  0  0  0
  9 10  1  0  0  0
 10 11  2  0  0  0
 10 12  1  0  0  0
 12 13  1  0  0  0
 13 14  1  0  0  0
 14 15  1  0  0  0
  5 16  1  0  0  0
 16 17  1  0  0  0
 17 18  1  0  0  0
 18 19  1  0  0  0
 19 20  1  0  0  0
 19 22  1  0  0  0
 22 23  2  0  0  0
 22 24  1  0  0  0
 24 25  1  0  0  0
 16  2  1  0  0  0
 19  2  1  0  0  0
 14  4  1  0  0  0
 14  8  1  0  0  0
 20 21  1  0  0  0
 25 26  1  0  0  0
M  END
> <minimizedAffinity>
3.19413

> <CNNscore>
0.3149263263

> <CNNaffinity>
5.6700730324

> <CNN_VS>
1.7856552601

> <CNNaffinity_variance>
0.2353102863

$$$$
[H]OC([H])([H])C(=O)[C@]1(O[H])C([H])([H])C([H])([H])[C@]2([H])[C@]1(C([H])([H])[H])C([H])([H])[C@]1([H])[C@]3(C([H])([H])[H])C(=C([H])C(=O)C([H])([H])C3([H])[H])C([H])([H])C([H])([H])[C@@]21[H]


 26 29  0  0  0  0  0  0  0  0999 V2000
  -15.5661   -8.7706    7.7248 C   0  0  0  0  0  0  0  0  0  0  0  0
  -14.8557   -8.2070    6.5345 C   0  0  0  0  0  0  0  0  0  0  0  0
  -13.6917   -9.0108    6.1455 C   0  0  0  0  0  0  0  0  0  0  0  0
  -12.5398   -8.3228    6.8153 C   0  0  0  0  0  0  0  0  0  0  0  0
  -13.1586   -7.2855    7.7776 C   0  0  0  0  0  0  0  0  0  0  0  0
  -12.0552   -6.2955    8.0572 C   0  0  0  0  0  0  0  0  0  0  0  0
  -10.9480   -7.0072    8.7586 C   0  0  0  0  0  0  0  0  0  0  0  0
  -10.5497   -8.2968    8.1369 C   0  0  0  0  0  0  0  0  0  0  0  0
   -9.2545   -8.6119    8.2346 C   0  0  0  0  0  0  0  0  0  0  0  0
   -8.7532   -9.8400    7.6681 C   0  0  0  0  0  0  0  0  0  0  0  0
   -7.5639  -10.2275    7.8129 O   0  0  0  0  0  0  0  0  0  0  0  0
   -9.6497  -10.7138    6.8720 C   0  0  0  0  0  0  0  0  0  0  0  0
  -10.8323   -9.9467    6.3300 C   0  0  0  0  0  0  0  0  0  0  0  0
  -11.5377   -9.1757    7.4540 C   0  0  0  0  0  0  0  0  0  0  0  0
  -12.0816  -10.1196    8.4927 C   0  0  0  0  0  0  0  0  0  0  0  0
  -14.2018   -6.8521    6.8747 C   0  0  0  0  0  0  0  0  0  0  0  0
  -15.3651   -6.0884    7.2387 C   0  0  0  0  0  0  0  0  0  0  0  0
  -16.2727   -6.3908    6.0292 C   0  0  0  0  0  0  0  0  0  0  0  0
  -15.8307   -7.7748    5.5220 C   0  0  0  0  0  0  0  0  0  0  0  0
  -16.9715   -8.5802    5.6502 O   0  0  0  0  0  0  0  0  0  0  0  0
  -16.6817   -9.5388    5.7725 H   0  0  0  0  0  0  0  0  0  0  0  0
  -15.4133   -7.7480    4.1276 C   0  0  0  0  0  0  0  0  0  0  0  0
  -15.1976   -6.6900    3.5054 O   0  0  0  0  0  0  0  0  0  0  0  0
  -15.2042   -8.9694    3.3121 C   0  0  0  0  0  0  0  0  0  0  0  0
  -15.9975  -10.0353    3.6155 O   0  0  0  0  0  0  0  0  0  0  0  0
  -15.5414  -10.7923    4.0264 H   0  0  0  0  0  0  0  0  0  0  0  0
  2  1  1  0  0  0
  2  3  1  0  0  0
  3  4  1  0  0  0
  4  5  1  0  0  0
  5  6  1  0  0  0
  6  7  1  0  0  0
  7  8  1  0  0  0
  8  9  2  0  0  0
  9 10  1  0  0  0
 10 11  2  0  0  0
 10 12  1  0  0  0
 12 13  1  0  0  0
 13 14  1  0  0  0
 14 15  1  0  0  0
  5 16  1  0  0  0
 16 17  1  0  0  0
 17 18  1  0  0  0
 18 19  1  0  0  0
 19 20  1  0  0  0
 19 22  1  0  0  0
 22 23  2  0  0  0
 22 24  1  0  0  0
 24 25  1  0  0  0
 16  2  1  0  0  0
 19  2  1  0  0  0
 14  4  1  0  0  0
 14  8  1  0  0  0
 20 21  1  0  0  0
 25 26  1  0  0  0
M  END
> <minimizedAffinity>
-5.57707

> <CNNscore>
0.3088032305

> <CNNaffinity>
6.2140564919

> <CNN_VS>
1.9189207554

> <CNNaffinity_variance>
0.1906813085

$$$$
[H]O[C@]1([H])C([H])([H])C([H])([H])C([H])([H])C([H])([H])[C@@]1([H])N1C([H])([H])C([H])([H])C([H])(c2noc3c([H])c(F)c([H])c([H])c23)C([H])([H])C1([H])[H]


 24 27  0  0  0  0  0  0  0  0999 V2000
  -14.7495   -7.8951    6.1167 N   0  0  0  0  0  0  0  0  0  0  0  0
  -15.0180   -8.7839    7.2237 C   0  0  0  0  0  0  0  0  0  0  0  0
  -13.6308   -8.9261    7.9029 C   0  0  0  0  0  0  0  0  0  0  0  0
  -13.3599   -7.7617    8.7976 C   0  0  0  0  0  0  0  0  0  0  0  0
  -14.1687   -6.6065    8.0808 C   0  0  0  0  0  0  0  0  0  0  0  0
  -13.9150   -6.8025    6.6046 C   0  0  0  0  0  0  0  0  0  0  0  0
  -11.9478   -7.2454    8.6951 C   0  0  0  0  0  0  0  0  0  0  0  0
  -11.4010   -6.1225    9.1647 N   0  0  0  0  0  0  0  0  0  0  0  0
  -10.1230   -6.1315    9.0273 O   0  0  0  0  0  0  0  0  0  0  0  0
   -9.7294   -7.2502    8.4596 C   0  0  0  0  0  0  0  0  0  0  0  0
   -8.5534   -7.7878    8.0632 C   0  0  0  0  0  0  0  0  0  0  0  0
   -8.4501   -9.0470    7.4407 C   0  0  0  0  0  0  0  0  0  0  0  0
   -7.2319   -9.4764    7.0725 F   0  0  0  0  0  0  0  0  0  0  0  0
   -9.5924   -9.7791    7.2156 C   0  0  0  0  0  0  0  0  0  0  0  0
  -10.8072   -9.2650    7.6028 C   0  0  0  0  0  0  0  0  0  0  0  0
  -10.8863   -8.0026    8.2225 C   0  0  0  0  0  0  0  0  0  0  0  0
  -15.9925   -9.2495    3.7631 O   0  0  0  0  0  0  0  0  0  0  0  0
  -16.6467   -8.6450    4.8039 C   0  0  0  0  0  0  0  0  0  0  0  0
  -18.0567   -8.1905    4.4467 C   0  0  0  0  0  0  0  0  0  0  0  0
  -18.0747   -6.8574    3.7203 C   0  0  0  0  0  0  0  0  0  0  0  0
  -17.2594   -5.7865    4.3982 C   0  0  0  0  0  0  0  0  0  0  0  0
  -16.7045   -6.3830    5.7175 C   0  0  0  0  0  0  0  0  0  0  0  0
  -15.8143   -7.4887    5.3223 C   0  0  0  0  0  0  0  0  0  0  0  0
  -16.0625   -8.7217    2.9291 H   0  0  0  0  0  0  0  0  0  0  0  0
 17 18  1  0  0  0
 18 19  1  0  0  0
 19 20  1  0  0  0
 20 21  1  0  0  0
 21 22  1  0  0  0
 22 23  1  0  0  0
 23  1  1  0  0  0
  1  2  1  0  0  0
  2  3  1  0  0  0
  3  4  1  0  0  0
  4  5  1  0  0  0
  5  6  1  0  0  0
  4  7  1  0  0  0
  7  8  2  0  0  0
  8  9  1  0  0  0
  9 10  1  0  0  0
 10 11  2  0  0  0
 11 12  1  0  0  0
 12 13  1  0  0  0
 12 14  2  0  0  0
 14 15  1  0  0  0
 15 16  2  0  0  0
 23 18  1  0  0  0
  6  1  1  0  0  0
 16  7  1  0  0  0
 16 10  1  0  0  0
 17 24  1  0  0  0
M  END
> <minimizedAffinity>
-10.33736

> <CNNscore>
0.6891161799

> <CNNaffinity>
7.0921907425

> <CNN_VS>
4.8873434067

> <CNNaffinity_variance>
0.2493760586

$$$$
[H]O[C@]1([H])C([H])([H])C([H])([H])C([H])([H])C([H])([H])[C@@]1([H])N1C([H])([H])C([H])([H])C([H])(c2noc3c([H])c(F)c([H])c([H])c23)C([H])([H])C1([H])[H]


 24 27  0  0  0  0  0  0  0  0999 V2000
  -15.4286   -8.1821    6.3235 N   0  0  0  0  0  0  0  0  0  0  0  0
  -15.5708   -7.9394    7.7407 C   0  0  0  0  0  0  0  0  0  0  0  0
  -14.4025   -8.7544    8.3544 C   0  0  0  0  0  0  0  0  0  0  0  0
  -13.1233   -7.9887    8.2689 C   0  0  0  0  0  0  0  0  0  0  0  0
  -13.3511   -7.1207    6.9661 C   0  0  0  0  0  0  0  0  0  0  0  0
  -14.0166   -8.0524    5.9807 C   0  0  0  0  0  0  0  0  0  0  0  0
  -11.9460   -8.8363    7.8607 C   0  0  0  0  0  0  0  0  0  0  0  0
  -11.9039  -10.0233    7.2526 N   0  0  0  0  0  0  0  0  0  0  0  0
  -10.7035  -10.3324    6.9125 O   0  0  0  0  0  0  0  0  0  0  0  0
   -9.8660   -9.3831    7.2678 C   0  0  0  0  0  0  0  0  0  0  0  0
   -8.5320   -9.1735    7.1924 C   0  0  0  0  0  0  0  0  0  0  0  0
   -7.9006   -8.0219    7.7013 C   0  0  0  0  0  0  0  0  0  0  0  0
   -6.5659   -7.9254    7.5869 F   0  0  0  0  0  0  0  0  0  0  0  0
   -8.6636   -7.0529    8.3099 C   0  0  0  0  0  0  0  0  0  0  0  0
  -10.0233   -7.2310    8.4075 C   0  0  0  0  0  0  0  0  0  0  0  0
  -10.6326   -8.3917    7.8924 C   0  0  0  0  0  0  0  0  0  0  0  0
  -16.3095   -8.9610    3.5783 O   0  0  0  0  0  0  0  0  0  0  0  0
  -17.0981   -8.4764    4.5881 C   0  0  0  0  0  0  0  0  0  0  0  0
  -18.3755   -7.8121    4.0891 C   0  0  0  0  0  0  0  0  0  0  0  0
  -18.1517   -6.3799    3.6378 C   0  0  0  0  0  0  0  0  0  0  0  0
  -17.3968   -5.5405    4.6361 C   0  0  0  0  0  0  0  0  0  0  0  0
  -17.1486   -6.4146    5.8925 C   0  0  0  0  0  0  0  0  0  0  0  0
  -16.2898   -7.5278    5.4514 C   0  0  0  0  0  0  0  0  0  0  0  0
  -16.1796   -8.2923    2.8606 H   0  0  0  0  0  0  0  0  0  0  0  0
 17 18  1  0  0  0
 18 19  1  0  0  0
 19 20  1  0  0  0
 20 21  1  0  0  0
 21 22  1  0  0  0
 22 23  1  0  0  0
 23  1  1  0  0  0
  1  2  1  0  0  0
  2  3  1  0  0  0
  3  4  1  0  0  0
  4  5  1  0  0  0
  5  6  1  0  0  0
  4  7  1  0  0  0
  7  8  2  0  0  0
  8  9  1  0  0  0
  9 10  1  0  0  0
 10 11  2  0  0  0
 11 12  1  0  0  0
 12 13  1  0  0  0
 12 14  2  0  0  0
 14 15  1  0  0  0
 15 16  2  0  0  0
 23 18  1  0  0  0
  6  1  1  0  0  0
 16  7  1  0  0  0
 16 10  1  0  0  0
 17 24  1  0  0  0
M  END
> <minimizedAffinity>
-9.79262

> <CNNscore>
0.5900531411

> <CNNaffinity>
7.0081391335

> <CNN_VS>
4.1351742744

> <CNNaffinity_variance>
0.2362066060

$$$$
[H]O[C@]1([H])C([H])([H])C([H])([H])C([H])([H])C([H])([H])[C@@]1([H])N1C([H])([H])C([H])([H])C([H])(c2noc3c([H])c(F)c([H])c([H])c23)C([H])([H])C1([H])[H]


 24 27  0  0  0  0  0  0  0  0999 V2000
   -2.0880   -3.7680    9.4611 N   0  0  0  0  0  0  0  0  0  0  0  0
   -2.5257   -3.0914    8.2619 C   0  0  0  0  0  0  0  0  0  0  0  0
   -2.7894   -4.2603    7.2769 C   0  0  0  0  0  0  0  0  0  0  0  0
   -4.1323   -4.8649    7.5236 C   0  0  0  0  0  0  0  0  0  0  0  0
   -4.3229   -4.6108    9.0734 C   0  0  0  0  0  0  0  0  0  0  0  0
   -2.9757   -4.9026    9.6913 C   0  0  0  0  0  0  0  0  0  0  0  0
   -4.1290   -6.3709    7.4663 C   0  0  0  0  0  0  0  0  0  0  0  0
   -5.0225   -7.2556    7.9128 N   0  0  0  0  0  0  0  0  0  0  0  0
   -4.7457   -8.4443    7.5096 O   0  0  0  0  0  0  0  0  0  0  0  0
   -3.6563   -8.4380    6.7734 C   0  0  0  0  0  0  0  0  0  0  0  0
   -2.9074   -9.3570    6.1224 C   0  0  0  0  0  0  0  0  0  0  0  0
   -1.7364   -9.0348    5.4091 C   0  0  0  0  0  0  0  0  0  0  0  0
   -1.0602  -10.0308    4.8136 F   0  0  0  0  0  0  0  0  0  0  0  0
   -1.3184   -7.7253    5.3634 C   0  0  0  0  0  0  0  0  0  0  0  0
   -2.0526   -6.7625    6.0146 C   0  0  0  0  0  0  0  0  0  0  0  0
   -3.2197   -7.1085    6.7230 C   0  0  0  0  0  0  0  0  0  0  0  0
   -1.3339   -0.8869    9.6841 O   0  0  0  0  0  0  0  0  0  0  0  0
   -2.2545   -1.5570   10.4457 C   0  0  0  0  0  0  0  0  0  0  0  0
   -2.4948   -0.9129   11.8056 C   0  0  0  0  0  0  0  0  0  0  0  0
   -1.4388   -1.2940   12.8277 C   0  0  0  0  0  0  0  0  0  0  0  0
   -1.1817   -2.7767   12.9100 C   0  0  0  0  0  0  0  0  0  0  0  0
   -2.1728   -3.4794   11.9466 C   0  0  0  0  0  0  0  0  0  0  0  0
   -1.8315   -3.0054   10.5937 C   0  0  0  0  0  0  0  0  0  0  0  0
   -0.5145   -0.6778   10.1978 H   0  0  0  0  0  0  0  0  0  0  0  0
 17 18  1  0  0  0
 18 19  1  0  0  0
 19 20  1  0  0  0
 20 21  1  0  0  0
 21 22  1  0  0  0
 22 23  1  0  0  0
 23  1  1  0  0  0
  1  2  1  0  0  0
  2  3  1  0  0  0
  3  4  1  0  0  0
  4  5  1  0  0  0
  5  6  1  0  0  0
  4  7  1  0  0  0
  7  8  2  0  0  0
  8  9  1  0  0  0
  9 10  1  0  0  0
 10 11  2  0  0  0
 11 12  1  0  0  0
 12 13  1  0  0  0
 12 14  2  0  0  0
 14 15  1  0  0  0
 15 16  2  0  0  0
 23 18  1  0  0  0
  6  1  1  0  0  0
 16  7  1  0  0  0
 16 10  1  0  0  0
 17 24  1  0  0  0
M  END
> <minimizedAffinity>
-2.34779

> <CNNscore>
0.4650756419

> <CNNaffinity>
4.5449633598

> <CNN_VS>
2.1137516499

> <CNNaffinity_variance>
0.3029547334

$$$$
[H]O[C@]1([H])C([H])([H])C([H])([H])C([H])([H])C([H])([H])[C@@]1([H])N1C([H])([H])C([H])([H])C([H])(c2noc3c([H])c(F)c([H])c([H])c23)C([H])([H])C1([H])[H]


 24 27  0  0  0  0  0  0  0  0999 V2000
  -14.6525   -7.5203    4.9293 N   0  0  0  0  0  0  0  0  0  0  0  0
  -14.6410   -8.9649    4.9042 C   0  0  0  0  0  0  0  0  0  0  0  0
  -13.2960   -9.3163    5.5924 C   0  0  0  0  0  0  0  0  0  0  0  0
  -13.4341   -9.2620    7.0783 C   0  0  0  0  0  0  0  0  0  0  0  0
  -14.5586   -8.1643    7.2599 C   0  0  0  0  0  0  0  0  0  0  0  0
  -14.2260   -7.0864    6.2552 C   0  0  0  0  0  0  0  0  0  0  0  0
  -12.2631   -8.6058    7.7634 C   0  0  0  0  0  0  0  0  0  0  0  0
  -10.9767   -8.5491    7.4135 N   0  0  0  0  0  0  0  0  0  0  0  0
  -10.3222   -7.7390    8.1668 O   0  0  0  0  0  0  0  0  0  0  0  0
  -11.1175   -7.2034    9.0664 C   0  0  0  0  0  0  0  0  0  0  0  0
  -10.9905   -6.3331   10.0938 C   0  0  0  0  0  0  0  0  0  0  0  0
  -12.0640   -5.9549   10.9236 C   0  0  0  0  0  0  0  0  0  0  0  0
  -11.8204   -5.0953   11.9264 F   0  0  0  0  0  0  0  0  0  0  0  0
  -13.3101   -6.4890   10.6925 C   0  0  0  0  0  0  0  0  0  0  0  0
  -13.4785   -7.3789    9.6582 C   0  0  0  0  0  0  0  0  0  0  0  0
  -12.3898   -7.7436    8.8424 C   0  0  0  0  0  0  0  0  0  0  0  0
  -16.9696   -8.5915    3.3794 O   0  0  0  0  0  0  0  0  0  0  0  0
  -17.0197   -7.7265    4.4403 C   0  0  0  0  0  0  0  0  0  0  0  0
  -18.2829   -6.8745    4.4639 C   0  0  0  0  0  0  0  0  0  0  0  0
  -18.1928   -5.6699    3.5442 C   0  0  0  0  0  0  0  0  0  0  0  0
  -16.9306   -4.8656    3.7204 C   0  0  0  0  0  0  0  0  0  0  0  0
  -16.1290   -5.4989    4.8868 C   0  0  0  0  0  0  0  0  0  0  0  0
  -15.7756   -6.8601    4.4468 C   0  0  0  0  0  0  0  0  0  0  0  0
  -17.1842   -8.1390    2.5260 H   0  0  0  0  0  0  0  0  0  0  0  0
 17 18  1  0  0  0
 18 19  1  0  0  0
 19 20  1  0  0  0
 20 21  1  0  0  0
 21 22  1  0  0  0
 22 23  1  0  0  0
 23  1  1  0  0  0
  1  2  1  0  0  0
  2  3  1  0  0  0
  3  4  1  0  0  0
  4  5  1  0  0  0
  5  6  1  0  0  0
  4  7  1  0  0  0
  7  8  2  0  0  0
  8  9  1  0  0  0
  9 10  1  0  0  0
 10 11  2  0  0  0
 11 12  1  0  0  0
 12 13  1  0  0  0
 12 14  2  0  0  0
 14 15  1  0  0  0
 15 16  2  0  0  0
 23 18  1  0  0  0
  6  1  1  0  0  0
 16  7  1  0  0  0
 16 10  1  0  0  0
 17 24  1  0  0  0
M  END
> <minimizedAffinity>
-9.21519

> <CNNscore>
0.4506235421

> <CNNaffinity>
6.6762876511

> <CNN_VS>
3.0084924698

> <CNNaffinity_variance>
0.0102875968

$$$$
[H]O[C@]1([H])C([H])([H])C([H])([H])C([H])([H])C([H])([H])[C@@]1([H])N1C([H])([H])C([H])([H])C([H])(c2noc3c([H])c(F)c([H])c([H])c23)C([H])([H])C1([H])[H]


 24 27  0  0  0  0  0  0  0  0999 V2000
  -13.5807   -8.0350    7.7187 N   0  0  0  0  0  0  0  0  0  0  0  0
  -12.7420   -8.6383    6.7087 C   0  0  0  0  0  0  0  0  0  0  0  0
  -13.7691   -9.2190    5.7018 C   0  0  0  0  0  0  0  0  0  0  0  0
  -14.2589   -8.1550    4.7756 C   0  0  0  0  0  0  0  0  0  0  0  0
  -14.1506   -6.8619    5.6804 C   0  0  0  0  0  0  0  0  0  0  0  0
  -14.6386   -7.2907    7.0442 C   0  0  0  0  0  0  0  0  0  0  0  0
  -15.7433   -8.2194    4.5235 C   0  0  0  0  0  0  0  0  0  0  0  0
  -16.5786   -9.2598    4.5361 N   0  0  0  0  0  0  0  0  0  0  0  0
  -17.8030   -8.8779    4.4520 O   0  0  0  0  0  0  0  0  0  0  0  0
  -17.8715   -7.5670    4.3761 C   0  0  0  0  0  0  0  0  0  0  0  0
  -18.8504   -6.6415    4.2559 C   0  0  0  0  0  0  0  0  0  0  0  0
  -18.6001   -5.2578    4.1753 C   0  0  0  0  0  0  0  0  0  0  0  0
  -19.6481   -4.4287    4.0403 F   0  0  0  0  0  0  0  0  0  0  0  0
  -17.3010   -4.8082    4.2178 C   0  0  0  0  0  0  0  0  0  0  0  0
  -16.2782   -5.7190    4.3375 C   0  0  0  0  0  0  0  0  0  0  0  0
  -16.5526   -7.0983    4.4150 C   0  0  0  0  0  0  0  0  0  0  0  0
  -10.8640   -8.3949    8.9057 O   0  0  0  0  0  0  0  0  0  0  0  0
  -11.4702   -7.2092    8.5843 C   0  0  0  0  0  0  0  0  0  0  0  0
  -10.9299   -6.0229    9.3736 C   0  0  0  0  0  0  0  0  0  0  0  0
  -11.5465   -5.9112   10.7564 C   0  0  0  0  0  0  0  0  0  0  0  0
  -13.0515   -5.9893   10.7574 C   0  0  0  0  0  0  0  0  0  0  0  0
  -13.5181   -6.0801    9.2815 C   0  0  0  0  0  0  0  0  0  0  0  0
  -12.9703   -7.3438    8.7578 C   0  0  0  0  0  0  0  0  0  0  0  0
  -10.8184   -8.5305    9.8848 H   0  0  0  0  0  0  0  0  0  0  0  0
 17 18  1  0  0  0
 18 19  1  0  0  0
 19 20  1  0  0  0
 20 21  1  0  0  0
 21 22  1  0  0  0
 22 23  1  0  0  0
 23  1  1  0  0  0
  1  2  1  0  0  0
  2  3  1  0  0  0
  3  4  1  0  0  0
  4  5  1  0  0  0
  5  6  1  0  0  0
  4  7  1  0  0  0
  7  8  2  0  0  0
  8  9  1  0  0  0
  9 10  1  0  0  0
 10 11  2  0  0  0
 11 12  1  0  0  0
 12 13  1  0  0  0
 12 14  2  0  0  0
 14 15  1  0  0  0
 15 16  2  0  0  0
 23 18  1  0  0  0
  6  1  1  0  0  0
 16  7  1  0  0  0
 16 10  1  0  0  0
 17 24  1  0  0  0
M  END
> <minimizedAffinity>
-9.07544

> <CNNscore>
0.2890517414

> <CNNaffinity>
6.4962539673

> <CNN_VS>
1.8777534962

> <CNNaffinity_variance>
0.0187142808

$$$$
[H]O[C@]1([H])C([H])([H])C([H])([H])C([H])([H])C([H])([H])[C@@]1([H])N1C([H])([H])C([H])([H])C([H])(c2noc3c([H])c(F)c([H])c([H])c23)C([H])([H])C1([H])[H]


 24 27  0  0  0  0  0  0  0  0999 V2000
  -11.0641   -7.4882    7.7969 N   0  0  0  0  0  0  0  0  0  0  0  0
  -11.3001   -6.7451    9.0133 C   0  0  0  0  0  0  0  0  0  0  0  0
  -12.8119   -6.4082    8.9300 C   0  0  0  0  0  0  0  0  0  0  0  0
  -13.6363   -7.5683    9.3823 C   0  0  0  0  0  0  0  0  0  0  0  0
  -12.7149   -8.7933    8.9914 C   0  0  0  0  0  0  0  0  0  0  0  0
  -12.1510   -8.4474    7.6334 C   0  0  0  0  0  0  0  0  0  0  0  0
  -14.8449   -7.8157    8.5167 C   0  0  0  0  0  0  0  0  0  0  0  0
  -15.9589   -8.5074    8.7636 N   0  0  0  0  0  0  0  0  0  0  0  0
  -16.8345   -8.3297    7.8395 O   0  0  0  0  0  0  0  0  0  0  0  0
  -16.3707   -7.5155    6.9172 C   0  0  0  0  0  0  0  0  0  0  0  0
  -16.8175   -7.0006    5.7491 C   0  0  0  0  0  0  0  0  0  0  0  0
  -16.0513   -6.1380    4.9413 C   0  0  0  0  0  0  0  0  0  0  0  0
  -16.5887   -5.6990    3.7913 F   0  0  0  0  0  0  0  0  0  0  0  0
  -14.7825   -5.7929    5.3448 C   0  0  0  0  0  0  0  0  0  0  0  0
  -14.2923   -6.2979    6.5258 C   0  0  0  0  0  0  0  0  0  0  0  0
  -15.0765   -7.1602    7.3166 C   0  0  0  0  0  0  0  0  0  0  0  0
   -8.4380   -6.0922    7.5255 O   0  0  0  0  0  0  0  0  0  0  0  0
   -8.6964   -7.2231    8.2541 C   0  0  0  0  0  0  0  0  0  0  0  0
   -7.4613   -8.0844    8.4882 C   0  0  0  0  0  0  0  0  0  0  0  0
   -7.1376   -8.9765    7.3031 C   0  0  0  0  0  0  0  0  0  0  0  0
   -8.3197   -9.7597    6.7930 C   0  0  0  0  0  0  0  0  0  0  0  0
   -9.5209   -9.4583    7.7261 C   0  0  0  0  0  0  0  0  0  0  0  0
   -9.7981   -8.0183    7.5816 C   0  0  0  0  0  0  0  0  0  0  0  0
   -7.9077   -6.2912    6.7141 H   0  0  0  0  0  0  0  0  0  0  0  0
 17 18  1  0  0  0
 18 19  1  0  0  0
 19 20  1  0  0  0
 20 21  1  0  0  0
 21 22  1  0  0  0
 22 23  1  0  0  0
 23  1  1  0  0  0
  1  2  1  0  0  0
  2  3  1  0  0  0
  3  4  1  0  0  0
  4  5  1  0  0  0
  5  6  1  0  0  0
  4  7  1  0  0  0
  7  8  2  0  0  0
  8  9  1  0  0  0
  9 10  1  0  0  0
 10 11  2  0  0  0
 11 12  1  0  0  0
 12 13  1  0  0  0
 12 14  2  0  0  0
 14 15  1  0  0  0
 15 16  2  0  0  0
 23 18  1  0  0  0
  6  1  1  0  0  0
 16  7  1  0  0  0
 16 10  1  0  0  0
 17 24  1  0  0  0
M  END
> <minimizedAffinity>
-9.47033

> <CNNscore>
0.2488401383

> <CNNaffinity>
6.4315919876

> <CNN_VS>
1.6004382372

> <CNNaffinity_variance>
0.0977631211

$$$$
[H]O[C@]1([H])C([H])([H])C([H])([H])C([H])([H])C([H])([H])[C@@]1([H])N1C([H])([H])C([H])([H])C([H])(c2noc3c([H])c(F)c([H])c([H])c23)C([H])([H])C1([H])[H]


 24 27  0  0  0  0  0  0  0  0999 V2000
   -5.9114   -7.2979    6.4079 N   0  0  0  0  0  0  0  0  0  0  0  0
   -6.4680   -6.3133    7.3069 C   0  0  0  0  0  0  0  0  0  0  0  0
   -7.9889   -6.6138    7.2570 C   0  0  0  0  0  0  0  0  0  0  0  0
   -8.3315   -7.7519    8.1610 C   0  0  0  0  0  0  0  0  0  0  0  0
   -6.9970   -8.6009    8.1340 C   0  0  0  0  0  0  0  0  0  0  0  0
   -6.5440   -8.5812    6.6930 C   0  0  0  0  0  0  0  0  0  0  0  0
   -9.3140   -8.7209    7.5555 C   0  0  0  0  0  0  0  0  0  0  0  0
   -9.1325   -9.9558    7.0839 N   0  0  0  0  0  0  0  0  0  0  0  0
  -10.2540  -10.5250    6.8189 O   0  0  0  0  0  0  0  0  0  0  0  0
  -11.2552   -9.7172    7.0905 C   0  0  0  0  0  0  0  0  0  0  0  0
  -12.6038   -9.7617    6.9990 C   0  0  0  0  0  0  0  0  0  0  0  0
  -13.4390   -8.6872    7.3620 C   0  0  0  0  0  0  0  0  0  0  0  0
  -14.7657   -8.8347    7.2139 F   0  0  0  0  0  0  0  0  0  0  0  0
  -12.8712   -7.5267    7.8336 C   0  0  0  0  0  0  0  0  0  0  0  0
  -11.5030   -7.4426    7.9392 C   0  0  0  0  0  0  0  0  0  0  0  0
  -10.6877   -8.5297    7.5687 C   0  0  0  0  0  0  0  0  0  0  0  0
   -4.0248   -5.3071    5.2263 O   0  0  0  0  0  0  0  0  0  0  0  0
   -3.8568   -6.0080    6.3912 C   0  0  0  0  0  0  0  0  0  0  0  0
   -2.3963   -6.1559    6.8002 C   0  0  0  0  0  0  0  0  0  0  0  0
   -1.6968   -7.2888    6.0707 C   0  0  0  0  0  0  0  0  0  0  0  0
   -2.4566   -8.5899    6.1008 C   0  0  0  0  0  0  0  0  0  0  0  0
   -3.7223   -8.3748    6.9703 C   0  0  0  0  0  0  0  0  0  0  0  0
   -4.5304   -7.3609    6.2701 C   0  0  0  0  0  0  0  0  0  0  0  0
   -3.4219   -5.6318    4.5120 H   0  0  0  0  0  0  0  0  0  0  0  0
 17 18  1  0  0  0
 18 19  1  0  0  0
 19 20  1  0  0  0
 20 21  1  0  0  0
 21 22  1  0  0  0
 22 23  1  0  0  0
 23  1  1  0  0  0
  1  2  1  0  0  0
  2  3  1  0  0  0
  3  4  1  0  0  0
  4  5  1  0  0  0
  5  6  1  0  0  0
  4  7  1  0  0  0
  7  8  2  0  0  0
  8  9  1  0  0  0
  9 10  1  0  0  0
 10 11  2  0  0  0
 11 12  1  0  0  0
 12 13  1  0  0  0
 12 14  2  0  0  0
 14 15  1  0  0  0
 15 16  2  0  0  0
 23 18  1  0  0  0
  6  1  1  0  0  0
 16  7  1  0  0  0
 16 10  1  0  0  0
 17 24  1  0  0  0
M  END
> <minimizedAffinity>
-8.11847

> <CNNscore>
0.2450730205

> <CNNaffinity>
5.6942567825

> <CNN_VS>
1.3955087662

> <CNNaffinity_variance>
0.0524638891

$$$$
[H]O[C@]1([H])C([H])([H])C([H])([H])C([H])([H])C([H])([H])[C@@]1([H])N1C([H])([H])C([H])([H])C([H])(c2noc3c([H])c(F)c([H])c([H])c23)C([H])([H])C1([H])[H]


 24 27  0  0  0  0  0  0  0  0999 V2000
   -6.7272   -7.0707    7.9725 N   0  0  0  0  0  0  0  0  0  0  0  0
   -6.9785   -8.4229    7.5300 C   0  0  0  0  0  0  0  0  0  0  0  0
   -8.3259   -8.7708    8.2153 C   0  0  0  0  0  0  0  0  0  0  0  0
   -9.4725   -8.2159    7.4361 C   0  0  0  0  0  0  0  0  0  0  0  0
   -8.8246   -6.9339    6.7735 C   0  0  0  0  0  0  0  0  0  0  0  0
   -7.9708   -6.3170    7.8563 C   0  0  0  0  0  0  0  0  0  0  0  0
  -10.5395   -7.5973    8.3021 C   0  0  0  0  0  0  0  0  0  0  0  0
  -10.4941   -6.5293    9.1008 N   0  0  0  0  0  0  0  0  0  0  0  0
  -11.6646   -6.2152    9.5290 O   0  0  0  0  0  0  0  0  0  0  0  0
  -12.5665   -7.0448    9.0525 C   0  0  0  0  0  0  0  0  0  0  0  0
  -13.9034   -7.2124    9.1689 C   0  0  0  0  0  0  0  0  0  0  0  0
  -14.6114   -8.2474    8.5276 C   0  0  0  0  0  0  0  0  0  0  0  0
  -15.9370   -8.3299    8.7271 F   0  0  0  0  0  0  0  0  0  0  0  0
  -13.9240   -9.1421    7.7410 C   0  0  0  0  0  0  0  0  0  0  0  0
  -12.5634   -9.0055    7.5997 C   0  0  0  0  0  0  0  0  0  0  0  0
  -11.8763   -7.9633    8.2520 C   0  0  0  0  0  0  0  0  0  0  0  0
   -4.7747   -5.3074    9.3859 O   0  0  0  0  0  0  0  0  0  0  0  0
   -4.4853   -6.2982    8.4853 C   0  0  0  0  0  0  0  0  0  0  0  0
   -3.1417   -6.1086    7.7919 C   0  0  0  0  0  0  0  0  0  0  0  0
   -3.2163   -5.1356    6.6288 C   0  0  0  0  0  0  0  0  0  0  0  0
   -4.3440   -5.4211    5.6707 C   0  0  0  0  0  0  0  0  0  0  0  0
   -5.0494   -6.7167    6.1483 C   0  0  0  0  0  0  0  0  0  0  0  0
   -5.6108   -6.4096    7.4757 C   0  0  0  0  0  0  0  0  0  0  0  0
   -4.6260   -4.4075    9.0023 H   0  0  0  0  0  0  0  0  0  0  0  0
 17 18  1  0  0  0
 18 19  1  0  0  0
 19 20  1  0  0  0
 20 21  1  0  0  0
 21 22  1  0  0  0
 22 23  1  0  0  0
 23  1  1  0  0  0
  1  2  1  0  0  0
  2  3  1  0  0  0
  3  4  1  0  0  0
  4  5  1  0  0  0
  5  6  1  0  0  0
  4  7  1  0  0  0
  7  8  2  0  0  0
  8  9  1  0  0  0
  9 10  1  0  0  0
 10 11  2  0  0  0
 11 12  1  0  0  0
 12 13  1  0  0  0
 12 14  2  0  0  0
 14 15  1  0  0  0
 15 16  2  0  0  0
 23 18  1  0  0  0
  6  1  1  0  0  0
 16  7  1  0  0  0
 16 10  1  0  0  0
 17 24  1  0  0  0
M  END
> <minimizedAffinity>
-7.90157

> <CNNscore>
0.2445381731

> <CNNaffinity>
5.7871370316

> <CNN_VS>
1.4151759148

> <CNNaffinity_variance>
0.0145410728

$$$$
[H]O[C@]1([H])C([H])([H])C([H])([H])C([H])([H])C([H])([H])[C@@]1([H])N1C([H])([H])C([H])([H])C([H])(c2noc3c([H])c(F)c([H])c([H])c23)C([H])([H])C1([H])[H]


 24 27  0  0  0  0  0  0  0  0999 V2000
  -11.8395   -7.5119    7.4326 N   0  0  0  0  0  0  0  0  0  0  0  0
  -12.2783   -6.9087    8.6699 C   0  0  0  0  0  0  0  0  0  0  0  0
  -13.7253   -6.4547    8.3443 C   0  0  0  0  0  0  0  0  0  0  0  0
  -14.6774   -7.5982    8.4693 C   0  0  0  0  0  0  0  0  0  0  0  0
  -13.7556   -8.8299    8.1011 C   0  0  0  0  0  0  0  0  0  0  0  0
  -12.9160   -8.3620    6.9358 C   0  0  0  0  0  0  0  0  0  0  0  0
  -15.6990   -7.6487    7.3626 C   0  0  0  0  0  0  0  0  0  0  0  0
  -16.7948   -8.3984    7.2302 N   0  0  0  0  0  0  0  0  0  0  0  0
  -17.5048   -8.0166    6.2291 O   0  0  0  0  0  0  0  0  0  0  0  0
  -16.9378   -6.9951    5.6262 C   0  0  0  0  0  0  0  0  0  0  0  0
  -17.2044   -6.2197    4.5506 C   0  0  0  0  0  0  0  0  0  0  0  0
  -16.3630   -5.1738    4.1242 C   0  0  0  0  0  0  0  0  0  0  0  0
  -16.7172   -4.4780    3.0313 F   0  0  0  0  0  0  0  0  0  0  0  0
  -15.2076   -4.9155    4.8240 C   0  0  0  0  0  0  0  0  0  0  0  0
  -14.9011   -5.6836    5.9222 C   0  0  0  0  0  0  0  0  0  0  0  0
  -15.7572   -6.7254    6.3292 C   0  0  0  0  0  0  0  0  0  0  0  0
   -9.1660   -6.2673    6.9609 O   0  0  0  0  0  0  0  0  0  0  0  0
   -9.4828   -7.1979    7.9149 C   0  0  0  0  0  0  0  0  0  0  0  0
   -8.2822   -8.0084    8.3881 C   0  0  0  0  0  0  0  0  0  0  0  0
   -7.9427   -9.1525    7.4495 C   0  0  0  0  0  0  0  0  0  0  0  0
   -9.1283  -10.0069    7.0814 C   0  0  0  0  0  0  0  0  0  0  0  0
  -10.3525   -9.4775    7.8722 C   0  0  0  0  0  0  0  0  0  0  0  0
  -10.5826   -8.1026    7.3948 C   0  0  0  0  0  0  0  0  0  0  0  0
   -8.6133   -6.6559    6.2380 H   0  0  0  0  0  0  0  0  0  0  0  0
 17 18  1  0  0  0
 18 19  1  0  0  0
 19 20  1  0  0  0
 20 21  1  0  0  0
 21 22  1  0  0  0
 22 23  1  0  0  0
 23  1  1  0  0  0
  1  2  1  0  0  0
  2  3  1  0  0  0
  3  4  1  0  0  0
  4  5  1  0  0  0
  5  6  1  0  0  0
  4  7  1  0  0  0
  7  8  2  0  0  0
  8  9  1  0  0  0
  9 10  1  0  0  0
 10 11  2  0  0  0
 11 12  1  0  0  0
 12 13  1  0  0  0
 12 14  2  0  0  0
 14 15  1  0  0  0
 15 16  2  0  0  0
 23 18  1  0  0  0
  6  1  1  0  0  0
 16  7  1  0  0  0
 16 10  1  0  0  0
 17 24  1  0  0  0
M  END
> <minimizedAffinity>
-8.74108

> <CNNscore>
0.2371632308

> <CNNaffinity>
6.6444129944

> <CNN_VS>
1.5758104324

> <CNNaffinity_variance>
0.2293141186

$$$$
[H]OC(=O)c1c([H])c([H])c(-c2c([H])c(C#N)c([H])c3c([H])c([H])c([H])c([H])c23)c([H])c1O[H]


 24 26  0  0  0  0  0  0  0  0999 V2000
  -16.4430  -10.4899    3.6193 C   0  0  0  0  0  0  0  0  0  0  0  0
  -17.5539  -10.0157    4.3481 C   0  0  0  0  0  0  0  0  0  0  0  0
  -17.7617   -8.6831    4.5370 C   0  0  0  0  0  0  0  0  0  0  0  0
  -16.9066   -7.7428    4.0312 C   0  0  0  0  0  0  0  0  0  0  0  0
  -15.8267   -8.1753    3.3239 C   0  0  0  0  0  0  0  0  0  0  0  0
  -15.5853   -9.5507    3.1118 C   0  0  0  0  0  0  0  0  0  0  0  0
  -14.4852   -9.9129    2.3947 O   0  0  0  0  0  0  0  0  0  0  0  0
  -14.1858  -10.7946    2.1663 H   0  0  0  0  0  0  0  0  0  0  0  0
  -17.1133   -6.3104    4.2236 C   0  0  0  0  0  0  0  0  0  0  0  0
  -18.4172   -5.8066    4.2889 C   0  0  0  0  0  0  0  0  0  0  0  0
  -18.6822   -4.4704    4.4184 C   0  0  0  0  0  0  0  0  0  0  0  0
  -17.5933   -3.6313    4.4828 C   0  0  0  0  0  0  0  0  0  0  0  0
  -16.2947   -4.0831    4.4234 C   0  0  0  0  0  0  0  0  0  0  0  0
  -15.2453   -3.2014    4.5051 C   0  0  0  0  0  0  0  0  0  0  0  0
  -13.9673   -3.6551    4.4596 C   0  0  0  0  0  0  0  0  0  0  0  0
  -13.6917   -4.9980    4.3322 C   0  0  0  0  0  0  0  0  0  0  0  0
  -14.7234   -5.9094    4.2474 C   0  0  0  0  0  0  0  0  0  0  0  0
  -16.0405   -5.4548    4.2913 C   0  0  0  0  0  0  0  0  0  0  0  0
  -20.0385   -3.9558    4.4853 C   0  0  0  0  0  0  0  0  0  0  0  0
  -21.1171   -3.5408    4.5439 N   0  0  0  0  0  0  0  0  0  0  0  0
  -15.4554  -12.6080    4.3812 O   0  0  0  0  0  0  0  0  0  0  0  0
  -16.2796  -11.9196    3.4546 C   0  0  0  0  0  0  0  0  0  0  0  0
  -16.7795  -12.6449    2.5848 O   0  0  0  0  0  0  0  0  0  0  0  0
  -14.9368  -13.4207    4.1385 H   0  0  0  0  0  0  0  0  0  0  0  0
 21 22  1  0  0  0
 22 23  2  0  0  0
 22  1  1  0  0  0
  1  2  2  0  0  0
  2  3  1  0  0  0
  3  4  2  0  0  0
  4  5  1  0  0  0
  5  6  2  0  0  0
  6  7  1  0  0  0
  4  9  1  0  0  0
  9 10  2  0  0  0
 10 11  1  0  0  0
 11 12  2  0  0  0
 12 13  1  0  0  0
 13 14  2  0  0  0
 14 15  1  0  0  0
 15 16  2  0  0  0
 16 17  1  0  0  0
 17 18  2  0  0  0
 11 19  1  0  0  0
 19 20  3  0  0  0
  6  1  1  0  0  0
 18  9  1  0  0  0
 18 13  1  0  0  0
 21 24  1  0  0  0
  7  8  1  0  0  0
M  END
> <minimizedAffinity>
18.45367

> <CNNscore>
0.5272741318

> <CNNaffinity>
5.7692160606

> <CNN_VS>
3.0419583321

> <CNNaffinity_variance>
1.3907670975

$$$$
[H]OC(=O)c1c([H])c([H])c(-c2c([H])c(C#N)c([H])c3c([H])c([H])c([H])c([H])c23)c([H])c1O[H]


 24 26  0  0  0  0  0  0  0  0999 V2000
  -15.8564  -10.1016    2.9916 C   0  0  0  0  0  0  0  0  0  0  0  0
  -16.6221   -9.8274    4.1441 C   0  0  0  0  0  0  0  0  0  0  0  0
  -16.2828   -8.8226    4.9986 C   0  0  0  0  0  0  0  0  0  0  0  0
  -15.1869   -8.0332    4.7817 C   0  0  0  0  0  0  0  0  0  0  0  0
  -14.4314   -8.2780    3.6759 C   0  0  0  0  0  0  0  0  0  0  0  0
  -14.7586   -9.3129    2.7721 C   0  0  0  0  0  0  0  0  0  0  0  0
  -13.9586   -9.5022    1.6859 O   0  0  0  0  0  0  0  0  0  0  0  0
  -14.0446  -10.1539    0.9880 H   0  0  0  0  0  0  0  0  0  0  0  0
  -14.8079   -6.9520    5.6865 C   0  0  0  0  0  0  0  0  0  0  0  0
  -14.3767   -7.2588    6.9820 C   0  0  0  0  0  0  0  0  0  0  0  0
  -14.0539   -6.2932    7.8962 C   0  0  0  0  0  0  0  0  0  0  0  0
  -14.1735   -4.9872    7.4789 C   0  0  0  0  0  0  0  0  0  0  0  0
  -14.5925   -4.6399    6.2148 C   0  0  0  0  0  0  0  0  0  0  0  0
  -14.6815   -3.3198    5.8479 C   0  0  0  0  0  0  0  0  0  0  0  0
  -15.0823   -2.9848    4.5956 C   0  0  0  0  0  0  0  0  0  0  0  0
  -15.4064   -3.9499    3.6688 C   0  0  0  0  0  0  0  0  0  0  0  0
  -15.3276   -5.2849    4.0060 C   0  0  0  0  0  0  0  0  0  0  0  0
  -14.9187   -5.6411    5.2903 C   0  0  0  0  0  0  0  0  0  0  0  0
  -13.6073   -6.6202    9.2387 C   0  0  0  0  0  0  0  0  0  0  0  0
  -13.2464   -6.8753   10.3082 N   0  0  0  0  0  0  0  0  0  0  0  0
  -16.3074  -12.4956    2.6633 O   0  0  0  0  0  0  0  0  0  0  0  0
  -16.2713  -11.1843    2.1237 C   0  0  0  0  0  0  0  0  0  0  0  0
  -16.6099  -11.1162    0.9348 O   0  0  0  0  0  0  0  0  0  0  0  0
  -16.1411  -13.3074    2.1141 H   0  0  0  0  0  0  0  0  0  0  0  0
 21 22  1  0  0  0
 22 23  2  0  0  0
 22  1  1  0  0  0
  1  2  2  0  0  0
  2  3  1  0  0  0
  3  4  2  0  0  0
  4  5  1  0  0  0
  5  6  2  0  0  0
  6  7  1  0  0  0
  4  9  1  0  0  0
  9 10  2  0  0  0
 10 11  1  0  0  0
 11 12  2  0  0  0
 12 13  1  0  0  0
 13 14  2  0  0  0
 14 15  1  0  0  0
 15 16  2  0  0  0
 16 17  1  0  0  0
 17 18  2  0  0  0
 11 19  1  0  0  0
 19 20  3  0  0  0
  6  1  1  0  0  0
 18  9  1  0  0  0
 18 13  1  0  0  0
 21 24  1  0  0  0
  7  8  1  0  0  0
M  END
> <minimizedAffinity>
17.82113

> <CNNscore>
0.5096505880

> <CNNaffinity>
5.5894136429

> <CNN_VS>
2.8486478329

> <CNNaffinity_variance>
1.9639425278

$$$$
[H]OC(=O)c1c([H])c([H])c(-c2c([H])c(C#N)c([H])c3c([H])c([H])c([H])c([H])c23)c([H])c1O[H]


 24 26  0  0  0  0  0  0  0  0999 V2000
   -8.0007   -6.4226    7.3412 C   0  0  0  0  0  0  0  0  0  0  0  0
   -6.9643   -6.2184    6.4061 C   0  0  0  0  0  0  0  0  0  0  0  0
   -5.6737   -6.5431    6.6956 C   0  0  0  0  0  0  0  0  0  0  0  0
   -5.3208   -7.0810    7.9028 C   0  0  0  0  0  0  0  0  0  0  0  0
   -6.3031   -7.2878    8.8224 C   0  0  0  0  0  0  0  0  0  0  0  0
   -7.6500   -6.9610    8.5506 C   0  0  0  0  0  0  0  0  0  0  0  0
   -8.5816   -7.1945    9.5166 O   0  0  0  0  0  0  0  0  0  0  0  0
   -9.5256   -7.0297    9.4872 H   0  0  0  0  0  0  0  0  0  0  0  0
   -3.9428   -7.4351    8.2307 C   0  0  0  0  0  0  0  0  0  0  0  0
   -3.4019   -8.6259    7.7329 C   0  0  0  0  0  0  0  0  0  0  0  0
   -2.1353   -9.0420    8.0411 C   0  0  0  0  0  0  0  0  0  0  0  0
   -1.4058   -8.2252    8.8746 C   0  0  0  0  0  0  0  0  0  0  0  0
   -1.8973   -7.0458    9.3862 C   0  0  0  0  0  0  0  0  0  0  0  0
   -1.1202   -6.2631   10.2039 C   0  0  0  0  0  0  0  0  0  0  0  0
   -1.6062   -5.0949   10.6938 C   0  0  0  0  0  0  0  0  0  0  0  0
   -2.8784   -4.6674   10.3866 C   0  0  0  0  0  0  0  0  0  0  0  0
   -3.6844   -5.4308    9.5682 C   0  0  0  0  0  0  0  0  0  0  0  0
   -3.1964   -6.6338    9.0603 C   0  0  0  0  0  0  0  0  0  0  0  0
   -1.5816  -10.2792    7.5202 C   0  0  0  0  0  0  0  0  0  0  0  0
   -1.1394  -11.2619    7.0984 N   0  0  0  0  0  0  0  0  0  0  0  0
   -9.6252   -4.6882    6.7125 O   0  0  0  0  0  0  0  0  0  0  0  0
   -9.3521   -6.0559    6.9710 C   0  0  0  0  0  0  0  0  0  0  0  0
  -10.3328   -6.8009    6.8458 O   0  0  0  0  0  0  0  0  0  0  0  0
  -10.5128   -4.2755    6.8861 H   0  0  0  0  0  0  0  0  0  0  0  0
 21 22  1  0  0  0
 22 23  2  0  0  0
 22  1  1  0  0  0
  1  2  2  0  0  0
  2  3  1  0  0  0
  3  4  2  0  0  0
  4  5  1  0  0  0
  5  6  2  0  0  0
  6  7  1  0  0  0
  4  9  1  0  0  0
  9 10  2  0  0  0
 10 11  1  0  0  0
 11 12  2  0  0  0
 12 13  1  0  0  0
 13 14  2  0  0  0
 14 15  1  0  0  0
 15 16  2  0  0  0
 16 17  1  0  0  0
 17 18  2  0  0  0
 11 19  1  0  0  0
 19 20  3  0  0  0
  6  1  1  0  0  0
 18  9  1  0  0  0
 18 13  1  0  0  0
 21 24  1  0  0  0
  7  8  1  0  0  0
M  END
> <minimizedAffinity>
2.68802

> <CNNscore>
0.4284512103

> <CNNaffinity>
4.5746870041

> <CNN_VS>
1.9600301981

> <CNNaffinity_variance>
1.4647474289

$$$$
[H]OC(=O)c1c([H])c([H])c(-c2c([H])c(C#N)c([H])c3c([H])c([H])c([H])c([H])c23)c([H])c1O[H]


 24 26  0  0  0  0  0  0  0  0999 V2000
  -11.6347   -9.4628    7.8458 C   0  0  0  0  0  0  0  0  0  0  0  0
  -10.5659   -9.8474    7.0092 C   0  0  0  0  0  0  0  0  0  0  0  0
   -9.3127   -9.3431    7.1824 C   0  0  0  0  0  0  0  0  0  0  0  0
   -9.0303   -8.4424    8.1724 C   0  0  0  0  0  0  0  0  0  0  0  0
  -10.0451   -8.0553    8.9932 C   0  0  0  0  0  0  0  0  0  0  0  0
  -11.3546   -8.5611    8.8377 C   0  0  0  0  0  0  0  0  0  0  0  0
  -12.3221   -8.1305    9.6945 O   0  0  0  0  0  0  0  0  0  0  0  0
  -13.2485   -8.3761    9.7203 H   0  0  0  0  0  0  0  0  0  0  0  0
   -7.6933   -7.8912    8.3730 C   0  0  0  0  0  0  0  0  0  0  0  0
   -7.3425   -7.3771    9.6264 C   0  0  0  0  0  0  0  0  0  0  0  0
   -6.1249   -6.8018    9.8692 C   0  0  0  0  0  0  0  0  0  0  0  0
   -5.2473   -6.7505    8.8104 C   0  0  0  0  0  0  0  0  0  0  0  0
   -5.5498   -7.2443    7.5618 C   0  0  0  0  0  0  0  0  0  0  0  0
   -4.6304   -7.1779    6.5443 C   0  0  0  0  0  0  0  0  0  0  0  0
   -4.9303   -7.6789    5.3195 C   0  0  0  0  0  0  0  0  0  0  0  0
   -6.1518   -8.2618    5.0673 C   0  0  0  0  0  0  0  0  0  0  0  0
   -7.0973   -8.3438    6.0680 C   0  0  0  0  0  0  0  0  0  0  0  0
   -6.8011   -7.8310    7.3300 C   0  0  0  0  0  0  0  0  0  0  0  0
   -5.7689   -6.2706   11.1729 C   0  0  0  0  0  0  0  0  0  0  0  0
   -5.4795   -5.8523   12.2123 N   0  0  0  0  0  0  0  0  0  0  0  0
  -13.1527  -11.3924    7.9675 O   0  0  0  0  0  0  0  0  0  0  0  0
  -12.9433  -10.0363    7.6083 C   0  0  0  0  0  0  0  0  0  0  0  0
  -13.9362   -9.4829    7.1177 O   0  0  0  0  0  0  0  0  0  0  0  0
  -13.7889  -11.9841    7.4844 H   0  0  0  0  0  0  0  0  0  0  0  0
 21 22  1  0  0  0
 22 23  2  0  0  0
 22  1  1  0  0  0
  1  2  2  0  0  0
  2  3  1  0  0  0
  3  4  2  0  0  0
  4  5  1  0  0  0
  5  6  2  0  0  0
  6  7  1  0  0  0
  4  9  1  0  0  0
  9 10  2  0  0  0
 10 11  1  0  0  0
 11 12  2  0  0  0
 12 13  1  0  0  0
 13 14  2  0  0  0
 14 15  1  0  0  0
 15 16  2  0  0  0
 16 17  1  0  0  0
 17 18  2  0  0  0
 11 19  1  0  0  0
 19 20  3  0  0  0
  6  1  1  0  0  0
 18  9  1  0  0  0
 18 13  1  0  0  0
 21 24  1  0  0  0
  7  8  1  0  0  0
M  END
> <minimizedAffinity>
-2.04546

> <CNNscore>
0.4178621471

> <CNNaffinity>
5.1487941742

> <CNN_VS>
2.1514861584

> <CNNaffinity_variance>
1.0844423771

$$$$
[H]OC(=O)c1c([H])c([H])c(-c2c([H])c(C#N)c([H])c3c([H])c([H])c([H])c([H])c23)c([H])c1O[H]


 24 26  0  0  0  0  0  0  0  0999 V2000
  -13.7478   -8.1872    8.2674 C   0  0  0  0  0  0  0  0  0  0  0  0
  -12.8922   -8.7708    9.2253 C   0  0  0  0  0  0  0  0  0  0  0  0
  -11.5597   -8.9217    8.9877 C   0  0  0  0  0  0  0  0  0  0  0  0
  -10.9880   -8.5163    7.8130 C   0  0  0  0  0  0  0  0  0  0  0  0
  -11.7929   -7.9500    6.8723 C   0  0  0  0  0  0  0  0  0  0  0  0
  -13.1780   -7.7805    7.0904 C   0  0  0  0  0  0  0  0  0  0  0  0
  -13.9240   -7.2063    6.1059 O   0  0  0  0  0  0  0  0  0  0  0  0
  -14.8652   -7.0236    6.1003 H   0  0  0  0  0  0  0  0  0  0  0  0
   -9.5619   -8.6700    7.5409 C   0  0  0  0  0  0  0  0  0  0  0  0
   -8.9021   -9.8290    7.9648 C   0  0  0  0  0  0  0  0  0  0  0  0
   -7.5583  -10.0156    7.7862 C   0  0  0  0  0  0  0  0  0  0  0  0
   -6.8741   -8.9978    7.1617 C   0  0  0  0  0  0  0  0  0  0  0  0
   -7.4824   -7.8419    6.7279 C   0  0  0  0  0  0  0  0  0  0  0  0
   -6.7524   -6.8637    6.0990 C   0  0  0  0  0  0  0  0  0  0  0  0
   -7.3610   -5.7325    5.6617 C   0  0  0  0  0  0  0  0  0  0  0  0
   -8.7130   -5.5378    5.8348 C   0  0  0  0  0  0  0  0  0  0  0  0
   -9.4742   -6.5012    6.4631 C   0  0  0  0  0  0  0  0  0  0  0  0
   -8.8596   -7.6668    6.9180 C   0  0  0  0  0  0  0  0  0  0  0  0
   -6.8813  -11.2214    8.2292 C   0  0  0  0  0  0  0  0  0  0  0  0
   -6.3484  -12.1861    8.5820 N   0  0  0  0  0  0  0  0  0  0  0  0
  -15.5408   -8.0980    9.9466 O   0  0  0  0  0  0  0  0  0  0  0  0
  -15.1554   -8.0558    8.5822 C   0  0  0  0  0  0  0  0  0  0  0  0
  -16.0982   -7.9067    7.7938 O   0  0  0  0  0  0  0  0  0  0  0  0
  -16.4208   -8.4506   10.2457 H   0  0  0  0  0  0  0  0  0  0  0  0
 21 22  1  0  0  0
 22 23  2  0  0  0
 22  1  1  0  0  0
  1  2  2  0  0  0
  2  3  1  0  0  0
  3  4  2  0  0  0
  4  5  1  0  0  0
  5  6  2  0  0  0
  6  7  1  0  0  0
  4  9  1  0  0  0
  9 10  2  0  0  0
 10 11  1  0  0  0
 11 12  2  0  0  0
 12 13  1  0  0  0
 13 14  2  0  0  0
 14 15  1  0  0  0
 15 16  2  0  0  0
 16 17  1  0  0  0
 17 18  2  0  0  0
 11 19  1  0  0  0
 19 20  3  0  0  0
  6  1  1  0  0  0
 18  9  1  0  0  0
 18 13  1  0  0  0
 21 24  1  0  0  0
  7  8  1  0  0  0
M  END
> <minimizedAffinity>
1.62189

> <CNNscore>
0.3496792912

> <CNNaffinity>
5.2948312759

> <CNN_VS>
1.8514928818

> <CNNaffinity_variance>
1.2630816698

$$$$
[H]OC(=O)c1c([H])c([H])c(-c2c([H])c(C#N)c([H])c3c([H])c([H])c([H])c([H])c23)c([H])c1O[H]


 24 26  0  0  0  0  0  0  0  0999 V2000
   -6.7233   -7.1053    7.0630 C   0  0  0  0  0  0  0  0  0  0  0  0
   -7.0249   -7.8205    8.2409 C   0  0  0  0  0  0  0  0  0  0  0  0
   -8.3108   -7.9997    8.6522 C   0  0  0  0  0  0  0  0  0  0  0  0
   -9.3687   -7.4968    7.9457 C   0  0  0  0  0  0  0  0  0  0  0  0
   -9.1037   -6.8025    6.8050 C   0  0  0  0  0  0  0  0  0  0  0  0
   -7.7806   -6.6006    6.3538 C   0  0  0  0  0  0  0  0  0  0  0  0
   -7.5880   -5.8962    5.2039 O   0  0  0  0  0  0  0  0  0  0  0  0
   -6.7616   -5.6759    4.7706 H   0  0  0  0  0  0  0  0  0  0  0  0
  -10.7534   -7.6790    8.3712 C   0  0  0  0  0  0  0  0  0  0  0  0
  -11.4582   -8.8126    7.9512 C   0  0  0  0  0  0  0  0  0  0  0  0
  -12.7720   -9.0208    8.2723 C   0  0  0  0  0  0  0  0  0  0  0  0
  -13.3787   -8.0515    9.0380 C   0  0  0  0  0  0  0  0  0  0  0  0
  -12.7239   -6.9220    9.4735 C   0  0  0  0  0  0  0  0  0  0  0  0
  -13.3754   -5.9928   10.2464 C   0  0  0  0  0  0  0  0  0  0  0  0
  -12.7199   -4.8882   10.6837 C   0  0  0  0  0  0  0  0  0  0  0  0
  -11.3974   -4.6722   10.3677 C   0  0  0  0  0  0  0  0  0  0  0  0
  -10.7147   -5.5863    9.5929 C   0  0  0  0  0  0  0  0  0  0  0  0
  -11.3782   -6.7242    9.1365 C   0  0  0  0  0  0  0  0  0  0  0  0
  -13.4961  -10.2001    7.8323 C   0  0  0  0  0  0  0  0  0  0  0  0
  -14.0732  -11.1425    7.4888 N   0  0  0  0  0  0  0  0  0  0  0  0
   -4.9079   -5.6794    6.2182 O   0  0  0  0  0  0  0  0  0  0  0  0
   -5.3348   -6.9504    6.6810 C   0  0  0  0  0  0  0  0  0  0  0  0
   -4.4414   -7.8070    6.7053 O   0  0  0  0  0  0  0  0  0  0  0  0
   -4.1764   -5.5672    5.5544 H   0  0  0  0  0  0  0  0  0  0  0  0
 21 22  1  0  0  0
 22 23  2  0  0  0
 22  1  1  0  0  0
  1  2  2  0  0  0
  2  3  1  0  0  0
  3  4  2  0  0  0
  4  5  1  0  0  0
  5  6  2  0  0  0
  6  7  1  0  0  0
  4  9  1  0  0  0
  9 10  2  0  0  0
 10 11  1  0  0  0
 11 12  2  0  0  0
 12 13  1  0  0  0
 13 14  2  0  0  0
 14 15  1  0  0  0
 15 16  2  0  0  0
 16 17  1  0  0  0
 17 18  2  0  0  0
 11 19  1  0  0  0
 19 20  3  0  0  0
  6  1  1  0  0  0
 18  9  1  0  0  0
 18 13  1  0  0  0
 21 24  1  0  0  0
  7  8  1  0  0  0
M  END
> <minimizedAffinity>
-7.83070

> <CNNscore>
0.3207554221

> <CNNaffinity>
5.2938613892

> <CNN_VS>
1.6980347633

> <CNNaffinity_variance>
0.2193870991

$$$$
[H]OC(=O)c1c([H])c([H])c(-c2c([H])c(C#N)c([H])c3c([H])c([H])c([H])c([H])c23)c([H])c1O[H]


 24 26  0  0  0  0  0  0  0  0999 V2000
  -15.7459   -8.0864    6.7824 C   0  0  0  0  0  0  0  0  0  0  0  0
  -15.0978   -8.1896    8.0312 C   0  0  0  0  0  0  0  0  0  0  0  0
  -13.7750   -8.5016    8.1201 C   0  0  0  0  0  0  0  0  0  0  0  0
  -13.0133   -8.7293    7.0070 C   0  0  0  0  0  0  0  0  0  0  0  0
  -13.6158   -8.6357    5.7898 C   0  0  0  0  0  0  0  0  0  0  0  0
  -14.9855   -8.3139    5.6664 C   0  0  0  0  0  0  0  0  0  0  0  0
  -15.5236   -8.2370    4.4174 O   0  0  0  0  0  0  0  0  0  0  0  0
  -16.4264   -8.0317    4.1684 H   0  0  0  0  0  0  0  0  0  0  0  0
  -11.5944   -9.0648    7.0830 C   0  0  0  0  0  0  0  0  0  0  0  0
  -11.1557  -10.3079    6.6133 C   0  0  0  0  0  0  0  0  0  0  0  0
   -9.8493  -10.7057    6.6993 C   0  0  0  0  0  0  0  0  0  0  0  0
   -8.9726   -9.8158    7.2768 C   0  0  0  0  0  0  0  0  0  0  0  0
   -9.3599   -8.5833    7.7511 C   0  0  0  0  0  0  0  0  0  0  0  0
   -8.4395   -7.7295    8.3070 C   0  0  0  0  0  0  0  0  0  0  0  0
   -8.8259   -6.5103    8.7603 C   0  0  0  0  0  0  0  0  0  0  0  0
  -10.1377   -6.1009    8.6751 C   0  0  0  0  0  0  0  0  0  0  0  0
  -11.0866   -6.9353    8.1224 C   0  0  0  0  0  0  0  0  0  0  0  0
  -10.7017   -8.1909    7.6548 C   0  0  0  0  0  0  0  0  0  0  0  0
   -9.4024  -11.9976    6.2094 C   0  0  0  0  0  0  0  0  0  0  0  0
   -9.0522  -13.0273    5.8143 N   0  0  0  0  0  0  0  0  0  0  0  0
  -17.9168   -7.9822    7.9307 O   0  0  0  0  0  0  0  0  0  0  0  0
  -17.1547   -7.7512    6.7569 C   0  0  0  0  0  0  0  0  0  0  0  0
  -17.8040   -7.2745    5.8169 O   0  0  0  0  0  0  0  0  0  0  0  0
  -18.8840   -8.2108    7.9070 H   0  0  0  0  0  0  0  0  0  0  0  0
 21 22  1  0  0  0
 22 23  2  0  0  0
 22  1  1  0  0  0
  1  2  2  0  0  0
  2  3  1  0  0  0
  3  4  2  0  0  0
  4  5  1  0  0  0
  5  6  2  0  0  0
  6  7  1  0  0  0
  4  9  1  0  0  0
  9 10  2  0  0  0
 10 11  1  0  0  0
 11 12  2  0  0  0
 12 13  1  0  0  0
 13 14  2  0  0  0
 14 15  1  0  0  0
 15 16  2  0  0  0
 16 17  1  0  0  0
 17 18  2  0  0  0
 11 19  1  0  0  0
 19 20  3  0  0  0
  6  1  1  0  0  0
 18  9  1  0  0  0
 18 13  1  0  0  0
 21 24  1  0  0  0
  7  8  1  0  0  0
M  END
> <minimizedAffinity>
-3.41850

> <CNNscore>
0.3174456060

> <CNNaffinity>
5.4573783875

> <CNN_VS>
1.7324208021

> <CNNaffinity_variance>
0.8123098612

$$$$
[H]OC(=O)c1c([H])c([H])c(-c2c([H])c(C#N)c([H])c3c([H])c([H])c([H])c([H])c23)c([H])c1O[H]


 24 26  0  0  0  0  0  0  0  0999 V2000
  -16.7695   -6.8052    4.6119 C   0  0  0  0  0  0  0  0  0  0  0  0
  -15.7035   -5.9647    4.9959 C   0  0  0  0  0  0  0  0  0  0  0  0
  -14.9650   -6.2205    6.1113 C   0  0  0  0  0  0  0  0  0  0  0  0
  -15.2199   -7.3009    6.9106 C   0  0  0  0  0  0  0  0  0  0  0  0
  -16.2438   -8.1273    6.5612 C   0  0  0  0  0  0  0  0  0  0  0  0
  -17.0268   -7.8875    5.4105 C   0  0  0  0  0  0  0  0  0  0  0  0
  -18.0359   -8.7553    5.1202 O   0  0  0  0  0  0  0  0  0  0  0  0
  -18.6499   -8.7317    4.3843 H   0  0  0  0  0  0  0  0  0  0  0  0
  -14.4391   -7.5908    8.1097 C   0  0  0  0  0  0  0  0  0  0  0  0
  -15.1004   -7.9300    9.2954 C   0  0  0  0  0  0  0  0  0  0  0  0
  -14.4330   -8.1654   10.4666 C   0  0  0  0  0  0  0  0  0  0  0  0
  -13.0620   -8.0523   10.4261 C   0  0  0  0  0  0  0  0  0  0  0  0
  -12.3708   -7.7223    9.2827 C   0  0  0  0  0  0  0  0  0  0  0  0
  -11.0006   -7.6357    9.2967 C   0  0  0  0  0  0  0  0  0  0  0  0
  -10.3246   -7.3231    8.1625 C   0  0  0  0  0  0  0  0  0  0  0  0
  -10.9880   -7.0874    6.9793 C   0  0  0  0  0  0  0  0  0  0  0  0
  -12.3641   -7.1662    6.9319 C   0  0  0  0  0  0  0  0  0  0  0  0
  -13.0694   -7.4849    8.0914 C   0  0  0  0  0  0  0  0  0  0  0  0
  -15.1269   -8.5167   11.6928 C   0  0  0  0  0  0  0  0  0  0  0  0
  -15.6743   -8.7939   12.6740 N   0  0  0  0  0  0  0  0  0  0  0  0
  -17.4071   -5.1595    2.9008 O   0  0  0  0  0  0  0  0  0  0  0  0
  -17.5156   -6.4772    3.4146 C   0  0  0  0  0  0  0  0  0  0  0  0
  -18.2598   -7.2174    2.7581 O   0  0  0  0  0  0  0  0  0  0  0  0
  -18.1464   -4.7119    2.4096 H   0  0  0  0  0  0  0  0  0  0  0  0
 21 22  1  0  0  0
 22 23  2  0  0  0
 22  1  1  0  0  0
  1  2  2  0  0  0
  2  3  1  0  0  0
  3  4  2  0  0  0
  4  5  1  0  0  0
  5  6  2  0  0  0
  6  7  1  0  0  0
  4  9  1  0  0  0
  9 10  2  0  0  0
 10 11  1  0  0  0
 11 12  2  0  0  0
 12 13  1  0  0  0
 13 14  2  0  0  0
 14 15  1  0  0  0
 15 16  2  0  0  0
 16 17  1  0  0  0
 17 18  2  0  0  0
 11 19  1  0  0  0
 19 20  3  0  0  0
  6  1  1  0  0  0
 18  9  1  0  0  0
 18 13  1  0  0  0
 21 24  1  0  0  0
  7  8  1  0  0  0
M  END
> <minimizedAffinity>
-2.84888

> <CNNscore>
0.2379090786

> <CNNaffinity>
5.4264574051

> <CNN_VS>
1.2910034657

> <CNNaffinity_variance>
0.6048635244

$$$$
[H]OC(=O)c1c([H])c([H])c(-c2c([H])c(C#N)c([H])c3c([H])c([H])c([H])c([H])c23)c([H])c1O[H]


 24 26  0  0  0  0  0  0  0  0999 V2000
   -8.8082   -8.3092    7.2595 C   0  0  0  0  0  0  0  0  0  0  0  0
   -9.6191   -9.4596    7.1636 C   0  0  0  0  0  0  0  0  0  0  0  0
  -10.9533   -9.4113    7.4327 C   0  0  0  0  0  0  0  0  0  0  0  0
  -11.5699   -8.2492    7.8075 C   0  0  0  0  0  0  0  0  0  0  0  0
  -10.8087   -7.1249    7.9073 C   0  0  0  0  0  0  0  0  0  0  0  0
   -9.4231   -7.1445    7.6347 C   0  0  0  0  0  0  0  0  0  0  0  0
   -8.7221   -5.9826    7.7544 O   0  0  0  0  0  0  0  0  0  0  0  0
   -7.7869   -5.8322    7.6063 H   0  0  0  0  0  0  0  0  0  0  0  0
  -12.9986   -8.1785    8.0998 C   0  0  0  0  0  0  0  0  0  0  0  0
  -13.4355   -8.2861    9.4249 C   0  0  0  0  0  0  0  0  0  0  0  0
  -14.7612   -8.2775    9.7637 C   0  0  0  0  0  0  0  0  0  0  0  0
  -15.6595   -8.1562    8.7281 C   0  0  0  0  0  0  0  0  0  0  0  0
  -15.2745   -8.0468    7.4113 C   0  0  0  0  0  0  0  0  0  0  0  0
  -16.2142   -7.9154    6.4189 C   0  0  0  0  0  0  0  0  0  0  0  0
  -15.8272   -7.7943    5.1240 C   0  0  0  0  0  0  0  0  0  0  0  0
  -14.4954   -7.7993    4.7745 C   0  0  0  0  0  0  0  0  0  0  0  0
  -13.5269   -7.9299    5.7477 C   0  0  0  0  0  0  0  0  0  0  0  0
  -13.9127   -8.0567    7.0813 C   0  0  0  0  0  0  0  0  0  0  0  0
  -15.2061   -8.3898   11.1414 C   0  0  0  0  0  0  0  0  0  0  0  0
  -15.5651   -8.4733   12.2384 N   0  0  0  0  0  0  0  0  0  0  0  0
   -6.4673   -7.9886    7.9377 O   0  0  0  0  0  0  0  0  0  0  0  0
   -7.3962   -8.4282    6.9600 C   0  0  0  0  0  0  0  0  0  0  0  0
   -6.8743   -8.8769    5.9309 O   0  0  0  0  0  0  0  0  0  0  0  0
   -5.5749   -7.6189    7.7031 H   0  0  0  0  0  0  0  0  0  0  0  0
 21 22  1  0  0  0
 22 23  2  0  0  0
 22  1  1  0  0  0
  1  2  2  0  0  0
  2  3  1  0  0  0
  3  4  2  0  0  0
  4  5  1  0  0  0
  5  6  2  0  0  0
  6  7  1  0  0  0
  4  9  1  0  0  0
  9 10  2  0  0  0
 10 11  1  0  0  0
 11 12  2  0  0  0
 12 13  1  0  0  0
 13 14  2  0  0  0
 14 15  1  0  0  0
 15 16  2  0  0  0
 16 17  1  0  0  0
 17 18  2  0  0  0
 11 19  1  0  0  0
 19 20  3  0  0  0
  6  1  1  0  0  0
 18  9  1  0  0  0
 18 13  1  0  0  0
 21 24  1  0  0  0
  7  8  1  0  0  0
M  END
> <minimizedAffinity>
-5.25213

> <CNNscore>
0.2087283581

> <CNNaffinity>
5.3757634163

> <CNN_VS>
1.1220742464

> <CNNaffinity_variance>
0.6480947733

$$$$
[H]c1nc(-c2c(C([H])([H])[H])c([H])nc3c([H])c(OC([H])([H])[H])c(OC([H])([H])C([H])([H])OC([H])([H])[H])c([H])c23)nc(N([H])c2c([H])c(OC([H])([H])[H])c([H])c(OC([H])([H])[H])c2[H])n1


 36 39  0  0  0  0  0  0  0  0999 V2000
  -12.7124   -9.6178    8.6131 N   0  0  0  0  0  0  0  0  0  0  0  0
  -13.6302  -10.5054    8.1521 C   0  0  0  0  0  0  0  0  0  0  0  0
  -14.2026  -10.2810    6.9654 N   0  0  0  0  0  0  0  0  0  0  0  0
  -13.9470   -9.2385    6.1743 C   0  0  0  0  0  0  0  0  0  0  0  0
  -13.0117   -8.3676    6.6833 N   0  0  0  0  0  0  0  0  0  0  0  0
  -12.4108   -8.5445    7.8613 C   0  0  0  0  0  0  0  0  0  0  0  0
  -11.4180   -7.5922    8.3689 C   0  0  0  0  0  0  0  0  0  0  0  0
  -11.7746   -6.5688    9.2221 C   0  0  0  0  0  0  0  0  0  0  0  0
  -13.1775   -6.3889    9.6616 C   0  0  0  0  0  0  0  0  0  0  0  0
  -10.7449   -5.7305    9.6355 C   0  0  0  0  0  0  0  0  0  0  0  0
   -9.4706   -5.9026    9.2298 N   0  0  0  0  0  0  0  0  0  0  0  0
   -9.1297   -6.9062    8.3950 C   0  0  0  0  0  0  0  0  0  0  0  0
  -10.1151   -7.7698    7.9528 C   0  0  0  0  0  0  0  0  0  0  0  0
   -9.7380   -8.7957    7.0932 C   0  0  0  0  0  0  0  0  0  0  0  0
   -8.4351   -8.9625    6.6853 C   0  0  0  0  0  0  0  0  0  0  0  0
   -7.4631   -8.0940    7.1340 C   0  0  0  0  0  0  0  0  0  0  0  0
   -7.8150   -7.0515    8.0007 C   0  0  0  0  0  0  0  0  0  0  0  0
   -6.1469   -8.2600    6.7238 O   0  0  0  0  0  0  0  0  0  0  0  0
   -5.1506   -7.4727    7.3284 C   0  0  0  0  0  0  0  0  0  0  0  0
   -8.0838   -9.9910    5.8293 O   0  0  0  0  0  0  0  0  0  0  0  0
   -8.9592  -11.0671    5.5487 C   0  0  0  0  0  0  0  0  0  0  0  0
   -8.9003  -11.4626    4.0893 C   0  0  0  0  0  0  0  0  0  0  0  0
   -8.0278  -10.6451    3.3779 O   0  0  0  0  0  0  0  0  0  0  0  0
   -7.8067  -11.1544    2.1068 C   0  0  0  0  0  0  0  0  0  0  0  0
  -14.5335   -8.9791    4.9240 N   0  0  0  0  0  0  0  0  0  0  0  0
  -14.0776   -9.4665    4.0753 H   0  0  0  0  0  0  0  0  0  0  0  0
  -15.6470   -8.1532    4.6916 C   0  0  0  0  0  0  0  0  0  0  0  0
  -15.4100   -6.8020    4.3404 C   0  0  0  0  0  0  0  0  0  0  0  0
  -16.4240   -5.9288    4.0713 C   0  0  0  0  0  0  0  0  0  0  0  0
  -17.7144   -6.3979    4.1498 C   0  0  0  0  0  0  0  0  0  0  0  0
  -18.0258   -7.6871    4.4814 C   0  0  0  0  0  0  0  0  0  0  0  0
  -16.9562   -8.5566    4.7510 C   0  0  0  0  0  0  0  0  0  0  0  0
  -16.1624   -4.5864    3.7234 O   0  0  0  0  0  0  0  0  0  0  0  0
  -14.9902   -3.9426    4.2330 C   0  0  0  0  0  0  0  0  0  0  0  0
  -19.3163   -8.1652    4.5621 O   0  0  0  0  0  0  0  0  0  0  0  0
  -19.6160   -9.2148    5.4516 C   0  0  0  0  0  0  0  0  0  0  0  0
  1  2  2  0  0  0
  2  3  1  0  0  0
  3  4  2  0  0  0
  4 25  1  0  0  0
 25 27  1  0  0  0
 27 28  2  0  0  0
 28 29  1  0  0  0
 29 33  1  0  0  0
 33 34  1  0  0  0
 29 30  2  0  0  0
 30 31  1  0  0  0
 31 35  1  0  0  0
 35 36  1  0  0  0
 31 32  2  0  0  0
  4  5  1  0  0  0
  5  6  2  0  0  0
  6  7  1  0  0  0
  7  8  2  0  0  0
  8  9  1  0  0  0
  8 10  1  0  0  0
 10 11  2  0  0  0
 11 12  1  0  0  0
 12 13  2  0  0  0
 13 14  1  0  0  0
 14 15  2  0  0  0
 15 20  1  0  0  0
 20 21  1  0  0  0
 21 22  1  0  0  0
 22 23  1  0  0  0
 23 24  1  0  0  0
 15 16  1  0  0  0
 16 18  1  0  0  0
 18 19  1  0  0  0
 16 17  2  0  0  0
  6  1  1  0  0  0
 13  7  1  0  0  0
 32 27  1  0  0  0
 17 12  1  0  0  0
 25 26  1  0  0  0
M  END
> <minimizedAffinity>
-0.47077

> <CNNscore>
0.3794423342

> <CNNaffinity>
7.4165029526

> <CNN_VS>
2.8141350746

> <CNNaffinity_variance>
0.0398192927

$$$$
[H]c1nc(-c2c(C([H])([H])[H])c([H])nc3c([H])c(OC([H])([H])[H])c(OC([H])([H])C([H])([H])OC([H])([H])[H])c([H])c23)nc(N([H])c2c([H])c(OC([H])([H])[H])c([H])c(OC([H])([H])[H])c2[H])n1


 36 39  0  0  0  0  0  0  0  0999 V2000
  -12.6495   -9.7581    8.4573 N   0  0  0  0  0  0  0  0  0  0  0  0
  -13.7080  -10.5540    8.1590 C   0  0  0  0  0  0  0  0  0  0  0  0
  -14.8766   -9.9822    7.8528 N   0  0  0  0  0  0  0  0  0  0  0  0
  -15.1018   -8.6686    7.8131 C   0  0  0  0  0  0  0  0  0  0  0  0
  -14.0010   -7.9039    8.1225 N   0  0  0  0  0  0  0  0  0  0  0  0
  -12.8126   -8.4236    8.4348 C   0  0  0  0  0  0  0  0  0  0  0  0
  -11.6626   -7.5734    8.7587 C   0  0  0  0  0  0  0  0  0  0  0  0
  -11.7819   -6.4986    9.6148 C   0  0  0  0  0  0  0  0  0  0  0  0
  -13.0790   -6.1578   10.2434 C   0  0  0  0  0  0  0  0  0  0  0  0
  -10.6213   -5.7678    9.8445 C   0  0  0  0  0  0  0  0  0  0  0  0
   -9.4450   -6.0862    9.2674 N   0  0  0  0  0  0  0  0  0  0  0  0
   -9.3362   -7.1392    8.4310 C   0  0  0  0  0  0  0  0  0  0  0  0
  -10.4601   -7.9005    8.1674 C   0  0  0  0  0  0  0  0  0  0  0  0
  -10.3217   -8.9802    7.3022 C   0  0  0  0  0  0  0  0  0  0  0  0
   -9.1171   -9.2963    6.7186 C   0  0  0  0  0  0  0  0  0  0  0  0
   -8.0049   -8.5286    6.9904 C   0  0  0  0  0  0  0  0  0  0  0  0
   -8.1157   -7.4350    7.8584 C   0  0  0  0  0  0  0  0  0  0  0  0
   -6.7873   -8.8454    6.4026 O   0  0  0  0  0  0  0  0  0  0  0  0
   -5.7100   -7.9568    6.5684 C   0  0  0  0  0  0  0  0  0  0  0  0
   -9.0037  -10.3757    5.8606 O   0  0  0  0  0  0  0  0  0  0  0  0
   -9.2776  -11.6998    6.2788 C   0  0  0  0  0  0  0  0  0  0  0  0
   -8.9651  -12.7007    5.1878 C   0  0  0  0  0  0  0  0  0  0  0  0
   -9.2236  -14.0023    5.6055 O   0  0  0  0  0  0  0  0  0  0  0  0
   -8.6094  -14.9176    4.7634 C   0  0  0  0  0  0  0  0  0  0  0  0
  -16.3187   -8.0421    7.4947 N   0  0  0  0  0  0  0  0  0  0  0  0
  -17.1173   -8.1642    8.2109 H   0  0  0  0  0  0  0  0  0  0  0  0
  -16.5766   -7.2811    6.3413 C   0  0  0  0  0  0  0  0  0  0  0  0
  -15.8447   -6.0827    6.1589 C   0  0  0  0  0  0  0  0  0  0  0  0
  -16.0057   -5.2888    5.0602 C   0  0  0  0  0  0  0  0  0  0  0  0
  -16.9161   -5.6848    4.1085 C   0  0  0  0  0  0  0  0  0  0  0  0
  -17.6604   -6.8269    4.2108 C   0  0  0  0  0  0  0  0  0  0  0  0
  -17.4672   -7.6186    5.3547 C   0  0  0  0  0  0  0  0  0  0  0  0
  -15.2643   -4.0986    4.9010 O   0  0  0  0  0  0  0  0  0  0  0  0
  -14.1926   -4.0581    3.9534 C   0  0  0  0  0  0  0  0  0  0  0  0
  -18.5748   -7.2309    3.2615 O   0  0  0  0  0  0  0  0  0  0  0  0
  -18.1214   -7.7345    2.0272 C   0  0  0  0  0  0  0  0  0  0  0  0
  1  2  2  0  0  0
  2  3  1  0  0  0
  3  4  2  0  0  0
  4 25  1  0  0  0
 25 27  1  0  0  0
 27 28  2  0  0  0
 28 29  1  0  0  0
 29 33  1  0  0  0
 33 34  1  0  0  0
 29 30  2  0  0  0
 30 31  1  0  0  0
 31 35  1  0  0  0
 35 36  1  0  0  0
 31 32  2  0  0  0
  4  5  1  0  0  0
  5  6  2  0  0  0
  6  7  1  0  0  0
  7  8  2  0  0  0
  8  9  1  0  0  0
  8 10  1  0  0  0
 10 11  2  0  0  0
 11 12  1  0  0  0
 12 13  2  0  0  0
 13 14  1  0  0  0
 14 15  2  0  0  0
 15 20  1  0  0  0
 20 21  1  0  0  0
 21 22  1  0  0  0
 22 23  1  0  0  0
 23 24  1  0  0  0
 15 16  1  0  0  0
 16 18  1  0  0  0
 18 19  1  0  0  0
 16 17  2  0  0  0
  6  1  1  0  0  0
 13  7  1  0  0  0
 32 27  1  0  0  0
 17 12  1  0  0  0
 25 26  1  0  0  0
M  END
> <minimizedAffinity>
0.07535

> <CNNscore>
0.3119805455

> <CNNaffinity>
7.3540954590

> <CNN_VS>
2.2943346500

> <CNNaffinity_variance>
0.2942993939

$$$$
[H]c1nc(-c2c(C([H])([H])[H])c([H])nc3c([H])c(OC([H])([H])[H])c(OC([H])([H])C([H])([H])OC([H])([H])[H])c([H])c23)nc(N([H])c2c([H])c(OC([H])([H])[H])c([H])c(OC([H])([H])[H])c2[H])n1


 36 39  0  0  0  0  0  0  0  0999 V2000
  -12.1772   -9.6196    8.6592 N   0  0  0  0  0  0  0  0  0  0  0  0
  -13.5011   -9.4056    8.8694 C   0  0  0  0  0  0  0  0  0  0  0  0
  -14.2797   -9.1136    7.8231 N   0  0  0  0  0  0  0  0  0  0  0  0
  -13.8629   -9.0112    6.5606 C   0  0  0  0  0  0  0  0  0  0  0  0
  -12.5156   -9.2361    6.3976 N   0  0  0  0  0  0  0  0  0  0  0  0
  -11.6948   -9.5306    7.4072 C   0  0  0  0  0  0  0  0  0  0  0  0
  -10.2632   -9.7637    7.1916 C   0  0  0  0  0  0  0  0  0  0  0  0
   -9.7871  -10.9973    6.7993 C   0  0  0  0  0  0  0  0  0  0  0  0
  -10.7035  -12.1398    6.5793 C   0  0  0  0  0  0  0  0  0  0  0  0
   -8.4106  -11.0949    6.6269 C   0  0  0  0  0  0  0  0  0  0  0  0
   -7.5844  -10.0488    6.8296 N   0  0  0  0  0  0  0  0  0  0  0  0
   -8.0579   -8.8451    7.2133 C   0  0  0  0  0  0  0  0  0  0  0  0
   -9.4197   -8.6925    7.3995 C   0  0  0  0  0  0  0  0  0  0  0  0
   -9.8823   -7.4422    7.7950 C   0  0  0  0  0  0  0  0  0  0  0  0
   -9.0310   -6.3815    7.9992 C   0  0  0  0  0  0  0  0  0  0  0  0
   -7.6756   -6.5481    7.8099 C   0  0  0  0  0  0  0  0  0  0  0  0
   -7.1822   -7.7969    7.4116 C   0  0  0  0  0  0  0  0  0  0  0  0
   -6.8138   -5.4789    8.0154 O   0  0  0  0  0  0  0  0  0  0  0  0
   -5.4340   -5.6847    7.8375 C   0  0  0  0  0  0  0  0  0  0  0  0
   -9.5147   -5.1466    8.3928 O   0  0  0  0  0  0  0  0  0  0  0  0
  -10.5037   -5.0121    9.3962 C   0  0  0  0  0  0  0  0  0  0  0  0
  -11.2842   -6.2953    9.5797 C   0  0  0  0  0  0  0  0  0  0  0  0
  -12.6360   -6.1091    9.3087 O   0  0  0  0  0  0  0  0  0  0  0  0
  -13.2796   -5.5396   10.3975 C   0  0  0  0  0  0  0  0  0  0  0  0
  -14.6591   -8.7061    5.4436 N   0  0  0  0  0  0  0  0  0  0  0  0
  -14.8713   -9.5258    4.7736 H   0  0  0  0  0  0  0  0  0  0  0  0
  -15.1942   -7.4439    5.1332 C   0  0  0  0  0  0  0  0  0  0  0  0
  -16.5924   -7.2640    5.2675 C   0  0  0  0  0  0  0  0  0  0  0  0
  -17.2026   -6.0696    5.0141 C   0  0  0  0  0  0  0  0  0  0  0  0
  -16.4136   -5.0162    4.6152 C   0  0  0  0  0  0  0  0  0  0  0  0
  -15.0582   -5.1090    4.4626 C   0  0  0  0  0  0  0  0  0  0  0  0
  -14.4656   -6.3534    4.7329 C   0  0  0  0  0  0  0  0  0  0  0  0
  -18.5983   -5.9150    5.1551 O   0  0  0  0  0  0  0  0  0  0  0  0
  -19.3464   -5.2877    4.1088 C   0  0  0  0  0  0  0  0  0  0  0  0
  -14.2602   -4.0581    4.0633 O   0  0  0  0  0  0  0  0  0  0  0  0
  -12.9893   -4.3174    3.5154 C   0  0  0  0  0  0  0  0  0  0  0  0
  1  2  2  0  0  0
  2  3  1  0  0  0
  3  4  2  0  0  0
  4 25  1  0  0  0
 25 27  1  0  0  0
 27 28  2  0  0  0
 28 29  1  0  0  0
 29 33  1  0  0  0
 33 34  1  0  0  0
 29 30  2  0  0  0
 30 31  1  0  0  0
 31 35  1  0  0  0
 35 36  1  0  0  0
 31 32  2  0  0  0
  4  5  1  0  0  0
  5  6  2  0  0  0
  6  7  1  0  0  0
  7  8  2  0  0  0
  8  9  1  0  0  0
  8 10  1  0  0  0
 10 11  2  0  0  0
 11 12  1  0  0  0
 12 13  2  0  0  0
 13 14  1  0  0  0
 14 15  2  0  0  0
 15 20  1  0  0  0
 20 21  1  0  0  0
 21 22  1  0  0  0
 22 23  1  0  0  0
 23 24  1  0  0  0
 15 16  1  0  0  0
 16 18  1  0  0  0
 18 19  1  0  0  0
 16 17  2  0  0  0
  6  1  1  0  0  0
 13  7  1  0  0  0
 32 27  1  0  0  0
 17 12  1  0  0  0
 25 26  1  0  0  0
M  END
> <minimizedAffinity>
2.66086

> <CNNscore>
0.2855795026

> <CNNaffinity>
7.0983886719

> <CNN_VS>
2.0271542072

> <CNNaffinity_variance>
0.3255341351

$$$$
[H]c1nc(-c2c(C([H])([H])[H])c([H])nc3c([H])c(OC([H])([H])[H])c(OC([H])([H])C([H])([H])OC([H])([H])[H])c([H])c23)nc(N([H])c2c([H])c(OC([H])([H])[H])c([H])c(OC([H])([H])[H])c2[H])n1


 36 39  0  0  0  0  0  0  0  0999 V2000
  -12.4693   -9.1561    9.2250 N   0  0  0  0  0  0  0  0  0  0  0  0
  -13.3429  -10.1830    9.0668 C   0  0  0  0  0  0  0  0  0  0  0  0
  -14.5443   -9.9301    8.5386 N   0  0  0  0  0  0  0  0  0  0  0  0
  -14.9724   -8.7307    8.1436 C   0  0  0  0  0  0  0  0  0  0  0  0
  -14.0536   -7.7229    8.3237 N   0  0  0  0  0  0  0  0  0  0  0  0
  -12.8420   -7.9211    8.8457 C   0  0  0  0  0  0  0  0  0  0  0  0
  -11.8905   -6.8192    9.0212 C   0  0  0  0  0  0  0  0  0  0  0  0
  -12.1961   -5.7232    9.8008 C   0  0  0  0  0  0  0  0  0  0  0  0
  -13.5003   -5.6135   10.4942 C   0  0  0  0  0  0  0  0  0  0  0  0
  -11.2132   -4.7435    9.8907 C   0  0  0  0  0  0  0  0  0  0  0  0
  -10.0288   -4.8526    9.2557 N   0  0  0  0  0  0  0  0  0  0  0  0
   -9.7373   -5.9279    8.4948 C   0  0  0  0  0  0  0  0  0  0  0  0
  -10.6795   -6.9325    8.3707 C   0  0  0  0  0  0  0  0  0  0  0  0
  -10.3548   -8.0299    7.5810 C   0  0  0  0  0  0  0  0  0  0  0  0
   -9.1437   -8.1314    6.9372 C   0  0  0  0  0  0  0  0  0  0  0  0
   -8.2138   -7.1223    7.0698 C   0  0  0  0  0  0  0  0  0  0  0  0
   -8.5145   -6.0052    7.8593 C   0  0  0  0  0  0  0  0  0  0  0  0
   -6.9902   -7.2222    6.4210 O   0  0  0  0  0  0  0  0  0  0  0  0
   -6.8405   -6.5979    5.1697 C   0  0  0  0  0  0  0  0  0  0  0  0
   -8.8431   -9.2333    6.1565 O   0  0  0  0  0  0  0  0  0  0  0  0
   -8.7486  -10.5364    6.7007 C   0  0  0  0  0  0  0  0  0  0  0  0
   -7.5764  -10.6562    7.6500 C   0  0  0  0  0  0  0  0  0  0  0  0
   -7.8967  -10.1709    8.9139 O   0  0  0  0  0  0  0  0  0  0  0  0
   -7.0996   -9.0825    9.2367 C   0  0  0  0  0  0  0  0  0  0  0  0
  -16.2285   -8.4376    7.5859 N   0  0  0  0  0  0  0  0  0  0  0  0
  -17.0874   -8.7124    8.1796 H   0  0  0  0  0  0  0  0  0  0  0  0
  -16.4547   -7.8249    6.3412 C   0  0  0  0  0  0  0  0  0  0  0  0
  -17.2004   -6.6213    6.3190 C   0  0  0  0  0  0  0  0  0  0  0  0
  -17.4514   -5.9390    5.1637 C   0  0  0  0  0  0  0  0  0  0  0  0
  -16.9537   -6.4559    3.9906 C   0  0  0  0  0  0  0  0  0  0  0  0
  -16.2251   -7.6110    3.9284 C   0  0  0  0  0  0  0  0  0  0  0  0
  -15.9866   -8.2851    5.1372 C   0  0  0  0  0  0  0  0  0  0  0  0
  -18.1975   -4.7411    5.1673 O   0  0  0  0  0  0  0  0  0  0  0  0
  -19.2051   -4.5362    4.1721 C   0  0  0  0  0  0  0  0  0  0  0  0
  -15.7227   -8.1357    2.7567 O   0  0  0  0  0  0  0  0  0  0  0  0
  -14.5163   -8.8615    2.7793 C   0  0  0  0  0  0  0  0  0  0  0  0
  1  2  2  0  0  0
  2  3  1  0  0  0
  3  4  2  0  0  0
  4 25  1  0  0  0
 25 27  1  0  0  0
 27 28  2  0  0  0
 28 29  1  0  0  0
 29 33  1  0  0  0
 33 34  1  0  0  0
 29 30  2  0  0  0
 30 31  1  0  0  0
 31 35  1  0  0  0
 35 36  1  0  0  0
 31 32  2  0  0  0
  4  5  1  0  0  0
  5  6  2  0  0  0
  6  7  1  0  0  0
  7  8  2  0  0  0
  8  9  1  0  0  0
  8 10  1  0  0  0
 10 11  2  0  0  0
 11 12  1  0  0  0
 12 13  2  0  0  0
 13 14  1  0  0  0
 14 15  2  0  0  0
 15 20  1  0  0  0
 20 21  1  0  0  0
 21 22  1  0  0  0
 22 23  1  0  0  0
 23 24  1  0  0  0
 15 16  1  0  0  0
 16 18  1  0  0  0
 18 19  1  0  0  0
 16 17  2  0  0  0
  6  1  1  0  0  0
 13  7  1  0  0  0
 32 27  1  0  0  0
 17 12  1  0  0  0
 25 26  1  0  0  0
M  END
> <minimizedAffinity>
-1.16770

> <CNNscore>
0.2649588287

> <CNNaffinity>
7.2705001831

> <CNN_VS>
1.9263832569

> <CNNaffinity_variance>
0.0828241706

$$$$
[H]c1nc(-c2c(C([H])([H])[H])c([H])nc3c([H])c(OC([H])([H])[H])c(OC([H])([H])C([H])([H])OC([H])([H])[H])c([H])c23)nc(N([H])c2c([H])c(OC([H])([H])[H])c([H])c(OC([H])([H])[H])c2[H])n1


 36 39  0  0  0  0  0  0  0  0999 V2000
  -11.9820   -9.4999    8.6171 N   0  0  0  0  0  0  0  0  0  0  0  0
  -13.3089   -9.3059    8.8279 C   0  0  0  0  0  0  0  0  0  0  0  0
  -14.1162   -9.1767    7.7706 N   0  0  0  0  0  0  0  0  0  0  0  0
  -13.7260   -9.2224    6.4963 C   0  0  0  0  0  0  0  0  0  0  0  0
  -12.3745   -9.4204    6.3332 N   0  0  0  0  0  0  0  0  0  0  0  0
  -11.5256   -9.5554    7.3535 C   0  0  0  0  0  0  0  0  0  0  0  0
  -10.0906   -9.7653    7.1373 C   0  0  0  0  0  0  0  0  0  0  0  0
   -9.5925  -10.9964    6.7648 C   0  0  0  0  0  0  0  0  0  0  0  0
  -10.4880  -12.1595    6.5675 C   0  0  0  0  0  0  0  0  0  0  0  0
   -8.2149  -11.0712    6.5897 C   0  0  0  0  0  0  0  0  0  0  0  0
   -7.4080  -10.0064    6.7717 N   0  0  0  0  0  0  0  0  0  0  0  0
   -7.9028   -8.8054    7.1361 C   0  0  0  0  0  0  0  0  0  0  0  0
   -9.2666   -8.6751    7.3240 C   0  0  0  0  0  0  0  0  0  0  0  0
   -9.7515   -7.4271    7.6994 C   0  0  0  0  0  0  0  0  0  0  0  0
   -8.9196   -6.3472    7.8825 C   0  0  0  0  0  0  0  0  0  0  0  0
   -7.5620   -6.4917    7.6918 C   0  0  0  0  0  0  0  0  0  0  0  0
   -7.0463   -7.7377    7.3135 C   0  0  0  0  0  0  0  0  0  0  0  0
   -6.7198   -5.4031    7.8760 O   0  0  0  0  0  0  0  0  0  0  0  0
   -5.3319   -5.6014    7.7648 C   0  0  0  0  0  0  0  0  0  0  0  0
   -9.4254   -5.1149    8.2563 O   0  0  0  0  0  0  0  0  0  0  0  0
  -10.3722   -4.9763    9.2991 C   0  0  0  0  0  0  0  0  0  0  0  0
  -11.1630   -6.2503    9.5018 C   0  0  0  0  0  0  0  0  0  0  0  0
  -12.5207   -6.0444    9.2789 O   0  0  0  0  0  0  0  0  0  0  0  0
  -13.1272   -5.5139   10.4080 C   0  0  0  0  0  0  0  0  0  0  0  0
  -14.5526   -9.0898    5.3677 N   0  0  0  0  0  0  0  0  0  0  0  0
  -14.6833   -9.9780    4.7679 H   0  0  0  0  0  0  0  0  0  0  0  0
  -15.2133   -7.9168    4.9635 C   0  0  0  0  0  0  0  0  0  0  0  0
  -14.4537   -6.7254    4.8694 C   0  0  0  0  0  0  0  0  0  0  0  0
  -14.9990   -5.5421    4.4624 C   0  0  0  0  0  0  0  0  0  0  0  0
  -16.3351   -5.5278    4.1369 C   0  0  0  0  0  0  0  0  0  0  0  0
  -17.1353   -6.6344    4.2011 C   0  0  0  0  0  0  0  0  0  0  0  0
  -16.5392   -7.8339    4.6236 C   0  0  0  0  0  0  0  0  0  0  0  0
  -14.2211   -4.3677    4.3767 O   0  0  0  0  0  0  0  0  0  0  0  0
  -14.8667   -3.1104    4.1525 C   0  0  0  0  0  0  0  0  0  0  0  0
  -18.4752   -6.6286    3.8766 O   0  0  0  0  0  0  0  0  0  0  0  0
  -19.2541   -5.4887    4.1534 C   0  0  0  0  0  0  0  0  0  0  0  0
  1  2  2  0  0  0
  2  3  1  0  0  0
  3  4  2  0  0  0
  4 25  1  0  0  0
 25 27  1  0  0  0
 27 28  2  0  0  0
 28 29  1  0  0  0
 29 33  1  0  0  0
 33 34  1  0  0  0
 29 30  2  0  0  0
 30 31  1  0  0  0
 31 35  1  0  0  0
 35 36  1  0  0  0
 31 32  2  0  0  0
  4  5  1  0  0  0
  5  6  2  0  0  0
  6  7  1  0  0  0
  7  8  2  0  0  0
  8  9  1  0  0  0
  8 10  1  0  0  0
 10 11  2  0  0  0
 11 12  1  0  0  0
 12 13  2  0  0  0
 13 14  1  0  0  0
 14 15  2  0  0  0
 15 20  1  0  0  0
 20 21  1  0  0  0
 21 22  1  0  0  0
 22 23  1  0  0  0
 23 24  1  0  0  0
 15 16  1  0  0  0
 16 18  1  0  0  0
 18 19  1  0  0  0
 16 17  2  0  0  0
  6  1  1  0  0  0
 13  7  1  0  0  0
 32 27  1  0  0  0
 17 12  1  0  0  0
 25 26  1  0  0  0
M  END
> <minimizedAffinity>
0.72133

> <CNNscore>
0.2628521323

> <CNNaffinity>
7.1403946877

> <CNN_VS>
1.8768680096

> <CNNaffinity_variance>
0.2160047591

$$$$
[H]c1nc(-c2c(C([H])([H])[H])c([H])nc3c([H])c(OC([H])([H])[H])c(OC([H])([H])C([H])([H])OC([H])([H])[H])c([H])c23)nc(N([H])c2c([H])c(OC([H])([H])[H])c([H])c(OC([H])([H])[H])c2[H])n1


 36 39  0  0  0  0  0  0  0  0999 V2000
  -13.6480   -6.5915    9.0859 N   0  0  0  0  0  0  0  0  0  0  0  0
  -13.0217   -5.7757    9.9719 C   0  0  0  0  0  0  0  0  0  0  0  0
  -11.7003   -5.6052    9.8665 N   0  0  0  0  0  0  0  0  0  0  0  0
  -10.9229   -6.1782    8.9471 C   0  0  0  0  0  0  0  0  0  0  0  0
  -11.6017   -6.9950    8.0728 N   0  0  0  0  0  0  0  0  0  0  0  0
  -12.9186   -7.1995    8.1338 C   0  0  0  0  0  0  0  0  0  0  0  0
  -13.6053   -8.0786    7.1820 C   0  0  0  0  0  0  0  0  0  0  0  0
  -13.4540   -9.4486    7.2311 C   0  0  0  0  0  0  0  0  0  0  0  0
  -12.5899  -10.0899    8.2488 C   0  0  0  0  0  0  0  0  0  0  0  0
  -14.1559  -10.1760    6.2760 C   0  0  0  0  0  0  0  0  0  0  0  0
  -14.9401   -9.5829    5.3534 N   0  0  0  0  0  0  0  0  0  0  0  0
  -15.0831   -8.2419    5.3119 C   0  0  0  0  0  0  0  0  0  0  0  0
  -14.4071   -7.4700    6.2390 C   0  0  0  0  0  0  0  0  0  0  0  0
  -14.5711   -6.0907    6.1749 C   0  0  0  0  0  0  0  0  0  0  0  0
  -15.3735   -5.4956    5.2297 C   0  0  0  0  0  0  0  0  0  0  0  0
  -16.0415   -6.2775    4.3116 C   0  0  0  0  0  0  0  0  0  0  0  0
  -15.8944   -7.6697    4.3531 C   0  0  0  0  0  0  0  0  0  0  0  0
  -16.8523   -5.6793    3.3561 O   0  0  0  0  0  0  0  0  0  0  0  0
  -18.2063   -5.4598    3.6665 C   0  0  0  0  0  0  0  0  0  0  0  0
  -15.5212   -4.1207    5.1856 O   0  0  0  0  0  0  0  0  0  0  0  0
  -14.4962   -3.2699    4.7074 C   0  0  0  0  0  0  0  0  0  0  0  0
  -14.8266   -1.8137    4.9519 C   0  0  0  0  0  0  0  0  0  0  0  0
  -13.8014   -1.1700    5.6377 O   0  0  0  0  0  0  0  0  0  0  0  0
  -14.2907   -0.5446    6.7750 C   0  0  0  0  0  0  0  0  0  0  0  0
   -9.5334   -6.0161    8.8140 N   0  0  0  0  0  0  0  0  0  0  0  0
   -9.1147   -5.1251    9.2571 H   0  0  0  0  0  0  0  0  0  0  0  0
   -8.6588   -6.9044    8.1645 C   0  0  0  0  0  0  0  0  0  0  0  0
   -9.0267   -8.2703    8.0996 C   0  0  0  0  0  0  0  0  0  0  0  0
   -8.2567   -9.2047    7.4693 C   0  0  0  0  0  0  0  0  0  0  0  0
   -7.0859   -8.7841    6.8832 C   0  0  0  0  0  0  0  0  0  0  0  0
   -6.6615   -7.4846    6.9018 C   0  0  0  0  0  0  0  0  0  0  0  0
   -7.4801   -6.5515    7.5591 C   0  0  0  0  0  0  0  0  0  0  0  0
   -8.6448  -10.5606    7.4181 O   0  0  0  0  0  0  0  0  0  0  0  0
   -9.6595  -10.9680    6.4948 C   0  0  0  0  0  0  0  0  0  0  0  0
   -5.4896   -7.0548    6.3168 O   0  0  0  0  0  0  0  0  0  0  0  0
   -4.2766   -7.6958    6.6339 C   0  0  0  0  0  0  0  0  0  0  0  0
  1  2  2  0  0  0
  2  3  1  0  0  0
  3  4  2  0  0  0
  4 25  1  0  0  0
 25 27  1  0  0  0
 27 28  2  0  0  0
 28 29  1  0  0  0
 29 33  1  0  0  0
 33 34  1  0  0  0
 29 30  2  0  0  0
 30 31  1  0  0  0
 31 35  1  0  0  0
 35 36  1  0  0  0
 31 32  2  0  0  0
  4  5  1  0  0  0
  5  6  2  0  0  0
  6  7  1  0  0  0
  7  8  2  0  0  0
  8  9  1  0  0  0
  8 10  1  0  0  0
 10 11  2  0  0  0
 11 12  1  0  0  0
 12 13  2  0  0  0
 13 14  1  0  0  0
 14 15  2  0  0  0
 15 20  1  0  0  0
 20 21  1  0  0  0
 21 22  1  0  0  0
 22 23  1  0  0  0
 23 24  1  0  0  0
 15 16  1  0  0  0
 16 18  1  0  0  0
 18 19  1  0  0  0
 16 17  2  0  0  0
  6  1  1  0  0  0
 13  7  1  0  0  0
 32 27  1  0  0  0
 17 12  1  0  0  0
 25 26  1  0  0  0
M  END
> <minimizedAffinity>
-2.88636

> <CNNscore>
0.2310517430

> <CNNaffinity>
7.1321210861

> <CNN_VS>
1.6478890181

> <CNNaffinity_variance>
0.2177249640

$$$$
[H]c1nc(-c2c(C([H])([H])[H])c([H])nc3c([H])c(OC([H])([H])[H])c(OC([H])([H])C([H])([H])OC([H])([H])[H])c([H])c23)nc(N([H])c2c([H])c(OC([H])([H])[H])c([H])c(OC([H])([H])[H])c2[H])n1


 36 39  0  0  0  0  0  0  0  0999 V2000
  -10.9522   -6.4770    8.4164 N   0  0  0  0  0  0  0  0  0  0  0  0
  -10.1462   -5.4055    8.6282 C   0  0  0  0  0  0  0  0  0  0  0  0
   -9.0060   -5.3115    7.9372 N   0  0  0  0  0  0  0  0  0  0  0  0
   -8.5787   -6.1970    7.0365 C   0  0  0  0  0  0  0  0  0  0  0  0
   -9.4279   -7.2642    6.8565 N   0  0  0  0  0  0  0  0  0  0  0  0
  -10.5767   -7.4061    7.5199 C   0  0  0  0  0  0  0  0  0  0  0  0
  -11.4549   -8.5594    7.2990 C   0  0  0  0  0  0  0  0  0  0  0  0
  -11.0159   -9.8489    7.5155 C   0  0  0  0  0  0  0  0  0  0  0  0
   -9.6367  -10.1227    7.9808 C   0  0  0  0  0  0  0  0  0  0  0  0
  -11.9404  -10.8587    7.2715 C   0  0  0  0  0  0  0  0  0  0  0  0
  -13.1939  -10.5992    6.8481 N   0  0  0  0  0  0  0  0  0  0  0  0
  -13.6160   -9.3350    6.6385 C   0  0  0  0  0  0  0  0  0  0  0  0
  -12.7368   -8.2920    6.8658 C   0  0  0  0  0  0  0  0  0  0  0  0
  -13.1961   -6.9987    6.6424 C   0  0  0  0  0  0  0  0  0  0  0  0
  -14.4769   -6.7448    6.2103 C   0  0  0  0  0  0  0  0  0  0  0  0
  -15.3425   -7.7944    5.9877 C   0  0  0  0  0  0  0  0  0  0  0  0
  -14.9063   -9.1075    6.2047 C   0  0  0  0  0  0  0  0  0  0  0  0
  -16.6362   -7.5410    5.5515 O   0  0  0  0  0  0  0  0  0  0  0  0
  -17.2932   -8.5245    4.7905 C   0  0  0  0  0  0  0  0  0  0  0  0
  -14.9113   -5.4491    5.9948 O   0  0  0  0  0  0  0  0  0  0  0  0
  -14.7853   -4.8139    4.7364 C   0  0  0  0  0  0  0  0  0  0  0  0
  -16.1387   -4.5078    4.1328 C   0  0  0  0  0  0  0  0  0  0  0  0
  -17.1639   -4.7399    5.0442 O   0  0  0  0  0  0  0  0  0  0  0  0
  -18.3603   -4.9795    4.3844 C   0  0  0  0  0  0  0  0  0  0  0  0
   -7.3861   -6.1225    6.2970 N   0  0  0  0  0  0  0  0  0  0  0  0
   -7.4737   -5.7368    5.2924 H   0  0  0  0  0  0  0  0  0  0  0  0
   -6.1104   -6.5003    6.7505 C   0  0  0  0  0  0  0  0  0  0  0  0
   -5.5708   -5.8124    7.8644 C   0  0  0  0  0  0  0  0  0  0  0  0
   -4.3514   -6.1228    8.3936 C   0  0  0  0  0  0  0  0  0  0  0  0
   -3.6377   -7.1429    7.8094 C   0  0  0  0  0  0  0  0  0  0  0  0
   -4.0891   -7.8546    6.7330 C   0  0  0  0  0  0  0  0  0  0  0  0
   -5.3480   -7.5072    6.2162 C   0  0  0  0  0  0  0  0  0  0  0  0
   -3.8348   -5.4224    9.5045 O   0  0  0  0  0  0  0  0  0  0  0  0
   -3.3701   -4.0794    9.3360 C   0  0  0  0  0  0  0  0  0  0  0  0
   -3.3801   -8.8784    6.1417 O   0  0  0  0  0  0  0  0  0  0  0  0
   -2.0040   -9.0163    6.4062 C   0  0  0  0  0  0  0  0  0  0  0  0
  1  2  2  0  0  0
  2  3  1  0  0  0
  3  4  2  0  0  0
  4 25  1  0  0  0
 25 27  1  0  0  0
 27 28  2  0  0  0
 28 29  1  0  0  0
 29 33  1  0  0  0
 33 34  1  0  0  0
 29 30  2  0  0  0
 30 31  1  0  0  0
 31 35  1  0  0  0
 35 36  1  0  0  0
 31 32  2  0  0  0
  4  5  1  0  0  0
  5  6  2  0  0  0
  6  7  1  0  0  0
  7  8  2  0  0  0
  8  9  1  0  0  0
  8 10  1  0  0  0
 10 11  2  0  0  0
 11 12  1  0  0  0
 12 13  2  0  0  0
 13 14  1  0  0  0
 14 15  2  0  0  0
 15 20  1  0  0  0
 20 21  1  0  0  0
 21 22  1  0  0  0
 22 23  1  0  0  0
 23 24  1  0  0  0
 15 16  1  0  0  0
 16 18  1  0  0  0
 18 19  1  0  0  0
 16 17  2  0  0  0
  6  1  1  0  0  0
 13  7  1  0  0  0
 32 27  1  0  0  0
 17 12  1  0  0  0
 25 26  1  0  0  0
M  END
> <minimizedAffinity>
-2.81881

> <CNNscore>
0.2234456241

> <CNNaffinity>
7.0699934959

> <CNN_VS>
1.5797591209

> <CNNaffinity_variance>
0.3287593126

$$$$
[H]c1nc(-c2c(C([H])([H])[H])c([H])nc3c([H])c(OC([H])([H])[H])c(OC([H])([H])C([H])([H])OC([H])([H])[H])c([H])c23)nc(N([H])c2c([H])c(OC([H])([H])[H])c([H])c(OC([H])([H])[H])c2[H])n1


 36 39  0  0  0  0  0  0  0  0999 V2000
   -4.7299   -7.8103    7.4697 N   0  0  0  0  0  0  0  0  0  0  0  0
   -5.7693   -8.6649    7.2914 C   0  0  0  0  0  0  0  0  0  0  0  0
   -7.0107   -8.1707    7.2613 N   0  0  0  0  0  0  0  0  0  0  0  0
   -7.3278   -6.8823    7.3939 C   0  0  0  0  0  0  0  0  0  0  0  0
   -6.2427   -6.0559    7.5722 N   0  0  0  0  0  0  0  0  0  0  0  0
   -4.9842   -6.4973    7.6098 C   0  0  0  0  0  0  0  0  0  0  0  0
   -3.8540   -5.5831    7.8019 C   0  0  0  0  0  0  0  0  0  0  0  0
   -2.9782   -5.2975    6.7754 C   0  0  0  0  0  0  0  0  0  0  0  0
   -3.1432   -5.9036    5.4340 C   0  0  0  0  0  0  0  0  0  0  0  0
   -1.9462   -4.4163    7.0793 C   0  0  0  0  0  0  0  0  0  0  0  0
   -1.8045   -3.8696    8.3036 N   0  0  0  0  0  0  0  0  0  0  0  0
   -2.6653   -4.1540    9.3028 C   0  0  0  0  0  0  0  0  0  0  0  0
   -3.7105   -5.0249    9.0550 C   0  0  0  0  0  0  0  0  0  0  0  0
   -4.5837   -5.3016   10.1012 C   0  0  0  0  0  0  0  0  0  0  0  0
   -4.4302   -4.7386   11.3466 C   0  0  0  0  0  0  0  0  0  0  0  0
   -3.3835   -3.8721   11.5794 C   0  0  0  0  0  0  0  0  0  0  0  0
   -2.4888   -3.5756   10.5434 C   0  0  0  0  0  0  0  0  0  0  0  0
   -3.2261   -3.3022   12.8358 O   0  0  0  0  0  0  0  0  0  0  0  0
   -2.4115   -2.1624   12.9590 C   0  0  0  0  0  0  0  0  0  0  0  0
   -5.3120   -5.0291   12.3723 O   0  0  0  0  0  0  0  0  0  0  0  0
   -5.3689   -6.3087   12.9743 C   0  0  0  0  0  0  0  0  0  0  0  0
   -4.4964   -6.3793   14.2085 C   0  0  0  0  0  0  0  0  0  0  0  0
   -4.0299   -7.6718   14.4257 O   0  0  0  0  0  0  0  0  0  0  0  0
   -2.6438   -7.6896   14.4780 C   0  0  0  0  0  0  0  0  0  0  0  0
   -8.6225   -6.3368    7.3660 N   0  0  0  0  0  0  0  0  0  0  0  0
   -8.7274   -5.3883    6.8610 H   0  0  0  0  0  0  0  0  0  0  0  0
   -9.7727   -6.9155    7.9300 C   0  0  0  0  0  0  0  0  0  0  0  0
  -10.3611   -6.2719    9.0458 C   0  0  0  0  0  0  0  0  0  0  0  0
  -11.4926   -6.7423    9.6472 C   0  0  0  0  0  0  0  0  0  0  0  0
  -12.0658   -7.8831    9.1360 C   0  0  0  0  0  0  0  0  0  0  0  0
  -11.5596   -8.5616    8.0626 C   0  0  0  0  0  0  0  0  0  0  0  0
  -10.3947   -8.0475    7.4697 C   0  0  0  0  0  0  0  0  0  0  0  0
  -12.0602   -6.0830   10.7584 O   0  0  0  0  0  0  0  0  0  0  0  0
  -13.1971   -5.2347   10.5685 C   0  0  0  0  0  0  0  0  0  0  0  0
  -12.1279   -9.7056    7.5441 O   0  0  0  0  0  0  0  0  0  0  0  0
  -13.4051  -10.1079    7.9795 C   0  0  0  0  0  0  0  0  0  0  0  0
  1  2  2  0  0  0
  2  3  1  0  0  0
  3  4  2  0  0  0
  4 25  1  0  0  0
 25 27  1  0  0  0
 27 28  2  0  0  0
 28 29  1  0  0  0
 29 33  1  0  0  0
 33 34  1  0  0  0
 29 30  2  0  0  0
 30 31  1  0  0  0
 31 35  1  0  0  0
 35 36  1  0  0  0
 31 32  2  0  0  0
  4  5  1  0  0  0
  5  6  2  0  0  0
  6  7  1  0  0  0
  7  8  2  0  0  0
  8  9  1  0  0  0
  8 10  1  0  0  0
 10 11  2  0  0  0
 11 12  1  0  0  0
 12 13  2  0  0  0
 13 14  1  0  0  0
 14 15  2  0  0  0
 15 20  1  0  0  0
 20 21  1  0  0  0
 21 22  1  0  0  0
 22 23  1  0  0  0
 23 24  1  0  0  0
 15 16  1  0  0  0
 16 18  1  0  0  0
 18 19  1  0  0  0
 16 17  2  0  0  0
  6  1  1  0  0  0
 13  7  1  0  0  0
 32 27  1  0  0  0
 17 12  1  0  0  0
 25 26  1  0  0  0
M  END
> <minimizedAffinity>
-6.46963

> <CNNscore>
0.2091363817

> <CNNaffinity>
6.1583909988

> <CNN_VS>
1.2879436016

> <CNNaffinity_variance>
0.1996451169

$$$$
[H]c1nc(-c2c(C([H])([H])[H])c([H])nc3c([H])c(OC([H])([H])[H])c(OC([H])([H])C([H])([H])OC([H])([H])[H])c([H])c23)nc(N([H])c2c([H])c(OC([H])([H])[H])c([H])c(OC([H])([H])[H])c2[H])n1


 36 39  0  0  0  0  0  0  0  0999 V2000
  -11.8341   -6.2824    8.8709 N   0  0  0  0  0  0  0  0  0  0  0  0
  -10.7318   -5.5031    9.0135 C   0  0  0  0  0  0  0  0  0  0  0  0
   -9.6086   -5.8554    8.3807 N   0  0  0  0  0  0  0  0  0  0  0  0
   -9.4698   -6.9296    7.6031 C   0  0  0  0  0  0  0  0  0  0  0  0
  -10.6122   -7.6876    7.4892 N   0  0  0  0  0  0  0  0  0  0  0  0
  -11.7584   -7.3809    8.0990 C   0  0  0  0  0  0  0  0  0  0  0  0
  -12.9551   -8.2155    7.9520 C   0  0  0  0  0  0  0  0  0  0  0  0
  -13.2247   -9.2459    8.8283 C   0  0  0  0  0  0  0  0  0  0  0  0
  -12.3151   -9.5527    9.9562 C   0  0  0  0  0  0  0  0  0  0  0  0
  -14.3894   -9.9660    8.5858 C   0  0  0  0  0  0  0  0  0  0  0  0
  -15.2112   -9.6788    7.5562 N   0  0  0  0  0  0  0  0  0  0  0  0
  -14.9406   -8.6692    6.7031 C   0  0  0  0  0  0  0  0  0  0  0  0
  -13.7946   -7.9203    6.8982 C   0  0  0  0  0  0  0  0  0  0  0  0
  -13.5384   -6.8856    6.0053 C   0  0  0  0  0  0  0  0  0  0  0  0
  -14.3833   -6.6010    4.9581 C   0  0  0  0  0  0  0  0  0  0  0  0
  -15.5222   -7.3559    4.7757 C   0  0  0  0  0  0  0  0  0  0  0  0
  -15.8050   -8.4044    5.6602 C   0  0  0  0  0  0  0  0  0  0  0  0
  -16.3771   -7.0708    3.7192 O   0  0  0  0  0  0  0  0  0  0  0  0
  -17.5614   -7.8187    3.5929 C   0  0  0  0  0  0  0  0  0  0  0  0
  -14.1073   -5.5661    4.0823 O   0  0  0  0  0  0  0  0  0  0  0  0
  -14.6319   -4.2648    4.2678 C   0  0  0  0  0  0  0  0  0  0  0  0
  -16.1171   -4.2206    3.9817 C   0  0  0  0  0  0  0  0  0  0  0  0
  -16.8618   -4.3368    5.1510 O   0  0  0  0  0  0  0  0  0  0  0  0
  -18.1722   -4.6894    4.8637 C   0  0  0  0  0  0  0  0  0  0  0  0
   -8.3022   -7.3225    6.9271 N   0  0  0  0  0  0  0  0  0  0  0  0
   -8.4191   -8.1057    6.1932 H   0  0  0  0  0  0  0  0  0  0  0  0
   -7.0172   -6.7875    7.1230 C   0  0  0  0  0  0  0  0  0  0  0  0
   -6.2903   -6.3702    5.9816 C   0  0  0  0  0  0  0  0  0  0  0  0
   -5.0461   -5.8158    6.0708 C   0  0  0  0  0  0  0  0  0  0  0  0
   -4.4970   -5.6661    7.3227 C   0  0  0  0  0  0  0  0  0  0  0  0
   -5.1341   -6.0430    8.4720 C   0  0  0  0  0  0  0  0  0  0  0  0
   -6.4127   -6.6091    8.3409 C   0  0  0  0  0  0  0  0  0  0  0  0
   -4.3413   -5.4077    4.9183 O   0  0  0  0  0  0  0  0  0  0  0  0
   -3.2226   -4.5253    5.0527 C   0  0  0  0  0  0  0  0  0  0  0  0
   -4.5908   -5.8963    9.7305 O   0  0  0  0  0  0  0  0  0  0  0  0
   -3.3254   -5.2965    9.8775 C   0  0  0  0  0  0  0  0  0  0  0  0
  1  2  2  0  0  0
  2  3  1  0  0  0
  3  4  2  0  0  0
  4 25  1  0  0  0
 25 27  1  0  0  0
 27 28  2  0  0  0
 28 29  1  0  0  0
 29 33  1  0  0  0
 33 34  1  0  0  0
 29 30  2  0  0  0
 30 31  1  0  0  0
 31 35  1  0  0  0
 35 36  1  0  0  0
 31 32  2  0  0  0
  4  5  1  0  0  0
  5  6  2  0  0  0
  6  7  1  0  0  0
  7  8  2  0  0  0
  8  9  1  0  0  0
  8 10  1  0  0  0
 10 11  2  0  0  0
 11 12  1  0  0  0
 12 13  2  0  0  0
 13 14  1  0  0  0
 14 15  2  0  0  0
 15 20  1  0  0  0
 20 21  1  0  0  0
 21 22  1  0  0  0
 22 23  1  0  0  0
 23 24  1  0  0  0
 15 16  1  0  0  0
 16 18  1  0  0  0
 18 19  1  0  0  0
 16 17  2  0  0  0
  6  1  1  0  0  0
 13  7  1  0  0  0
 32 27  1  0  0  0
 17 12  1  0  0  0
 25 26  1  0  0  0
M  END
> <minimizedAffinity>
-3.10435

> <CNNscore>
0.2076952755

> <CNNaffinity>
6.9201645851

> <CNN_VS>
1.4372855425

> <CNNaffinity_variance>
0.1428291500

$$$$
[H]c1nc(N([H])c2c([H])c([H])c(N3C([H])([H])C([H])([H])C([H])(C(=O)N([H])C([H])([H])c4onc(C([H])([H])[H])c4[H])C([H])([H])C3([H])[H])c([H])c2[H])nc(C([H])([H])N([H])C([H])([H])[H])c1F


 36 39  0  0  0  0  0  0  0  0999 V2000
   -6.9645   -7.8822    7.2247 C   0  0  0  0  0  0  0  0  0  0  0  0
   -7.8597   -6.8685    7.1873 C   0  0  0  0  0  0  0  0  0  0  0  0
   -9.2316   -7.1257    7.3777 C   0  0  0  0  0  0  0  0  0  0  0  0
   -9.6983   -8.3964    7.6054 C   0  0  0  0  0  0  0  0  0  0  0  0
   -8.7847   -9.4189    7.6432 C   0  0  0  0  0  0  0  0  0  0  0  0
   -7.4391   -9.1813    7.4579 C   0  0  0  0  0  0  0  0  0  0  0  0
  -11.1349   -8.6259    7.8011 N   0  0  0  0  0  0  0  0  0  0  0  0
  -11.6791   -9.8933    7.4338 C   0  0  0  0  0  0  0  0  0  0  0  0
  -13.1146  -10.0671    7.7224 C   0  0  0  0  0  0  0  0  0  0  0  0
  -13.8947   -8.7968    7.8197 C   0  0  0  0  0  0  0  0  0  0  0  0
  -13.2464   -7.7842    8.7005 C   0  0  0  0  0  0  0  0  0  0  0  0
  -11.8323   -7.5082    8.3534 C   0  0  0  0  0  0  0  0  0  0  0  0
  -14.1229   -8.2344    6.4559 C   0  0  0  0  0  0  0  0  0  0  0  0
  -13.8314   -7.0141    6.2434 O   0  0  0  0  0  0  0  0  0  0  0  0
  -14.6520   -9.0448    5.4271 N   0  0  0  0  0  0  0  0  0  0  0  0
  -14.8766  -10.0341    5.6327 H   0  0  0  0  0  0  0  0  0  0  0  0
  -14.8764   -8.5073    4.1136 C   0  0  0  0  0  0  0  0  0  0  0  0
  -16.2352   -7.9054    4.0798 C   0  0  0  0  0  0  0  0  0  0  0  0
  -16.4748   -6.5338    4.2352 C   0  0  0  0  0  0  0  0  0  0  0  0
  -17.8343   -6.3324    4.1510 C   0  0  0  0  0  0  0  0  0  0  0  0
  -18.5485   -5.0348    4.2585 C   0  0  0  0  0  0  0  0  0  0  0  0
  -18.3626   -7.5598    3.9518 N   0  0  0  0  0  0  0  0  0  0  0  0
  -17.4094   -8.4447    3.9161 O   0  0  0  0  0  0  0  0  0  0  0  0
   -5.5932   -7.7272    7.0148 N   0  0  0  0  0  0  0  0  0  0  0  0
   -5.0458   -8.5881    6.6604 H   0  0  0  0  0  0  0  0  0  0  0  0
   -3.9043   -5.0267    8.7869 C   0  0  0  0  0  0  0  0  0  0  0  0
   -4.5841   -6.1447    8.5112 N   0  0  0  0  0  0  0  0  0  0  0  0
   -4.9058   -6.5221    7.2411 C   0  0  0  0  0  0  0  0  0  0  0  0
   -4.5197   -5.7343    6.2479 N   0  0  0  0  0  0  0  0  0  0  0  0
   -3.8345   -4.5927    6.4146 C   0  0  0  0  0  0  0  0  0  0  0  0
   -3.5257   -4.2405    7.7116 C   0  0  0  0  0  0  0  0  0  0  0  0
   -2.8343   -3.0975    7.9447 F   0  0  0  0  0  0  0  0  0  0  0  0
   -3.5922   -4.6831   10.1949 C   0  0  0  0  0  0  0  0  0  0  0  0
   -4.8971   -4.9808   12.1280 C   0  0  0  0  0  0  0  0  0  0  0  0
   -4.7304   -4.2064   10.9158 N   0  0  0  0  0  0  0  0  0  0  0  0
   -5.5870   -4.1460   10.3554 H   0  0  0  0  0  0  0  0  0  0  0  0
 34 35  1  0  0  0
 35 33  1  0  0  0
 33 26  1  0  0  0
 26 27  2  0  0  0
 27 28  1  0  0  0
 28 24  1  0  0  0
 24  1  1  0  0  0
  1  2  2  0  0  0
  2  3  1  0  0  0
  3  4  2  0  0  0
  4  5  1  0  0  0
  5  6  2  0  0  0
  4  7  1  0  0  0
  7  8  1  0  0  0
  8  9  1  0  0  0
  9 10  1  0  0  0
 10 11  1  0  0  0
 11 12  1  0  0  0
 10 13  1  0  0  0
 13 14  2  0  0  0
 13 15  1  0  0  0
 15 17  1  0  0  0
 17 18  1  0  0  0
 18 19  2  0  0  0
 19 20  1  0  0  0
 20 21  1  0  0  0
 20 22  2  0  0  0
 22 23  1  0  0  0
 28 29  2  0  0  0
 29 30  1  0  0  0
 30 31  2  0  0  0
 31 32  1  0  0  0
 31 26  1  0  0  0
  6  1  1  0  0  0
 12  7  1  0  0  0
 23 18  1  0  0  0
 35 36  1  0  0  0
 24 25  1  0  0  0
 15 16  1  0  0  0
M  END
> <minimizedAffinity>
-9.19930

> <CNNscore>
0.6151422858

> <CNNaffinity>
7.5839982033

> <CNN_VS>
4.6652379036

> <CNNaffinity_variance>
0.2536172271

$$$$
[H]c1nc(N([H])c2c([H])c([H])c(N3C([H])([H])C([H])([H])C([H])(C(=O)N([H])C([H])([H])c4onc(C([H])([H])[H])c4[H])C([H])([H])C3([H])[H])c([H])c2[H])nc(C([H])([H])N([H])C([H])([H])[H])c1F


 36 39  0  0  0  0  0  0  0  0999 V2000
   -8.7892  -10.6330    4.4157 C   0  0  0  0  0  0  0  0  0  0  0  0
  -10.0845  -10.6889    4.0290 C   0  0  0  0  0  0  0  0  0  0  0  0
  -11.1108  -10.3566    4.9348 C   0  0  0  0  0  0  0  0  0  0  0  0
  -10.8335   -9.9692    6.2222 C   0  0  0  0  0  0  0  0  0  0  0  0
   -9.5179   -9.9136    6.6069 C   0  0  0  0  0  0  0  0  0  0  0  0
   -8.5036  -10.2368    5.7306 C   0  0  0  0  0  0  0  0  0  0  0  0
  -11.9292   -9.6285    7.1377 N   0  0  0  0  0  0  0  0  0  0  0  0
  -13.1232   -9.0671    6.5931 C   0  0  0  0  0  0  0  0  0  0  0  0
  -14.1995   -8.8145    7.5687 C   0  0  0  0  0  0  0  0  0  0  0  0
  -13.7414   -8.6457    8.9806 C   0  0  0  0  0  0  0  0  0  0  0  0
  -12.8044   -9.7188    9.4185 C   0  0  0  0  0  0  0  0  0  0  0  0
  -11.6495   -9.9110    8.5098 C   0  0  0  0  0  0  0  0  0  0  0  0
  -13.1156   -7.3017    9.1550 C   0  0  0  0  0  0  0  0  0  0  0  0
  -13.8234   -6.2670    8.9364 O   0  0  0  0  0  0  0  0  0  0  0  0
  -11.7654   -7.1873    9.5541 N   0  0  0  0  0  0  0  0  0  0  0  0
  -11.2180   -8.0489    9.7257 H   0  0  0  0  0  0  0  0  0  0  0  0
  -11.1577   -5.8960    9.7202 C   0  0  0  0  0  0  0  0  0  0  0  0
  -12.1508   -4.9890   10.3533 C   0  0  0  0  0  0  0  0  0  0  0  0
  -13.0327   -5.3961   11.3629 C   0  0  0  0  0  0  0  0  0  0  0  0
  -13.8030   -4.3093   11.7116 C   0  0  0  0  0  0  0  0  0  0  0  0
  -14.8731   -4.2723   12.7406 C   0  0  0  0  0  0  0  0  0  0  0  0
  -13.3730   -3.3020   10.9206 N   0  0  0  0  0  0  0  0  0  0  0  0
  -12.4177   -3.7308   10.1483 O   0  0  0  0  0  0  0  0  0  0  0  0
   -7.7101  -10.9750    3.5990 N   0  0  0  0  0  0  0  0  0  0  0  0
   -6.7654  -10.4910    3.7978 H   0  0  0  0  0  0  0  0  0  0  0  0
   -7.6500  -14.1592    1.8264 C   0  0  0  0  0  0  0  0  0  0  0  0
   -7.5519  -13.2251    2.7780 N   0  0  0  0  0  0  0  0  0  0  0  0
   -7.7977  -11.9039    2.5476 C   0  0  0  0  0  0  0  0  0  0  0  0
   -8.1483  -11.5475    1.3202 N   0  0  0  0  0  0  0  0  0  0  0  0
   -8.2756  -12.4032    0.2947 C   0  0  0  0  0  0  0  0  0  0  0  0
   -8.0197  -13.7316    0.5622 C   0  0  0  0  0  0  0  0  0  0  0  0
   -8.1318  -14.6452   -0.4337 F   0  0  0  0  0  0  0  0  0  0  0  0
   -7.3663  -15.5770    2.1543 C   0  0  0  0  0  0  0  0  0  0  0  0
   -7.6215  -16.0202    4.4492 C   0  0  0  0  0  0  0  0  0  0  0  0
   -6.6725  -15.7322    3.3941 N   0  0  0  0  0  0  0  0  0  0  0  0
   -6.0405  -14.9574    3.6212 H   0  0  0  0  0  0  0  0  0  0  0  0
 34 35  1  0  0  0
 35 33  1  0  0  0
 33 26  1  0  0  0
 26 27  2  0  0  0
 27 28  1  0  0  0
 28 24  1  0  0  0
 24  1  1  0  0  0
  1  2  2  0  0  0
  2  3  1  0  0  0
  3  4  2  0  0  0
  4  5  1  0  0  0
  5  6  2  0  0  0
  4  7  1  0  0  0
  7  8  1  0  0  0
  8  9  1  0  0  0
  9 10  1  0  0  0
 10 11  1  0  0  0
 11 12  1  0  0  0
 10 13  1  0  0  0
 13 14  2  0  0  0
 13 15  1  0  0  0
 15 17  1  0  0  0
 17 18  1  0  0  0
 18 19  2  0  0  0
 19 20  1  0  0  0
 20 21  1  0  0  0
 20 22  2  0  0  0
 22 23  1  0  0  0
 28 29  2  0  0  0
 29 30  1  0  0  0
 30 31  2  0  0  0
 31 32  1  0  0  0
 31 26  1  0  0  0
  6  1  1  0  0  0
 12  7  1  0  0  0
 23 18  1  0  0  0
 35 36  1  0  0  0
 24 25  1  0  0  0
 15 16  1  0  0  0
M  END
> <minimizedAffinity>
18.85034

> <CNNscore>
0.5559328794

> <CNNaffinity>
6.5917687416

> <CNN_VS>
3.6645810604

> <CNNaffinity_variance>
0.4038170278

$$$$
[H]c1nc(N([H])c2c([H])c([H])c(N3C([H])([H])C([H])([H])C([H])(C(=O)N([H])C([H])([H])c4onc(C([H])([H])[H])c4[H])C([H])([H])C3([H])[H])c([H])c2[H])nc(C([H])([H])N([H])C([H])([H])[H])c1F


 36 39  0  0  0  0  0  0  0  0999 V2000
   -7.0063   -8.0700    7.1630 C   0  0  0  0  0  0  0  0  0  0  0  0
   -7.8599   -7.0206    7.1378 C   0  0  0  0  0  0  0  0  0  0  0  0
   -9.2372   -7.2205    7.3553 C   0  0  0  0  0  0  0  0  0  0  0  0
   -9.7511   -8.4701    7.5979 C   0  0  0  0  0  0  0  0  0  0  0  0
   -8.8796   -9.5291    7.6232 C   0  0  0  0  0  0  0  0  0  0  0  0
   -7.5292   -9.3476    7.4113 C   0  0  0  0  0  0  0  0  0  0  0  0
  -11.1919   -8.6398    7.8218 N   0  0  0  0  0  0  0  0  0  0  0  0
  -11.7914   -9.8910    7.4862 C   0  0  0  0  0  0  0  0  0  0  0  0
  -13.2273  -10.0034    7.8021 C   0  0  0  0  0  0  0  0  0  0  0  0
  -13.9555   -8.7020    7.8900 C   0  0  0  0  0  0  0  0  0  0  0  0
  -13.2530   -7.7008    8.7417 C   0  0  0  0  0  0  0  0  0  0  0  0
  -11.8355   -7.4864    8.3659 C   0  0  0  0  0  0  0  0  0  0  0  0
  -14.1856   -8.1544    6.5206 C   0  0  0  0  0  0  0  0  0  0  0  0
  -13.9203   -6.9293    6.3017 O   0  0  0  0  0  0  0  0  0  0  0  0
  -14.6879   -8.9838    5.4934 N   0  0  0  0  0  0  0  0  0  0  0  0
  -14.8916   -9.9765    5.7042 H   0  0  0  0  0  0  0  0  0  0  0  0
  -14.9140   -8.4606    4.1744 C   0  0  0  0  0  0  0  0  0  0  0  0
  -16.2782   -7.8717    4.1317 C   0  0  0  0  0  0  0  0  0  0  0  0
  -16.5293   -6.4988    4.2533 C   0  0  0  0  0  0  0  0  0  0  0  0
  -17.8909   -6.3115    4.1704 C   0  0  0  0  0  0  0  0  0  0  0  0
  -18.6160   -5.0178    4.2482 C   0  0  0  0  0  0  0  0  0  0  0  0
  -18.4092   -7.5481    4.0051 N   0  0  0  0  0  0  0  0  0  0  0  0
  -17.4483   -8.4253    3.9874 O   0  0  0  0  0  0  0  0  0  0  0  0
   -5.6341   -7.9722    6.9264 N   0  0  0  0  0  0  0  0  0  0  0  0
   -5.1221   -8.8665    6.6035 H   0  0  0  0  0  0  0  0  0  0  0  0
   -3.9290   -4.8590    6.0979 C   0  0  0  0  0  0  0  0  0  0  0  0
   -4.5942   -6.0151    6.0041 N   0  0  0  0  0  0  0  0  0  0  0  0
   -4.9026   -6.7827    7.0880 C   0  0  0  0  0  0  0  0  0  0  0  0
   -4.5184   -6.3484    8.2796 N   0  0  0  0  0  0  0  0  0  0  0  0
   -3.8474   -5.2047    8.4843 C   0  0  0  0  0  0  0  0  0  0  0  0
   -3.5516   -4.4528    7.3668 C   0  0  0  0  0  0  0  0  0  0  0  0
   -2.8751   -3.2861    7.5091 F   0  0  0  0  0  0  0  0  0  0  0  0
   -3.6302   -4.0799    4.8725 C   0  0  0  0  0  0  0  0  0  0  0  0
   -4.2204   -1.8114    4.6901 C   0  0  0  0  0  0  0  0  0  0  0  0
   -4.6784   -3.1745    4.5204 N   0  0  0  0  0  0  0  0  0  0  0  0
   -5.5701   -3.3615    4.9909 H   0  0  0  0  0  0  0  0  0  0  0  0
 34 35  1  0  0  0
 35 33  1  0  0  0
 33 26  1  0  0  0
 26 27  2  0  0  0
 27 28  1  0  0  0
 28 24  1  0  0  0
 24  1  1  0  0  0
  1  2  2  0  0  0
  2  3  1  0  0  0
  3  4  2  0  0  0
  4  5  1  0  0  0
  5  6  2  0  0  0
  4  7  1  0  0  0
  7  8  1  0  0  0
  8  9  1  0  0  0
  9 10  1  0  0  0
 10 11  1  0  0  0
 11 12  1  0  0  0
 10 13  1  0  0  0
 13 14  2  0  0  0
 13 15  1  0  0  0
 15 17  1  0  0  0
 17 18  1  0  0  0
 18 19  2  0  0  0
 19 20  1  0  0  0
 20 21  1  0  0  0
 20 22  2  0  0  0
 22 23  1  0  0  0
 28 29  2  0  0  0
 29 30  1  0  0  0
 30 31  2  0  0  0
 31 32  1  0  0  0
 31 26  1  0  0  0
  6  1  1  0  0  0
 12  7  1  0  0  0
 23 18  1  0  0  0
 35 36  1  0  0  0
 24 25  1  0  0  0
 15 16  1  0  0  0
M  END
> <minimizedAffinity>
-9.21528

> <CNNscore>
0.5491437912

> <CNNaffinity>
7.4312362671

> <CNN_VS>
4.0808172226

> <CNNaffinity_variance>
0.1167920604

$$$$
[H]c1nc(N([H])c2c([H])c([H])c(N3C([H])([H])C([H])([H])C([H])(C(=O)N([H])C([H])([H])c4onc(C([H])([H])[H])c4[H])C([H])([H])C3([H])[H])c([H])c2[H])nc(C([H])([H])N([H])C([H])([H])[H])c1F


 36 39  0  0  0  0  0  0  0  0999 V2000
  -10.2783   -9.2153    7.5720 C   0  0  0  0  0  0  0  0  0  0  0  0
  -10.0632   -7.8961    7.7819 C   0  0  0  0  0  0  0  0  0  0  0  0
   -8.7527   -7.3796    7.7684 C   0  0  0  0  0  0  0  0  0  0  0  0
   -7.6657   -8.1872    7.5435 C   0  0  0  0  0  0  0  0  0  0  0  0
   -7.8916   -9.5234    7.3303 C   0  0  0  0  0  0  0  0  0  0  0  0
   -9.1691  -10.0422    7.3415 C   0  0  0  0  0  0  0  0  0  0  0  0
   -6.3148   -7.6131    7.5349 N   0  0  0  0  0  0  0  0  0  0  0  0
   -6.0323   -6.5214    8.4099 C   0  0  0  0  0  0  0  0  0  0  0  0
   -4.6369   -6.0453    8.3889 C   0  0  0  0  0  0  0  0  0  0  0  0
   -3.8867   -6.3521    7.1339 C   0  0  0  0  0  0  0  0  0  0  0  0
   -4.0182   -7.7758    6.7131 C   0  0  0  0  0  0  0  0  0  0  0  0
   -5.4213   -8.2427    6.6151 C   0  0  0  0  0  0  0  0  0  0  0  0
   -4.3319   -5.4399    6.0394 C   0  0  0  0  0  0  0  0  0  0  0  0
   -5.2815   -5.8165    5.2807 O   0  0  0  0  0  0  0  0  0  0  0  0
   -3.7079   -4.1861    5.8546 N   0  0  0  0  0  0  0  0  0  0  0  0
   -2.9395   -3.9093    6.4906 H   0  0  0  0  0  0  0  0  0  0  0  0
   -4.1306   -3.3059    4.8006 C   0  0  0  0  0  0  0  0  0  0  0  0
   -4.3212   -1.9474    5.3732 C   0  0  0  0  0  0  0  0  0  0  0  0
   -3.5610   -1.4460    6.4378 C   0  0  0  0  0  0  0  0  0  0  0  0
   -4.0035   -0.1699    6.7060 C   0  0  0  0  0  0  0  0  0  0  0  0
   -3.4881    0.7470    7.7543 C   0  0  0  0  0  0  0  0  0  0  0  0
   -4.9945    0.0557    5.8160 N   0  0  0  0  0  0  0  0  0  0  0  0
   -5.1509   -0.9929    5.0617 O   0  0  0  0  0  0  0  0  0  0  0  0
  -11.5360   -9.8202    7.5999 N   0  0  0  0  0  0  0  0  0  0  0  0
  -11.5688  -10.8877    7.7601 H   0  0  0  0  0  0  0  0  0  0  0  0
  -14.4307   -8.3249    5.9659 C   0  0  0  0  0  0  0  0  0  0  0  0
  -13.2740   -8.9585    6.1862 N   0  0  0  0  0  0  0  0  0  0  0  0
  -12.7396   -9.1140    7.4309 C   0  0  0  0  0  0  0  0  0  0  0  0
  -13.4097   -8.6086    8.4565 N   0  0  0  0  0  0  0  0  0  0  0  0
  -14.5768   -7.9560    8.3457 C   0  0  0  0  0  0  0  0  0  0  0  0
  -15.0890   -7.8164    7.0730 C   0  0  0  0  0  0  0  0  0  0  0  0
  -16.2659   -7.1662    6.8963 F   0  0  0  0  0  0  0  0  0  0  0  0
  -14.9476   -8.1957    4.5824 C   0  0  0  0  0  0  0  0  0  0  0  0
  -17.2107   -8.3308    3.9596 C   0  0  0  0  0  0  0  0  0  0  0  0
  -16.0277   -9.0901    4.3071 N   0  0  0  0  0  0  0  0  0  0  0  0
  -16.1960   -9.7839    5.0432 H   0  0  0  0  0  0  0  0  0  0  0  0
 34 35  1  0  0  0
 35 33  1  0  0  0
 33 26  1  0  0  0
 26 27  2  0  0  0
 27 28  1  0  0  0
 28 24  1  0  0  0
 24  1  1  0  0  0
  1  2  2  0  0  0
  2  3  1  0  0  0
  3  4  2  0  0  0
  4  5  1  0  0  0
  5  6  2  0  0  0
  4  7  1  0  0  0
  7  8  1  0  0  0
  8  9  1  0  0  0
  9 10  1  0  0  0
 10 11  1  0  0  0
 11 12  1  0  0  0
 10 13  1  0  0  0
 13 14  2  0  0  0
 13 15  1  0  0  0
 15 17  1  0  0  0
 17 18  1  0  0  0
 18 19  2  0  0  0
 19 20  1  0  0  0
 20 21  1  0  0  0
 20 22  2  0  0  0
 22 23  1  0  0  0
 28 29  2  0  0  0
 29 30  1  0  0  0
 30 31  2  0  0  0
 31 32  1  0  0  0
 31 26  1  0  0  0
  6  1  1  0  0  0
 12  7  1  0  0  0
 23 18  1  0  0  0
 35 36  1  0  0  0
 24 25  1  0  0  0
 15 16  1  0  0  0
M  END
> <minimizedAffinity>
-8.46198

> <CNNscore>
0.4733534753

> <CNNaffinity>
7.2451162338

> <CNN_VS>
3.4295010567

> <CNNaffinity_variance>
0.1871669888

$$$$
[H]c1nc(N([H])c2c([H])c([H])c(N3C([H])([H])C([H])([H])C([H])(C(=O)N([H])C([H])([H])c4onc(C([H])([H])[H])c4[H])C([H])([H])C3([H])[H])c([H])c2[H])nc(C([H])([H])N([H])C([H])([H])[H])c1F


 36 39  0  0  0  0  0  0  0  0999 V2000
  -10.4210   -9.2764    7.5262 C   0  0  0  0  0  0  0  0  0  0  0  0
  -10.2067   -7.9552    7.7240 C   0  0  0  0  0  0  0  0  0  0  0  0
   -8.8954   -7.4409    7.7235 C   0  0  0  0  0  0  0  0  0  0  0  0
   -7.8066   -8.2527    7.5239 C   0  0  0  0  0  0  0  0  0  0  0  0
   -8.0315   -9.5909    7.3229 C   0  0  0  0  0  0  0  0  0  0  0  0
   -9.3099  -10.1076    7.3214 C   0  0  0  0  0  0  0  0  0  0  0  0
   -6.4547   -7.6808    7.5283 N   0  0  0  0  0  0  0  0  0  0  0  0
   -6.1613   -6.6313    8.4502 C   0  0  0  0  0  0  0  0  0  0  0  0
   -4.7653   -6.1567    8.4371 C   0  0  0  0  0  0  0  0  0  0  0  0
   -4.0284   -6.4060    7.1618 C   0  0  0  0  0  0  0  0  0  0  0  0
   -4.1668   -7.8084    6.6767 C   0  0  0  0  0  0  0  0  0  0  0  0
   -5.5717   -8.2683    6.5713 C   0  0  0  0  0  0  0  0  0  0  0  0
   -4.4827   -5.4433    6.1154 C   0  0  0  0  0  0  0  0  0  0  0  0
   -5.4087   -5.8009    5.3192 O   0  0  0  0  0  0  0  0  0  0  0  0
   -3.8929   -4.1636    6.0158 N   0  0  0  0  0  0  0  0  0  0  0  0
   -3.1432   -3.9033    6.6804 H   0  0  0  0  0  0  0  0  0  0  0  0
   -4.3246   -3.2346    5.0083 C   0  0  0  0  0  0  0  0  0  0  0  0
   -3.4931   -3.4413    3.7936 C   0  0  0  0  0  0  0  0  0  0  0  0
   -3.6850   -2.7354    2.5988 C   0  0  0  0  0  0  0  0  0  0  0  0
   -2.7463   -3.1778    1.6937 C   0  0  0  0  0  0  0  0  0  0  0  0
   -2.5718   -2.7108    0.2948 C   0  0  0  0  0  0  0  0  0  0  0  0
   -2.0323   -4.1157    2.3538 N   0  0  0  0  0  0  0  0  0  0  0  0
   -2.4916   -4.2419    3.5647 O   0  0  0  0  0  0  0  0  0  0  0  0
  -11.6800   -9.8791    7.5429 N   0  0  0  0  0  0  0  0  0  0  0  0
  -11.7145  -10.9508    7.6706 H   0  0  0  0  0  0  0  0  0  0  0  0
  -14.5930   -8.3493    5.9746 C   0  0  0  0  0  0  0  0  0  0  0  0
  -13.4359   -8.9909    6.1682 N   0  0  0  0  0  0  0  0  0  0  0  0
  -12.8828   -9.1654    7.4022 C   0  0  0  0  0  0  0  0  0  0  0  0
  -13.5344   -8.6707    8.4448 N   0  0  0  0  0  0  0  0  0  0  0  0
  -14.7000   -8.0115    8.3611 C   0  0  0  0  0  0  0  0  0  0  0  0
  -15.2314   -7.8526    7.0986 C   0  0  0  0  0  0  0  0  0  0  0  0
  -16.4080   -7.1950    6.9491 F   0  0  0  0  0  0  0  0  0  0  0  0
  -15.1309   -8.1993    4.6012 C   0  0  0  0  0  0  0  0  0  0  0  0
  -17.4184   -8.3604    4.0821 C   0  0  0  0  0  0  0  0  0  0  0  0
  -16.2000   -9.1055    4.3213 N   0  0  0  0  0  0  0  0  0  0  0  0
  -16.3128   -9.8493    5.0180 H   0  0  0  0  0  0  0  0  0  0  0  0
 34 35  1  0  0  0
 35 33  1  0  0  0
 33 26  1  0  0  0
 26 27  2  0  0  0
 27 28  1  0  0  0
 28 24  1  0  0  0
 24  1  1  0  0  0
  1  2  2  0  0  0
  2  3  1  0  0  0
  3  4  2  0  0  0
  4  5  1  0  0  0
  5  6  2  0  0  0
  4  7  1  0  0  0
  7  8  1  0  0  0
  8  9  1  0  0  0
  9 10  1  0  0  0
 10 11  1  0  0  0
 11 12  1  0  0  0
 10 13  1  0  0  0
 13 14  2  0  0  0
 13 15  1  0  0  0
 15 17  1  0  0  0
 17 18  1  0  0  0
 18 19  2  0  0  0
 19 20  1  0  0  0
 20 21  1  0  0  0
 20 22  2  0  0  0
 22 23  1  0  0  0
 28 29  2  0  0  0
 29 30  1  0  0  0
 30 31  2  0  0  0
 31 32  1  0  0  0
 31 26  1  0  0  0
  6  1  1  0  0  0
 12  7  1  0  0  0
 23 18  1  0  0  0
 35 36  1  0  0  0
 24 25  1  0  0  0
 15 16  1  0  0  0
M  END
> <minimizedAffinity>
-8.03233

> <CNNscore>
0.4282746315

> <CNNaffinity>
7.1474351883

> <CNN_VS>
3.0610651970

> <CNNaffinity_variance>
0.2450709343

$$$$
[H]c1nc(N([H])c2c([H])c([H])c(N3C([H])([H])C([H])([H])C([H])(C(=O)N([H])C([H])([H])c4onc(C([H])([H])[H])c4[H])C([H])([H])C3([H])[H])c([H])c2[H])nc(C([H])([H])N([H])C([H])([H])[H])c1F


 36 39  0  0  0  0  0  0  0  0999 V2000
   -9.6867  -10.7512    5.3875 C   0  0  0  0  0  0  0  0  0  0  0  0
  -10.7182  -10.3930    4.5886 C   0  0  0  0  0  0  0  0  0  0  0  0
  -11.9178   -9.9138    5.1501 C   0  0  0  0  0  0  0  0  0  0  0  0
  -12.0768   -9.7951    6.5085 C   0  0  0  0  0  0  0  0  0  0  0  0
  -11.0264  -10.1590    7.3122 C   0  0  0  0  0  0  0  0  0  0  0  0
   -9.8467  -10.6302    6.7757 C   0  0  0  0  0  0  0  0  0  0  0  0
  -13.3409   -9.2899    7.0576 N   0  0  0  0  0  0  0  0  0  0  0  0
  -14.0983   -8.3611    6.2823 C   0  0  0  0  0  0  0  0  0  0  0  0
  -15.3857   -7.9529    6.8739 C   0  0  0  0  0  0  0  0  0  0  0  0
  -15.4690   -8.0963    8.3586 C   0  0  0  0  0  0  0  0  0  0  0  0
  -15.0091   -9.4300    8.8390 C   0  0  0  0  0  0  0  0  0  0  0  0
  -13.6634   -9.8105    8.3482 C   0  0  0  0  0  0  0  0  0  0  0  0
  -14.6924   -7.0059    9.0192 C   0  0  0  0  0  0  0  0  0  0  0  0
  -14.6100   -5.8776    8.4368 O   0  0  0  0  0  0  0  0  0  0  0  0
  -14.0640   -7.2284   10.2646 N   0  0  0  0  0  0  0  0  0  0  0  0
  -14.1522   -8.1574   10.7125 H   0  0  0  0  0  0  0  0  0  0  0  0
  -13.3128   -6.1831   10.9029 C   0  0  0  0  0  0  0  0  0  0  0  0
  -12.0635   -5.9640   10.1278 C   0  0  0  0  0  0  0  0  0  0  0  0
  -11.3965   -6.9836    9.4361 C   0  0  0  0  0  0  0  0  0  0  0  0
  -10.2876   -6.4293    8.8369 C   0  0  0  0  0  0  0  0  0  0  0  0
   -9.2846   -7.1348    7.9992 C   0  0  0  0  0  0  0  0  0  0  0  0
  -10.3175   -5.1221    9.1766 N   0  0  0  0  0  0  0  0  0  0  0  0
  -11.3574   -4.8887    9.9230 O   0  0  0  0  0  0  0  0  0  0  0  0
   -8.4754  -11.2663    4.9229 N   0  0  0  0  0  0  0  0  0  0  0  0
   -7.5813  -10.9945    5.4642 H   0  0  0  0  0  0  0  0  0  0  0  0
   -7.9664  -12.3301    1.4740 C   0  0  0  0  0  0  0  0  0  0  0  0
   -8.1090  -11.5795    2.5714 N   0  0  0  0  0  0  0  0  0  0  0  0
   -8.3700  -12.1070    3.8012 C   0  0  0  0  0  0  0  0  0  0  0  0
   -8.4842  -13.4240    3.8949 N   0  0  0  0  0  0  0  0  0  0  0  0
   -8.3594  -14.2666    2.8583 C   0  0  0  0  0  0  0  0  0  0  0  0
   -8.0957  -13.7001    1.6290 C   0  0  0  0  0  0  0  0  0  0  0  0
   -7.9585  -14.5000    0.5426 F   0  0  0  0  0  0  0  0  0  0  0  0
   -7.6836  -11.6826    0.1707 C   0  0  0  0  0  0  0  0  0  0  0  0
   -6.2784  -11.5552   -1.7101 C   0  0  0  0  0  0  0  0  0  0  0  0
   -6.6906  -12.3743   -0.5895 N   0  0  0  0  0  0  0  0  0  0  0  0
   -6.9585  -13.3256   -0.8628 H   0  0  0  0  0  0  0  0  0  0  0  0
 34 35  1  0  0  0
 35 33  1  0  0  0
 33 26  1  0  0  0
 26 27  2  0  0  0
 27 28  1  0  0  0
 28 24  1  0  0  0
 24  1  1  0  0  0
  1  2  2  0  0  0
  2  3  1  0  0  0
  3  4  2  0  0  0
  4  5  1  0  0  0
  5  6  2  0  0  0
  4  7  1  0  0  0
  7  8  1  0  0  0
  8  9  1  0  0  0
  9 10  1  0  0  0
 10 11  1  0  0  0
 11 12  1  0  0  0
 10 13  1  0  0  0
 13 14  2  0  0  0
 13 15  1  0  0  0
 15 17  1  0  0  0
 17 18  1  0  0  0
 18 19  2  0  0  0
 19 20  1  0  0  0
 20 21  1  0  0  0
 20 22  2  0  0  0
 22 23  1  0  0  0
 28 29  2  0  0  0
 29 30  1  0  0  0
 30 31  2  0  0  0
 31 32  1  0  0  0
 31 26  1  0  0  0
  6  1  1  0  0  0
 12  7  1  0  0  0
 23 18  1  0  0  0
 35 36  1  0  0  0
 24 25  1  0  0  0
 15 16  1  0  0  0
M  END
> <minimizedAffinity>
12.60333

> <CNNscore>
0.3872833848

> <CNNaffinity>
6.6806969643

> <CNN_VS>
2.5873229504

> <CNNaffinity_variance>
0.2385416925

$$$$
[H]c1nc(N([H])c2c([H])c([H])c(N3C([H])([H])C([H])([H])C([H])(C(=O)N([H])C([H])([H])c4onc(C([H])([H])[H])c4[H])C([H])([H])C3([H])[H])c([H])c2[H])nc(C([H])([H])N([H])C([H])([H])[H])c1F


 36 39  0  0  0  0  0  0  0  0999 V2000
   -7.4519   -8.3664    7.6098 C   0  0  0  0  0  0  0  0  0  0  0  0
   -8.5128   -9.0896    7.1834 C   0  0  0  0  0  0  0  0  0  0  0  0
   -9.8242   -8.6314    7.4167 C   0  0  0  0  0  0  0  0  0  0  0  0
  -10.0651   -7.4509    8.0747 C   0  0  0  0  0  0  0  0  0  0  0  0
   -8.9846   -6.7224    8.5031 C   0  0  0  0  0  0  0  0  0  0  0  0
   -7.6957   -7.1596    8.2818 C   0  0  0  0  0  0  0  0  0  0  0  0
  -11.4454   -7.0043    8.2982 N   0  0  0  0  0  0  0  0  0  0  0  0
  -11.7598   -6.3497    9.5271 C   0  0  0  0  0  0  0  0  0  0  0  0
  -13.1503   -5.8739    9.6466 C   0  0  0  0  0  0  0  0  0  0  0  0
  -14.1362   -6.5893    8.7818 C   0  0  0  0  0  0  0  0  0  0  0  0
  -13.6860   -6.7091    7.3661 C   0  0  0  0  0  0  0  0  0  0  0  0
  -12.3327   -7.2947    7.2170 C   0  0  0  0  0  0  0  0  0  0  0  0
  -14.4303   -7.9367    9.3530 C   0  0  0  0  0  0  0  0  0  0  0  0
  -15.0961   -8.7637    8.6517 O   0  0  0  0  0  0  0  0  0  0  0  0
  -13.9765   -8.2804   10.6458 N   0  0  0  0  0  0  0  0  0  0  0  0
  -13.4357   -7.5850   11.1893 H   0  0  0  0  0  0  0  0  0  0  0  0
  -14.2597   -9.5748   11.2013 C   0  0  0  0  0  0  0  0  0  0  0  0
  -13.5937   -9.6716   12.5267 C   0  0  0  0  0  0  0  0  0  0  0  0
  -12.8495  -10.7858   12.9359 C   0  0  0  0  0  0  0  0  0  0  0  0
  -12.3821  -10.5354   14.2067 C   0  0  0  0  0  0  0  0  0  0  0  0
  -11.5461  -11.4372   15.0394 C   0  0  0  0  0  0  0  0  0  0  0  0
  -12.8472   -9.3062   14.5194 N   0  0  0  0  0  0  0  0  0  0  0  0
  -13.5434   -8.8370   13.5254 O   0  0  0  0  0  0  0  0  0  0  0  0
   -6.1209   -8.7569    7.4529 N   0  0  0  0  0  0  0  0  0  0  0  0
   -5.8588   -9.7582    7.7610 H   0  0  0  0  0  0  0  0  0  0  0  0
   -2.8164   -7.4844    6.5891 C   0  0  0  0  0  0  0  0  0  0  0  0
   -3.8075   -8.2247    7.0966 N   0  0  0  0  0  0  0  0  0  0  0  0
   -5.1248   -7.9190    6.9221 C   0  0  0  0  0  0  0  0  0  0  0  0
   -5.4176   -6.8367    6.2156 N   0  0  0  0  0  0  0  0  0  0  0  0
   -4.5014   -6.0266    5.6638 C   0  0  0  0  0  0  0  0  0  0  0  0
   -3.1789   -6.3647    5.8595 C   0  0  0  0  0  0  0  0  0  0  0  0
   -2.2061   -5.5848    5.3261 F   0  0  0  0  0  0  0  0  0  0  0  0
   -1.4071   -7.8816    6.8223 C   0  0  0  0  0  0  0  0  0  0  0  0
   -1.4863   -9.4937    5.1126 C   0  0  0  0  0  0  0  0  0  0  0  0
   -1.1557   -9.2514    6.5014 N   0  0  0  0  0  0  0  0  0  0  0  0
   -1.5950   -9.9201    7.1427 H   0  0  0  0  0  0  0  0  0  0  0  0
 34 35  1  0  0  0
 35 33  1  0  0  0
 33 26  1  0  0  0
 26 27  2  0  0  0
 27 28  1  0  0  0
 28 24  1  0  0  0
 24  1  1  0  0  0
  1  2  2  0  0  0
  2  3  1  0  0  0
  3  4  2  0  0  0
  4  5  1  0  0  0
  5  6  2  0  0  0
  4  7  1  0  0  0
  7  8  1  0  0  0
  8  9  1  0  0  0
  9 10  1  0  0  0
 10 11  1  0  0  0
 11 12  1  0  0  0
 10 13  1  0  0  0
 13 14  2  0  0  0
 13 15  1  0  0  0
 15 17  1  0  0  0
 17 18  1  0  0  0
 18 19  2  0  0  0
 19 20  1  0  0  0
 20 21  1  0  0  0
 20 22  2  0  0  0
 22 23  1  0  0  0
 28 29  2  0  0  0
 29 30  1  0  0  0
 30 31  2  0  0  0
 31 32  1  0  0  0
 31 26  1  0  0  0
  6  1  1  0  0  0
 12  7  1  0  0  0
 23 18  1  0  0  0
 35 36  1  0  0  0
 24 25  1  0  0  0
 15 16  1  0  0  0
M  END
> <minimizedAffinity>
6.41923

> <CNNscore>
0.3406178355

> <CNNaffinity>
6.7541704178

> <CNN_VS>
2.3005909920

> <CNNaffinity_variance>
0.3121710420

$$$$
[H]c1nc(N([H])c2c([H])c([H])c(N3C([H])([H])C([H])([H])C([H])(C(=O)N([H])C([H])([H])c4onc(C([H])([H])[H])c4[H])C([H])([H])C3([H])[H])c([H])c2[H])nc(C([H])([H])N([H])C([H])([H])[H])c1F


 36 39  0  0  0  0  0  0  0  0999 V2000
   -7.6911   -6.5405    6.4830 C   0  0  0  0  0  0  0  0  0  0  0  0
   -8.2371   -7.7685    6.6395 C   0  0  0  0  0  0  0  0  0  0  0  0
   -9.4648   -7.9188    7.3134 C   0  0  0  0  0  0  0  0  0  0  0  0
  -10.1389   -6.8382    7.8257 C   0  0  0  0  0  0  0  0  0  0  0  0
   -9.5799   -5.5962    7.6622 C   0  0  0  0  0  0  0  0  0  0  0  0
   -8.3785   -5.4350    7.0050 C   0  0  0  0  0  0  0  0  0  0  0  0
  -11.4171   -7.0333    8.5205 N   0  0  0  0  0  0  0  0  0  0  0  0
  -11.5698   -6.4916    9.8322 C   0  0  0  0  0  0  0  0  0  0  0  0
  -12.9032   -6.6733   10.4348 C   0  0  0  0  0  0  0  0  0  0  0  0
  -13.6914   -7.8167    9.8844 C   0  0  0  0  0  0  0  0  0  0  0  0
  -13.7230   -7.8353    8.3944 C   0  0  0  0  0  0  0  0  0  0  0  0
  -12.3816   -7.7705    7.7675 C   0  0  0  0  0  0  0  0  0  0  0  0
  -13.1544   -9.1055   10.4123 C   0  0  0  0  0  0  0  0  0  0  0  0
  -12.6906   -9.9560    9.5872 O   0  0  0  0  0  0  0  0  0  0  0  0
  -13.1640   -9.3699   11.7999 N   0  0  0  0  0  0  0  0  0  0  0  0
  -13.5466   -8.6559   12.4443 H   0  0  0  0  0  0  0  0  0  0  0  0
  -12.6511  -10.6102   12.3127 C   0  0  0  0  0  0  0  0  0  0  0  0
  -12.5920  -10.5154   13.7950 C   0  0  0  0  0  0  0  0  0  0  0  0
  -13.2812   -9.5447   14.5334 C   0  0  0  0  0  0  0  0  0  0  0  0
  -13.0000   -9.7515   15.8654 C   0  0  0  0  0  0  0  0  0  0  0  0
  -13.5114   -8.9617   17.0144 C   0  0  0  0  0  0  0  0  0  0  0  0
  -12.1688  -10.8162   15.8908 N   0  0  0  0  0  0  0  0  0  0  0  0
  -11.9546  -11.2318   14.6765 O   0  0  0  0  0  0  0  0  0  0  0  0
   -6.4656   -6.2994    5.8597 N   0  0  0  0  0  0  0  0  0  0  0  0
   -6.4880   -5.8279    4.8885 H   0  0  0  0  0  0  0  0  0  0  0  0
   -2.8588   -6.5080    6.3429 C   0  0  0  0  0  0  0  0  0  0  0  0
   -4.0660   -6.2434    5.8322 N   0  0  0  0  0  0  0  0  0  0  0  0
   -5.2261   -6.6382    6.4299 C   0  0  0  0  0  0  0  0  0  0  0  0
   -5.1347   -7.3130    7.5668 N   0  0  0  0  0  0  0  0  0  0  0  0
   -3.9756   -7.6303    8.1634 C   0  0  0  0  0  0  0  0  0  0  0  0
   -2.8215   -7.2160    7.5324 C   0  0  0  0  0  0  0  0  0  0  0  0
   -1.6184   -7.5063    8.0867 F   0  0  0  0  0  0  0  0  0  0  0  0
   -1.6419   -6.0452    5.6338 C   0  0  0  0  0  0  0  0  0  0  0  0
   -1.5011   -4.3034    7.2068 C   0  0  0  0  0  0  0  0  0  0  0  0
   -1.3974   -4.6475    5.8041 N   0  0  0  0  0  0  0  0  0  0  0  0
   -1.9650   -4.0454    5.1985 H   0  0  0  0  0  0  0  0  0  0  0  0
 34 35  1  0  0  0
 35 33  1  0  0  0
 33 26  1  0  0  0
 26 27  2  0  0  0
 27 28  1  0  0  0
 28 24  1  0  0  0
 24  1  1  0  0  0
  1  2  2  0  0  0
  2  3  1  0  0  0
  3  4  2  0  0  0
  4  5  1  0  0  0
  5  6  2  0  0  0
  4  7  1  0  0  0
  7  8  1  0  0  0
  8  9  1  0  0  0
  9 10  1  0  0  0
 10 11  1  0  0  0
 11 12  1  0  0  0
 10 13  1  0  0  0
 13 14  2  0  0  0
 13 15  1  0  0  0
 15 17  1  0  0  0
 17 18  1  0  0  0
 18 19  2  0  0  0
 19 20  1  0  0  0
 20 21  1  0  0  0
 20 22  2  0  0  0
 22 23  1  0  0  0
 28 29  2  0  0  0
 29 30  1  0  0  0
 30 31  2  0  0  0
 31 32  1  0  0  0
 31 26  1  0  0  0
  6  1  1  0  0  0
 12  7  1  0  0  0
 23 18  1  0  0  0
 35 36  1  0  0  0
 24 25  1  0  0  0
 15 16  1  0  0  0
M  END
> <minimizedAffinity>
9.50704

> <CNNscore>
0.3366182745

> <CNNaffinity>
6.4550499916

> <CNN_VS>
2.1728878021

> <CNNaffinity_variance>
0.2597574592

$$$$
[H]c1nc(N([H])c2c([H])c([H])c(N3C([H])([H])C([H])([H])C([H])(C(=O)N([H])C([H])([H])c4onc(C([H])([H])[H])c4[H])C([H])([H])C3([H])[H])c([H])c2[H])nc(C([H])([H])N([H])C([H])([H])[H])c1F


 36 39  0  0  0  0  0  0  0  0999 V2000
   -8.8579   -8.1885    7.3457 C   0  0  0  0  0  0  0  0  0  0  0  0
   -8.5881   -6.9081    7.0018 C   0  0  0  0  0  0  0  0  0  0  0  0
   -7.2551   -6.4821    6.8410 C   0  0  0  0  0  0  0  0  0  0  0  0
   -6.2004   -7.3413    7.0246 C   0  0  0  0  0  0  0  0  0  0  0  0
   -6.4816   -8.6382    7.3721 C   0  0  0  0  0  0  0  0  0  0  0  0
   -7.7817   -9.0683    7.5332 C   0  0  0  0  0  0  0  0  0  0  0  0
   -4.8244   -6.8620    6.8466 N   0  0  0  0  0  0  0  0  0  0  0  0
   -3.8199   -7.3216    7.7506 C   0  0  0  0  0  0  0  0  0  0  0  0
   -2.4537   -6.8464    7.4647 C   0  0  0  0  0  0  0  0  0  0  0  0
   -2.3807   -5.5792    6.6769 C   0  0  0  0  0  0  0  0  0  0  0  0
   -3.2514   -5.5974    5.4674 C   0  0  0  0  0  0  0  0  0  0  0  0
   -4.6600   -5.9606    5.7507 C   0  0  0  0  0  0  0  0  0  0  0  0
   -2.7219   -4.4174    7.5498 C   0  0  0  0  0  0  0  0  0  0  0  0
   -3.3676   -3.4444    7.0443 O   0  0  0  0  0  0  0  0  0  0  0  0
   -2.3331   -4.4040    8.9077 N   0  0  0  0  0  0  0  0  0  0  0  0
   -1.8104   -5.2124    9.2882 H   0  0  0  0  0  0  0  0  0  0  0  0
   -2.6565   -3.2866    9.7511 C   0  0  0  0  0  0  0  0  0  0  0  0
   -3.3032   -3.8036   10.9857 C   0  0  0  0  0  0  0  0  0  0  0  0
   -4.4230   -4.6454   10.9747 C   0  0  0  0  0  0  0  0  0  0  0  0
   -4.7521   -4.9243   12.2824 C   0  0  0  0  0  0  0  0  0  0  0  0
   -5.8720   -5.7780   12.7539 C   0  0  0  0  0  0  0  0  0  0  0  0
   -3.8423   -4.2581   13.0264 N   0  0  0  0  0  0  0  0  0  0  0  0
   -3.0206   -3.6213   12.2440 O   0  0  0  0  0  0  0  0  0  0  0  0
  -10.1428   -8.6905    7.5587 N   0  0  0  0  0  0  0  0  0  0  0  0
  -10.3751   -9.6547    7.1314 H   0  0  0  0  0  0  0  0  0  0  0  0
  -13.4234   -7.7567    8.8438 C   0  0  0  0  0  0  0  0  0  0  0  0
  -12.4433   -8.3472    8.1519 N   0  0  0  0  0  0  0  0  0  0  0  0
  -11.1300   -8.0082    8.2908 C   0  0  0  0  0  0  0  0  0  0  0  0
  -10.8295   -7.0489    9.1543 N   0  0  0  0  0  0  0  0  0  0  0  0
  -11.7344   -6.3934    9.8971 C   0  0  0  0  0  0  0  0  0  0  0  0
  -13.0532   -6.7609    9.7319 C   0  0  0  0  0  0  0  0  0  0  0  0
  -14.0146   -6.1348   10.4550 F   0  0  0  0  0  0  0  0  0  0  0  0
  -14.8290   -8.1804    8.6372 C   0  0  0  0  0  0  0  0  0  0  0  0
  -15.7179   -8.0716    6.4633 C   0  0  0  0  0  0  0  0  0  0  0  0
  -15.0178   -8.9039    7.4193 N   0  0  0  0  0  0  0  0  0  0  0  0
  -15.4484   -9.8264    7.5416 H   0  0  0  0  0  0  0  0  0  0  0  0
 34 35  1  0  0  0
 35 33  1  0  0  0
 33 26  1  0  0  0
 26 27  2  0  0  0
 27 28  1  0  0  0
 28 24  1  0  0  0
 24  1  1  0  0  0
  1  2  2  0  0  0
  2  3  1  0  0  0
  3  4  2  0  0  0
  4  5  1  0  0  0
  5  6  2  0  0  0
  4  7  1  0  0  0
  7  8  1  0  0  0
  8  9  1  0  0  0
  9 10  1  0  0  0
 10 11  1  0  0  0
 11 12  1  0  0  0
 10 13  1  0  0  0
 13 14  2  0  0  0
 13 15  1  0  0  0
 15 17  1  0  0  0
 17 18  1  0  0  0
 18 19  2  0  0  0
 19 20  1  0  0  0
 20 21  1  0  0  0
 20 22  2  0  0  0
 22 23  1  0  0  0
 28 29  2  0  0  0
 29 30  1  0  0  0
 30 31  2  0  0  0
 31 32  1  0  0  0
 31 26  1  0  0  0
  6  1  1  0  0  0
 12  7  1  0  0  0
 23 18  1  0  0  0
 35 36  1  0  0  0
 24 25  1  0  0  0
 15 16  1  0  0  0
M  END
> <minimizedAffinity>
-7.59226

> <CNNscore>
0.3272021115

> <CNNaffinity>
6.7875404358

> <CNN_VS>
2.2208976746

> <CNNaffinity_variance>
0.1830489188

$$$$
[H]N=C(OC([H])([H])C([H])([H])C(=O)N([H])C(=O)C([H])([H])n1c([H])nc2nc([H])c([H])c([H])c21)N([H])[H]


 25 26  0  0  0  0  0  0  0  0999 V2000
  -15.0073   -6.6301    4.6545 C   0  0  0  0  0  0  0  0  0  0  0  0
  -14.5620   -7.2263    5.8601 N   0  0  0  0  0  0  0  0  0  0  0  0
  -14.0518   -8.5420    5.9491 C   0  0  0  0  0  0  0  0  0  0  0  0
  -13.9842   -9.2331    4.9066 O   0  0  0  0  0  0  0  0  0  0  0  0
  -14.9537   -7.3103    3.5994 O   0  0  0  0  0  0  0  0  0  0  0  0
  -14.6263   -6.6245    6.7281 H   0  0  0  0  0  0  0  0  0  0  0  0
  -15.5275   -5.2558    4.5811 C   0  0  0  0  0  0  0  0  0  0  0  0
  -17.0372   -5.2126    4.5002 C   0  0  0  0  0  0  0  0  0  0  0  0
  -17.4851   -6.3929    5.1834 O   0  0  0  0  0  0  0  0  0  0  0  0
  -18.0023   -7.4684    4.5006 C   0  0  0  0  0  0  0  0  0  0  0  0
  -18.3309   -7.3196    3.2704 N   0  0  0  0  0  0  0  0  0  0  0  0
  -18.1618   -8.7061    5.1566 N   0  0  0  0  0  0  0  0  0  0  0  0
  -18.2269   -6.4187    2.7535 H   0  0  0  0  0  0  0  0  0  0  0  0
  -19.1196   -9.0142    5.4613 H   0  0  0  0  0  0  0  0  0  0  0  0
  -17.3945   -9.3636    5.3735 H   0  0  0  0  0  0  0  0  0  0  0  0
  -13.5998   -9.1257    7.2182 C   0  0  0  0  0  0  0  0  0  0  0  0
  -12.4860   -8.4292    7.8277 N   0  0  0  0  0  0  0  0  0  0  0  0
  -12.5357   -7.4202    8.7168 C   0  0  0  0  0  0  0  0  0  0  0  0
  -13.5938   -6.7445    9.3206 C   0  0  0  0  0  0  0  0  0  0  0  0
  -13.3595   -5.7361   10.2088 C   0  0  0  0  0  0  0  0  0  0  0  0
  -12.0777   -5.3764   10.5169 C   0  0  0  0  0  0  0  0  0  0  0  0
  -11.0448   -6.0136    9.9471 N   0  0  0  0  0  0  0  0  0  0  0  0
  -11.2746   -7.0053    9.0739 C   0  0  0  0  0  0  0  0  0  0  0  0
  -10.4485   -7.8192    8.3513 N   0  0  0  0  0  0  0  0  0  0  0  0
  -11.1623   -8.6690    7.6073 C   0  0  0  0  0  0  0  0  0  0  0  0
  9 10  1  0  0  0
 10 11  2  0  0  0
 10 12  1  0  0  0
  9  8  1  0  0  0
  8  7  1  0  0  0
  7  1  1  0  0  0
  1  2  1  0  0  0
  2  3  1  0  0  0
  3  4  2  0  0  0
  3 16  1  0  0  0
 16 17  1  0  0  0
 17 18  1  0  0  0
 18 19  2  0  0  0
 19 20  1  0  0  0
 20 21  2  0  0  0
 21 22  1  0  0  0
 22 23  2  0  0  0
 23 24  1  0  0  0
 24 25  2  0  0  0
  1  5  2  0  0  0
 25 17  1  0  0  0
 23 18  1  0  0  0
 11 13  1  0  0  0
 12 14  1  0  0  0
 12 15  1  0  0  0
  2  6  1  0  0  0
M  END
> <minimizedAffinity>
-7.42921

> <CNNscore>
0.5725686550

> <CNNaffinity>
6.2944898605

> <CNN_VS>
3.6040275097

> <CNNaffinity_variance>
0.0251169018

$$$$
[H]N=C(OC([H])([H])C([H])([H])C(=O)N([H])C(=O)C([H])([H])n1c([H])nc2nc([H])c([H])c([H])c21)N([H])[H]


 25 26  0  0  0  0  0  0  0  0999 V2000
  -16.2583   -8.2543    5.5823 C   0  0  0  0  0  0  0  0  0  0  0  0
  -15.1713   -8.9165    6.2046 N   0  0  0  0  0  0  0  0  0  0  0  0
  -14.9529   -8.9349    7.6014 C   0  0  0  0  0  0  0  0  0  0  0  0
  -15.7616   -8.3331    8.3451 O   0  0  0  0  0  0  0  0  0  0  0  0
  -17.0762   -7.6393    6.3113 O   0  0  0  0  0  0  0  0  0  0  0  0
  -14.5015   -9.4197    5.5582 H   0  0  0  0  0  0  0  0  0  0  0  0
  -16.4730   -8.2538    4.1267 C   0  0  0  0  0  0  0  0  0  0  0  0
  -17.7252   -7.5056    3.7272 C   0  0  0  0  0  0  0  0  0  0  0  0
  -17.2677   -6.2281    3.2591 O   0  0  0  0  0  0  0  0  0  0  0  0
  -17.0238   -5.1883    4.1250 C   0  0  0  0  0  0  0  0  0  0  0  0
  -17.9259   -4.8703    4.9786 N   0  0  0  0  0  0  0  0  0  0  0  0
  -15.7981   -4.4945    4.0620 N   0  0  0  0  0  0  0  0  0  0  0  0
  -18.8440   -5.3613    5.0533 H   0  0  0  0  0  0  0  0  0  0  0  0
  -15.7616   -3.5409    3.6212 H   0  0  0  0  0  0  0  0  0  0  0  0
  -14.8977   -4.8507    4.4235 H   0  0  0  0  0  0  0  0  0  0  0  0
  -13.8133   -9.6327    8.2098 C   0  0  0  0  0  0  0  0  0  0  0  0
  -12.5730   -8.8858    8.1736 N   0  0  0  0  0  0  0  0  0  0  0  0
  -12.2678   -7.7670    8.8563 C   0  0  0  0  0  0  0  0  0  0  0  0
  -12.9806   -6.9943    9.7706 C   0  0  0  0  0  0  0  0  0  0  0  0
  -12.4206   -5.8823   10.3278 C   0  0  0  0  0  0  0  0  0  0  0  0
  -11.1483   -5.5130    9.9933 C   0  0  0  0  0  0  0  0  0  0  0  0
  -10.4448   -6.2424    9.1154 N   0  0  0  0  0  0  0  0  0  0  0  0
  -10.9948   -7.3359    8.5673 C   0  0  0  0  0  0  0  0  0  0  0  0
  -10.5372   -8.2563    7.6670 N   0  0  0  0  0  0  0  0  0  0  0  0
  -11.4709   -9.1815    7.4278 C   0  0  0  0  0  0  0  0  0  0  0  0
  9 10  1  0  0  0
 10 11  2  0  0  0
 10 12  1  0  0  0
  9  8  1  0  0  0
  8  7  1  0  0  0
  7  1  1  0  0  0
  1  2  1  0  0  0
  2  3  1  0  0  0
  3  4  2  0  0  0
  3 16  1  0  0  0
 16 17  1  0  0  0
 17 18  1  0  0  0
 18 19  2  0  0  0
 19 20  1  0  0  0
 20 21  2  0  0  0
 21 22  1  0  0  0
 22 23  2  0  0  0
 23 24  1  0  0  0
 24 25  2  0  0  0
  1  5  2  0  0  0
 25 17  1  0  0  0
 23 18  1  0  0  0
 11 13  1  0  0  0
 12 14  1  0  0  0
 12 15  1  0  0  0
  2  6  1  0  0  0
M  END
> <minimizedAffinity>
-7.28078

> <CNNscore>
0.4996898174

> <CNNaffinity>
6.2026405334

> <CNN_VS>
3.0993962288

> <CNNaffinity_variance>
0.0875545591

$$$$
[H]N=C(OC([H])([H])C([H])([H])C(=O)N([H])C(=O)C([H])([H])n1c([H])nc2nc([H])c([H])c([H])c21)N([H])[H]


 25 26  0  0  0  0  0  0  0  0999 V2000
   -9.2409   -7.2262    8.0682 C   0  0  0  0  0  0  0  0  0  0  0  0
   -8.0968   -6.5892    7.5274 N   0  0  0  0  0  0  0  0  0  0  0  0
   -7.0492   -7.2733    6.8688 C   0  0  0  0  0  0  0  0  0  0  0  0
   -7.1244   -8.5180    6.7498 O   0  0  0  0  0  0  0  0  0  0  0  0
   -9.3308   -8.4752    7.9647 O   0  0  0  0  0  0  0  0  0  0  0  0
   -8.0543   -5.5377    7.6374 H   0  0  0  0  0  0  0  0  0  0  0  0
  -10.3249   -6.4953    8.7429 C   0  0  0  0  0  0  0  0  0  0  0  0
  -11.4773   -7.3960    9.1281 C   0  0  0  0  0  0  0  0  0  0  0  0
  -12.2823   -7.5048    7.9446 O   0  0  0  0  0  0  0  0  0  0  0  0
  -12.8152   -8.7071    7.5435 C   0  0  0  0  0  0  0  0  0  0  0  0
  -14.0440   -8.9580    7.8091 N   0  0  0  0  0  0  0  0  0  0  0  0
  -12.0107   -9.6365    6.8530 N   0  0  0  0  0  0  0  0  0  0  0  0
  -14.6683   -8.2941    8.3181 H   0  0  0  0  0  0  0  0  0  0  0  0
  -11.6428  -10.4824    7.3572 H   0  0  0  0  0  0  0  0  0  0  0  0
  -11.7393   -9.5599    5.8587 H   0  0  0  0  0  0  0  0  0  0  0  0
   -5.8780   -6.5775    6.3212 C   0  0  0  0  0  0  0  0  0  0  0  0
   -4.6176   -6.9899    6.9034 N   0  0  0  0  0  0  0  0  0  0  0  0
   -3.9383   -6.3919    7.8993 C   0  0  0  0  0  0  0  0  0  0  0  0
   -4.1897   -5.2553    8.6647 C   0  0  0  0  0  0  0  0  0  0  0  0
   -3.3149   -4.8618    9.6345 C   0  0  0  0  0  0  0  0  0  0  0  0
   -2.1771   -5.5821    9.8664 C   0  0  0  0  0  0  0  0  0  0  0  0
   -1.9158   -6.6791    9.1411 N   0  0  0  0  0  0  0  0  0  0  0  0
   -2.7757   -7.0665    8.1875 C   0  0  0  0  0  0  0  0  0  0  0  0
   -2.7820   -8.1137    7.3096 N   0  0  0  0  0  0  0  0  0  0  0  0
   -3.8750   -8.0744    6.5422 C   0  0  0  0  0  0  0  0  0  0  0  0
  9 10  1  0  0  0
 10 11  2  0  0  0
 10 12  1  0  0  0
  9  8  1  0  0  0
  8  7  1  0  0  0
  7  1  1  0  0  0
  1  2  1  0  0  0
  2  3  1  0  0  0
  3  4  2  0  0  0
  3 16  1  0  0  0
 16 17  1  0  0  0
 17 18  1  0  0  0
 18 19  2  0  0  0
 19 20  1  0  0  0
 20 21  2  0  0  0
 21 22  1  0  0  0
 22 23  2  0  0  0
 23 24  1  0  0  0
 24 25  2  0  0  0
  1  5  2  0  0  0
 25 17  1  0  0  0
 23 18  1  0  0  0
 11 13  1  0  0  0
 12 14  1  0  0  0
 12 15  1  0  0  0
  2  6  1  0  0  0
M  END
> <minimizedAffinity>
-4.93861

> <CNNscore>
0.4844796956

> <CNNaffinity>
5.1039915085

> <CNN_VS>
2.4727802277

> <CNNaffinity_variance>
0.0528062768

$$$$
[H]N=C(OC([H])([H])C([H])([H])C(=O)N([H])C(=O)C([H])([H])n1c([H])nc2nc([H])c([H])c([H])c21)N([H])[H]


 25 26  0  0  0  0  0  0  0  0999 V2000
  -16.1095   -8.2853    5.6119 C   0  0  0  0  0  0  0  0  0  0  0  0
  -14.9398   -8.8054    6.2190 N   0  0  0  0  0  0  0  0  0  0  0  0
  -14.7117   -8.8151    7.6143 C   0  0  0  0  0  0  0  0  0  0  0  0
  -15.5885   -8.3378    8.3709 O   0  0  0  0  0  0  0  0  0  0  0  0
  -16.9974   -7.7960    6.3541 O   0  0  0  0  0  0  0  0  0  0  0  0
  -14.2130   -9.2050    5.5618 H   0  0  0  0  0  0  0  0  0  0  0  0
  -16.3319   -8.2921    4.1576 C   0  0  0  0  0  0  0  0  0  0  0  0
  -17.5957   -7.5612    3.7625 C   0  0  0  0  0  0  0  0  0  0  0  0
  -17.1569   -6.2804    3.2854 O   0  0  0  0  0  0  0  0  0  0  0  0
  -16.9715   -5.2183    4.1387 C   0  0  0  0  0  0  0  0  0  0  0  0
  -17.8891   -4.9422    4.9903 N   0  0  0  0  0  0  0  0  0  0  0  0
  -15.7873   -4.4567    4.0653 N   0  0  0  0  0  0  0  0  0  0  0  0
  -18.7777   -5.4837    5.0725 H   0  0  0  0  0  0  0  0  0  0  0  0
  -15.8058   -3.5078    3.6133 H   0  0  0  0  0  0  0  0  0  0  0  0
  -14.8677   -4.7569    4.4291 H   0  0  0  0  0  0  0  0  0  0  0  0
  -13.4851   -9.3632    8.2066 C   0  0  0  0  0  0  0  0  0  0  0  0
  -12.4066   -8.4045    8.3297 N   0  0  0  0  0  0  0  0  0  0  0  0
  -11.1178   -8.5687    7.9789 C   0  0  0  0  0  0  0  0  0  0  0  0
  -10.4210   -9.6347    7.4142 C   0  0  0  0  0  0  0  0  0  0  0  0
   -9.0859   -9.5335    7.1535 C   0  0  0  0  0  0  0  0  0  0  0  0
   -8.4148   -8.3795    7.4452 C   0  0  0  0  0  0  0  0  0  0  0  0
   -9.0662   -7.3416    7.9891 N   0  0  0  0  0  0  0  0  0  0  0  0
  -10.3789   -7.4405    8.2455 C   0  0  0  0  0  0  0  0  0  0  0  0
  -11.2905   -6.5745    8.7806 N   0  0  0  0  0  0  0  0  0  0  0  0
  -12.4992   -7.1414    8.8339 C   0  0  0  0  0  0  0  0  0  0  0  0
  9 10  1  0  0  0
 10 11  2  0  0  0
 10 12  1  0  0  0
  9  8  1  0  0  0
  8  7  1  0  0  0
  7  1  1  0  0  0
  1  2  1  0  0  0
  2  3  1  0  0  0
  3  4  2  0  0  0
  3 16  1  0  0  0
 16 17  1  0  0  0
 17 18  1  0  0  0
 18 19  2  0  0  0
 19 20  1  0  0  0
 20 21  2  0  0  0
 21 22  1  0  0  0
 22 23  2  0  0  0
 23 24  1  0  0  0
 24 25  2  0  0  0
  1  5  2  0  0  0
 25 17  1  0  0  0
 23 18  1  0  0  0
 11 13  1  0  0  0
 12 14  1  0  0  0
 12 15  1  0  0  0
  2  6  1  0  0  0
M  END
> <minimizedAffinity>
-7.19477

> <CNNscore>
0.4746132791

> <CNNaffinity>
6.2899928093

> <CNN_VS>
2.9853141308

> <CNNaffinity_variance>
0.2773875892

$$$$
[H]N=C(OC([H])([H])C([H])([H])C(=O)N([H])C(=O)C([H])([H])n1c([H])nc2nc([H])c([H])c([H])c21)N([H])[H]


 25 26  0  0  0  0  0  0  0  0999 V2000
  -14.9627   -6.5627    4.7718 C   0  0  0  0  0  0  0  0  0  0  0  0
  -14.5008   -6.9366    6.0579 N   0  0  0  0  0  0  0  0  0  0  0  0
  -13.9659   -8.2087    6.3660 C   0  0  0  0  0  0  0  0  0  0  0  0
  -13.8906   -9.0664    5.4562 O   0  0  0  0  0  0  0  0  0  0  0  0
  -14.9016   -7.4120    3.8479 O   0  0  0  0  0  0  0  0  0  0  0  0
  -14.5720   -6.1967    6.8110 H   0  0  0  0  0  0  0  0  0  0  0  0
  -15.5086   -5.2304    4.4692 C   0  0  0  0  0  0  0  0  0  0  0  0
  -17.0199   -5.2246    4.4093 C   0  0  0  0  0  0  0  0  0  0  0  0
  -17.4299   -6.3978    5.1278 O   0  0  0  0  0  0  0  0  0  0  0  0
  -17.9840   -7.4796    4.4851 C   0  0  0  0  0  0  0  0  0  0  0  0
  -18.3238   -7.3603    3.2548 N   0  0  0  0  0  0  0  0  0  0  0  0
  -18.1683   -8.6916    5.1815 N   0  0  0  0  0  0  0  0  0  0  0  0
  -18.2023   -6.4790    2.7087 H   0  0  0  0  0  0  0  0  0  0  0  0
  -19.1301   -8.9641    5.5068 H   0  0  0  0  0  0  0  0  0  0  0  0
  -17.4161   -9.3625    5.4101 H   0  0  0  0  0  0  0  0  0  0  0  0
  -13.4973   -8.5593    7.7125 C   0  0  0  0  0  0  0  0  0  0  0  0
  -12.2318   -7.9558    8.0756 N   0  0  0  0  0  0  0  0  0  0  0  0
  -10.9969   -8.4458    7.8615 C   0  0  0  0  0  0  0  0  0  0  0  0
  -10.5355   -9.6141    7.2587 C   0  0  0  0  0  0  0  0  0  0  0  0
   -9.1987   -9.8708    7.1707 C   0  0  0  0  0  0  0  0  0  0  0  0
   -8.2937   -8.9801    7.6755 C   0  0  0  0  0  0  0  0  0  0  0  0
   -8.7163   -7.8497    8.2597 N   0  0  0  0  0  0  0  0  0  0  0  0
  -10.0305   -7.5967    8.3463 C   0  0  0  0  0  0  0  0  0  0  0  0
  -10.7456   -6.5570    8.8706 N   0  0  0  0  0  0  0  0  0  0  0  0
  -12.0561   -6.7639    8.7132 C   0  0  0  0  0  0  0  0  0  0  0  0
  9 10  1  0  0  0
 10 11  2  0  0  0
 10 12  1  0  0  0
  9  8  1  0  0  0
  8  7  1  0  0  0
  7  1  1  0  0  0
  1  2  1  0  0  0
  2  3  1  0  0  0
  3  4  2  0  0  0
  3 16  1  0  0  0
 16 17  1  0  0  0
 17 18  1  0  0  0
 18 19  2  0  0  0
 19 20  1  0  0  0
 20 21  2  0  0  0
 21 22  1  0  0  0
 22 23  2  0  0  0
 23 24  1  0  0  0
 24 25  2  0  0  0
  1  5  2  0  0  0
 25 17  1  0  0  0
 23 18  1  0  0  0
 11 13  1  0  0  0
 12 14  1  0  0  0
 12 15  1  0  0  0
  2  6  1  0  0  0
M  END
> <minimizedAffinity>
-7.29330

> <CNNscore>
0.4734741449

> <CNNaffinity>
6.2763662338

> <CNN_VS>
2.9716970921

> <CNNaffinity_variance>
0.2377446592

$$$$
[H]N=C(OC([H])([H])C([H])([H])C(=O)N([H])C(=O)C([H])([H])n1c([H])nc2nc([H])c([H])c([H])c21)N([H])[H]


 25 26  0  0  0  0  0  0  0  0999 V2000
  -15.8503   -8.6341    4.4766 C   0  0  0  0  0  0  0  0  0  0  0  0
  -15.4621   -8.8346    5.8243 N   0  0  0  0  0  0  0  0  0  0  0  0
  -14.1733   -9.2608    6.2199 C   0  0  0  0  0  0  0  0  0  0  0  0
  -13.3133   -9.4781    5.3354 O   0  0  0  0  0  0  0  0  0  0  0  0
  -15.0034   -8.8536    3.5748 O   0  0  0  0  0  0  0  0  0  0  0  0
  -16.2031   -8.6437    6.5551 H   0  0  0  0  0  0  0  0  0  0  0  0
  -17.1947   -8.1818    4.0856 C   0  0  0  0  0  0  0  0  0  0  0  0
  -17.2369   -6.7047    3.7635 C   0  0  0  0  0  0  0  0  0  0  0  0
  -16.8032   -6.0450    4.9624 O   0  0  0  0  0  0  0  0  0  0  0  0
  -15.5963   -5.3896    5.0282 C   0  0  0  0  0  0  0  0  0  0  0  0
  -14.7415   -5.7555    5.9107 N   0  0  0  0  0  0  0  0  0  0  0  0
  -15.3196   -4.3359    4.1332 N   0  0  0  0  0  0  0  0  0  0  0  0
  -14.9125   -6.5305    6.5887 H   0  0  0  0  0  0  0  0  0  0  0  0
  -15.3656   -3.3411    4.4701 H   0  0  0  0  0  0  0  0  0  0  0  0
  -15.0658   -4.4561    3.1386 H   0  0  0  0  0  0  0  0  0  0  0  0
  -13.8083   -9.4580    7.6283 C   0  0  0  0  0  0  0  0  0  0  0  0
  -12.6580   -8.6888    8.0558 N   0  0  0  0  0  0  0  0  0  0  0  0
  -12.6488   -7.5807    8.8192 C   0  0  0  0  0  0  0  0  0  0  0  0
  -13.6633   -6.8416    9.4238 C   0  0  0  0  0  0  0  0  0  0  0  0
  -13.3711   -5.7329   10.1627 C   0  0  0  0  0  0  0  0  0  0  0  0
  -12.0736   -5.3337   10.3183 C   0  0  0  0  0  0  0  0  0  0  0  0
  -11.0819   -6.0306    9.7449 N   0  0  0  0  0  0  0  0  0  0  0  0
  -11.3687   -7.1208    9.0184 C   0  0  0  0  0  0  0  0  0  0  0  0
  -10.5932   -8.0123    8.3321 N   0  0  0  0  0  0  0  0  0  0  0  0
  -11.3536   -8.9481    7.7566 C   0  0  0  0  0  0  0  0  0  0  0  0
  9 10  1  0  0  0
 10 11  2  0  0  0
 10 12  1  0  0  0
  9  8  1  0  0  0
  8  7  1  0  0  0
  7  1  1  0  0  0
  1  2  1  0  0  0
  2  3  1  0  0  0
  3  4  2  0  0  0
  3 16  1  0  0  0
 16 17  1  0  0  0
 17 18  1  0  0  0
 18 19  2  0  0  0
 19 20  1  0  0  0
 20 21  2  0  0  0
 21 22  1  0  0  0
 22 23  2  0  0  0
 23 24  1  0  0  0
 24 25  2  0  0  0
  1  5  2  0  0  0
 25 17  1  0  0  0
 23 18  1  0  0  0
 11 13  1  0  0  0
 12 14  1  0  0  0
 12 15  1  0  0  0
  2  6  1  0  0  0
M  END
> <minimizedAffinity>
-7.08819

> <CNNscore>
0.4687179327

> <CNNaffinity>
6.1360650063

> <CNN_VS>
2.8760836124

> <CNNaffinity_variance>
0.0430662557

$$$$
[H]N=C(OC([H])([H])C([H])([H])C(=O)N([H])C(=O)C([H])([H])n1c([H])nc2nc([H])c([H])c([H])c21)N([H])[H]


 25 26  0  0  0  0  0  0  0  0999 V2000
   -9.3712   -8.4432    7.5596 C   0  0  0  0  0  0  0  0  0  0  0  0
   -8.4049   -7.5004    7.1301 N   0  0  0  0  0  0  0  0  0  0  0  0
   -7.1036   -7.8445    6.6971 C   0  0  0  0  0  0  0  0  0  0  0  0
   -6.7720   -9.0524    6.6881 O   0  0  0  0  0  0  0  0  0  0  0  0
   -9.0547   -9.6592    7.5642 O   0  0  0  0  0  0  0  0  0  0  0  0
   -8.7063   -6.4862    7.1440 H   0  0  0  0  0  0  0  0  0  0  0  0
  -10.7237   -8.0656    7.9988 C   0  0  0  0  0  0  0  0  0  0  0  0
  -11.7055   -9.2116    7.8975 C   0  0  0  0  0  0  0  0  0  0  0  0
  -12.7409   -8.9053    8.8435 O   0  0  0  0  0  0  0  0  0  0  0  0
  -13.9573   -8.4043    8.4436 C   0  0  0  0  0  0  0  0  0  0  0  0
  -14.2260   -7.1730    8.6785 N   0  0  0  0  0  0  0  0  0  0  0  0
  -14.8813   -9.2434    7.7879 N   0  0  0  0  0  0  0  0  0  0  0  0
  -13.5666   -6.5236    9.1613 H   0  0  0  0  0  0  0  0  0  0  0  0
  -15.7142   -9.6114    8.3132 H   0  0  0  0  0  0  0  0  0  0  0  0
  -14.8126   -9.5410    6.8006 H   0  0  0  0  0  0  0  0  0  0  0  0
   -6.1289   -6.8377    6.2592 C   0  0  0  0  0  0  0  0  0  0  0  0
   -5.0277   -6.6393    7.1788 N   0  0  0  0  0  0  0  0  0  0  0  0
   -3.8642   -7.3139    7.2245 C   0  0  0  0  0  0  0  0  0  0  0  0
   -3.3469   -8.3577    6.4605 C   0  0  0  0  0  0  0  0  0  0  0  0
   -2.1098   -8.8676    6.7257 C   0  0  0  0  0  0  0  0  0  0  0  0
   -1.3615   -8.3572    7.7487 C   0  0  0  0  0  0  0  0  0  0  0  0
   -1.8404   -7.3526    8.4964 N   0  0  0  0  0  0  0  0  0  0  0  0
   -3.0566   -6.8508    8.2360 C   0  0  0  0  0  0  0  0  0  0  0  0
   -3.7935   -5.8523    8.8082 N   0  0  0  0  0  0  0  0  0  0  0  0
   -4.9676   -5.7209    8.1843 C   0  0  0  0  0  0  0  0  0  0  0  0
  9 10  1  0  0  0
 10 11  2  0  0  0
 10 12  1  0  0  0
  9  8  1  0  0  0
  8  7  1  0  0  0
  7  1  1  0  0  0
  1  2  1  0  0  0
  2  3  1  0  0  0
  3  4  2  0  0  0
  3 16  1  0  0  0
 16 17  1  0  0  0
 17 18  1  0  0  0
 18 19  2  0  0  0
 19 20  1  0  0  0
 20 21  2  0  0  0
 21 22  1  0  0  0
 22 23  2  0  0  0
 23 24  1  0  0  0
 24 25  2  0  0  0
  1  5  2  0  0  0
 25 17  1  0  0  0
 23 18  1  0  0  0
 11 13  1  0  0  0
 12 14  1  0  0  0
 12 15  1  0  0  0
  2  6  1  0  0  0
M  END
> <minimizedAffinity>
-5.35078

> <CNNscore>
0.3853092790

> <CNNaffinity>
5.0253219604

> <CNN_VS>
1.9363031387

> <CNNaffinity_variance>
0.1920436472

$$$$
[H]N=C(OC([H])([H])C([H])([H])C(=O)N([H])C(=O)C([H])([H])n1c([H])nc2nc([H])c([H])c([H])c21)N([H])[H]


 25 26  0  0  0  0  0  0  0  0999 V2000
  -15.3118   -6.8454    6.5572 C   0  0  0  0  0  0  0  0  0  0  0  0
  -14.3124   -7.1072    7.5268 N   0  0  0  0  0  0  0  0  0  0  0  0
  -14.5465   -7.8062    8.7333 C   0  0  0  0  0  0  0  0  0  0  0  0
  -15.7029   -8.2245    8.9720 O   0  0  0  0  0  0  0  0  0  0  0  0
  -16.4794   -7.2511    6.7821 O   0  0  0  0  0  0  0  0  0  0  0  0
  -13.3428   -6.7466    7.3044 H   0  0  0  0  0  0  0  0  0  0  0  0
  -15.0461   -6.1230    5.3033 C   0  0  0  0  0  0  0  0  0  0  0  0
  -16.2577   -6.0687    4.3995 C   0  0  0  0  0  0  0  0  0  0  0  0
  -16.1330   -7.2066    3.5333 O   0  0  0  0  0  0  0  0  0  0  0  0
  -16.5416   -8.4594    3.9258 C   0  0  0  0  0  0  0  0  0  0  0  0
  -15.7411   -9.4482    3.7683 N   0  0  0  0  0  0  0  0  0  0  0  0
  -17.8216   -8.6360    4.4899 N   0  0  0  0  0  0  0  0  0  0  0  0
  -14.7874   -9.3543    3.3545 H   0  0  0  0  0  0  0  0  0  0  0  0
  -18.5910   -9.0598    3.9124 H   0  0  0  0  0  0  0  0  0  0  0  0
  -18.0829   -8.3776    5.4559 H   0  0  0  0  0  0  0  0  0  0  0  0
  -13.4840   -8.0580    9.7149 C   0  0  0  0  0  0  0  0  0  0  0  0
  -12.2389   -7.3760    9.4287 N   0  0  0  0  0  0  0  0  0  0  0  0
  -11.2025   -7.8300    8.7002 C   0  0  0  0  0  0  0  0  0  0  0  0
  -10.9800   -9.0222    8.0147 C   0  0  0  0  0  0  0  0  0  0  0  0
   -9.8130   -9.2297    7.3397 C   0  0  0  0  0  0  0  0  0  0  0  0
   -8.8451   -8.2653    7.3291 C   0  0  0  0  0  0  0  0  0  0  0  0
   -9.0386   -7.1106    7.9825 N   0  0  0  0  0  0  0  0  0  0  0  0
  -10.1859   -6.9060    8.6461 C   0  0  0  0  0  0  0  0  0  0  0  0
  -10.6600   -5.8585    9.3844 N   0  0  0  0  0  0  0  0  0  0  0  0
  -11.8811   -6.1311    9.8533 C   0  0  0  0  0  0  0  0  0  0  0  0
  9 10  1  0  0  0
 10 11  2  0  0  0
 10 12  1  0  0  0
  9  8  1  0  0  0
  8  7  1  0  0  0
  7  1  1  0  0  0
  1  2  1  0  0  0
  2  3  1  0  0  0
  3  4  2  0  0  0
  3 16  1  0  0  0
 16 17  1  0  0  0
 17 18  1  0  0  0
 18 19  2  0  0  0
 19 20  1  0  0  0
 20 21  2  0  0  0
 21 22  1  0  0  0
 22 23  2  0  0  0
 23 24  1  0  0  0
 24 25  2  0  0  0
  1  5  2  0  0  0
 25 17  1  0  0  0
 23 18  1  0  0  0
 11 13  1  0  0  0
 12 14  1  0  0  0
 12 15  1  0  0  0
  2  6  1  0  0  0
M  END
> <minimizedAffinity>
-6.83631

> <CNNscore>
0.3823360205

> <CNNaffinity>
6.2397174835

> <CNN_VS>
2.3856687546

> <CNNaffinity_variance>
0.0614425354

$$$$
[H]N=C(OC([H])([H])C([H])([H])C(=O)N([H])C(=O)C([H])([H])n1c([H])nc2nc([H])c([H])c([H])c21)N([H])[H]


 25 26  0  0  0  0  0  0  0  0999 V2000
  -13.5842   -7.0594    9.2749 C   0  0  0  0  0  0  0  0  0  0  0  0
  -13.4596   -7.3270    7.8892 N   0  0  0  0  0  0  0  0  0  0  0  0
  -14.0386   -8.4449    7.2455 C   0  0  0  0  0  0  0  0  0  0  0  0
  -14.7041   -9.2557    7.9302 O   0  0  0  0  0  0  0  0  0  0  0  0
  -14.2423   -7.8652    9.9793 O   0  0  0  0  0  0  0  0  0  0  0  0
  -12.8949   -6.6288    7.3295 H   0  0  0  0  0  0  0  0  0  0  0  0
  -12.9808   -5.8854    9.9247 C   0  0  0  0  0  0  0  0  0  0  0  0
  -11.4775   -5.8440    9.7632 C   0  0  0  0  0  0  0  0  0  0  0  0
  -11.1017   -7.1786    9.3912 O   0  0  0  0  0  0  0  0  0  0  0  0
  -10.1694   -7.4175    8.4092 C   0  0  0  0  0  0  0  0  0  0  0  0
  -10.3499   -8.4060    7.6131 N   0  0  0  0  0  0  0  0  0  0  0  0
   -9.0408   -6.5805    8.2935 N   0  0  0  0  0  0  0  0  0  0  0  0
  -11.1727   -9.0457    7.6696 H   0  0  0  0  0  0  0  0  0  0  0  0
   -8.1052   -6.9181    8.6337 H   0  0  0  0  0  0  0  0  0  0  0  0
   -9.0490   -5.6294    7.8892 H   0  0  0  0  0  0  0  0  0  0  0  0
  -13.8868   -8.6888    5.8057 C   0  0  0  0  0  0  0  0  0  0  0  0
  -15.0202   -8.2648    5.0100 N   0  0  0  0  0  0  0  0  0  0  0  0
  -15.3940   -7.0053    4.7188 C   0  0  0  0  0  0  0  0  0  0  0  0
  -14.8620   -5.7613    5.0512 C   0  0  0  0  0  0  0  0  0  0  0  0
  -15.4521   -4.6123    4.6127 C   0  0  0  0  0  0  0  0  0  0  0  0
  -16.5768   -4.6700    3.8389 C   0  0  0  0  0  0  0  0  0  0  0  0
  -17.1053   -5.8568    3.5074 N   0  0  0  0  0  0  0  0  0  0  0  0
  -16.5255   -6.9868    3.9382 C   0  0  0  0  0  0  0  0  0  0  0  0
  -16.8237   -8.3094    3.7678 N   0  0  0  0  0  0  0  0  0  0  0  0
  -15.9323   -9.0758    4.4028 C   0  0  0  0  0  0  0  0  0  0  0  0
  9 10  1  0  0  0
 10 11  2  0  0  0
 10 12  1  0  0  0
  9  8  1  0  0  0
  8  7  1  0  0  0
  7  1  1  0  0  0
  1  2  1  0  0  0
  2  3  1  0  0  0
  3  4  2  0  0  0
  3 16  1  0  0  0
 16 17  1  0  0  0
 17 18  1  0  0  0
 18 19  2  0  0  0
 19 20  1  0  0  0
 20 21  2  0  0  0
 21 22  1  0  0  0
 22 23  2  0  0  0
 23 24  1  0  0  0
 24 25  2  0  0  0
  1  5  2  0  0  0
 25 17  1  0  0  0
 23 18  1  0  0  0
 11 13  1  0  0  0
 12 14  1  0  0  0
 12 15  1  0  0  0
  2  6  1  0  0  0
M  END
> <minimizedAffinity>
-7.23556

> <CNNscore>
0.3656085730

> <CNNaffinity>
5.8091230392

> <CNN_VS>
2.1238651276

> <CNNaffinity_variance>
0.1648326367

$$$$
[H]OC(C([H])([H])[H])(C([H])([H])[H])C([H])([H])N([H])C([H])([H])c1c(-c2sc3c(OC([H])([H])[H])c([H])c(C([H])([H])[H])c([H])c3c2[H])c2c(N([H])[H])nc([H])nn2c1[H]


 33 36  0  0  0  0  0  0  0  0999 V2000
  -11.6038   -7.7681    8.2105 C   0  0  0  0  0  0  0  0  0  0  0  0
  -12.6117   -8.5762    7.6945 C   0  0  0  0  0  0  0  0  0  0  0  0
  -13.7363   -8.2578    8.4027 C   0  0  0  0  0  0  0  0  0  0  0  0
  -13.4812   -7.3160    9.3041 N   0  0  0  0  0  0  0  0  0  0  0  0
  -14.2900   -6.7096   10.1735 N   0  0  0  0  0  0  0  0  0  0  0  0
  -13.8280   -5.7488   10.9814 C   0  0  0  0  0  0  0  0  0  0  0  0
  -12.5408   -5.3987   10.9078 N   0  0  0  0  0  0  0  0  0  0  0  0
  -11.6920   -6.0033   10.0279 C   0  0  0  0  0  0  0  0  0  0  0  0
  -10.3589   -5.5354    9.9371 N   0  0  0  0  0  0  0  0  0  0  0  0
  -12.1541   -6.9996    9.1927 C   0  0  0  0  0  0  0  0  0  0  0  0
  -10.0717   -4.9182    9.1496 H   0  0  0  0  0  0  0  0  0  0  0  0
   -9.6699   -5.8121   10.6630 H   0  0  0  0  0  0  0  0  0  0  0  0
   -6.3705   -8.6778    6.9434 C   0  0  0  0  0  0  0  0  0  0  0  0
   -5.4727   -7.8167    6.3611 C   0  0  0  0  0  0  0  0  0  0  0  0
   -5.9291   -6.5666    6.0168 C   0  0  0  0  0  0  0  0  0  0  0  0
   -4.9576   -5.6051    5.3747 C   0  0  0  0  0  0  0  0  0  0  0  0
   -7.2284   -6.1939    6.2454 C   0  0  0  0  0  0  0  0  0  0  0  0
   -8.1694   -7.0606    6.8419 C   0  0  0  0  0  0  0  0  0  0  0  0
   -9.4642   -6.7986    7.1087 C   0  0  0  0  0  0  0  0  0  0  0  0
  -10.2249   -7.7623    7.6853 C   0  0  0  0  0  0  0  0  0  0  0  0
   -9.0699   -9.0536    7.8503 S   0  0  0  0  0  0  0  0  0  0  0  0
   -7.7033   -8.2985    7.1787 C   0  0  0  0  0  0  0  0  0  0  0  0
   -6.8721  -10.6609    8.1985 C   0  0  0  0  0  0  0  0  0  0  0  0
   -6.0234   -9.9547    7.3295 O   0  0  0  0  0  0  0  0  0  0  0  0
  -12.4963   -9.5760    6.5996 C   0  0  0  0  0  0  0  0  0  0  0  0
  -13.7802   -9.7258    6.0155 N   0  0  0  0  0  0  0  0  0  0  0  0
  -13.9247  -10.7526    5.8202 H   0  0  0  0  0  0  0  0  0  0  0  0
  -14.1717   -8.9812    4.9232 C   0  0  0  0  0  0  0  0  0  0  0  0
  -15.4210   -8.1658    5.0035 C   0  0  0  0  0  0  0  0  0  0  0  0
  -14.9809   -6.7352    5.2664 C   0  0  0  0  0  0  0  0  0  0  0  0
  -16.1847   -8.1303    3.6970 C   0  0  0  0  0  0  0  0  0  0  0  0
  -16.2442   -8.5102    6.0734 O   0  0  0  0  0  0  0  0  0  0  0  0
  -16.7904   -7.7227    6.2832 H   0  0  0  0  0  0  0  0  0  0  0  0
 23 24  1  0  0  0
 24 13  1  0  0  0
 13 14  2  0  0  0
 14 15  1  0  0  0
 15 16  1  0  0  0
 15 17  2  0  0  0
 17 18  1  0  0  0
 18 19  1  0  0  0
 19 20  2  0  0  0
 20 21  1  0  0  0
 21 22  1  0  0  0
 20  1  1  0  0  0
  1  2  1  0  0  0
  2 25  1  0  0  0
 25 26  1  0  0  0
 26 28  1  0  0  0
 28 29  1  0  0  0
 29 30  1  0  0  0
 29 31  1  0  0  0
 29 32  1  0  0  0
  2  3  2  0  0  0
  3  4  1  0  0  0
  4  5  1  0  0  0
  5  6  2  0  0  0
  6  7  1  0  0  0
  7  8  2  0  0  0
  8  9  1  0  0  0
  8 10  1  0  0  0
 22 13  1  0  0  0
 10  1  2  0  0  0
 22 18  2  0  0  0
 10  4  1  0  0  0
 26 27  1  0  0  0
 32 33  1  0  0  0
  9 11  1  0  0  0
  9 12  1  0  0  0
M  END
> <minimizedAffinity>
-4.82132

> <CNNscore>
0.4819422662

> <CNNaffinity>
7.2329611778

> <CNN_VS>
3.4858696461

> <CNNaffinity_variance>
0.2266579419

$$$$
[H]OC(C([H])([H])[H])(C([H])([H])[H])C([H])([H])N([H])C([H])([H])c1c(-c2sc3c(OC([H])([H])[H])c([H])c(C([H])([H])[H])c([H])c3c2[H])c2c(N([H])[H])nc([H])nn2c1[H]


 33 36  0  0  0  0  0  0  0  0999 V2000
   -7.1326   -8.2585    6.6880 C   0  0  0  0  0  0  0  0  0  0  0  0
   -7.0051   -8.9723    5.5008 C   0  0  0  0  0  0  0  0  0  0  0  0
   -5.6793   -8.9097    5.1753 C   0  0  0  0  0  0  0  0  0  0  0  0
   -4.9988   -8.2144    6.0797 N   0  0  0  0  0  0  0  0  0  0  0  0
   -3.6971   -7.9360    6.1562 N   0  0  0  0  0  0  0  0  0  0  0  0
   -3.2069   -7.2368    7.1858 C   0  0  0  0  0  0  0  0  0  0  0  0
   -4.0386   -6.8183    8.1440 N   0  0  0  0  0  0  0  0  0  0  0  0
   -5.3743   -7.0888    8.0898 C   0  0  0  0  0  0  0  0  0  0  0  0
   -6.1940   -6.6909    9.1735 N   0  0  0  0  0  0  0  0  0  0  0  0
   -5.8939   -7.8044    7.0308 C   0  0  0  0  0  0  0  0  0  0  0  0
   -6.5033   -7.3886    9.8814 H   0  0  0  0  0  0  0  0  0  0  0  0
   -6.4835   -5.6973    9.2570 H   0  0  0  0  0  0  0  0  0  0  0  0
  -12.1533   -8.7028    8.7893 C   0  0  0  0  0  0  0  0  0  0  0  0
  -12.8911   -7.7464    9.4432 C   0  0  0  0  0  0  0  0  0  0  0  0
  -12.3055   -6.5172    9.6320 C   0  0  0  0  0  0  0  0  0  0  0  0
  -13.1000   -5.4519   10.3494 C   0  0  0  0  0  0  0  0  0  0  0  0
  -11.0360   -6.2559    9.1854 C   0  0  0  0  0  0  0  0  0  0  0  0
  -10.2583   -7.2220    8.5114 C   0  0  0  0  0  0  0  0  0  0  0  0
   -9.0064   -7.0726    8.0351 C   0  0  0  0  0  0  0  0  0  0  0  0
   -8.4096   -8.1207    7.4143 C   0  0  0  0  0  0  0  0  0  0  0  0
   -9.6585   -9.3289    7.5109 S   0  0  0  0  0  0  0  0  0  0  0  0
  -10.8514   -8.4380    8.3308 C   0  0  0  0  0  0  0  0  0  0  0  0
  -13.8058  -10.1173    7.7753 C   0  0  0  0  0  0  0  0  0  0  0  0
  -12.6394   -9.9693    8.5446 O   0  0  0  0  0  0  0  0  0  0  0  0
   -8.0816   -9.6637    4.7424 C   0  0  0  0  0  0  0  0  0  0  0  0
   -7.5010  -10.2059    3.5674 N   0  0  0  0  0  0  0  0  0  0  0  0
   -7.3739   -9.4158    2.8797 H   0  0  0  0  0  0  0  0  0  0  0  0
   -8.0435  -11.3006    2.9286 C   0  0  0  0  0  0  0  0  0  0  0  0
   -7.7882  -11.4973    1.4698 C   0  0  0  0  0  0  0  0  0  0  0  0
   -7.3697  -12.9484    1.3015 C   0  0  0  0  0  0  0  0  0  0  0  0
   -9.0336  -11.3253    0.6266 C   0  0  0  0  0  0  0  0  0  0  0  0
   -6.7260  -10.7390    0.9821 O   0  0  0  0  0  0  0  0  0  0  0  0
   -6.3862  -11.1971    0.1839 H   0  0  0  0  0  0  0  0  0  0  0  0
 23 24  1  0  0  0
 24 13  1  0  0  0
 13 14  2  0  0  0
 14 15  1  0  0  0
 15 16  1  0  0  0
 15 17  2  0  0  0
 17 18  1  0  0  0
 18 19  1  0  0  0
 19 20  2  0  0  0
 20 21  1  0  0  0
 21 22  1  0  0  0
 20  1  1  0  0  0
  1  2  1  0  0  0
  2 25  1  0  0  0
 25 26  1  0  0  0
 26 28  1  0  0  0
 28 29  1  0  0  0
 29 30  1  0  0  0
 29 31  1  0  0  0
 29 32  1  0  0  0
  2  3  2  0  0  0
  3  4  1  0  0  0
  4  5  1  0  0  0
  5  6  2  0  0  0
  6  7  1  0  0  0
  7  8  2  0  0  0
  8  9  1  0  0  0
  8 10  1  0  0  0
 22 13  1  0  0  0
 10  1  2  0  0  0
 22 18  2  0  0  0
 10  4  1  0  0  0
 26 27  1  0  0  0
 32 33  1  0  0  0
  9 11  1  0  0  0
  9 12  1  0  0  0
M  END
> <minimizedAffinity>
-0.41338

> <CNNscore>
0.4368366301

> <CNNaffinity>
6.7655310631

> <CNN_VS>
2.9554316998

> <CNNaffinity_variance>
0.1293593645

$$$$
[H]OC(C([H])([H])[H])(C([H])([H])[H])C([H])([H])N([H])C([H])([H])c1c(-c2sc3c(OC([H])([H])[H])c([H])c(C([H])([H])[H])c([H])c3c2[H])c2c(N([H])[H])nc([H])nn2c1[H]


 33 36  0  0  0  0  0  0  0  0999 V2000
  -14.5435   -7.8627    8.3872 C   0  0  0  0  0  0  0  0  0  0  0  0
  -15.5350   -8.3870    9.2101 C   0  0  0  0  0  0  0  0  0  0  0  0
  -15.1119   -8.1549   10.4886 C   0  0  0  0  0  0  0  0  0  0  0  0
  -13.9413   -7.5271   10.4966 N   0  0  0  0  0  0  0  0  0  0  0  0
  -13.1976   -7.0972   11.5165 N   0  0  0  0  0  0  0  0  0  0  0  0
  -12.0486   -6.4479   11.2987 C   0  0  0  0  0  0  0  0  0  0  0  0
  -11.6509   -6.2311   10.0418 N   0  0  0  0  0  0  0  0  0  0  0  0
  -12.3923   -6.6606    8.9806 C   0  0  0  0  0  0  0  0  0  0  0  0
  -11.9629   -6.3313    7.6723 N   0  0  0  0  0  0  0  0  0  0  0  0
  -13.5767   -7.3363    9.1910 C   0  0  0  0  0  0  0  0  0  0  0  0
  -12.4216   -5.5575    7.1486 H   0  0  0  0  0  0  0  0  0  0  0  0
  -11.1860   -6.8673    7.2396 H   0  0  0  0  0  0  0  0  0  0  0  0
  -15.9232   -7.4036    3.1235 C   0  0  0  0  0  0  0  0  0  0  0  0
  -15.3593   -8.0271    2.0373 C   0  0  0  0  0  0  0  0  0  0  0  0
  -14.2902   -8.8589    2.2715 C   0  0  0  0  0  0  0  0  0  0  0  0
  -13.6555   -9.5534    1.0903 C   0  0  0  0  0  0  0  0  0  0  0  0
  -13.8061   -9.0584    3.5385 C   0  0  0  0  0  0  0  0  0  0  0  0
  -14.3682   -8.4291    4.6700 C   0  0  0  0  0  0  0  0  0  0  0  0
  -13.9716   -8.5524    5.9522 C   0  0  0  0  0  0  0  0  0  0  0  0
  -14.6331   -7.8620    6.9144 C   0  0  0  0  0  0  0  0  0  0  0  0
  -15.8378   -7.0332    5.9706 S   0  0  0  0  0  0  0  0  0  0  0  0
  -15.4287   -7.6060    4.4235 C   0  0  0  0  0  0  0  0  0  0  0  0
  -18.2551   -6.9628    3.4808 C   0  0  0  0  0  0  0  0  0  0  0  0
  -16.9987   -6.5492    3.0071 O   0  0  0  0  0  0  0  0  0  0  0  0
  -16.7951   -9.0574    8.7918 C   0  0  0  0  0  0  0  0  0  0  0  0
  -17.7147   -8.0471    8.4103 N   0  0  0  0  0  0  0  0  0  0  0  0
  -18.3866   -7.9074    9.2118 H   0  0  0  0  0  0  0  0  0  0  0  0
  -18.4098   -8.1100    7.2213 C   0  0  0  0  0  0  0  0  0  0  0  0
  -19.4278   -9.1857    7.0251 C   0  0  0  0  0  0  0  0  0  0  0  0
  -20.7470   -8.4809    6.7559 C   0  0  0  0  0  0  0  0  0  0  0  0
  -19.1561  -10.0362    5.8027 C   0  0  0  0  0  0  0  0  0  0  0  0
  -19.6410   -9.9657    8.1596 O   0  0  0  0  0  0  0  0  0  0  0  0
  -20.5423  -10.3459    8.0840 H   0  0  0  0  0  0  0  0  0  0  0  0
 23 24  1  0  0  0
 24 13  1  0  0  0
 13 14  2  0  0  0
 14 15  1  0  0  0
 15 16  1  0  0  0
 15 17  2  0  0  0
 17 18  1  0  0  0
 18 19  1  0  0  0
 19 20  2  0  0  0
 20 21  1  0  0  0
 21 22  1  0  0  0
 20  1  1  0  0  0
  1  2  1  0  0  0
  2 25  1  0  0  0
 25 26  1  0  0  0
 26 28  1  0  0  0
 28 29  1  0  0  0
 29 30  1  0  0  0
 29 31  1  0  0  0
 29 32  1  0  0  0
  2  3  2  0  0  0
  3  4  1  0  0  0
  4  5  1  0  0  0
  5  6  2  0  0  0
  6  7  1  0  0  0
  7  8  2  0  0  0
  8  9  1  0  0  0
  8 10  1  0  0  0
 22 13  1  0  0  0
 10  1  2  0  0  0
 22 18  2  0  0  0
 10  4  1  0  0  0
 26 27  1  0  0  0
 32 33  1  0  0  0
  9 11  1  0  0  0
  9 12  1  0  0  0
M  END
> <minimizedAffinity>
11.95337

> <CNNscore>
0.4091393352

> <CNNaffinity>
6.9498338699

> <CNN_VS>
2.8434503078

> <CNNaffinity_variance>
0.8692425489

$$$$
[H]OC(C([H])([H])[H])(C([H])([H])[H])C([H])([H])N([H])C([H])([H])c1c(-c2sc3c(OC([H])([H])[H])c([H])c(C([H])([H])[H])c([H])c3c2[H])c2c(N([H])[H])nc([H])nn2c1[H]


 33 36  0  0  0  0  0  0  0  0999 V2000
   -9.7776   -7.4452    8.8306 C   0  0  0  0  0  0  0  0  0  0  0  0
  -10.1855   -6.6295    9.8810 C   0  0  0  0  0  0  0  0  0  0  0  0
  -11.4938   -6.9518   10.1094 C   0  0  0  0  0  0  0  0  0  0  0  0
  -11.9026   -7.9030    9.2771 N   0  0  0  0  0  0  0  0  0  0  0  0
  -13.0826   -8.5157    9.1770 N   0  0  0  0  0  0  0  0  0  0  0  0
  -13.2750   -9.4855    8.2761 C   0  0  0  0  0  0  0  0  0  0  0  0
  -12.2671   -9.8383    7.4731 N   0  0  0  0  0  0  0  0  0  0  0  0
  -11.0504   -9.2273    7.5543 C   0  0  0  0  0  0  0  0  0  0  0  0
   -9.9963   -9.6978    6.7345 N   0  0  0  0  0  0  0  0  0  0  0  0
  -10.8399   -8.2218    8.4753 C   0  0  0  0  0  0  0  0  0  0  0  0
   -9.2534  -10.3080    7.1335 H   0  0  0  0  0  0  0  0  0  0  0  0
   -9.9707   -9.4300    5.7316 H   0  0  0  0  0  0  0  0  0  0  0  0
   -4.8696   -6.3276    6.7132 C   0  0  0  0  0  0  0  0  0  0  0  0
   -3.9540   -7.2001    6.1774 C   0  0  0  0  0  0  0  0  0  0  0  0
   -4.2753   -8.5366    6.1864 C   0  0  0  0  0  0  0  0  0  0  0  0
   -3.2815   -9.5124    5.6025 C   0  0  0  0  0  0  0  0  0  0  0  0
   -5.4621   -8.9813    6.7091 C   0  0  0  0  0  0  0  0  0  0  0  0
   -6.4184   -8.1046    7.2652 C   0  0  0  0  0  0  0  0  0  0  0  0
   -7.6089   -8.4334    7.8048 C   0  0  0  0  0  0  0  0  0  0  0  0
   -8.4011   -7.4495    8.2991 C   0  0  0  0  0  0  0  0  0  0  0  0
   -7.4306   -6.0401    7.9816 S   0  0  0  0  0  0  0  0  0  0  0  0
   -6.0869   -6.7807    7.2501 C   0  0  0  0  0  0  0  0  0  0  0  0
   -3.5333   -4.4310    6.0995 C   0  0  0  0  0  0  0  0  0  0  0  0
   -4.6534   -4.9669    6.7569 O   0  0  0  0  0  0  0  0  0  0  0  0
   -9.3721   -5.6193   10.6089 C   0  0  0  0  0  0  0  0  0  0  0  0
   -8.8172   -6.2536   11.7498 N   0  0  0  0  0  0  0  0  0  0  0  0
   -9.2113   -5.7763   12.6042 H   0  0  0  0  0  0  0  0  0  0  0  0
   -7.4570   -6.4259   11.8945 C   0  0  0  0  0  0  0  0  0  0  0  0
   -6.7768   -5.8875   13.1108 C   0  0  0  0  0  0  0  0  0  0  0  0
   -5.8604   -4.7746   12.6300 C   0  0  0  0  0  0  0  0  0  0  0  0
   -7.7385   -5.2402   14.0842 C   0  0  0  0  0  0  0  0  0  0  0  0
   -5.9481   -6.8126   13.7421 O   0  0  0  0  0  0  0  0  0  0  0  0
   -5.2758   -6.3037   14.2436 H   0  0  0  0  0  0  0  0  0  0  0  0
 23 24  1  0  0  0
 24 13  1  0  0  0
 13 14  2  0  0  0
 14 15  1  0  0  0
 15 16  1  0  0  0
 15 17  2  0  0  0
 17 18  1  0  0  0
 18 19  1  0  0  0
 19 20  2  0  0  0
 20 21  1  0  0  0
 21 22  1  0  0  0
 20  1  1  0  0  0
  1  2  1  0  0  0
  2 25  1  0  0  0
 25 26  1  0  0  0
 26 28  1  0  0  0
 28 29  1  0  0  0
 29 30  1  0  0  0
 29 31  1  0  0  0
 29 32  1  0  0  0
  2  3  2  0  0  0
  3  4  1  0  0  0
  4  5  1  0  0  0
  5  6  2  0  0  0
  6  7  1  0  0  0
  7  8  2  0  0  0
  8  9  1  0  0  0
  8 10  1  0  0  0
 22 13  1  0  0  0
 10  1  2  0  0  0
 22 18  2  0  0  0
 10  4  1  0  0  0
 26 27  1  0  0  0
 32 33  1  0  0  0
  9 11  1  0  0  0
  9 12  1  0  0  0
M  END
> <minimizedAffinity>
6.79953

> <CNNscore>
0.3993262053

> <CNNaffinity>
6.2431836128

> <CNN_VS>
2.4930667877

> <CNNaffinity_variance>
0.3292927146

$$$$
[H]OC(C([H])([H])[H])(C([H])([H])[H])C([H])([H])N([H])C([H])([H])c1c(-c2sc3c(OC([H])([H])[H])c([H])c(C([H])([H])[H])c([H])c3c2[H])c2c(N([H])[H])nc([H])nn2c1[H]


 33 36  0  0  0  0  0  0  0  0999 V2000
  -16.0127   -6.8317    5.1244 C   0  0  0  0  0  0  0  0  0  0  0  0
  -14.8321   -6.8479    5.8599 C   0  0  0  0  0  0  0  0  0  0  0  0
  -14.1896   -7.9984    5.4976 C   0  0  0  0  0  0  0  0  0  0  0  0
  -14.8939   -8.6741    4.5965 N   0  0  0  0  0  0  0  0  0  0  0  0
  -14.6233   -9.8190    3.9690 N   0  0  0  0  0  0  0  0  0  0  0  0
  -15.4677  -10.3153    3.0581 C   0  0  0  0  0  0  0  0  0  0  0  0
  -16.5914   -9.6484    2.7796 N   0  0  0  0  0  0  0  0  0  0  0  0
  -16.8925   -8.4756    3.4073 C   0  0  0  0  0  0  0  0  0  0  0  0
  -18.0561   -7.7718    3.0133 N   0  0  0  0  0  0  0  0  0  0  0  0
  -16.0330   -7.9552    4.3528 C   0  0  0  0  0  0  0  0  0  0  0  0
  -17.9812   -6.9397    2.3923 H   0  0  0  0  0  0  0  0  0  0  0  0
  -18.9851   -8.0928    3.3480 H   0  0  0  0  0  0  0  0  0  0  0  0
  -19.4469   -2.8092    6.4833 C   0  0  0  0  0  0  0  0  0  0  0  0
  -20.4411   -2.2442    5.7224 C   0  0  0  0  0  0  0  0  0  0  0  0
  -20.5977   -2.7125    4.4396 C   0  0  0  0  0  0  0  0  0  0  0  0
  -21.6850   -2.1038    3.5864 C   0  0  0  0  0  0  0  0  0  0  0  0
  -19.7939   -3.7040    3.9394 C   0  0  0  0  0  0  0  0  0  0  0  0
  -18.7658   -4.2998    4.7013 C   0  0  0  0  0  0  0  0  0  0  0  0
  -17.9212   -5.2742    4.3095 C   0  0  0  0  0  0  0  0  0  0  0  0
  -16.9852   -5.7235    5.1826 C   0  0  0  0  0  0  0  0  0  0  0  0
  -17.3244   -4.7422    6.5792 S   0  0  0  0  0  0  0  0  0  0  0  0
  -18.6210   -3.8255    5.9729 C   0  0  0  0  0  0  0  0  0  0  0  0
  -19.8894   -3.0517    8.8296 C   0  0  0  0  0  0  0  0  0  0  0  0
  -19.2000   -2.4183    7.7819 O   0  0  0  0  0  0  0  0  0  0  0  0
  -14.3610   -5.8283    6.8348 C   0  0  0  0  0  0  0  0  0  0  0  0
  -13.9831   -6.5081    8.0208 N   0  0  0  0  0  0  0  0  0  0  0  0
  -14.5006   -6.0609    8.8243 H   0  0  0  0  0  0  0  0  0  0  0  0
  -12.6599   -6.6936    8.3607 C   0  0  0  0  0  0  0  0  0  0  0  0
  -12.1663   -6.1941    9.6793 C   0  0  0  0  0  0  0  0  0  0  0  0
  -13.0879   -5.0527   10.0756 C   0  0  0  0  0  0  0  0  0  0  0  0
  -12.2872   -7.2251   10.7811 C   0  0  0  0  0  0  0  0  0  0  0  0
  -10.8871   -5.6448    9.6245 O   0  0  0  0  0  0  0  0  0  0  0  0
  -10.8092   -5.0178   10.3750 H   0  0  0  0  0  0  0  0  0  0  0  0
 23 24  1  0  0  0
 24 13  1  0  0  0
 13 14  2  0  0  0
 14 15  1  0  0  0
 15 16  1  0  0  0
 15 17  2  0  0  0
 17 18  1  0  0  0
 18 19  1  0  0  0
 19 20  2  0  0  0
 20 21  1  0  0  0
 21 22  1  0  0  0
 20  1  1  0  0  0
  1  2  1  0  0  0
  2 25  1  0  0  0
 25 26  1  0  0  0
 26 28  1  0  0  0
 28 29  1  0  0  0
 29 30  1  0  0  0
 29 31  1  0  0  0
 29 32  1  0  0  0
  2  3  2  0  0  0
  3  4  1  0  0  0
  4  5  1  0  0  0
  5  6  2  0  0  0
  6  7  1  0  0  0
  7  8  2  0  0  0
  8  9  1  0  0  0
  8 10  1  0  0  0
 22 13  1  0  0  0
 10  1  2  0  0  0
 22 18  2  0  0  0
 10  4  1  0  0  0
 26 27  1  0  0  0
 32 33  1  0  0  0
  9 11  1  0  0  0
  9 12  1  0  0  0
M  END
> <minimizedAffinity>
16.24587

> <CNNscore>
0.3834804595

> <CNNaffinity>
6.9401369095

> <CNN_VS>
2.6614069939

> <CNNaffinity_variance>
0.7042151093

$$$$
[H]OC(C([H])([H])[H])(C([H])([H])[H])C([H])([H])N([H])C([H])([H])c1c(-c2sc3c(OC([H])([H])[H])c([H])c(C([H])([H])[H])c([H])c3c2[H])c2c(N([H])[H])nc([H])nn2c1[H]


 33 36  0  0  0  0  0  0  0  0999 V2000
  -13.2670   -7.4836    8.4332 C   0  0  0  0  0  0  0  0  0  0  0  0
  -11.9353   -7.1343    8.6322 C   0  0  0  0  0  0  0  0  0  0  0  0
  -11.7222   -7.2507    9.9771 C   0  0  0  0  0  0  0  0  0  0  0  0
  -12.8254   -7.6472   10.6019 N   0  0  0  0  0  0  0  0  0  0  0  0
  -13.0436   -7.9040   11.8919 N   0  0  0  0  0  0  0  0  0  0  0  0
  -14.2398   -8.3313   12.3110 C   0  0  0  0  0  0  0  0  0  0  0  0
  -15.2201   -8.5012   11.4193 N   0  0  0  0  0  0  0  0  0  0  0  0
  -15.0238   -8.2452   10.0941 C   0  0  0  0  0  0  0  0  0  0  0  0
  -16.0733   -8.5208    9.1847 N   0  0  0  0  0  0  0  0  0  0  0  0
  -13.7965   -7.7988    9.6491 C   0  0  0  0  0  0  0  0  0  0  0  0
  -16.0469   -9.3799    8.5975 H   0  0  0  0  0  0  0  0  0  0  0  0
  -16.8702   -7.8596    9.1088 H   0  0  0  0  0  0  0  0  0  0  0  0
  -16.0956   -6.6928    3.8294 C   0  0  0  0  0  0  0  0  0  0  0  0
  -16.3988   -7.6050    2.8484 C   0  0  0  0  0  0  0  0  0  0  0  0
  -15.9186   -8.8835    3.0048 C   0  0  0  0  0  0  0  0  0  0  0  0
  -16.2405   -9.9014    1.9367 C   0  0  0  0  0  0  0  0  0  0  0  0
  -15.1671   -9.2344    4.0964 C   0  0  0  0  0  0  0  0  0  0  0  0
  -14.8421   -8.3152    5.1171 C   0  0  0  0  0  0  0  0  0  0  0  0
  -14.1126   -8.5523    6.2253 C   0  0  0  0  0  0  0  0  0  0  0  0
  -13.8970   -7.5382    7.1000 C   0  0  0  0  0  0  0  0  0  0  0  0
  -14.7533   -6.2349    6.3273 S   0  0  0  0  0  0  0  0  0  0  0  0
  -15.3249   -7.0496    4.9494 C   0  0  0  0  0  0  0  0  0  0  0  0
  -17.8314   -5.0751    4.1893 C   0  0  0  0  0  0  0  0  0  0  0  0
  -16.5241   -5.3837    3.7770 O   0  0  0  0  0  0  0  0  0  0  0  0
  -10.9454   -6.7231    7.6012 C   0  0  0  0  0  0  0  0  0  0  0  0
   -9.6507   -6.9830    8.1189 N   0  0  0  0  0  0  0  0  0  0  0  0
   -9.0748   -6.1077    7.9938 H   0  0  0  0  0  0  0  0  0  0  0  0
   -8.9202   -8.0847    7.7271 C   0  0  0  0  0  0  0  0  0  0  0  0
   -7.5246   -7.8974    7.2280 C   0  0  0  0  0  0  0  0  0  0  0  0
   -7.5323   -6.6173    6.4090 C   0  0  0  0  0  0  0  0  0  0  0  0
   -6.5271   -7.6690    8.3434 C   0  0  0  0  0  0  0  0  0  0  0  0
   -7.1043   -8.9003    6.3570 O   0  0  0  0  0  0  0  0  0  0  0  0
   -6.3946   -8.5187    5.7974 H   0  0  0  0  0  0  0  0  0  0  0  0
 23 24  1  0  0  0
 24 13  1  0  0  0
 13 14  2  0  0  0
 14 15  1  0  0  0
 15 16  1  0  0  0
 15 17  2  0  0  0
 17 18  1  0  0  0
 18 19  1  0  0  0
 19 20  2  0  0  0
 20 21  1  0  0  0
 21 22  1  0  0  0
 20  1  1  0  0  0
  1  2  1  0  0  0
  2 25  1  0  0  0
 25 26  1  0  0  0
 26 28  1  0  0  0
 28 29  1  0  0  0
 29 30  1  0  0  0
 29 31  1  0  0  0
 29 32  1  0  0  0
  2  3  2  0  0  0
  3  4  1  0  0  0
  4  5  1  0  0  0
  5  6  2  0  0  0
  6  7  1  0  0  0
  7  8  2  0  0  0
  8  9  1  0  0  0
  8 10  1  0  0  0
 22 13  1  0  0  0
 10  1  2  0  0  0
 22 18  2  0  0  0
 10  4  1  0  0  0
 26 27  1  0  0  0
 32 33  1  0  0  0
  9 11  1  0  0  0
  9 12  1  0  0  0
M  END
> <minimizedAffinity>
2.83408

> <CNNscore>
0.3659088016

> <CNNaffinity>
7.0852441788

> <CNN_VS>
2.5925531387

> <CNNaffinity_variance>
0.1849662960

$$$$
[H]OC(C([H])([H])[H])(C([H])([H])[H])C([H])([H])N([H])C([H])([H])c1c(-c2sc3c(OC([H])([H])[H])c([H])c(C([H])([H])[H])c([H])c3c2[H])c2c(N([H])[H])nc([H])nn2c1[H]


 33 36  0  0  0  0  0  0  0  0999 V2000
   -7.9396   -7.8118    7.8947 C   0  0  0  0  0  0  0  0  0  0  0  0
   -8.4436   -7.0629    8.9532 C   0  0  0  0  0  0  0  0  0  0  0  0
   -9.7537   -7.4330    9.0737 C   0  0  0  0  0  0  0  0  0  0  0  0
  -10.0748   -8.3510    8.1690 N   0  0  0  0  0  0  0  0  0  0  0  0
  -11.2254   -8.9905    7.9569 N   0  0  0  0  0  0  0  0  0  0  0  0
  -11.3254   -9.9176    6.9978 C   0  0  0  0  0  0  0  0  0  0  0  0
  -10.2546  -10.2002    6.2505 N   0  0  0  0  0  0  0  0  0  0  0  0
   -9.0660   -9.5605    6.4463 C   0  0  0  0  0  0  0  0  0  0  0  0
   -7.9443   -9.9586    5.6796 N   0  0  0  0  0  0  0  0  0  0  0  0
   -8.9505   -8.5983    7.4284 C   0  0  0  0  0  0  0  0  0  0  0  0
   -7.2115  -10.5676    6.0987 H   0  0  0  0  0  0  0  0  0  0  0  0
   -7.8589   -9.6389    4.6954 H   0  0  0  0  0  0  0  0  0  0  0  0
   -2.9943   -6.4985    5.9869 C   0  0  0  0  0  0  0  0  0  0  0  0
   -1.9696   -7.3388    5.6256 C   0  0  0  0  0  0  0  0  0  0  0  0
   -2.1767   -8.6891    5.7788 C   0  0  0  0  0  0  0  0  0  0  0  0
   -1.0619   -9.6299    5.3879 C   0  0  0  0  0  0  0  0  0  0  0  0
   -3.3586   -9.1778    6.2723 C   0  0  0  0  0  0  0  0  0  0  0  0
   -4.4257   -8.3348    6.6505 C   0  0  0  0  0  0  0  0  0  0  0  0
   -5.6224   -8.7073    7.1461 C   0  0  0  0  0  0  0  0  0  0  0  0
   -6.5307   -7.7502    7.4607 C   0  0  0  0  0  0  0  0  0  0  0  0
   -5.6610   -6.3037    7.0363 S   0  0  0  0  0  0  0  0  0  0  0  0
   -4.2070   -6.9967    6.4935 C   0  0  0  0  0  0  0  0  0  0  0  0
   -1.6525   -4.5525    5.5723 C   0  0  0  0  0  0  0  0  0  0  0  0
   -2.8977   -5.1279    5.8759 O   0  0  0  0  0  0  0  0  0  0  0  0
   -7.7137   -6.0693    9.7850 C   0  0  0  0  0  0  0  0  0  0  0  0
   -7.1755   -6.7558   10.9034 N   0  0  0  0  0  0  0  0  0  0  0  0
   -7.8645   -6.6632   11.6972 H   0  0  0  0  0  0  0  0  0  0  0  0
   -5.8982   -6.5094   11.3602 C   0  0  0  0  0  0  0  0  0  0  0  0
   -5.6982   -6.0793   12.7768 C   0  0  0  0  0  0  0  0  0  0  0  0
   -4.6448   -4.9843   12.7458 C   0  0  0  0  0  0  0  0  0  0  0  0
   -6.9346   -5.4471   13.3794 C   0  0  0  0  0  0  0  0  0  0  0  0
   -5.1787   -7.0797   13.5956 O   0  0  0  0  0  0  0  0  0  0  0  0
   -4.7253   -6.6351   14.3434 H   0  0  0  0  0  0  0  0  0  0  0  0
 23 24  1  0  0  0
 24 13  1  0  0  0
 13 14  2  0  0  0
 14 15  1  0  0  0
 15 16  1  0  0  0
 15 17  2  0  0  0
 17 18  1  0  0  0
 18 19  1  0  0  0
 19 20  2  0  0  0
 20 21  1  0  0  0
 21 22  1  0  0  0
 20  1  1  0  0  0
  1  2  1  0  0  0
  2 25  1  0  0  0
 25 26  1  0  0  0
 26 28  1  0  0  0
 28 29  1  0  0  0
 29 30  1  0  0  0
 29 31  1  0  0  0
 29 32  1  0  0  0
  2  3  2  0  0  0
  3  4  1  0  0  0
  4  5  1  0  0  0
  5  6  2  0  0  0
  6  7  1  0  0  0
  7  8  2  0  0  0
  8  9  1  0  0  0
  8 10  1  0  0  0
 22 13  1  0  0  0
 10  1  2  0  0  0
 22 18  2  0  0  0
 10  4  1  0  0  0
 26 27  1  0  0  0
 32 33  1  0  0  0
  9 11  1  0  0  0
  9 12  1  0  0  0
M  END
> <minimizedAffinity>
2.98781

> <CNNscore>
0.3577466309

> <CNNaffinity>
6.1656956673

> <CNN_VS>
2.2057569027

> <CNNaffinity_variance>
0.8863407373

$$$$
[H]OC(C([H])([H])[H])(C([H])([H])[H])C([H])([H])N([H])C([H])([H])c1c(-c2sc3c(OC([H])([H])[H])c([H])c(C([H])([H])[H])c([H])c3c2[H])c2c(N([H])[H])nc([H])nn2c1[H]


 33 36  0  0  0  0  0  0  0  0999 V2000
  -10.6888   -7.7366    8.2606 C   0  0  0  0  0  0  0  0  0  0  0  0
  -11.3819   -6.7300    8.9251 C   0  0  0  0  0  0  0  0  0  0  0  0
  -12.6966   -7.1006    8.8836 C   0  0  0  0  0  0  0  0  0  0  0  0
  -12.8461   -8.2567    8.2468 N   0  0  0  0  0  0  0  0  0  0  0  0
  -13.9428   -8.9761    8.0068 N   0  0  0  0  0  0  0  0  0  0  0  0
  -13.8649  -10.1480    7.3665 C   0  0  0  0  0  0  0  0  0  0  0  0
  -12.6705  -10.5949    6.9683 N   0  0  0  0  0  0  0  0  0  0  0  0
  -11.5333   -9.8785    7.2005 C   0  0  0  0  0  0  0  0  0  0  0  0
  -10.2876  -10.4393    6.8287 N   0  0  0  0  0  0  0  0  0  0  0  0
  -11.5999   -8.6657    7.8551 C   0  0  0  0  0  0  0  0  0  0  0  0
   -9.6692  -10.8676    7.5482 H   0  0  0  0  0  0  0  0  0  0  0  0
   -9.9961  -10.4207    5.8323 H   0  0  0  0  0  0  0  0  0  0  0  0
   -5.3017   -6.8611    8.4438 C   0  0  0  0  0  0  0  0  0  0  0  0
   -4.3321   -7.3341    7.5935 C   0  0  0  0  0  0  0  0  0  0  0  0
   -4.7368   -8.1589    6.5711 C   0  0  0  0  0  0  0  0  0  0  0  0
   -3.6859   -8.6901    5.6256 C   0  0  0  0  0  0  0  0  0  0  0  0
   -6.0554   -8.4961    6.4063 C   0  0  0  0  0  0  0  0  0  0  0  0
   -7.0695   -8.0232    7.2666 C   0  0  0  0  0  0  0  0  0  0  0  0
   -8.3883   -8.2924    7.1972 C   0  0  0  0  0  0  0  0  0  0  0  0
   -9.2199   -7.7489    8.1208 C   0  0  0  0  0  0  0  0  0  0  0  0
   -8.0994   -6.8397    9.0938 S   0  0  0  0  0  0  0  0  0  0  0  0
   -6.6542   -7.2054    8.2775 C   0  0  0  0  0  0  0  0  0  0  0  0
   -4.0603   -5.0077    9.3289 C   0  0  0  0  0  0  0  0  0  0  0  0
   -5.0111   -6.0275    9.5024 O   0  0  0  0  0  0  0  0  0  0  0  0
  -10.8158   -5.5067    9.5537 C   0  0  0  0  0  0  0  0  0  0  0  0
  -10.5758   -5.7966   10.9213 N   0  0  0  0  0  0  0  0  0  0  0  0
  -10.4632   -6.8419   11.0115 H   0  0  0  0  0  0  0  0  0  0  0  0
  -11.4033   -5.3264   11.9188 C   0  0  0  0  0  0  0  0  0  0  0  0
  -10.9820   -5.4661   13.3453 C   0  0  0  0  0  0  0  0  0  0  0  0
  -11.6287   -6.7420   13.8584 C   0  0  0  0  0  0  0  0  0  0  0  0
   -9.4897   -5.6673   13.5005 C   0  0  0  0  0  0  0  0  0  0  0  0
  -11.4537   -4.4461   14.1688 O   0  0  0  0  0  0  0  0  0  0  0  0
  -11.4822   -4.8020   15.0826 H   0  0  0  0  0  0  0  0  0  0  0  0
 23 24  1  0  0  0
 24 13  1  0  0  0
 13 14  2  0  0  0
 14 15  1  0  0  0
 15 16  1  0  0  0
 15 17  2  0  0  0
 17 18  1  0  0  0
 18 19  1  0  0  0
 19 20  2  0  0  0
 20 21  1  0  0  0
 21 22  1  0  0  0
 20  1  1  0  0  0
  1  2  1  0  0  0
  2 25  1  0  0  0
 25 26  1  0  0  0
 26 28  1  0  0  0
 28 29  1  0  0  0
 29 30  1  0  0  0
 29 31  1  0  0  0
 29 32  1  0  0  0
  2  3  2  0  0  0
  3  4  1  0  0  0
  4  5  1  0  0  0
  5  6  2  0  0  0
  6  7  1  0  0  0
  7  8  2  0  0  0
  8  9  1  0  0  0
  8 10  1  0  0  0
 22 13  1  0  0  0
 10  1  2  0  0  0
 22 18  2  0  0  0
 10  4  1  0  0  0
 26 27  1  0  0  0
 32 33  1  0  0  0
  9 11  1  0  0  0
  9 12  1  0  0  0
M  END
> <minimizedAffinity>
0.01583

> <CNNscore>
0.3445092440

> <CNNaffinity>
6.5349206924

> <CNN_VS>
2.2513406277

> <CNNaffinity_variance>
0.1183263510

$$$$
[H]OC(C([H])([H])[H])(C([H])([H])[H])C([H])([H])N([H])C([H])([H])c1c(-c2sc3c(OC([H])([H])[H])c([H])c(C([H])([H])[H])c([H])c3c2[H])c2c(N([H])[H])nc([H])nn2c1[H]


 33 36  0  0  0  0  0  0  0  0999 V2000
   -9.4709   -7.7035    8.1815 C   0  0  0  0  0  0  0  0  0  0  0  0
   -9.9477   -6.9462    9.2466 C   0  0  0  0  0  0  0  0  0  0  0  0
  -11.2082   -7.4128    9.4936 C   0  0  0  0  0  0  0  0  0  0  0  0
  -11.5243   -8.3967    8.6590 N   0  0  0  0  0  0  0  0  0  0  0  0
  -12.6311   -9.1352    8.5726 N   0  0  0  0  0  0  0  0  0  0  0  0
  -12.7313  -10.1131    7.6655 C   0  0  0  0  0  0  0  0  0  0  0  0
  -11.7050  -10.3460    6.8424 N   0  0  0  0  0  0  0  0  0  0  0  0
  -10.5619   -9.6050    6.9092 C   0  0  0  0  0  0  0  0  0  0  0  0
   -9.4770   -9.9497    6.0673 N   0  0  0  0  0  0  0  0  0  0  0  0
  -10.4473   -8.5898    7.8365 C   0  0  0  0  0  0  0  0  0  0  0  0
   -8.6644  -10.4773    6.4478 H   0  0  0  0  0  0  0  0  0  0  0  0
   -9.4988   -9.6728    5.0668 H   0  0  0  0  0  0  0  0  0  0  0  0
   -4.1497   -7.8842    6.9680 C   0  0  0  0  0  0  0  0  0  0  0  0
   -3.4190   -7.0049    6.2068 C   0  0  0  0  0  0  0  0  0  0  0  0
   -4.0925   -5.9481    5.6420 C   0  0  0  0  0  0  0  0  0  0  0  0
   -3.3071   -4.9702    4.8008 C   0  0  0  0  0  0  0  0  0  0  0  0
   -5.4397   -5.7782    5.8308 C   0  0  0  0  0  0  0  0  0  0  0  0
   -6.2119   -6.6680    6.6081 C   0  0  0  0  0  0  0  0  0  0  0  0
   -7.5348   -6.5966    6.8555 C   0  0  0  0  0  0  0  0  0  0  0  0
   -8.1120   -7.5515    7.6270 C   0  0  0  0  0  0  0  0  0  0  0  0
   -6.7427   -8.5570    8.0045 S   0  0  0  0  0  0  0  0  0  0  0  0
   -5.5310   -7.7128    7.1630 C   0  0  0  0  0  0  0  0  0  0  0  0
   -2.2219   -9.2609    7.3528 C   0  0  0  0  0  0  0  0  0  0  0  0
   -3.5791   -8.9785    7.5820 O   0  0  0  0  0  0  0  0  0  0  0  0
   -9.2379   -5.8582    9.9707 C   0  0  0  0  0  0  0  0  0  0  0  0
   -8.5765   -6.4403   11.0822 N   0  0  0  0  0  0  0  0  0  0  0  0
   -8.9444   -5.9729   11.9537 H   0  0  0  0  0  0  0  0  0  0  0  0
   -7.2021   -6.5303   11.1432 C   0  0  0  0  0  0  0  0  0  0  0  0
   -6.5028   -6.1944   12.4199 C   0  0  0  0  0  0  0  0  0  0  0  0
   -5.3453   -5.2836   12.0458 C   0  0  0  0  0  0  0  0  0  0  0  0
   -7.3676   -5.3951   13.3711 C   0  0  0  0  0  0  0  0  0  0  0  0
   -5.9277   -7.2971   13.0479 O   0  0  0  0  0  0  0  0  0  0  0  0
   -5.1970   -6.9614   13.6099 H   0  0  0  0  0  0  0  0  0  0  0  0
 23 24  1  0  0  0
 24 13  1  0  0  0
 13 14  2  0  0  0
 14 15  1  0  0  0
 15 16  1  0  0  0
 15 17  2  0  0  0
 17 18  1  0  0  0
 18 19  1  0  0  0
 19 20  2  0  0  0
 20 21  1  0  0  0
 21 22  1  0  0  0
 20  1  1  0  0  0
  1  2  1  0  0  0
  2 25  1  0  0  0
 25 26  1  0  0  0
 26 28  1  0  0  0
 28 29  1  0  0  0
 29 30  1  0  0  0
 29 31  1  0  0  0
 29 32  1  0  0  0
  2  3  2  0  0  0
  3  4  1  0  0  0
  4  5  1  0  0  0
  5  6  2  0  0  0
  6  7  1  0  0  0
  7  8  2  0  0  0
  8  9  1  0  0  0
  8 10  1  0  0  0
 22 13  1  0  0  0
 10  1  2  0  0  0
 22 18  2  0  0  0
 10  4  1  0  0  0
 26 27  1  0  0  0
 32 33  1  0  0  0
  9 11  1  0  0  0
  9 12  1  0  0  0
M  END
> <minimizedAffinity>
3.89368

> <CNNscore>
0.3206995428

> <CNNaffinity>
6.3119859695

> <CNN_VS>
2.0242509842

> <CNNaffinity_variance>
0.3217326999

$$$$
[H]c1c(C([H])([H])[H])nc(C([H])([H])[H])c([H])c1-c1nc(-c2c([H])c([H])c(C([H])([H])[H])c(F)c2[H])n2c1C([H])([H])C([H])([H])O[C@]([H])(C([H])([H])[H])C2([H])[H]


 27 30  0  0  0  0  0  0  0  0999 V2000
  -11.6019  -10.1975    5.0771 C   0  0  0  0  0  0  0  0  0  0  0  0
  -11.7990  -10.0582    6.5450 C   0  0  0  0  0  0  0  0  0  0  0  0
  -13.2543   -9.9198    6.9001 C   0  0  0  0  0  0  0  0  0  0  0  0
  -13.4830   -8.5722    7.3646 N   0  0  0  0  0  0  0  0  0  0  0  0
  -12.8311   -8.1097    8.4936 C   0  0  0  0  0  0  0  0  0  0  0  0
  -11.8116   -8.8411    9.2962 C   0  0  0  0  0  0  0  0  0  0  0  0
  -10.6556   -9.1943    8.3483 C   0  0  0  0  0  0  0  0  0  0  0  0
  -11.0608   -8.9614    7.0119 O   0  0  0  0  0  0  0  0  0  0  0  0
  -13.2561   -6.8354    8.7602 C   0  0  0  0  0  0  0  0  0  0  0  0
  -14.1389   -6.5681    7.7954 N   0  0  0  0  0  0  0  0  0  0  0  0
  -14.2837   -7.6216    6.9371 C   0  0  0  0  0  0  0  0  0  0  0  0
  -15.2102   -7.6292    5.8214 C   0  0  0  0  0  0  0  0  0  0  0  0
  -15.3049   -8.5523    4.8363 C   0  0  0  0  0  0  0  0  0  0  0  0
  -16.2987   -8.4840    3.8433 C   0  0  0  0  0  0  0  0  0  0  0  0
  -17.2076   -7.4744    3.8398 C   0  0  0  0  0  0  0  0  0  0  0  0
  -18.2671   -7.4053    2.7778 C   0  0  0  0  0  0  0  0  0  0  0  0
  -17.1341   -6.5238    4.8258 C   0  0  0  0  0  0  0  0  0  0  0  0
  -18.0545   -5.5293    4.7975 F   0  0  0  0  0  0  0  0  0  0  0  0
  -16.1585   -6.5989    5.7939 C   0  0  0  0  0  0  0  0  0  0  0  0
  -12.8441   -5.9350    9.8485 C   0  0  0  0  0  0  0  0  0  0  0  0
  -13.0656   -4.5785    9.7342 C   0  0  0  0  0  0  0  0  0  0  0  0
  -12.7106   -3.6940   10.7537 C   0  0  0  0  0  0  0  0  0  0  0  0
  -12.9435   -2.2300   10.6438 C   0  0  0  0  0  0  0  0  0  0  0  0
  -12.1382   -4.1934   11.8713 N   0  0  0  0  0  0  0  0  0  0  0  0
  -11.8989   -5.5114   12.0353 C   0  0  0  0  0  0  0  0  0  0  0  0
  -11.2644   -6.0031   13.2906 C   0  0  0  0  0  0  0  0  0  0  0  0
  -12.2590   -6.3754   11.0103 C   0  0  0  0  0  0  0  0  0  0  0  0
  1  2  1  0  0  0
  2  3  1  0  0  0
  3  4  1  0  0  0
  4  5  1  0  0  0
  5  6  1  0  0  0
  6  7  1  0  0  0
  7  8  1  0  0  0
  5  9  2  0  0  0
  9 10  1  0  0  0
 10 11  2  0  0  0
 11 12  1  0  0  0
 12 13  2  0  0  0
 13 14  1  0  0  0
 14 15  2  0  0  0
 15 16  1  0  0  0
 15 17  1  0  0  0
 17 18  1  0  0  0
 17 19  2  0  0  0
  9 20  1  0  0  0
 20 21  2  0  0  0
 21 22  1  0  0  0
 22 23  1  0  0  0
 22 24  2  0  0  0
 24 25  1  0  0  0
 25 26  1  0  0  0
 25 27  2  0  0  0
  8  2  1  0  0  0
 19 12  1  0  0  0
 27 20  1  0  0  0
 11  4  1  0  0  0
M  END
> <minimizedAffinity>
2.21996

> <CNNscore>
0.4631950557

> <CNNaffinity>
6.8710265160

> <CNN_VS>
3.1826255322

> <CNNaffinity_variance>
0.4361230433

$$$$
[H]c1c(C([H])([H])[H])nc(C([H])([H])[H])c([H])c1-c1nc(-c2c([H])c([H])c(C([H])([H])[H])c(F)c2[H])n2c1C([H])([H])C([H])([H])O[C@]([H])(C([H])([H])[H])C2([H])[H]


 27 30  0  0  0  0  0  0  0  0999 V2000
  -13.9337   -7.3708    5.0414 C   0  0  0  0  0  0  0  0  0  0  0  0
  -14.3734   -6.9898    6.4105 C   0  0  0  0  0  0  0  0  0  0  0  0
  -13.2966   -6.2477    7.1542 C   0  0  0  0  0  0  0  0  0  0  0  0
  -12.8088   -7.0967    8.2151 N   0  0  0  0  0  0  0  0  0  0  0  0
  -13.6657   -7.5110    9.2188 C   0  0  0  0  0  0  0  0  0  0  0  0
  -15.1267   -7.2368    9.3126 C   0  0  0  0  0  0  0  0  0  0  0  0
  -15.7779   -7.8064    8.0434 C   0  0  0  0  0  0  0  0  0  0  0  0
  -14.7669   -8.1395    7.1100 O   0  0  0  0  0  0  0  0  0  0  0  0
  -12.9581   -8.2508   10.1285 C   0  0  0  0  0  0  0  0  0  0  0  0
  -11.7112   -8.2635    9.6524 N   0  0  0  0  0  0  0  0  0  0  0  0
  -11.6096   -7.5629    8.4836 C   0  0  0  0  0  0  0  0  0  0  0  0
  -10.3638   -7.3701    7.7665 C   0  0  0  0  0  0  0  0  0  0  0  0
   -9.6745   -6.2162    7.6092 C   0  0  0  0  0  0  0  0  0  0  0  0
   -8.4342   -6.1728    6.9474 C   0  0  0  0  0  0  0  0  0  0  0  0
   -7.8809   -7.3031    6.4359 C   0  0  0  0  0  0  0  0  0  0  0  0
   -6.5563   -7.2522    5.7301 C   0  0  0  0  0  0  0  0  0  0  0  0
   -8.5587   -8.4867    6.5794 C   0  0  0  0  0  0  0  0  0  0  0  0
   -7.9819   -9.5979    6.0602 F   0  0  0  0  0  0  0  0  0  0  0  0
   -9.7717   -8.5200    7.2291 C   0  0  0  0  0  0  0  0  0  0  0  0
  -13.4369   -8.9057   11.3560 C   0  0  0  0  0  0  0  0  0  0  0  0
  -12.5532   -9.6170   12.1405 C   0  0  0  0  0  0  0  0  0  0  0  0
  -12.9627  -10.2330   13.3239 C   0  0  0  0  0  0  0  0  0  0  0  0
  -12.0211  -11.0026   14.1788 C   0  0  0  0  0  0  0  0  0  0  0  0
  -14.2571  -10.1207   13.6958 N   0  0  0  0  0  0  0  0  0  0  0  0
  -15.1632   -9.4369   12.9661 C   0  0  0  0  0  0  0  0  0  0  0  0
  -16.5773   -9.3480   13.4273 C   0  0  0  0  0  0  0  0  0  0  0  0
  -14.7370   -8.8310   11.7922 C   0  0  0  0  0  0  0  0  0  0  0  0
  1  2  1  0  0  0
  2  3  1  0  0  0
  3  4  1  0  0  0
  4  5  1  0  0  0
  5  6  1  0  0  0
  6  7  1  0  0  0
  7  8  1  0  0  0
  5  9  2  0  0  0
  9 10  1  0  0  0
 10 11  2  0  0  0
 11 12  1  0  0  0
 12 13  2  0  0  0
 13 14  1  0  0  0
 14 15  2  0  0  0
 15 16  1  0  0  0
 15 17  1  0  0  0
 17 18  1  0  0  0
 17 19  2  0  0  0
  9 20  1  0  0  0
 20 21  2  0  0  0
 21 22  1  0  0  0
 22 23  1  0  0  0
 22 24  2  0  0  0
 24 25  1  0  0  0
 25 26  1  0  0  0
 25 27  2  0  0  0
  8  2  1  0  0  0
 19 12  1  0  0  0
 27 20  1  0  0  0
 11  4  1  0  0  0
M  END
> <minimizedAffinity>
17.81166

> <CNNscore>
0.4527121186

> <CNNaffinity>
6.6239395142

> <CNN_VS>
2.9987375736

> <CNNaffinity_variance>
0.7642802000

$$$$
[H]c1c(C([H])([H])[H])nc(C([H])([H])[H])c([H])c1-c1nc(-c2c([H])c([H])c(C([H])([H])[H])c(F)c2[H])n2c1C([H])([H])C([H])([H])O[C@]([H])(C([H])([H])[H])C2([H])[H]


 27 30  0  0  0  0  0  0  0  0999 V2000
  -15.2342   -9.1505    2.6124 C   0  0  0  0  0  0  0  0  0  0  0  0
  -14.8945   -9.5040    4.0170 C   0  0  0  0  0  0  0  0  0  0  0  0
  -15.9442   -9.0226    4.9811 C   0  0  0  0  0  0  0  0  0  0  0  0
  -15.3824   -7.9494    5.7665 N   0  0  0  0  0  0  0  0  0  0  0  0
  -14.2860   -8.1854    6.5763 C   0  0  0  0  0  0  0  0  0  0  0  0
  -13.5234   -9.4593    6.6944 C   0  0  0  0  0  0  0  0  0  0  0  0
  -13.0006   -9.8071    5.2925 C   0  0  0  0  0  0  0  0  0  0  0  0
  -13.6361   -8.9760    4.3386 O   0  0  0  0  0  0  0  0  0  0  0  0
  -13.9818   -7.0364    7.2565 C   0  0  0  0  0  0  0  0  0  0  0  0
  -14.8899   -6.1509    6.8411 N   0  0  0  0  0  0  0  0  0  0  0  0
  -15.7491   -6.6979    5.9301 C   0  0  0  0  0  0  0  0  0  0  0  0
  -16.8646   -5.9800    5.3438 C   0  0  0  0  0  0  0  0  0  0  0  0
  -17.5968   -6.3373    4.2633 C   0  0  0  0  0  0  0  0  0  0  0  0
  -18.7059   -5.5869    3.8327 C   0  0  0  0  0  0  0  0  0  0  0  0
  -19.0823   -4.4626    4.4957 C   0  0  0  0  0  0  0  0  0  0  0  0
  -20.2670   -3.6644    4.0327 C   0  0  0  0  0  0  0  0  0  0  0  0
  -18.3568   -4.0760    5.5936 C   0  0  0  0  0  0  0  0  0  0  0  0
  -18.7564   -2.9511    6.2355 F   0  0  0  0  0  0  0  0  0  0  0  0
  -17.2733   -4.8168    6.0082 C   0  0  0  0  0  0  0  0  0  0  0  0
  -12.8991   -6.7971    8.2238 C   0  0  0  0  0  0  0  0  0  0  0  0
  -11.5967   -7.0915    7.8785 C   0  0  0  0  0  0  0  0  0  0  0  0
  -10.5392   -6.8576    8.7587 C   0  0  0  0  0  0  0  0  0  0  0  0
   -9.1309   -7.1701    8.3998 C   0  0  0  0  0  0  0  0  0  0  0  0
  -10.8139   -6.3304    9.9723 N   0  0  0  0  0  0  0  0  0  0  0  0
  -12.0693   -6.0237   10.3610 C   0  0  0  0  0  0  0  0  0  0  0  0
  -12.3103   -5.4444   11.7126 C   0  0  0  0  0  0  0  0  0  0  0  0
  -13.1079   -6.2634    9.4719 C   0  0  0  0  0  0  0  0  0  0  0  0
  1  2  1  0  0  0
  2  3  1  0  0  0
  3  4  1  0  0  0
  4  5  1  0  0  0
  5  6  1  0  0  0
  6  7  1  0  0  0
  7  8  1  0  0  0
  5  9  2  0  0  0
  9 10  1  0  0  0
 10 11  2  0  0  0
 11 12  1  0  0  0
 12 13  2  0  0  0
 13 14  1  0  0  0
 14 15  2  0  0  0
 15 16  1  0  0  0
 15 17  1  0  0  0
 17 18  1  0  0  0
 17 19  2  0  0  0
  9 20  1  0  0  0
 20 21  2  0  0  0
 21 22  1  0  0  0
 22 23  1  0  0  0
 22 24  2  0  0  0
 24 25  1  0  0  0
 25 26  1  0  0  0
 25 27  2  0  0  0
  8  2  1  0  0  0
 19 12  1  0  0  0
 27 20  1  0  0  0
 11  4  1  0  0  0
M  END
> <minimizedAffinity>
0.26940

> <CNNscore>
0.4481671154

> <CNNaffinity>
6.8466820717

> <CNN_VS>
3.0684578419

> <CNNaffinity_variance>
0.2764647603

$$$$
[H]c1c(C([H])([H])[H])nc(C([H])([H])[H])c([H])c1-c1nc(-c2c([H])c([H])c(C([H])([H])[H])c(F)c2[H])n2c1C([H])([H])C([H])([H])O[C@]([H])(C([H])([H])[H])C2([H])[H]


 27 30  0  0  0  0  0  0  0  0999 V2000
  -10.3855   -8.1240    7.8746 C   0  0  0  0  0  0  0  0  0  0  0  0
  -11.3155   -7.1016    7.3244 C   0  0  0  0  0  0  0  0  0  0  0  0
  -12.2290   -6.5521    8.3859 C   0  0  0  0  0  0  0  0  0  0  0  0
  -13.5687   -7.0195    8.1195 N   0  0  0  0  0  0  0  0  0  0  0  0
  -14.2009   -6.6712    6.9394 C   0  0  0  0  0  0  0  0  0  0  0  0
  -13.6177   -5.8908    5.8129 C   0  0  0  0  0  0  0  0  0  0  0  0
  -12.3745   -6.6523    5.3288 C   0  0  0  0  0  0  0  0  0  0  0  0
  -12.0499   -7.6601    6.2687 O   0  0  0  0  0  0  0  0  0  0  0  0
  -15.4711   -7.1831    6.9493 C   0  0  0  0  0  0  0  0  0  0  0  0
  -15.5668   -7.8193    8.1187 N   0  0  0  0  0  0  0  0  0  0  0  0
  -14.4100   -7.7267    8.8403 C   0  0  0  0  0  0  0  0  0  0  0  0
  -14.2432   -8.2844   10.1686 C   0  0  0  0  0  0  0  0  0  0  0  0
  -13.1062   -8.7661   10.7223 C   0  0  0  0  0  0  0  0  0  0  0  0
  -13.0583   -9.2180   12.0535 C   0  0  0  0  0  0  0  0  0  0  0  0
  -14.1675   -9.1866   12.8370 C   0  0  0  0  0  0  0  0  0  0  0  0
  -14.1119   -9.6699   14.2577 C   0  0  0  0  0  0  0  0  0  0  0  0
  -15.3344   -8.7048   12.3010 C   0  0  0  0  0  0  0  0  0  0  0  0
  -16.4243   -8.6845   13.1065 F   0  0  0  0  0  0  0  0  0  0  0  0
  -15.3720   -8.2641   10.9975 C   0  0  0  0  0  0  0  0  0  0  0  0
  -16.5137   -7.0817    5.9160 C   0  0  0  0  0  0  0  0  0  0  0  0
  -17.1957   -5.8948    5.7474 C   0  0  0  0  0  0  0  0  0  0  0  0
  -18.1752   -5.7509    4.7636 C   0  0  0  0  0  0  0  0  0  0  0  0
  -18.9179   -4.4778    4.5708 C   0  0  0  0  0  0  0  0  0  0  0  0
  -18.4498   -6.8072    3.9667 N   0  0  0  0  0  0  0  0  0  0  0  0
  -17.8128   -7.9908    4.0883 C   0  0  0  0  0  0  0  0  0  0  0  0
  -18.1590   -9.1201    3.1799 C   0  0  0  0  0  0  0  0  0  0  0  0
  -16.8418   -8.1146    5.0724 C   0  0  0  0  0  0  0  0  0  0  0  0
  1  2  1  0  0  0
  2  3  1  0  0  0
  3  4  1  0  0  0
  4  5  1  0  0  0
  5  6  1  0  0  0
  6  7  1  0  0  0
  7  8  1  0  0  0
  5  9  2  0  0  0
  9 10  1  0  0  0
 10 11  2  0  0  0
 11 12  1  0  0  0
 12 13  2  0  0  0
 13 14  1  0  0  0
 14 15  2  0  0  0
 15 16  1  0  0  0
 15 17  1  0  0  0
 17 18  1  0  0  0
 17 19  2  0  0  0
  9 20  1  0  0  0
 20 21  2  0  0  0
 21 22  1  0  0  0
 22 23  1  0  0  0
 22 24  2  0  0  0
 24 25  1  0  0  0
 25 26  1  0  0  0
 25 27  2  0  0  0
  8  2  1  0  0  0
 19 12  1  0  0  0
 27 20  1  0  0  0
 11  4  1  0  0  0
M  END
> <minimizedAffinity>
17.15844

> <CNNscore>
0.4418424368

> <CNNaffinity>
6.7470269203

> <CNN_VS>
2.9811227322

> <CNNaffinity_variance>
1.5420485735

$$$$
[H]c1c(C([H])([H])[H])nc(C([H])([H])[H])c([H])c1-c1nc(-c2c([H])c([H])c(C([H])([H])[H])c(F)c2[H])n2c1C([H])([H])C([H])([H])O[C@]([H])(C([H])([H])[H])C2([H])[H]


 27 30  0  0  0  0  0  0  0  0999 V2000
  -13.8800   -9.1956    3.1072 C   0  0  0  0  0  0  0  0  0  0  0  0
  -14.1557   -9.5992    4.5122 C   0  0  0  0  0  0  0  0  0  0  0  0
  -15.4257   -8.9807    5.0296 C   0  0  0  0  0  0  0  0  0  0  0  0
  -15.0790   -7.9997    6.0304 N   0  0  0  0  0  0  0  0  0  0  0  0
  -14.4189   -8.3898    7.1818 C   0  0  0  0  0  0  0  0  0  0  0  0
  -13.9289   -9.7579    7.5079 C   0  0  0  0  0  0  0  0  0  0  0  0
  -12.9548  -10.1688    6.3934 C   0  0  0  0  0  0  0  0  0  0  0  0
  -13.0626   -9.2531    5.3191 O   0  0  0  0  0  0  0  0  0  0  0  0
  -14.2573   -7.2974    7.9918 C   0  0  0  0  0  0  0  0  0  0  0  0
  -14.8150   -6.2921    7.3136 N   0  0  0  0  0  0  0  0  0  0  0  0
  -15.3185   -6.7101    6.1139 C   0  0  0  0  0  0  0  0  0  0  0  0
  -16.0210   -5.8413    5.1893 C   0  0  0  0  0  0  0  0  0  0  0  0
  -15.4918   -4.8730    4.4059 C   0  0  0  0  0  0  0  0  0  0  0  0
  -16.2735   -4.1418    3.4933 C   0  0  0  0  0  0  0  0  0  0  0  0
  -17.6039   -4.3862    3.3680 C   0  0  0  0  0  0  0  0  0  0  0  0
  -18.4347   -3.6033    2.3923 C   0  0  0  0  0  0  0  0  0  0  0  0
  -18.1671   -5.3612    4.1510 C   0  0  0  0  0  0  0  0  0  0  0  0
  -19.4960   -5.5836    4.0034 F   0  0  0  0  0  0  0  0  0  0  0  0
  -17.3944   -6.0722    5.0409 C   0  0  0  0  0  0  0  0  0  0  0  0
  -13.6103   -7.2155    9.3107 C   0  0  0  0  0  0  0  0  0  0  0  0
  -12.7519   -6.1720    9.5874 C   0  0  0  0  0  0  0  0  0  0  0  0
  -12.1365   -6.0458   10.8336 C   0  0  0  0  0  0  0  0  0  0  0  0
  -11.2094   -4.9265   11.1453 C   0  0  0  0  0  0  0  0  0  0  0  0
  -12.3979   -6.9748   11.7796 N   0  0  0  0  0  0  0  0  0  0  0  0
  -13.2293   -8.0153   11.5624 C   0  0  0  0  0  0  0  0  0  0  0  0
  -13.4786   -9.0086   12.6448 C   0  0  0  0  0  0  0  0  0  0  0  0
  -13.8320   -8.1238   10.3167 C   0  0  0  0  0  0  0  0  0  0  0  0
  1  2  1  0  0  0
  2  3  1  0  0  0
  3  4  1  0  0  0
  4  5  1  0  0  0
  5  6  1  0  0  0
  6  7  1  0  0  0
  7  8  1  0  0  0
  5  9  2  0  0  0
  9 10  1  0  0  0
 10 11  2  0  0  0
 11 12  1  0  0  0
 12 13  2  0  0  0
 13 14  1  0  0  0
 14 15  2  0  0  0
 15 16  1  0  0  0
 15 17  1  0  0  0
 17 18  1  0  0  0
 17 19  2  0  0  0
  9 20  1  0  0  0
 20 21  2  0  0  0
 21 22  1  0  0  0
 22 23  1  0  0  0
 22 24  2  0  0  0
 24 25  1  0  0  0
 25 26  1  0  0  0
 25 27  2  0  0  0
  8  2  1  0  0  0
 19 12  1  0  0  0
 27 20  1  0  0  0
 11  4  1  0  0  0
M  END
> <minimizedAffinity>
6.82284

> <CNNscore>
0.4227409065

> <CNNaffinity>
6.8023786545

> <CNN_VS>
2.8756437302

> <CNNaffinity_variance>
0.6895025969

$$$$
[H]c1c(C([H])([H])[H])nc(C([H])([H])[H])c([H])c1-c1nc(-c2c([H])c([H])c(C([H])([H])[H])c(F)c2[H])n2c1C([H])([H])C([H])([H])O[C@]([H])(C([H])([H])[H])C2([H])[H]


 27 30  0  0  0  0  0  0  0  0999 V2000
  -14.7960   -9.3042    2.9192 C   0  0  0  0  0  0  0  0  0  0  0  0
  -14.3949   -9.6378    4.3124 C   0  0  0  0  0  0  0  0  0  0  0  0
  -15.3909   -9.1242    5.3160 C   0  0  0  0  0  0  0  0  0  0  0  0
  -14.7778   -8.0457    6.0542 N   0  0  0  0  0  0  0  0  0  0  0  0
  -13.6476   -8.2834    6.8156 C   0  0  0  0  0  0  0  0  0  0  0  0
  -12.8978   -9.5660    6.9209 C   0  0  0  0  0  0  0  0  0  0  0  0
  -12.4470   -9.9461    5.5025 C   0  0  0  0  0  0  0  0  0  0  0  0
  -13.1155   -9.1227    4.5646 O   0  0  0  0  0  0  0  0  0  0  0  0
  -13.2955   -7.1271    7.4595 C   0  0  0  0  0  0  0  0  0  0  0  0
  -14.2101   -6.2358    7.0713 N   0  0  0  0  0  0  0  0  0  0  0  0
  -15.1190   -6.7862    6.2120 C   0  0  0  0  0  0  0  0  0  0  0  0
  -16.2510   -6.0626    5.6659 C   0  0  0  0  0  0  0  0  0  0  0  0
  -16.3611   -4.7270    5.4778 C   0  0  0  0  0  0  0  0  0  0  0  0
  -17.4908   -4.1501    4.8699 C   0  0  0  0  0  0  0  0  0  0  0  0
  -18.5231   -4.9255    4.4475 C   0  0  0  0  0  0  0  0  0  0  0  0
  -19.7273   -4.3055    3.7989 C   0  0  0  0  0  0  0  0  0  0  0  0
  -18.4390   -6.2826    4.6271 C   0  0  0  0  0  0  0  0  0  0  0  0
  -19.4832   -7.0307    4.1948 F   0  0  0  0  0  0  0  0  0  0  0  0
  -17.3294   -6.8386    5.2224 C   0  0  0  0  0  0  0  0  0  0  0  0
  -12.1651   -6.8866    8.3700 C   0  0  0  0  0  0  0  0  0  0  0  0
  -12.3966   -6.3556    9.6217 C   0  0  0  0  0  0  0  0  0  0  0  0
  -11.3544   -6.1341   10.5231 C   0  0  0  0  0  0  0  0  0  0  0  0
  -11.5895   -5.5625   11.8750 C   0  0  0  0  0  0  0  0  0  0  0  0
  -10.0963   -6.4523   10.1462 N   0  0  0  0  0  0  0  0  0  0  0  0
   -9.8137   -6.9744    8.9343 C   0  0  0  0  0  0  0  0  0  0  0  0
   -8.4059   -7.3053    8.5752 C   0  0  0  0  0  0  0  0  0  0  0  0
  -10.8635   -7.1875    8.0514 C   0  0  0  0  0  0  0  0  0  0  0  0
  1  2  1  0  0  0
  2  3  1  0  0  0
  3  4  1  0  0  0
  4  5  1  0  0  0
  5  6  1  0  0  0
  6  7  1  0  0  0
  7  8  1  0  0  0
  5  9  2  0  0  0
  9 10  1  0  0  0
 10 11  2  0  0  0
 11 12  1  0  0  0
 12 13  2  0  0  0
 13 14  1  0  0  0
 14 15  2  0  0  0
 15 16  1  0  0  0
 15 17  1  0  0  0
 17 18  1  0  0  0
 17 19  2  0  0  0
  9 20  1  0  0  0
 20 21  2  0  0  0
 21 22  1  0  0  0
 22 23  1  0  0  0
 22 24  2  0  0  0
 24 25  1  0  0  0
 25 26  1  0  0  0
 25 27  2  0  0  0
  8  2  1  0  0  0
 19 12  1  0  0  0
 27 20  1  0  0  0
 11  4  1  0  0  0
M  END
> <minimizedAffinity>
0.56758

> <CNNscore>
0.3868825436

> <CNNaffinity>
6.6998076439

> <CNN_VS>
2.5920386314

> <CNNaffinity_variance>
0.2453447878

$$$$
[H]c1c(C([H])([H])[H])nc(C([H])([H])[H])c([H])c1-c1nc(-c2c([H])c([H])c(C([H])([H])[H])c(F)c2[H])n2c1C([H])([H])C([H])([H])O[C@]([H])(C([H])([H])[H])C2([H])[H]


 27 30  0  0  0  0  0  0  0  0999 V2000
   -4.8383   -6.5976    4.4163 C   0  0  0  0  0  0  0  0  0  0  0  0
   -6.1201   -5.9685    4.8337 C   0  0  0  0  0  0  0  0  0  0  0  0
   -5.9882   -5.2610    6.1548 C   0  0  0  0  0  0  0  0  0  0  0  0
   -6.7413   -5.9971    7.1422 N   0  0  0  0  0  0  0  0  0  0  0  0
   -8.1081   -6.1520    6.9955 C   0  0  0  0  0  0  0  0  0  0  0  0
   -8.9388   -5.6919    5.8481 C   0  0  0  0  0  0  0  0  0  0  0  0
   -8.3764   -6.3593    4.5840 C   0  0  0  0  0  0  0  0  0  0  0  0
   -7.1237   -6.9463    4.8849 O   0  0  0  0  0  0  0  0  0  0  0  0
   -8.5964   -6.8298    8.0807 C   0  0  0  0  0  0  0  0  0  0  0  0
   -7.5238   -7.0636    8.8400 N   0  0  0  0  0  0  0  0  0  0  0  0
   -6.3857   -6.5604    8.2752 C   0  0  0  0  0  0  0  0  0  0  0  0
   -5.0790   -6.6279    8.9008 C   0  0  0  0  0  0  0  0  0  0  0  0
   -3.9193   -7.0448    8.3418 C   0  0  0  0  0  0  0  0  0  0  0  0
   -2.6969   -6.9958    9.0360 C   0  0  0  0  0  0  0  0  0  0  0  0
   -2.6402   -6.5234   10.3084 C   0  0  0  0  0  0  0  0  0  0  0  0
   -1.3330   -6.4728   11.0458 C   0  0  0  0  0  0  0  0  0  0  0  0
   -3.8011   -6.0956   10.9003 C   0  0  0  0  0  0  0  0  0  0  0  0
   -3.7137   -5.6284   12.1697 F   0  0  0  0  0  0  0  0  0  0  0  0
   -4.9927   -6.1465   10.2133 C   0  0  0  0  0  0  0  0  0  0  0  0
   -9.9817   -7.2337    8.3683 C   0  0  0  0  0  0  0  0  0  0  0  0
  -10.8656   -6.3160    8.8961 C   0  0  0  0  0  0  0  0  0  0  0  0
  -12.1937   -6.6530    9.1614 C   0  0  0  0  0  0  0  0  0  0  0  0
  -13.1569   -5.6740    9.7301 C   0  0  0  0  0  0  0  0  0  0  0  0
  -12.6073   -7.9104    8.8894 N   0  0  0  0  0  0  0  0  0  0  0  0
  -11.7848   -8.8472    8.3726 C   0  0  0  0  0  0  0  0  0  0  0  0
  -12.2985  -10.2179    8.0937 C   0  0  0  0  0  0  0  0  0  0  0  0
  -10.4675   -8.4932    8.1156 C   0  0  0  0  0  0  0  0  0  0  0  0
  1  2  1  0  0  0
  2  3  1  0  0  0
  3  4  1  0  0  0
  4  5  1  0  0  0
  5  6  1  0  0  0
  6  7  1  0  0  0
  7  8  1  0  0  0
  5  9  2  0  0  0
  9 10  1  0  0  0
 10 11  2  0  0  0
 11 12  1  0  0  0
 12 13  2  0  0  0
 13 14  1  0  0  0
 14 15  2  0  0  0
 15 16  1  0  0  0
 15 17  1  0  0  0
 17 18  1  0  0  0
 17 19  2  0  0  0
  9 20  1  0  0  0
 20 21  2  0  0  0
 21 22  1  0  0  0
 22 23  1  0  0  0
 22 24  2  0  0  0
 24 25  1  0  0  0
 25 26  1  0  0  0
 25 27  2  0  0  0
  8  2  1  0  0  0
 19 12  1  0  0  0
 27 20  1  0  0  0
 11  4  1  0  0  0
M  END
> <minimizedAffinity>
6.91376

> <CNNscore>
0.3849315047

> <CNNaffinity>
6.4038071632

> <CNN_VS>
2.4650270939

> <CNNaffinity_variance>
1.4212700129

$$$$
[H]c1c(C([H])([H])[H])nc(C([H])([H])[H])c([H])c1-c1nc(-c2c([H])c([H])c(C([H])([H])[H])c(F)c2[H])n2c1C([H])([H])C([H])([H])O[C@]([H])(C([H])([H])[H])C2([H])[H]


 27 30  0  0  0  0  0  0  0  0999 V2000
  -12.5838  -10.3667    6.2005 C   0  0  0  0  0  0  0  0  0  0  0  0
  -13.0565   -9.0407    6.6815 C   0  0  0  0  0  0  0  0  0  0  0  0
  -12.0678   -7.9508    6.3686 C   0  0  0  0  0  0  0  0  0  0  0  0
  -11.4796   -7.5009    7.6078 N   0  0  0  0  0  0  0  0  0  0  0  0
  -12.2774   -6.9394    8.5885 C   0  0  0  0  0  0  0  0  0  0  0  0
  -13.7596   -6.7964    8.5574 C   0  0  0  0  0  0  0  0  0  0  0  0
  -14.3484   -8.2060    8.3960 C   0  0  0  0  0  0  0  0  0  0  0  0
  -13.3112   -9.1086    8.0585 O   0  0  0  0  0  0  0  0  0  0  0  0
  -11.4842   -6.5431    9.6322 C   0  0  0  0  0  0  0  0  0  0  0  0
  -10.2469   -6.8748    9.2573 N   0  0  0  0  0  0  0  0  0  0  0  0
  -10.2332   -7.4616    8.0232 C   0  0  0  0  0  0  0  0  0  0  0  0
   -9.0220   -7.8822    7.3454 C   0  0  0  0  0  0  0  0  0  0  0  0
   -8.6044   -9.1489    7.1164 C   0  0  0  0  0  0  0  0  0  0  0  0
   -7.4385   -9.4283    6.3808 C   0  0  0  0  0  0  0  0  0  0  0  0
   -6.6824   -8.4216    5.8705 C   0  0  0  0  0  0  0  0  0  0  0  0
   -5.4385   -8.7244    5.0856 C   0  0  0  0  0  0  0  0  0  0  0  0
   -7.0813   -7.1277    6.0889 C   0  0  0  0  0  0  0  0  0  0  0  0
   -6.3081   -6.1445    5.5669 F   0  0  0  0  0  0  0  0  0  0  0  0
   -8.2240   -6.8636    6.8094 C   0  0  0  0  0  0  0  0  0  0  0  0
  -11.8775   -5.9043   10.8979 C   0  0  0  0  0  0  0  0  0  0  0  0
  -10.9669   -5.8142   11.9299 C   0  0  0  0  0  0  0  0  0  0  0  0
  -11.2934   -5.1954   13.1375 C   0  0  0  0  0  0  0  0  0  0  0  0
  -10.3220   -5.0913   14.2578 C   0  0  0  0  0  0  0  0  0  0  0  0
  -12.5333   -4.6779   13.2832 N   0  0  0  0  0  0  0  0  0  0  0  0
  -13.4624   -4.7384   12.3063 C   0  0  0  0  0  0  0  0  0  0  0  0
  -14.8136   -4.1497   12.5256 C   0  0  0  0  0  0  0  0  0  0  0  0
  -13.1190   -5.3576   11.1124 C   0  0  0  0  0  0  0  0  0  0  0  0
  1  2  1  0  0  0
  2  3  1  0  0  0
  3  4  1  0  0  0
  4  5  1  0  0  0
  5  6  1  0  0  0
  6  7  1  0  0  0
  7  8  1  0  0  0
  5  9  2  0  0  0
  9 10  1  0  0  0
 10 11  2  0  0  0
 11 12  1  0  0  0
 12 13  2  0  0  0
 13 14  1  0  0  0
 14 15  2  0  0  0
 15 16  1  0  0  0
 15 17  1  0  0  0
 17 18  1  0  0  0
 17 19  2  0  0  0
  9 20  1  0  0  0
 20 21  2  0  0  0
 21 22  1  0  0  0
 22 23  1  0  0  0
 22 24  2  0  0  0
 24 25  1  0  0  0
 25 26  1  0  0  0
 25 27  2  0  0  0
  8  2  1  0  0  0
 19 12  1  0  0  0
 27 20  1  0  0  0
 11  4  1  0  0  0
M  END
> <minimizedAffinity>
7.79650

> <CNNscore>
0.3779770732

> <CNNaffinity>
6.5245332718

> <CNN_VS>
2.4661240578

> <CNNaffinity_variance>
0.5145304799

$$$$
[H]c1c(C([H])([H])[H])nc(C([H])([H])[H])c([H])c1-c1nc(-c2c([H])c([H])c(C([H])([H])[H])c(F)c2[H])n2c1C([H])([H])C([H])([H])O[C@]([H])(C([H])([H])[H])C2([H])[H]


 27 30  0  0  0  0  0  0  0  0999 V2000
  -14.3631   -6.0385    3.4251 C   0  0  0  0  0  0  0  0  0  0  0  0
  -15.7081   -5.9293    4.0513 C   0  0  0  0  0  0  0  0  0  0  0  0
  -15.6159   -5.5534    5.5051 C   0  0  0  0  0  0  0  0  0  0  0  0
  -16.0202   -6.6917    6.2956 N   0  0  0  0  0  0  0  0  0  0  0  0
  -17.3021   -7.1974    6.1750 C   0  0  0  0  0  0  0  0  0  0  0  0
  -18.3561   -6.7370    5.2287 C   0  0  0  0  0  0  0  0  0  0  0  0
  -17.7888   -6.8873    3.8091 C   0  0  0  0  0  0  0  0  0  0  0  0
  -16.3977   -7.1390    3.8873 O   0  0  0  0  0  0  0  0  0  0  0  0
  -17.4574   -8.2282    7.0632 C   0  0  0  0  0  0  0  0  0  0  0  0
  -16.2793   -8.3153    7.6845 N   0  0  0  0  0  0  0  0  0  0  0  0
  -15.3942   -7.3824    7.2222 C   0  0  0  0  0  0  0  0  0  0  0  0
  -14.0530   -7.2153    7.7481 C   0  0  0  0  0  0  0  0  0  0  0  0
  -12.8953   -7.6610    7.2074 C   0  0  0  0  0  0  0  0  0  0  0  0
  -11.6441   -7.3716    7.7813 C   0  0  0  0  0  0  0  0  0  0  0  0
  -11.5561   -6.6262    8.9136 C   0  0  0  0  0  0  0  0  0  0  0  0
  -10.2182   -6.3195    9.5228 C   0  0  0  0  0  0  0  0  0  0  0  0
  -12.7140   -6.1628    9.4841 C   0  0  0  0  0  0  0  0  0  0  0  0
  -12.5951   -5.4211   10.6123 F   0  0  0  0  0  0  0  0  0  0  0  0
  -13.9340   -6.4504    8.9153 C   0  0  0  0  0  0  0  0  0  0  0  0
  -18.6385   -9.0743    7.2959 C   0  0  0  0  0  0  0  0  0  0  0  0
  -19.5614   -9.2523    6.2866 C   0  0  0  0  0  0  0  0  0  0  0  0
  -20.6825  -10.0652    6.4596 C   0  0  0  0  0  0  0  0  0  0  0  0
  -21.6850  -10.2658    5.3806 C   0  0  0  0  0  0  0  0  0  0  0  0
  -20.8532  -10.6849    7.6484 N   0  0  0  0  0  0  0  0  0  0  0  0
  -19.9815  -10.5458    8.6691 C   0  0  0  0  0  0  0  0  0  0  0  0
  -20.2232  -11.2546    9.9574 C   0  0  0  0  0  0  0  0  0  0  0  0
  -18.8725   -9.7332    8.4780 C   0  0  0  0  0  0  0  0  0  0  0  0
  1  2  1  0  0  0
  2  3  1  0  0  0
  3  4  1  0  0  0
  4  5  1  0  0  0
  5  6  1  0  0  0
  6  7  1  0  0  0
  7  8  1  0  0  0
  5  9  2  0  0  0
  9 10  1  0  0  0
 10 11  2  0  0  0
 11 12  1  0  0  0
 12 13  2  0  0  0
 13 14  1  0  0  0
 14 15  2  0  0  0
 15 16  1  0  0  0
 15 17  1  0  0  0
 17 18  1  0  0  0
 17 19  2  0  0  0
  9 20  1  0  0  0
 20 21  2  0  0  0
 21 22  1  0  0  0
 22 23  1  0  0  0
 22 24  2  0  0  0
 24 25  1  0  0  0
 25 26  1  0  0  0
 25 27  2  0  0  0
  8  2  1  0  0  0
 19 12  1  0  0  0
 27 20  1  0  0  0
 11  4  1  0  0  0
M  END
> <minimizedAffinity>
1.91725

> <CNNscore>
0.2727716863

> <CNNaffinity>
6.6639747620

> <CNN_VS>
1.8177436590

> <CNNaffinity_variance>
0.2688358426

$$$$
[H]C1=C([H])C([H])(F)C([H])([H])C([H])=C1N([H])C(=O)C1(C(=O)N([H])c2c([H])c([H])c(Oc3c([H])c([H])nc4c([H])c(OC([H])([H])C([H])([H])C([H])([H])N5C([H])([H])C([H])([H])OC([H])([H])C5([H])[H])c(OC([H])([H])[H])c([H])c34)c(F)c2[H])C([H])([H])C1([H])[H]


 48 53  0  0  0  0  0  0  0  0999 V2000
   -6.9080   -6.8441    7.6428 C   0  0  0  0  0  0  0  0  0  0  0  0
   -6.9634   -6.7868    6.2572 C   0  0  0  0  0  0  0  0  0  0  0  0
   -5.9410   -6.3679    5.4588 C   0  0  0  0  0  0  0  0  0  0  0  0
   -4.7404   -5.9611    6.0517 C   0  0  0  0  0  0  0  0  0  0  0  0
   -4.6430   -6.0030    7.4160 C   0  0  0  0  0  0  0  0  0  0  0  0
   -5.7135   -6.4398    8.2132 C   0  0  0  0  0  0  0  0  0  0  0  0
   -5.5305   -6.4777    9.5536 F   0  0  0  0  0  0  0  0  0  0  0  0
   -3.6539   -5.5620    5.1950 N   0  0  0  0  0  0  0  0  0  0  0  0
   -3.6550   -4.3847    4.4826 C   0  0  0  0  0  0  0  0  0  0  0  0
   -4.7210   -3.6534    4.5956 O   0  0  0  0  0  0  0  0  0  0  0  0
   -2.8889   -6.2522    5.1461 H   0  0  0  0  0  0  0  0  0  0  0  0
   -2.6386   -3.7851    3.5847 C   0  0  0  0  0  0  0  0  0  0  0  0
   -1.2056   -4.1742    3.9067 C   0  0  0  0  0  0  0  0  0  0  0  0
   -1.6263   -2.8513    4.3588 C   0  0  0  0  0  0  0  0  0  0  0  0
   -2.9091   -3.3218    2.2233 C   0  0  0  0  0  0  0  0  0  0  0  0
   -2.1778   -3.9264    1.3133 O   0  0  0  0  0  0  0  0  0  0  0  0
   -3.7806   -2.3807    1.6890 N   0  0  0  0  0  0  0  0  0  0  0  0
   -4.4516   -1.8253    2.2447 H   0  0  0  0  0  0  0  0  0  0  0  0
   -3.8235   -2.1342    0.2473 C   0  0  0  0  0  0  0  0  0  0  0  0
   -4.7313   -2.7819   -0.4471 C   0  0  0  0  0  0  0  0  0  0  0  0
   -4.9434   -2.6793   -1.8878 C   0  0  0  0  0  0  0  0  0  0  0  0
   -4.0047   -1.7902   -2.6057 C   0  0  0  0  0  0  0  0  0  0  0  0
   -4.7297   -0.7768   -3.2835 F   0  0  0  0  0  0  0  0  0  0  0  0
   -3.0341   -1.1164   -1.7411 C   0  0  0  0  0  0  0  0  0  0  0  0
   -2.9294   -1.2557   -0.4352 C   0  0  0  0  0  0  0  0  0  0  0  0
   -7.9772   -7.2811    8.3935 O   0  0  0  0  0  0  0  0  0  0  0  0
  -11.9838   -6.7072    9.0149 C   0  0  0  0  0  0  0  0  0  0  0  0
  -10.6421   -6.8837    8.8165 C   0  0  0  0  0  0  0  0  0  0  0  0
  -10.2094   -8.0176    8.1633 C   0  0  0  0  0  0  0  0  0  0  0  0
   -8.8344   -8.2445    7.9382 C   0  0  0  0  0  0  0  0  0  0  0  0
   -8.4235   -9.3848    7.2889 C   0  0  0  0  0  0  0  0  0  0  0  0
   -9.3354  -10.3182    6.8478 C   0  0  0  0  0  0  0  0  0  0  0  0
  -10.6423  -10.0992    7.0624 N   0  0  0  0  0  0  0  0  0  0  0  0
  -11.0733   -8.9779    7.7040 C   0  0  0  0  0  0  0  0  0  0  0  0
  -12.4325   -8.7939    7.9080 C   0  0  0  0  0  0  0  0  0  0  0  0
  -12.8943   -7.6730    8.5549 C   0  0  0  0  0  0  0  0  0  0  0  0
  -12.3683   -5.4680   11.0498 C   0  0  0  0  0  0  0  0  0  0  0  0
  -12.5270   -5.6110    9.6568 O   0  0  0  0  0  0  0  0  0  0  0  0
  -14.2224   -7.4795    8.7524 O   0  0  0  0  0  0  0  0  0  0  0  0
  -15.2253   -8.3491    8.3703 C   0  0  0  0  0  0  0  0  0  0  0  0
  -16.1090   -7.7718    7.2735 C   0  0  0  0  0  0  0  0  0  0  0  0
  -15.4783   -8.1168    5.9177 C   0  0  0  0  0  0  0  0  0  0  0  0
  -16.2549   -7.4720    4.8886 N   0  0  0  0  0  0  0  0  0  0  0  0
  -17.5705   -8.1410    4.7599 C   0  0  0  0  0  0  0  0  0  0  0  0
  -18.3301   -7.2852    3.7420 C   0  0  0  0  0  0  0  0  0  0  0  0
  -17.4789   -6.4577    3.0097 O   0  0  0  0  0  0  0  0  0  0  0  0
  -16.8925   -5.4623    3.8162 C   0  0  0  0  0  0  0  0  0  0  0  0
  -16.5541   -6.0717    5.1831 C   0  0  0  0  0  0  0  0  0  0  0  0
 37 38  1  0  0  0
 38 27  1  0  0  0
 27 28  2  0  0  0
 28 29  1  0  0  0
 29 30  2  0  0  0
 30 26  1  0  0  0
 26  1  1  0  0  0
  1  2  2  0  0  0
  2  3  1  0  0  0
  3  4  2  0  0  0
  4  8  1  0  0  0
  8  9  1  0  0  0
  9 10  2  0  0  0
  9 12  1  0  0  0
 12 13  1  0  0  0
 13 14  1  0  0  0
 12 15  1  0  0  0
 15 16  2  0  0  0
 15 17  1  0  0  0
 17 19  1  0  0  0
 19 20  2  0  0  0
 20 21  1  0  0  0
 21 22  1  0  0  0
 22 23  1  0  0  0
 22 24  1  0  0  0
 24 25  2  0  0  0
  4  5  1  0  0  0
  5  6  2  0  0  0
  6  7  1  0  0  0
 30 31  1  0  0  0
 31 32  2  0  0  0
 32 33  1  0  0  0
 33 34  2  0  0  0
 34 35  1  0  0  0
 35 36  2  0  0  0
 36 39  1  0  0  0
 39 40  1  0  0  0
 40 41  1  0  0  0
 41 42  1  0  0  0
 42 43  1  0  0  0
 43 44  1  0  0  0
 44 45  1  0  0  0
 45 46  1  0  0  0
 46 47  1  0  0  0
 47 48  1  0  0  0
 36 27  1  0  0  0
 48 43  1  0  0  0
 34 29  1  0  0  0
  6  1  1  0  0  0
 14 12  1  0  0  0
 25 19  1  0  0  0
  8 11  1  0  0  0
 17 18  1  0  0  0
M  END
> <minimizedAffinity>
-8.83140

> <CNNscore>
0.4787719548

> <CNNaffinity>
7.5368309021

> <CNN_VS>
3.6084232330

> <CNNaffinity_variance>
0.0950124785

$$$$
[H]C1=C([H])C([H])(F)C([H])([H])C([H])=C1N([H])C(=O)C1(C(=O)N([H])c2c([H])c([H])c(Oc3c([H])c([H])nc4c([H])c(OC([H])([H])C([H])([H])C([H])([H])N5C([H])([H])C([H])([H])OC([H])([H])C5([H])[H])c(OC([H])([H])[H])c([H])c34)c(F)c2[H])C([H])([H])C1([H])[H]


 48 53  0  0  0  0  0  0  0  0999 V2000
   -3.1673   -4.0741    7.0657 C   0  0  0  0  0  0  0  0  0  0  0  0
   -3.2695   -2.7042    7.2637 C   0  0  0  0  0  0  0  0  0  0  0  0
   -3.6642   -1.8123    6.3114 C   0  0  0  0  0  0  0  0  0  0  0  0
   -3.9950   -2.2839    5.0359 C   0  0  0  0  0  0  0  0  0  0  0  0
   -3.9089   -3.6288    4.7983 C   0  0  0  0  0  0  0  0  0  0  0  0
   -3.4992   -4.5243    5.7997 C   0  0  0  0  0  0  0  0  0  0  0  0
   -3.4649   -5.8424    5.4948 F   0  0  0  0  0  0  0  0  0  0  0  0
   -4.4517   -1.3366    4.0523 N   0  0  0  0  0  0  0  0  0  0  0  0
   -3.5959   -0.6278    3.2406 C   0  0  0  0  0  0  0  0  0  0  0  0
   -2.3293   -0.8333    3.4338 O   0  0  0  0  0  0  0  0  0  0  0  0
   -5.4765   -1.2211    4.0318 H   0  0  0  0  0  0  0  0  0  0  0  0
   -3.8615    0.3544    2.1619 C   0  0  0  0  0  0  0  0  0  0  0  0
   -3.0989    1.6615    2.2984 C   0  0  0  0  0  0  0  0  0  0  0  0
   -4.4997    1.6922    2.7087 C   0  0  0  0  0  0  0  0  0  0  0  0
   -4.3403    0.0036    0.8244 C   0  0  0  0  0  0  0  0  0  0  0  0
   -3.4254    0.1448   -0.1091 O   0  0  0  0  0  0  0  0  0  0  0  0
   -5.5575   -0.4529    0.3338 N   0  0  0  0  0  0  0  0  0  0  0  0
   -6.3858   -0.6489    0.9193 H   0  0  0  0  0  0  0  0  0  0  0  0
   -5.7348   -0.7242   -1.0931 C   0  0  0  0  0  0  0  0  0  0  0  0
   -5.5519   -1.9605   -1.4979 C   0  0  0  0  0  0  0  0  0  0  0  0
   -5.6801   -2.4413   -2.8703 C   0  0  0  0  0  0  0  0  0  0  0  0
   -6.0029   -1.4075   -3.8774 C   0  0  0  0  0  0  0  0  0  0  0  0
   -7.2071   -1.7494   -4.5444 F   0  0  0  0  0  0  0  0  0  0  0  0
   -6.1870   -0.0649   -3.3233 C   0  0  0  0  0  0  0  0  0  0  0  0
   -6.0703    0.2748   -2.0557 C   0  0  0  0  0  0  0  0  0  0  0  0
   -2.7646   -4.9240    8.0724 O   0  0  0  0  0  0  0  0  0  0  0  0
   -2.8382   -5.2783   12.1513 C   0  0  0  0  0  0  0  0  0  0  0  0
   -2.8315   -5.1625   10.7885 C   0  0  0  0  0  0  0  0  0  0  0  0
   -1.6445   -4.8719   10.1511 C   0  0  0  0  0  0  0  0  0  0  0  0
   -1.5892   -4.7398    8.7467 C   0  0  0  0  0  0  0  0  0  0  0  0
   -0.3957   -4.4446    8.1309 C   0  0  0  0  0  0  0  0  0  0  0  0
    0.7584   -4.2754    8.8637 C   0  0  0  0  0  0  0  0  0  0  0  0
    0.7028   -4.4026   10.1988 N   0  0  0  0  0  0  0  0  0  0  0  0
   -0.4677   -4.6935   10.8313 C   0  0  0  0  0  0  0  0  0  0  0  0
   -0.4804   -4.8119   12.2128 C   0  0  0  0  0  0  0  0  0  0  0  0
   -1.6481   -5.1021   12.8765 C   0  0  0  0  0  0  0  0  0  0  0  0
   -5.1976   -4.9652   12.5508 C   0  0  0  0  0  0  0  0  0  0  0  0
   -3.9689   -5.5654   12.8916 O   0  0  0  0  0  0  0  0  0  0  0  0
   -1.6697   -5.2280   14.2271 O   0  0  0  0  0  0  0  0  0  0  0  0
   -2.2961   -4.3633   15.1033 C   0  0  0  0  0  0  0  0  0  0  0  0
   -1.6506   -4.3640   16.4820 C   0  0  0  0  0  0  0  0  0  0  0  0
   -1.4403   -2.9066   16.9141 C   0  0  0  0  0  0  0  0  0  0  0  0
   -0.9503   -2.1711   15.7753 N   0  0  0  0  0  0  0  0  0  0  0  0
   -1.4173   -0.7669   15.8465 C   0  0  0  0  0  0  0  0  0  0  0  0
   -0.7251   -0.0796   14.6659 C   0  0  0  0  0  0  0  0  0  0  0  0
   -0.2420   -0.9961   13.7320 O   0  0  0  0  0  0  0  0  0  0  0  0
    0.8149   -1.7686   14.2530 C   0  0  0  0  0  0  0  0  0  0  0  0
    0.5086   -2.0970   15.7202 C   0  0  0  0  0  0  0  0  0  0  0  0
 37 38  1  0  0  0
 38 27  1  0  0  0
 27 28  2  0  0  0
 28 29  1  0  0  0
 29 30  2  0  0  0
 30 26  1  0  0  0
 26  1  1  0  0  0
  1  2  2  0  0  0
  2  3  1  0  0  0
  3  4  2  0  0  0
  4  8  1  0  0  0
  8  9  1  0  0  0
  9 10  2  0  0  0
  9 12  1  0  0  0
 12 13  1  0  0  0
 13 14  1  0  0  0
 12 15  1  0  0  0
 15 16  2  0  0  0
 15 17  1  0  0  0
 17 19  1  0  0  0
 19 20  2  0  0  0
 20 21  1  0  0  0
 21 22  1  0  0  0
 22 23  1  0  0  0
 22 24  1  0  0  0
 24 25  2  0  0  0
  4  5  1  0  0  0
  5  6  2  0  0  0
  6  7  1  0  0  0
 30 31  1  0  0  0
 31 32  2  0  0  0
 32 33  1  0  0  0
 33 34  2  0  0  0
 34 35  1  0  0  0
 35 36  2  0  0  0
 36 39  1  0  0  0
 39 40  1  0  0  0
 40 41  1  0  0  0
 41 42  1  0  0  0
 42 43  1  0  0  0
 43 44  1  0  0  0
 44 45  1  0  0  0
 45 46  1  0  0  0
 46 47  1  0  0  0
 47 48  1  0  0  0
 36 27  1  0  0  0
 48 43  1  0  0  0
 34 29  1  0  0  0
  6  1  1  0  0  0
 14 12  1  0  0  0
 25 19  1  0  0  0
  8 11  1  0  0  0
 17 18  1  0  0  0
M  END
> <minimizedAffinity>
-3.78491

> <CNNscore>
0.3581908345

> <CNNaffinity>
6.0494680405

> <CNN_VS>
2.1668639183

> <CNNaffinity_variance>
0.4214260578

$$$$
[H]C1=C([H])C([H])(F)C([H])([H])C([H])=C1N([H])C(=O)C1(C(=O)N([H])c2c([H])c([H])c(Oc3c([H])c([H])nc4c([H])c(OC([H])([H])C([H])([H])C([H])([H])N5C([H])([H])C([H])([H])OC([H])([H])C5([H])[H])c(OC([H])([H])[H])c([H])c34)c(F)c2[H])C([H])([H])C1([H])[H]


 48 53  0  0  0  0  0  0  0  0999 V2000
   -7.0574   -6.9662    7.5942 C   0  0  0  0  0  0  0  0  0  0  0  0
   -7.1894   -6.8230    6.2200 C   0  0  0  0  0  0  0  0  0  0  0  0
   -6.2210   -6.3299    5.3971 C   0  0  0  0  0  0  0  0  0  0  0  0
   -4.9985   -5.9323    5.9504 C   0  0  0  0  0  0  0  0  0  0  0  0
   -4.8261   -6.0577    7.3021 C   0  0  0  0  0  0  0  0  0  0  0  0
   -5.8423   -6.5697    8.1253 C   0  0  0  0  0  0  0  0  0  0  0  0
   -5.5858   -6.6875    9.4489 F   0  0  0  0  0  0  0  0  0  0  0  0
   -3.9689   -5.4538    5.0647 N   0  0  0  0  0  0  0  0  0  0  0  0
   -3.4418   -4.1851    5.1446 C   0  0  0  0  0  0  0  0  0  0  0  0
   -3.9541   -3.4135    6.0534 O   0  0  0  0  0  0  0  0  0  0  0  0
   -3.6832   -6.1412    4.3507 H   0  0  0  0  0  0  0  0  0  0  0  0
   -2.3725   -3.5203    4.3614 C   0  0  0  0  0  0  0  0  0  0  0  0
   -1.3701   -4.4715    3.7300 C   0  0  0  0  0  0  0  0  0  0  0  0
   -0.9329   -3.7987    4.9496 C   0  0  0  0  0  0  0  0  0  0  0  0
   -2.4922   -2.1908    3.7621 C   0  0  0  0  0  0  0  0  0  0  0  0
   -2.2856   -2.1851    2.4638 O   0  0  0  0  0  0  0  0  0  0  0  0
   -2.7839   -0.9331    4.2758 N   0  0  0  0  0  0  0  0  0  0  0  0
   -3.0011   -0.7443    5.2681 H   0  0  0  0  0  0  0  0  0  0  0  0
   -2.8342    0.2391    3.4015 C   0  0  0  0  0  0  0  0  0  0  0  0
   -4.0092    0.5865    2.9277 C   0  0  0  0  0  0  0  0  0  0  0  0
   -4.2776    1.7181    2.0453 C   0  0  0  0  0  0  0  0  0  0  0  0
   -3.0898    2.4959    1.6316 C   0  0  0  0  0  0  0  0  0  0  0  0
   -3.2473    3.8513    2.0189 F   0  0  0  0  0  0  0  0  0  0  0  0
   -1.8312    2.0277    2.2148 C   0  0  0  0  0  0  0  0  0  0  0  0
   -1.6863    0.9996    3.0259 C   0  0  0  0  0  0  0  0  0  0  0  0
   -8.0748   -7.4754    8.3710 O   0  0  0  0  0  0  0  0  0  0  0  0
  -12.0574   -6.7786    9.0209 C   0  0  0  0  0  0  0  0  0  0  0  0
  -10.7231   -6.9967    8.8134 C   0  0  0  0  0  0  0  0  0  0  0  0
  -10.3325   -8.1221    8.1203 C   0  0  0  0  0  0  0  0  0  0  0  0
   -8.9669   -8.3907    7.8844 C   0  0  0  0  0  0  0  0  0  0  0  0
   -8.5982   -9.5218    7.1949 C   0  0  0  0  0  0  0  0  0  0  0  0
   -9.5439  -10.4056    6.7237 C   0  0  0  0  0  0  0  0  0  0  0  0
  -10.8417  -10.1470    6.9487 N   0  0  0  0  0  0  0  0  0  0  0  0
  -11.2312   -9.0338    7.6298 C   0  0  0  0  0  0  0  0  0  0  0  0
  -12.5825   -8.8079    7.8432 C   0  0  0  0  0  0  0  0  0  0  0  0
  -13.0028   -7.6942    8.5296 C   0  0  0  0  0  0  0  0  0  0  0  0
  -12.3913   -5.5960   11.0980 C   0  0  0  0  0  0  0  0  0  0  0  0
  -12.5598   -5.6864    9.7017 O   0  0  0  0  0  0  0  0  0  0  0  0
  -14.3228   -7.4596    8.7367 O   0  0  0  0  0  0  0  0  0  0  0  0
  -15.3525   -8.3150    8.3962 C   0  0  0  0  0  0  0  0  0  0  0  0
  -16.2272   -7.7575    7.2820 C   0  0  0  0  0  0  0  0  0  0  0  0
  -15.5967   -8.1447    5.9376 C   0  0  0  0  0  0  0  0  0  0  0  0
  -16.3294   -7.4741    4.8929 N   0  0  0  0  0  0  0  0  0  0  0  0
  -17.6323   -8.1474    4.6825 C   0  0  0  0  0  0  0  0  0  0  0  0
  -18.3501   -7.2660    3.6562 C   0  0  0  0  0  0  0  0  0  0  0  0
  -17.4720   -6.4113    2.9897 O   0  0  0  0  0  0  0  0  0  0  0  0
  -16.9318   -5.4370    3.8523 C   0  0  0  0  0  0  0  0  0  0  0  0
  -16.6529   -6.0853    5.2147 C   0  0  0  0  0  0  0  0  0  0  0  0
 37 38  1  0  0  0
 38 27  1  0  0  0
 27 28  2  0  0  0
 28 29  1  0  0  0
 29 30  2  0  0  0
 30 26  1  0  0  0
 26  1  1  0  0  0
  1  2  2  0  0  0
  2  3  1  0  0  0
  3  4  2  0  0  0
  4  8  1  0  0  0
  8  9  1  0  0  0
  9 10  2  0  0  0
  9 12  1  0  0  0
 12 13  1  0  0  0
 13 14  1  0  0  0
 12 15  1  0  0  0
 15 16  2  0  0  0
 15 17  1  0  0  0
 17 19  1  0  0  0
 19 20  2  0  0  0
 20 21  1  0  0  0
 21 22  1  0  0  0
 22 23  1  0  0  0
 22 24  1  0  0  0
 24 25  2  0  0  0
  4  5  1  0  0  0
  5  6  2  0  0  0
  6  7  1  0  0  0
 30 31  1  0  0  0
 31 32  2  0  0  0
 32 33  1  0  0  0
 33 34  2  0  0  0
 34 35  1  0  0  0
 35 36  2  0  0  0
 36 39  1  0  0  0
 39 40  1  0  0  0
 40 41  1  0  0  0
 41 42  1  0  0  0
 42 43  1  0  0  0
 43 44  1  0  0  0
 44 45  1  0  0  0
 45 46  1  0  0  0
 46 47  1  0  0  0
 47 48  1  0  0  0
 36 27  1  0  0  0
 48 43  1  0  0  0
 34 29  1  0  0  0
  6  1  1  0  0  0
 14 12  1  0  0  0
 25 19  1  0  0  0
  8 11  1  0  0  0
 17 18  1  0  0  0
M  END
> <minimizedAffinity>
-8.36540

> <CNNscore>
0.3187442720

> <CNNaffinity>
7.4085021019

> <CNN_VS>
2.3614175320

> <CNNaffinity_variance>
0.0600761659

$$$$
[H]C1=C([H])C([H])(F)C([H])([H])C([H])=C1N([H])C(=O)C1(C(=O)N([H])c2c([H])c([H])c(Oc3c([H])c([H])nc4c([H])c(OC([H])([H])C([H])([H])C([H])([H])N5C([H])([H])C([H])([H])OC([H])([H])C5([H])[H])c(OC([H])([H])[H])c([H])c34)c(F)c2[H])C([H])([H])C1([H])[H]


 48 53  0  0  0  0  0  0  0  0999 V2000
   -6.7902   -7.5869    7.5572 C   0  0  0  0  0  0  0  0  0  0  0  0
   -7.6022   -6.4984    7.2706 C   0  0  0  0  0  0  0  0  0  0  0  0
   -8.9641   -6.5389    7.2289 C   0  0  0  0  0  0  0  0  0  0  0  0
   -9.6148   -7.7503    7.4888 C   0  0  0  0  0  0  0  0  0  0  0  0
   -8.8514   -8.8488    7.7770 C   0  0  0  0  0  0  0  0  0  0  0  0
   -7.4493   -8.7768    7.8132 C   0  0  0  0  0  0  0  0  0  0  0  0
   -6.7656   -9.9004    8.1320 F   0  0  0  0  0  0  0  0  0  0  0  0
  -11.0547   -7.7694    7.4840 N   0  0  0  0  0  0  0  0  0  0  0  0
  -11.8151   -7.1800    8.4679 C   0  0  0  0  0  0  0  0  0  0  0  0
  -11.1567   -6.6253    9.4389 O   0  0  0  0  0  0  0  0  0  0  0  0
  -11.4603   -8.2873    6.6895 H   0  0  0  0  0  0  0  0  0  0  0  0
  -13.2846   -7.0624    8.6283 C   0  0  0  0  0  0  0  0  0  0  0  0
  -13.7249   -6.3539    9.8982 C   0  0  0  0  0  0  0  0  0  0  0  0
  -13.8121   -7.8112    9.9156 C   0  0  0  0  0  0  0  0  0  0  0  0
  -14.2418   -7.0947    7.5220 C   0  0  0  0  0  0  0  0  0  0  0  0
  -13.7550   -6.6148    6.3990 O   0  0  0  0  0  0  0  0  0  0  0  0
  -15.5560   -7.5312    7.4071 N   0  0  0  0  0  0  0  0  0  0  0  0
  -16.0967   -7.9622    8.1748 H   0  0  0  0  0  0  0  0  0  0  0  0
  -16.2688   -7.4316    6.1332 C   0  0  0  0  0  0  0  0  0  0  0  0
  -17.0127   -6.3659    5.9417 C   0  0  0  0  0  0  0  0  0  0  0  0
  -17.7996   -6.0726    4.7475 C   0  0  0  0  0  0  0  0  0  0  0  0
  -17.7685   -7.1120    3.6960 C   0  0  0  0  0  0  0  0  0  0  0  0
  -17.2891   -6.5519    2.4842 F   0  0  0  0  0  0  0  0  0  0  0  0
  -16.9104   -8.2568    4.0070 C   0  0  0  0  0  0  0  0  0  0  0  0
  -16.2146   -8.4279    5.1126 C   0  0  0  0  0  0  0  0  0  0  0  0
   -5.4172   -7.4791    7.5871 O   0  0  0  0  0  0  0  0  0  0  0  0
   -4.0782   -4.8845   10.4583 C   0  0  0  0  0  0  0  0  0  0  0  0
   -4.5328   -5.7613    9.5121 C   0  0  0  0  0  0  0  0  0  0  0  0
   -4.3183   -5.4747    8.1812 C   0  0  0  0  0  0  0  0  0  0  0  0
   -4.7717   -6.3482    7.1692 C   0  0  0  0  0  0  0  0  0  0  0  0
   -4.5517   -6.0410    5.8471 C   0  0  0  0  0  0  0  0  0  0  0  0
   -3.8897   -4.8880    5.4869 C   0  0  0  0  0  0  0  0  0  0  0  0
   -3.4588   -4.0598    6.4515 N   0  0  0  0  0  0  0  0  0  0  0  0
   -3.6658   -4.3422    7.7677 C   0  0  0  0  0  0  0  0  0  0  0  0
   -3.2072   -3.4566    8.7311 C   0  0  0  0  0  0  0  0  0  0  0  0
   -3.4050   -3.7156   10.0660 C   0  0  0  0  0  0  0  0  0  0  0  0
   -5.5051   -5.4167   12.3304 C   0  0  0  0  0  0  0  0  0  0  0  0
   -4.2387   -5.0710   11.8178 O   0  0  0  0  0  0  0  0  0  0  0  0
   -2.9533   -2.8598   11.0167 O   0  0  0  0  0  0  0  0  0  0  0  0
   -2.0308   -1.8517   10.8154 C   0  0  0  0  0  0  0  0  0  0  0  0
   -2.4668   -0.5319   11.4364 C   0  0  0  0  0  0  0  0  0  0  0  0
   -3.1920    0.2881   10.3609 C   0  0  0  0  0  0  0  0  0  0  0  0
   -3.7445    1.4603   10.9923 N   0  0  0  0  0  0  0  0  0  0  0  0
   -3.1394    1.6403   12.3326 C   0  0  0  0  0  0  0  0  0  0  0  0
   -3.7088    2.9734   12.8268 C   0  0  0  0  0  0  0  0  0  0  0  0
   -4.8365    3.3646   12.1051 O   0  0  0  0  0  0  0  0  0  0  0  0
   -4.5204    3.6838   10.7697 C   0  0  0  0  0  0  0  0  0  0  0  0
   -3.4605    2.6960   10.2646 C   0  0  0  0  0  0  0  0  0  0  0  0
 37 38  1  0  0  0
 38 27  1  0  0  0
 27 28  2  0  0  0
 28 29  1  0  0  0
 29 30  2  0  0  0
 30 26  1  0  0  0
 26  1  1  0  0  0
  1  2  2  0  0  0
  2  3  1  0  0  0
  3  4  2  0  0  0
  4  8  1  0  0  0
  8  9  1  0  0  0
  9 10  2  0  0  0
  9 12  1  0  0  0
 12 13  1  0  0  0
 13 14  1  0  0  0
 12 15  1  0  0  0
 15 16  2  0  0  0
 15 17  1  0  0  0
 17 19  1  0  0  0
 19 20  2  0  0  0
 20 21  1  0  0  0
 21 22  1  0  0  0
 22 23  1  0  0  0
 22 24  1  0  0  0
 24 25  2  0  0  0
  4  5  1  0  0  0
  5  6  2  0  0  0
  6  7  1  0  0  0
 30 31  1  0  0  0
 31 32  2  0  0  0
 32 33  1  0  0  0
 33 34  2  0  0  0
 34 35  1  0  0  0
 35 36  2  0  0  0
 36 39  1  0  0  0
 39 40  1  0  0  0
 40 41  1  0  0  0
 41 42  1  0  0  0
 42 43  1  0  0  0
 43 44  1  0  0  0
 44 45  1  0  0  0
 45 46  1  0  0  0
 46 47  1  0  0  0
 47 48  1  0  0  0
 36 27  1  0  0  0
 48 43  1  0  0  0
 34 29  1  0  0  0
  6  1  1  0  0  0
 14 12  1  0  0  0
 25 19  1  0  0  0
  8 11  1  0  0  0
 17 18  1  0  0  0
M  END
> <minimizedAffinity>
-8.84441

> <CNNscore>
0.3074145913

> <CNNaffinity>
7.2357268333

> <CNN_VS>
2.2243680954

> <CNNaffinity_variance>
0.0283162389

$$$$
[H]C1=C([H])C([H])(F)C([H])([H])C([H])=C1N([H])C(=O)C1(C(=O)N([H])c2c([H])c([H])c(Oc3c([H])c([H])nc4c([H])c(OC([H])([H])C([H])([H])C([H])([H])N5C([H])([H])C([H])([H])OC([H])([H])C5([H])[H])c(OC([H])([H])[H])c([H])c34)c(F)c2[H])C([H])([H])C1([H])[H]


 48 53  0  0  0  0  0  0  0  0999 V2000
  -10.5903   -8.7867    7.4733 C   0  0  0  0  0  0  0  0  0  0  0  0
  -10.2524   -7.5115    7.9045 C   0  0  0  0  0  0  0  0  0  0  0  0
   -8.9791   -7.0885    8.1455 C   0  0  0  0  0  0  0  0  0  0  0  0
   -7.9196   -7.9824    7.9531 C   0  0  0  0  0  0  0  0  0  0  0  0
   -8.2088   -9.2502    7.5272 C   0  0  0  0  0  0  0  0  0  0  0  0
   -9.5311   -9.6579    7.2866 C   0  0  0  0  0  0  0  0  0  0  0  0
   -9.7336  -10.9198    6.8416 F   0  0  0  0  0  0  0  0  0  0  0  0
   -6.5766   -7.5099    8.1696 N   0  0  0  0  0  0  0  0  0  0  0  0
   -5.8795   -6.7795    7.2347 C   0  0  0  0  0  0  0  0  0  0  0  0
   -6.4917   -6.5634    6.1111 O   0  0  0  0  0  0  0  0  0  0  0  0
   -6.1789   -7.7920    9.0785 H   0  0  0  0  0  0  0  0  0  0  0  0
   -4.5227   -6.1825    7.2747 C   0  0  0  0  0  0  0  0  0  0  0  0
   -3.5172   -6.9592    8.1079 C   0  0  0  0  0  0  0  0  0  0  0  0
   -4.0879   -5.7717    8.7370 C   0  0  0  0  0  0  0  0  0  0  0  0
   -3.9833   -5.2872    6.2507 C   0  0  0  0  0  0  0  0  0  0  0  0
   -3.1863   -5.8924    5.3982 O   0  0  0  0  0  0  0  0  0  0  0  0
   -4.1407   -3.9321    5.9863 N   0  0  0  0  0  0  0  0  0  0  0  0
   -4.7483   -3.2983    6.5308 H   0  0  0  0  0  0  0  0  0  0  0  0
   -3.4530   -3.3053    4.8570 C   0  0  0  0  0  0  0  0  0  0  0  0
   -4.1683   -3.0448    3.7864 C   0  0  0  0  0  0  0  0  0  0  0  0
   -3.6795   -2.4245    2.5586 C   0  0  0  0  0  0  0  0  0  0  0  0
   -2.2336   -2.1147    2.5362 C   0  0  0  0  0  0  0  0  0  0  0  0
   -2.0453   -0.7277    2.3067 F   0  0  0  0  0  0  0  0  0  0  0  0
   -1.5289   -2.4427    3.7769 C   0  0  0  0  0  0  0  0  0  0  0  0
   -2.0617   -2.9871    4.8519 C   0  0  0  0  0  0  0  0  0  0  0  0
  -11.8989   -9.1514    7.2442 O   0  0  0  0  0  0  0  0  0  0  0  0
  -15.5228   -8.6081    5.4164 C   0  0  0  0  0  0  0  0  0  0  0  0
  -14.3053   -8.7945    6.0111 C   0  0  0  0  0  0  0  0  0  0  0  0
  -14.1654   -8.4955    7.3492 C   0  0  0  0  0  0  0  0  0  0  0  0
  -12.9275   -8.6689    8.0053 C   0  0  0  0  0  0  0  0  0  0  0  0
  -12.8080   -8.3598    9.3398 C   0  0  0  0  0  0  0  0  0  0  0  0
  -13.8827   -7.8817   10.0567 C   0  0  0  0  0  0  0  0  0  0  0  0
  -15.0588   -7.7189    9.4304 N   0  0  0  0  0  0  0  0  0  0  0  0
  -15.2013   -8.0171    8.1091 C   0  0  0  0  0  0  0  0  0  0  0  0
  -16.4333   -7.8299    7.5011 C   0  0  0  0  0  0  0  0  0  0  0  0
  -16.6040   -8.1202    6.1689 C   0  0  0  0  0  0  0  0  0  0  0  0
  -15.1571   -8.0922    3.0874 C   0  0  0  0  0  0  0  0  0  0  0  0
  -15.7749   -8.8736    4.0842 O   0  0  0  0  0  0  0  0  0  0  0  0
  -17.8072   -7.9483    5.5664 O   0  0  0  0  0  0  0  0  0  0  0  0
  -18.6781   -8.9597    5.2109 C   0  0  0  0  0  0  0  0  0  0  0  0
  -19.5362   -9.4256    6.3788 C   0  0  0  0  0  0  0  0  0  0  0  0
  -21.0057   -9.3921    5.9379 C   0  0  0  0  0  0  0  0  0  0  0  0
  -21.7141  -10.4101    6.6728 N   0  0  0  0  0  0  0  0  0  0  0  0
  -22.6805  -11.0918    5.7804 C   0  0  0  0  0  0  0  0  0  0  0  0
  -23.2582  -12.2186    6.6419 C   0  0  0  0  0  0  0  0  0  0  0  0
  -23.0226  -12.0160    8.0017 O   0  0  0  0  0  0  0  0  0  0  0  0
  -21.6525  -12.1097    8.3167 C   0  0  0  0  0  0  0  0  0  0  0  0
  -20.8414  -11.4650    7.1850 C   0  0  0  0  0  0  0  0  0  0  0  0
 37 38  1  0  0  0
 38 27  1  0  0  0
 27 28  2  0  0  0
 28 29  1  0  0  0
 29 30  2  0  0  0
 30 26  1  0  0  0
 26  1  1  0  0  0
  1  2  2  0  0  0
  2  3  1  0  0  0
  3  4  2  0  0  0
  4  8  1  0  0  0
  8  9  1  0  0  0
  9 10  2  0  0  0
  9 12  1  0  0  0
 12 13  1  0  0  0
 13 14  1  0  0  0
 12 15  1  0  0  0
 15 16  2  0  0  0
 15 17  1  0  0  0
 17 19  1  0  0  0
 19 20  2  0  0  0
 20 21  1  0  0  0
 21 22  1  0  0  0
 22 23  1  0  0  0
 22 24  1  0  0  0
 24 25  2  0  0  0
  4  5  1  0  0  0
  5  6  2  0  0  0
  6  7  1  0  0  0
 30 31  1  0  0  0
 31 32  2  0  0  0
 32 33  1  0  0  0
 33 34  2  0  0  0
 34 35  1  0  0  0
 35 36  2  0  0  0
 36 39  1  0  0  0
 39 40  1  0  0  0
 40 41  1  0  0  0
 41 42  1  0  0  0
 42 43  1  0  0  0
 43 44  1  0  0  0
 44 45  1  0  0  0
 45 46  1  0  0  0
 46 47  1  0  0  0
 47 48  1  0  0  0
 36 27  1  0  0  0
 48 43  1  0  0  0
 34 29  1  0  0  0
  6  1  1  0  0  0
 14 12  1  0  0  0
 25 19  1  0  0  0
  8 11  1  0  0  0
 17 18  1  0  0  0
M  END
> <minimizedAffinity>
-8.29914

> <CNNscore>
0.2877924442

> <CNNaffinity>
7.5867018700

> <CNN_VS>
2.1833953857

> <CNNaffinity_variance>
0.2307090461

$$$$
[H]C1=C([H])C([H])(F)C([H])([H])C([H])=C1N([H])C(=O)C1(C(=O)N([H])c2c([H])c([H])c(Oc3c([H])c([H])nc4c([H])c(OC([H])([H])C([H])([H])C([H])([H])N5C([H])([H])C([H])([H])OC([H])([H])C5([H])[H])c(OC([H])([H])[H])c([H])c34)c(F)c2[H])C([H])([H])C1([H])[H]


 48 53  0  0  0  0  0  0  0  0999 V2000
  -10.5165   -8.6734    7.4470 C   0  0  0  0  0  0  0  0  0  0  0  0
  -10.1486   -7.4048    7.8733 C   0  0  0  0  0  0  0  0  0  0  0  0
   -8.8784   -7.0386    8.2059 C   0  0  0  0  0  0  0  0  0  0  0  0
   -7.8543   -7.9887    8.1210 C   0  0  0  0  0  0  0  0  0  0  0  0
   -8.1737   -9.2522    7.7038 C   0  0  0  0  0  0  0  0  0  0  0  0
   -9.4920   -9.6007    7.3673 C   0  0  0  0  0  0  0  0  0  0  0  0
   -9.7232  -10.8631    6.9379 F   0  0  0  0  0  0  0  0  0  0  0  0
   -6.5103   -7.5772    8.4337 N   0  0  0  0  0  0  0  0  0  0  0  0
   -5.6202   -7.1382    7.4803 C   0  0  0  0  0  0  0  0  0  0  0  0
   -6.0493   -7.1472    6.2557 O   0  0  0  0  0  0  0  0  0  0  0  0
   -6.2705   -7.6670    9.4328 H   0  0  0  0  0  0  0  0  0  0  0  0
   -4.2256   -6.6483    7.5977 C   0  0  0  0  0  0  0  0  0  0  0  0
   -3.3492   -6.9480    6.3933 C   0  0  0  0  0  0  0  0  0  0  0  0
   -3.1686   -7.8214    7.5491 C   0  0  0  0  0  0  0  0  0  0  0  0
   -3.8075   -5.5446    8.4627 C   0  0  0  0  0  0  0  0  0  0  0  0
   -4.5656   -5.4023    9.5273 O   0  0  0  0  0  0  0  0  0  0  0  0
   -2.7740   -4.6180    8.3985 N   0  0  0  0  0  0  0  0  0  0  0  0
   -2.0616   -4.5897    7.6507 H   0  0  0  0  0  0  0  0  0  0  0  0
   -2.6083   -3.6082    9.4444 C   0  0  0  0  0  0  0  0  0  0  0  0
   -1.8729   -3.9331   10.4833 C   0  0  0  0  0  0  0  0  0  0  0  0
   -1.5816   -3.0767   11.6292 C   0  0  0  0  0  0  0  0  0  0  0  0
   -2.2251   -1.7454   11.6063 C   0  0  0  0  0  0  0  0  0  0  0  0
   -1.2333   -0.7337   11.6752 F   0  0  0  0  0  0  0  0  0  0  0  0
   -3.0215   -1.4828   10.4061 C   0  0  0  0  0  0  0  0  0  0  0  0
   -3.2131   -2.3161    9.4038 C   0  0  0  0  0  0  0  0  0  0  0  0
  -11.8197   -8.9793    7.1220 O   0  0  0  0  0  0  0  0  0  0  0  0
  -15.4902   -8.6200    5.3423 C   0  0  0  0  0  0  0  0  0  0  0  0
  -14.2570   -8.7440    5.9207 C   0  0  0  0  0  0  0  0  0  0  0  0
  -14.1237   -8.4802    7.2669 C   0  0  0  0  0  0  0  0  0  0  0  0
  -12.8704   -8.5918    7.9070 C   0  0  0  0  0  0  0  0  0  0  0  0
  -12.7582   -8.3193    9.2501 C   0  0  0  0  0  0  0  0  0  0  0  0
  -13.8550   -7.9378    9.9910 C   0  0  0  0  0  0  0  0  0  0  0  0
  -15.0456   -7.8336    9.3798 N   0  0  0  0  0  0  0  0  0  0  0  0
  -15.1813   -8.0973    8.0506 C   0  0  0  0  0  0  0  0  0  0  0  0
  -16.4292   -7.9731    7.4590 C   0  0  0  0  0  0  0  0  0  0  0  0
  -16.5938   -8.2304    6.1192 C   0  0  0  0  0  0  0  0  0  0  0  0
  -14.7444   -8.5667    3.0477 C   0  0  0  0  0  0  0  0  0  0  0  0
  -15.7377   -8.8581    4.0040 O   0  0  0  0  0  0  0  0  0  0  0  0
  -17.8119   -8.1197    5.5324 O   0  0  0  0  0  0  0  0  0  0  0  0
  -18.6490   -9.1721    5.2173 C   0  0  0  0  0  0  0  0  0  0  0  0
  -20.0379   -9.0110    5.8195 C   0  0  0  0  0  0  0  0  0  0  0  0
  -20.1239   -9.8951    7.0708 C   0  0  0  0  0  0  0  0  0  0  0  0
  -21.3689  -10.6198    7.0189 N   0  0  0  0  0  0  0  0  0  0  0  0
  -22.1102  -10.2555    5.7890 C   0  0  0  0  0  0  0  0  0  0  0  0
  -23.3294  -11.1824    5.7960 C   0  0  0  0  0  0  0  0  0  0  0  0
  -23.5594  -11.7412    7.0531 O   0  0  0  0  0  0  0  0  0  0  0  0
  -22.5368  -12.6364    7.4247 C   0  0  0  0  0  0  0  0  0  0  0  0
  -21.1908  -12.0694    6.9548 C   0  0  0  0  0  0  0  0  0  0  0  0
 37 38  1  0  0  0
 38 27  1  0  0  0
 27 28  2  0  0  0
 28 29  1  0  0  0
 29 30  2  0  0  0
 30 26  1  0  0  0
 26  1  1  0  0  0
  1  2  2  0  0  0
  2  3  1  0  0  0
  3  4  2  0  0  0
  4  8  1  0  0  0
  8  9  1  0  0  0
  9 10  2  0  0  0
  9 12  1  0  0  0
 12 13  1  0  0  0
 13 14  1  0  0  0
 12 15  1  0  0  0
 15 16  2  0  0  0
 15 17  1  0  0  0
 17 19  1  0  0  0
 19 20  2  0  0  0
 20 21  1  0  0  0
 21 22  1  0  0  0
 22 23  1  0  0  0
 22 24  1  0  0  0
 24 25  2  0  0  0
  4  5  1  0  0  0
  5  6  2  0  0  0
  6  7  1  0  0  0
 30 31  1  0  0  0
 31 32  2  0  0  0
 32 33  1  0  0  0
 33 34  2  0  0  0
 34 35  1  0  0  0
 35 36  2  0  0  0
 36 39  1  0  0  0
 39 40  1  0  0  0
 40 41  1  0  0  0
 41 42  1  0  0  0
 42 43  1  0  0  0
 43 44  1  0  0  0
 44 45  1  0  0  0
 45 46  1  0  0  0
 46 47  1  0  0  0
 47 48  1  0  0  0
 36 27  1  0  0  0
 48 43  1  0  0  0
 34 29  1  0  0  0
  6  1  1  0  0  0
 14 12  1  0  0  0
 25 19  1  0  0  0
  8 11  1  0  0  0
 17 18  1  0  0  0
M  END
> <minimizedAffinity>
-8.11821

> <CNNscore>
0.2805460393

> <CNNaffinity>
7.4492721558

> <CNN_VS>
2.0898637772

> <CNNaffinity_variance>
0.0615218878

$$$$
[H]C1=C([H])C([H])(F)C([H])([H])C([H])=C1N([H])C(=O)C1(C(=O)N([H])c2c([H])c([H])c(Oc3c([H])c([H])nc4c([H])c(OC([H])([H])C([H])([H])C([H])([H])N5C([H])([H])C([H])([H])OC([H])([H])C5([H])[H])c(OC([H])([H])[H])c([H])c34)c(F)c2[H])C([H])([H])C1([H])[H]


 48 53  0  0  0  0  0  0  0  0999 V2000
   -6.9297   -8.2109    7.6552 C   0  0  0  0  0  0  0  0  0  0  0  0
   -7.7448   -7.1006    7.8259 C   0  0  0  0  0  0  0  0  0  0  0  0
   -9.0764   -7.1552    8.1126 C   0  0  0  0  0  0  0  0  0  0  0  0
   -9.6900   -8.4056    8.2493 C   0  0  0  0  0  0  0  0  0  0  0  0
   -8.9219   -9.5268    8.0899 C   0  0  0  0  0  0  0  0  0  0  0  0
   -7.5515   -9.4395    7.7950 C   0  0  0  0  0  0  0  0  0  0  0  0
   -6.8542  -10.5935    7.6785 F   0  0  0  0  0  0  0  0  0  0  0  0
  -11.0872   -8.4490    8.5948 N   0  0  0  0  0  0  0  0  0  0  0  0
  -12.0645   -7.8392    7.8420 C   0  0  0  0  0  0  0  0  0  0  0  0
  -11.6524   -7.1795    6.8033 O   0  0  0  0  0  0  0  0  0  0  0  0
  -11.2825   -8.9569    9.4710 H   0  0  0  0  0  0  0  0  0  0  0  0
  -13.5376   -7.7932    8.0056 C   0  0  0  0  0  0  0  0  0  0  0  0
  -14.0048   -7.4217    9.4028 C   0  0  0  0  0  0  0  0  0  0  0  0
  -14.0592   -8.8413    9.0664 C   0  0  0  0  0  0  0  0  0  0  0  0
  -14.4842   -7.5759    6.9111 C   0  0  0  0  0  0  0  0  0  0  0  0
  -14.0567   -6.7113    6.0178 O   0  0  0  0  0  0  0  0  0  0  0  0
  -15.7382   -8.0955    6.6142 N   0  0  0  0  0  0  0  0  0  0  0  0
  -16.2250   -8.8064    7.1844 H   0  0  0  0  0  0  0  0  0  0  0  0
  -16.4575   -7.6734    5.4120 C   0  0  0  0  0  0  0  0  0  0  0  0
  -17.2005   -6.5939    5.5032 C   0  0  0  0  0  0  0  0  0  0  0  0
  -17.9930   -6.0049    4.4279 C   0  0  0  0  0  0  0  0  0  0  0  0
  -17.9694   -6.7413    3.1456 C   0  0  0  0  0  0  0  0  0  0  0  0
  -17.4954   -5.8904    2.1144 F   0  0  0  0  0  0  0  0  0  0  0  0
  -17.1118   -7.9279    3.1491 C   0  0  0  0  0  0  0  0  0  0  0  0
  -16.4105   -8.3760    4.1705 C   0  0  0  0  0  0  0  0  0  0  0  0
   -5.5877   -8.0879    7.3695 O   0  0  0  0  0  0  0  0  0  0  0  0
   -2.1687   -7.2954    5.2596 C   0  0  0  0  0  0  0  0  0  0  0  0
   -3.3128   -7.5754    5.9550 C   0  0  0  0  0  0  0  0  0  0  0  0
   -3.7037   -6.7223    6.9644 C   0  0  0  0  0  0  0  0  0  0  0  0
   -4.8753   -6.9717    7.7114 C   0  0  0  0  0  0  0  0  0  0  0  0
   -5.2448   -6.1106    8.7177 C   0  0  0  0  0  0  0  0  0  0  0  0
   -4.4886   -4.9978    9.0131 C   0  0  0  0  0  0  0  0  0  0  0  0
   -3.3756   -4.7627    8.3004 N   0  0  0  0  0  0  0  0  0  0  0  0
   -2.9888   -5.6017    7.2997 C   0  0  0  0  0  0  0  0  0  0  0  0
   -1.8297   -5.3227    6.5916 C   0  0  0  0  0  0  0  0  0  0  0  0
   -1.4149   -6.1539    5.5790 C   0  0  0  0  0  0  0  0  0  0  0  0
   -1.5407   -9.4696    4.4212 C   0  0  0  0  0  0  0  0  0  0  0  0
   -1.6841   -8.0806    4.2312 O   0  0  0  0  0  0  0  0  0  0  0  0
   -0.2869   -5.8857    4.8747 O   0  0  0  0  0  0  0  0  0  0  0  0
    0.5924   -4.8520    5.1317 C   0  0  0  0  0  0  0  0  0  0  0  0
    0.7498   -3.9134    3.9436 C   0  0  0  0  0  0  0  0  0  0  0  0
   -0.5930   -3.2091    3.7074 C   0  0  0  0  0  0  0  0  0  0  0  0
   -0.8598   -3.2232    2.2908 N   0  0  0  0  0  0  0  0  0  0  0  0
    0.3157   -3.7577    1.5645 C   0  0  0  0  0  0  0  0  0  0  0  0
   -0.1477   -3.8399    0.1071 C   0  0  0  0  0  0  0  0  0  0  0  0
   -1.2858   -3.0687   -0.1283 O   0  0  0  0  0  0  0  0  0  0  0  0
   -2.4141   -3.5793    0.5436 C   0  0  0  0  0  0  0  0  0  0  0  0
   -1.9767   -4.0914    1.9223 C   0  0  0  0  0  0  0  0  0  0  0  0
 37 38  1  0  0  0
 38 27  1  0  0  0
 27 28  2  0  0  0
 28 29  1  0  0  0
 29 30  2  0  0  0
 30 26  1  0  0  0
 26  1  1  0  0  0
  1  2  2  0  0  0
  2  3  1  0  0  0
  3  4  2  0  0  0
  4  8  1  0  0  0
  8  9  1  0  0  0
  9 10  2  0  0  0
  9 12  1  0  0  0
 12 13  1  0  0  0
 13 14  1  0  0  0
 12 15  1  0  0  0
 15 16  2  0  0  0
 15 17  1  0  0  0
 17 19  1  0  0  0
 19 20  2  0  0  0
 20 21  1  0  0  0
 21 22  1  0  0  0
 22 23  1  0  0  0
 22 24  1  0  0  0
 24 25  2  0  0  0
  4  5  1  0  0  0
  5  6  2  0  0  0
  6  7  1  0  0  0
 30 31  1  0  0  0
 31 32  2  0  0  0
 32 33  1  0  0  0
 33 34  2  0  0  0
 34 35  1  0  0  0
 35 36  2  0  0  0
 36 39  1  0  0  0
 39 40  1  0  0  0
 40 41  1  0  0  0
 41 42  1  0  0  0
 42 43  1  0  0  0
 43 44  1  0  0  0
 44 45  1  0  0  0
 45 46  1  0  0  0
 46 47  1  0  0  0
 47 48  1  0  0  0
 36 27  1  0  0  0
 48 43  1  0  0  0
 34 29  1  0  0  0
  6  1  1  0  0  0
 14 12  1  0  0  0
 25 19  1  0  0  0
  8 11  1  0  0  0
 17 18  1  0  0  0
M  END
> <minimizedAffinity>
-5.73269

> <CNNscore>
0.2804501653

> <CNNaffinity>
7.1214690208

> <CNN_VS>
1.9972171783

> <CNNaffinity_variance>
0.3574257493

$$$$
[H]C1=C([H])C([H])(F)C([H])([H])C([H])=C1N([H])C(=O)C1(C(=O)N([H])c2c([H])c([H])c(Oc3c([H])c([H])nc4c([H])c(OC([H])([H])C([H])([H])C([H])([H])N5C([H])([H])C([H])([H])OC([H])([H])C5([H])[H])c(OC([H])([H])[H])c([H])c34)c(F)c2[H])C([H])([H])C1([H])[H]


 48 53  0  0  0  0  0  0  0  0999 V2000
    0.1776   -7.7963    7.3075 C   0  0  0  0  0  0  0  0  0  0  0  0
    0.7300   -7.6068    8.5665 C   0  0  0  0  0  0  0  0  0  0  0  0
    0.1494   -6.8828    9.5650 C   0  0  0  0  0  0  0  0  0  0  0  0
   -1.0904   -6.2771    9.3309 C   0  0  0  0  0  0  0  0  0  0  0  0
   -1.6710   -6.4398    8.1025 C   0  0  0  0  0  0  0  0  0  0  0  0
   -1.0489   -7.1920    7.0926 C   0  0  0  0  0  0  0  0  0  0  0  0
   -1.6990   -7.3287    5.9136 F   0  0  0  0  0  0  0  0  0  0  0  0
   -1.7127   -5.5515   10.4079 N   0  0  0  0  0  0  0  0  0  0  0  0
   -1.9011   -4.1886   10.3826 C   0  0  0  0  0  0  0  0  0  0  0  0
   -1.4488   -3.5721    9.3341 O   0  0  0  0  0  0  0  0  0  0  0  0
   -1.9795   -6.1448   11.2083 H   0  0  0  0  0  0  0  0  0  0  0  0
   -2.5381   -3.2721   11.3588 C   0  0  0  0  0  0  0  0  0  0  0  0
   -3.2565   -2.0876   10.7348 C   0  0  0  0  0  0  0  0  0  0  0  0
   -1.9371   -1.8123   11.2960 C   0  0  0  0  0  0  0  0  0  0  0  0
   -2.9478   -3.6585   12.7094 C   0  0  0  0  0  0  0  0  0  0  0  0
   -2.1657   -4.5663   13.2503 O   0  0  0  0  0  0  0  0  0  0  0  0
   -3.9868   -3.2635   13.5432 N   0  0  0  0  0  0  0  0  0  0  0  0
   -4.6860   -2.5422   13.3022 H   0  0  0  0  0  0  0  0  0  0  0  0
   -4.1387   -3.8461   14.8768 C   0  0  0  0  0  0  0  0  0  0  0  0
   -3.5245   -3.2442   15.8699 C   0  0  0  0  0  0  0  0  0  0  0  0
   -3.5476   -3.6583   17.2696 C   0  0  0  0  0  0  0  0  0  0  0  0
   -4.3044   -4.8971   17.5525 C   0  0  0  0  0  0  0  0  0  0  0  0
   -5.3274   -4.6271   18.4972 F   0  0  0  0  0  0  0  0  0  0  0  0
   -4.9506   -5.4883   16.3792 C   0  0  0  0  0  0  0  0  0  0  0  0
   -4.8910   -5.0288   15.1459 C   0  0  0  0  0  0  0  0  0  0  0  0
    0.8148   -8.5434    6.3413 O   0  0  0  0  0  0  0  0  0  0  0  0
   -0.6027  -11.6412    8.6136 C   0  0  0  0  0  0  0  0  0  0  0  0
   -0.1223  -10.5989    7.8695 C   0  0  0  0  0  0  0  0  0  0  0  0
   -0.2930  -10.6231    6.5021 C   0  0  0  0  0  0  0  0  0  0  0  0
    0.1883   -9.5715    5.6926 C   0  0  0  0  0  0  0  0  0  0  0  0
    0.0120   -9.6176    4.3297 C   0  0  0  0  0  0  0  0  0  0  0  0
   -0.6327  -10.6785    3.7328 C   0  0  0  0  0  0  0  0  0  0  0  0
   -1.0902  -11.6765    4.5052 N   0  0  0  0  0  0  0  0  0  0  0  0
   -0.9266  -11.6537    5.8571 C   0  0  0  0  0  0  0  0  0  0  0  0
   -1.4114  -12.7078    6.6164 C   0  0  0  0  0  0  0  0  0  0  0  0
   -1.2575  -12.7114    7.9819 C   0  0  0  0  0  0  0  0  0  0  0  0
   -0.6020  -10.5520   10.7672 C   0  0  0  0  0  0  0  0  0  0  0  0
   -0.4865  -11.7206    9.9880 O   0  0  0  0  0  0  0  0  0  0  0  0
   -1.7353  -13.7338    8.7347 O   0  0  0  0  0  0  0  0  0  0  0  0
   -1.1527  -14.9802    8.8570 C   0  0  0  0  0  0  0  0  0  0  0  0
   -1.9399  -15.9022    9.7777 C   0  0  0  0  0  0  0  0  0  0  0  0
   -1.6253  -17.3527    9.3875 C   0  0  0  0  0  0  0  0  0  0  0  0
   -2.0257  -18.2042   10.4797 N   0  0  0  0  0  0  0  0  0  0  0  0
   -0.8737  -18.4379   11.3815 C   0  0  0  0  0  0  0  0  0  0  0  0
   -1.4647  -19.2345   12.5484 C   0  0  0  0  0  0  0  0  0  0  0  0
   -2.7004  -19.7976   12.2297 O   0  0  0  0  0  0  0  0  0  0  0  0
   -3.6926  -18.8149   12.0429 C   0  0  0  0  0  0  0  0  0  0  0  0
   -3.0676  -17.6151   11.3189 C   0  0  0  0  0  0  0  0  0  0  0  0
 37 38  1  0  0  0
 38 27  1  0  0  0
 27 28  2  0  0  0
 28 29  1  0  0  0
 29 30  2  0  0  0
 30 26  1  0  0  0
 26  1  1  0  0  0
  1  2  2  0  0  0
  2  3  1  0  0  0
  3  4  2  0  0  0
  4  8  1  0  0  0
  8  9  1  0  0  0
  9 10  2  0  0  0
  9 12  1  0  0  0
 12 13  1  0  0  0
 13 14  1  0  0  0
 12 15  1  0  0  0
 15 16  2  0  0  0
 15 17  1  0  0  0
 17 19  1  0  0  0
 19 20  2  0  0  0
 20 21  1  0  0  0
 21 22  1  0  0  0
 22 23  1  0  0  0
 22 24  1  0  0  0
 24 25  2  0  0  0
  4  5  1  0  0  0
  5  6  2  0  0  0
  6  7  1  0  0  0
 30 31  1  0  0  0
 31 32  2  0  0  0
 32 33  1  0  0  0
 33 34  2  0  0  0
 34 35  1  0  0  0
 35 36  2  0  0  0
 36 39  1  0  0  0
 39 40  1  0  0  0
 40 41  1  0  0  0
 41 42  1  0  0  0
 42 43  1  0  0  0
 43 44  1  0  0  0
 44 45  1  0  0  0
 45 46  1  0  0  0
 46 47  1  0  0  0
 47 48  1  0  0  0
 36 27  1  0  0  0
 48 43  1  0  0  0
 34 29  1  0  0  0
  6  1  1  0  0  0
 14 12  1  0  0  0
 25 19  1  0  0  0
  8 11  1  0  0  0
 17 18  1  0  0  0
M  END
> <minimizedAffinity>
-3.95311

> <CNNscore>
0.2480755597

> <CNNaffinity>
6.1482558250

> <CNN_VS>
1.5252319574

> <CNNaffinity_variance>
0.1669263542

$$$$
[H]C1=C([H])C([H])(F)C([H])([H])C([H])=C1N([H])C(=O)C1(C(=O)N([H])c2c([H])c([H])c(Oc3c([H])c([H])nc4c([H])c(OC([H])([H])C([H])([H])C([H])([H])N5C([H])([H])C([H])([H])OC([H])([H])C5([H])[H])c(OC([H])([H])[H])c([H])c34)c(F)c2[H])C([H])([H])C1([H])[H]


 48 53  0  0  0  0  0  0  0  0999 V2000
   -2.3589   -5.6701    8.1284 C   0  0  0  0  0  0  0  0  0  0  0  0
   -3.4072   -4.7995    7.8645 C   0  0  0  0  0  0  0  0  0  0  0  0
   -3.7067   -4.3003    6.6319 C   0  0  0  0  0  0  0  0  0  0  0  0
   -2.9179   -4.6753    5.5384 C   0  0  0  0  0  0  0  0  0  0  0  0
   -1.8741   -5.5335    5.7544 C   0  0  0  0  0  0  0  0  0  0  0  0
   -1.5895   -6.0320    7.0362 C   0  0  0  0  0  0  0  0  0  0  0  0
   -0.5568   -6.8971    7.1641 F   0  0  0  0  0  0  0  0  0  0  0  0
   -3.2713   -4.1752    4.2351 N   0  0  0  0  0  0  0  0  0  0  0  0
   -2.7804   -2.9941    3.7273 C   0  0  0  0  0  0  0  0  0  0  0  0
   -1.9949   -2.3218    4.5114 O   0  0  0  0  0  0  0  0  0  0  0  0
   -3.9452   -4.7712    3.7305 H   0  0  0  0  0  0  0  0  0  0  0  0
   -2.9923   -2.3305    2.4183 C   0  0  0  0  0  0  0  0  0  0  0  0
   -2.8704   -3.2531    1.2173 C   0  0  0  0  0  0  0  0  0  0  0  0
   -1.7149   -2.4039    1.4916 C   0  0  0  0  0  0  0  0  0  0  0  0
   -3.7577   -1.0975    2.2312 C   0  0  0  0  0  0  0  0  0  0  0  0
   -4.4173   -0.7267    3.3063 O   0  0  0  0  0  0  0  0  0  0  0  0
   -3.9299   -0.2325    1.1574 N   0  0  0  0  0  0  0  0  0  0  0  0
   -3.4707   -0.3446    0.2388 H   0  0  0  0  0  0  0  0  0  0  0  0
   -4.7800    0.9521    1.2798 C   0  0  0  0  0  0  0  0  0  0  0  0
   -4.2226    2.0473    1.7442 C   0  0  0  0  0  0  0  0  0  0  0  0
   -4.8888    3.3313    1.9415 C   0  0  0  0  0  0  0  0  0  0  0  0
   -6.3324    3.3531    1.6211 C   0  0  0  0  0  0  0  0  0  0  0  0
   -6.5871    4.3346    0.6293 F   0  0  0  0  0  0  0  0  0  0  0  0
   -6.8545    2.0839    1.1111 C   0  0  0  0  0  0  0  0  0  0  0  0
   -6.1674    0.9721    0.9455 C   0  0  0  0  0  0  0  0  0  0  0  0
   -2.1107   -6.1419    9.3986 O   0  0  0  0  0  0  0  0  0  0  0  0
   -4.0550   -4.5640   12.6387 C   0  0  0  0  0  0  0  0  0  0  0  0
   -3.4214   -5.0970   11.5501 C   0  0  0  0  0  0  0  0  0  0  0  0
   -2.0641   -4.9035   11.4091 C   0  0  0  0  0  0  0  0  0  0  0  0
   -1.3675   -5.4320   10.3009 C   0  0  0  0  0  0  0  0  0  0  0  0
   -0.0141   -5.2231   10.1767 C   0  0  0  0  0  0  0  0  0  0  0  0
    0.6826   -4.5032   11.1220 C   0  0  0  0  0  0  0  0  0  0  0  0
    0.0178   -4.0027   12.1752 N   0  0  0  0  0  0  0  0  0  0  0  0
   -1.3227   -4.1956   12.3194 C   0  0  0  0  0  0  0  0  0  0  0  0
   -1.9702   -3.6573   13.4211 C   0  0  0  0  0  0  0  0  0  0  0  0
   -3.3224   -3.8344   13.5897 C   0  0  0  0  0  0  0  0  0  0  0  0
   -6.0286   -5.9509   12.7171 C   0  0  0  0  0  0  0  0  0  0  0  0
   -5.4092   -4.6954   12.8790 O   0  0  0  0  0  0  0  0  0  0  0  0
   -3.9641   -3.3188   14.6680 O   0  0  0  0  0  0  0  0  0  0  0  0
   -4.6163   -4.0524   15.6397 C   0  0  0  0  0  0  0  0  0  0  0  0
   -3.6687   -4.9463   16.4274 C   0  0  0  0  0  0  0  0  0  0  0  0
   -2.7043   -4.0483   17.2139 C   0  0  0  0  0  0  0  0  0  0  0  0
   -1.5486   -4.8356   17.5640 N   0  0  0  0  0  0  0  0  0  0  0  0
   -1.9049   -6.2736   17.5714 C   0  0  0  0  0  0  0  0  0  0  0  0
   -0.5749   -6.9897   17.8239 C   0  0  0  0  0  0  0  0  0  0  0  0
    0.3980   -6.1300   18.3336 O   0  0  0  0  0  0  0  0  0  0  0  0
    0.7880   -5.1597   17.3893 C   0  0  0  0  0  0  0  0  0  0  0  0
   -0.4517   -4.7082   16.6060 C   0  0  0  0  0  0  0  0  0  0  0  0
 37 38  1  0  0  0
 38 27  1  0  0  0
 27 28  2  0  0  0
 28 29  1  0  0  0
 29 30  2  0  0  0
 30 26  1  0  0  0
 26  1  1  0  0  0
  1  2  2  0  0  0
  2  3  1  0  0  0
  3  4  2  0  0  0
  4  8  1  0  0  0
  8  9  1  0  0  0
  9 10  2  0  0  0
  9 12  1  0  0  0
 12 13  1  0  0  0
 13 14  1  0  0  0
 12 15  1  0  0  0
 15 16  2  0  0  0
 15 17  1  0  0  0
 17 19  1  0  0  0
 19 20  2  0  0  0
 20 21  1  0  0  0
 21 22  1  0  0  0
 22 23  1  0  0  0
 22 24  1  0  0  0
 24 25  2  0  0  0
  4  5  1  0  0  0
  5  6  2  0  0  0
  6  7  1  0  0  0
 30 31  1  0  0  0
 31 32  2  0  0  0
 32 33  1  0  0  0
 33 34  2  0  0  0
 34 35  1  0  0  0
 35 36  2  0  0  0
 36 39  1  0  0  0
 39 40  1  0  0  0
 40 41  1  0  0  0
 41 42  1  0  0  0
 42 43  1  0  0  0
 43 44  1  0  0  0
 44 45  1  0  0  0
 45 46  1  0  0  0
 46 47  1  0  0  0
 47 48  1  0  0  0
 36 27  1  0  0  0
 48 43  1  0  0  0
 34 29  1  0  0  0
  6  1  1  0  0  0
 14 12  1  0  0  0
 25 19  1  0  0  0
  8 11  1  0  0  0
 17 18  1  0  0  0
M  END
> <minimizedAffinity>
-3.67502

> <CNNscore>
0.2220995128

> <CNNaffinity>
6.2043890953

> <CNN_VS>
1.3779917955

> <CNNaffinity_variance>
0.5167882442

$$$$
[H]c1c([H])c([H])c2c(c1[H])c1c3c(c4c5c([H])c([H])c([H])c([H])c5n5c4c1n2[C@@]1(C([H])([H])[H])O[C@]5([H])C([H])([H])[C@@]1([H])N([H])C([H])([H])[H])C(=O)N([H])C3([H])[H]


 34 41  0  0  0  0  0  0  0  0999 V2000
  -12.3587   -5.6407   11.1988 C   0  0  0  0  0  0  0  0  0  0  0  0
  -13.6782   -6.1774   10.6928 C   0  0  0  0  0  0  0  0  0  0  0  0
  -13.7359   -5.5183    9.3333 C   0  0  0  0  0  0  0  0  0  0  0  0
  -12.5943   -4.8181    9.1208 O   0  0  0  0  0  0  0  0  0  0  0  0
  -11.5778   -5.3078    9.9986 C   0  0  0  0  0  0  0  0  0  0  0  0
  -10.7234   -4.0421   10.1874 C   0  0  0  0  0  0  0  0  0  0  0  0
  -10.9049   -6.3726    9.3155 N   0  0  0  0  0  0  0  0  0  0  0  0
   -9.6041   -6.7300    9.3928 C   0  0  0  0  0  0  0  0  0  0  0  0
   -8.5746   -6.2658   10.1444 C   0  0  0  0  0  0  0  0  0  0  0  0
   -7.2887   -6.8187   10.0526 C   0  0  0  0  0  0  0  0  0  0  0  0
   -7.0171   -7.8581    9.1955 C   0  0  0  0  0  0  0  0  0  0  0  0
   -8.0623   -8.3496    8.4159 C   0  0  0  0  0  0  0  0  0  0  0  0
   -9.3131   -7.7792    8.5342 C   0  0  0  0  0  0  0  0  0  0  0  0
  -10.4757   -8.0848    7.9073 C   0  0  0  0  0  0  0  0  0  0  0  0
  -10.8635   -9.0079    6.9669 C   0  0  0  0  0  0  0  0  0  0  0  0
  -10.0092  -10.0313    6.2968 C   0  0  0  0  0  0  0  0  0  0  0  0
  -10.8928  -10.7359    5.4202 N   0  0  0  0  0  0  0  0  0  0  0  0
  -12.2234  -10.1856    5.5188 C   0  0  0  0  0  0  0  0  0  0  0  0
  -13.1495  -10.6355    4.8469 O   0  0  0  0  0  0  0  0  0  0  0  0
  -12.1764   -9.1148    6.4856 C   0  0  0  0  0  0  0  0  0  0  0  0
  -13.1241   -8.2492    6.9836 C   0  0  0  0  0  0  0  0  0  0  0  0
  -14.4573   -8.0658    6.7856 C   0  0  0  0  0  0  0  0  0  0  0  0
  -15.3795   -8.6735    5.9797 C   0  0  0  0  0  0  0  0  0  0  0  0
  -16.7019   -8.2329    6.0168 C   0  0  0  0  0  0  0  0  0  0  0  0
  -17.0920   -7.2008    6.8478 C   0  0  0  0  0  0  0  0  0  0  0  0
  -16.1579   -6.5927    7.6574 C   0  0  0  0  0  0  0  0  0  0  0  0
  -14.8266   -7.0218    7.6329 C   0  0  0  0  0  0  0  0  0  0  0  0
  -13.7861   -6.5817    8.3157 N   0  0  0  0  0  0  0  0  0  0  0  0
  -12.7252   -7.3147    7.9361 C   0  0  0  0  0  0  0  0  0  0  0  0
  -11.4145   -7.2402    8.3840 C   0  0  0  0  0  0  0  0  0  0  0  0
  -10.5881  -11.5270    4.8130 H   0  0  0  0  0  0  0  0  0  0  0  0
  -11.2819   -5.7780   13.2539 C   0  0  0  0  0  0  0  0  0  0  0  0
  -11.8100   -6.5668   12.1290 N   0  0  0  0  0  0  0  0  0  0  0  0
  -12.5260   -7.1942   12.5493 H   0  0  0  0  0  0  0  0  0  0  0  0
 32 33  1  0  0  0
 33  1  1  0  0  0
  1  2  1  0  0  0
  2  3  1  0  0  0
  3  4  1  0  0  0
  4  5  1  0  0  0
  5  6  1  0  0  0
  5  7  1  0  0  0
  7  8  1  0  0  0
  8  9  2  0  0  0
  9 10  1  0  0  0
 10 11  2  0  0  0
 11 12  1  0  0  0
 12 13  2  0  0  0
 13 14  1  0  0  0
 14 15  2  0  0  0
 15 16  1  0  0  0
 16 17  1  0  0  0
 17 18  1  0  0  0
 18 19  2  0  0  0
 18 20  1  0  0  0
 20 21  2  0  0  0
 21 22  1  0  0  0
 22 23  2  0  0  0
 23 24  1  0  0  0
 24 25  2  0  0  0
 25 26  1  0  0  0
 26 27  2  0  0  0
 27 28  1  0  0  0
 28 29  1  0  0  0
 29 30  2  0  0  0
  5  1  1  0  0  0
 30  7  1  0  0  0
 28  3  1  0  0  0
 13  8  1  0  0  0
 30 14  1  0  0  0
 20 15  1  0  0  0
 29 21  1  0  0  0
 27 22  1  0  0  0
 33 34  1  0  0  0
 17 31  1  0  0  0
M  END
> <minimizedAffinity>
16.32146

> <CNNscore>
0.3927817345

> <CNNaffinity>
6.5666642189

> <CNN_VS>
2.5792658329

> <CNNaffinity_variance>
0.6235494614

$$$$
[H]c1c([H])c([H])c2c(c1[H])c1c3c(c4c5c([H])c([H])c([H])c([H])c5n5c4c1n2[C@@]1(C([H])([H])[H])O[C@]5([H])C([H])([H])[C@@]1([H])N([H])C([H])([H])[H])C(=O)N([H])C3([H])[H]


 34 41  0  0  0  0  0  0  0  0999 V2000
   -2.7110   -6.4203    6.0812 C   0  0  0  0  0  0  0  0  0  0  0  0
   -1.9868   -5.4215    6.9548 C   0  0  0  0  0  0  0  0  0  0  0  0
   -2.9759   -4.2781    6.9371 C   0  0  0  0  0  0  0  0  0  0  0  0
   -4.0799   -4.6452    6.2405 O   0  0  0  0  0  0  0  0  0  0  0  0
   -4.1361   -6.0722    6.1757 C   0  0  0  0  0  0  0  0  0  0  0  0
   -4.8782   -6.2729    4.8427 C   0  0  0  0  0  0  0  0  0  0  0  0
   -4.8646   -6.5203    7.3253 N   0  0  0  0  0  0  0  0  0  0  0  0
   -5.6828   -7.5899    7.4365 C   0  0  0  0  0  0  0  0  0  0  0  0
   -6.0203   -8.5735    6.5653 C   0  0  0  0  0  0  0  0  0  0  0  0
   -6.9011   -9.6044    6.9246 C   0  0  0  0  0  0  0  0  0  0  0  0
   -7.4600   -9.6622    8.1788 C   0  0  0  0  0  0  0  0  0  0  0  0
   -7.1242   -8.6612    9.0884 C   0  0  0  0  0  0  0  0  0  0  0  0
   -6.2547   -7.6638    8.6975 C   0  0  0  0  0  0  0  0  0  0  0  0
   -5.7697   -6.6055    9.3923 C   0  0  0  0  0  0  0  0  0  0  0  0
   -5.9302   -6.1192   10.6669 C   0  0  0  0  0  0  0  0  0  0  0  0
   -6.7894   -6.6820   11.7491 C   0  0  0  0  0  0  0  0  0  0  0  0
   -6.5927   -5.8137   12.8685 N   0  0  0  0  0  0  0  0  0  0  0  0
   -5.6745   -4.7578   12.5147 C   0  0  0  0  0  0  0  0  0  0  0  0
   -5.3617   -3.8883   13.3257 O   0  0  0  0  0  0  0  0  0  0  0  0
   -5.2794   -4.9718   11.1430 C   0  0  0  0  0  0  0  0  0  0  0  0
   -4.4356   -4.3003   10.2871 C   0  0  0  0  0  0  0  0  0  0  0  0
   -3.6396   -3.2019   10.3871 C   0  0  0  0  0  0  0  0  0  0  0  0
   -3.3873   -2.3135   11.3952 C   0  0  0  0  0  0  0  0  0  0  0  0
   -2.4941   -1.2677   11.1646 C   0  0  0  0  0  0  0  0  0  0  0  0
   -1.8655   -1.1161    9.9440 C   0  0  0  0  0  0  0  0  0  0  0  0
   -2.1241   -2.0148    8.9323 C   0  0  0  0  0  0  0  0  0  0  0  0
   -3.0176   -3.0698    9.1462 C   0  0  0  0  0  0  0  0  0  0  0  0
   -3.4040   -4.0275    8.3238 N   0  0  0  0  0  0  0  0  0  0  0  0
   -4.2773   -4.7974    8.9958 C   0  0  0  0  0  0  0  0  0  0  0  0
   -4.9422   -5.9351    8.5629 C   0  0  0  0  0  0  0  0  0  0  0  0
   -7.0589   -5.9523   13.7908 H   0  0  0  0  0  0  0  0  0  0  0  0
   -1.1179   -8.0560    5.6472 C   0  0  0  0  0  0  0  0  0  0  0  0
   -2.3083   -7.7338    6.4507 N   0  0  0  0  0  0  0  0  0  0  0  0
   -1.9942   -7.8000    7.4406 H   0  0  0  0  0  0  0  0  0  0  0  0
 32 33  1  0  0  0
 33  1  1  0  0  0
  1  2  1  0  0  0
  2  3  1  0  0  0
  3  4  1  0  0  0
  4  5  1  0  0  0
  5  6  1  0  0  0
  5  7  1  0  0  0
  7  8  1  0  0  0
  8  9  2  0  0  0
  9 10  1  0  0  0
 10 11  2  0  0  0
 11 12  1  0  0  0
 12 13  2  0  0  0
 13 14  1  0  0  0
 14 15  2  0  0  0
 15 16  1  0  0  0
 16 17  1  0  0  0
 17 18  1  0  0  0
 18 19  2  0  0  0
 18 20  1  0  0  0
 20 21  2  0  0  0
 21 22  1  0  0  0
 22 23  2  0  0  0
 23 24  1  0  0  0
 24 25  2  0  0  0
 25 26  1  0  0  0
 26 27  2  0  0  0
 27 28  1  0  0  0
 28 29  1  0  0  0
 29 30  2  0  0  0
  5  1  1  0  0  0
 30  7  1  0  0  0
 28  3  1  0  0  0
 13  8  1  0  0  0
 30 14  1  0  0  0
 20 15  1  0  0  0
 29 21  1  0  0  0
 27 22  1  0  0  0
 33 34  1  0  0  0
 17 31  1  0  0  0
M  END
> <minimizedAffinity>
1.31003

> <CNNscore>
0.3750378788

> <CNNaffinity>
5.5375699997

> <CNN_VS>
2.0767984390

> <CNNaffinity_variance>
0.7277897596

$$$$
[H]c1c([H])c([H])c2c(c1[H])c1c3c(c4c5c([H])c([H])c([H])c([H])c5n5c4c1n2[C@@]1(C([H])([H])[H])O[C@]5([H])C([H])([H])[C@@]1([H])N([H])C([H])([H])[H])C(=O)N([H])C3([H])[H]


 34 41  0  0  0  0  0  0  0  0999 V2000
  -13.8805   -5.9748    3.5907 C   0  0  0  0  0  0  0  0  0  0  0  0
  -13.1316   -6.9857    4.4289 C   0  0  0  0  0  0  0  0  0  0  0  0
  -13.1113   -6.2716    5.7614 C   0  0  0  0  0  0  0  0  0  0  0  0
  -13.8098   -5.1134    5.6651 O   0  0  0  0  0  0  0  0  0  0  0  0
  -14.6859   -5.1907    4.5381 C   0  0  0  0  0  0  0  0  0  0  0  0
  -14.7787   -3.7069    4.1408 C   0  0  0  0  0  0  0  0  0  0  0  0
  -15.9209   -5.7523    4.9990 N   0  0  0  0  0  0  0  0  0  0  0  0
  -17.1745   -5.4924    4.5669 C   0  0  0  0  0  0  0  0  0  0  0  0
  -17.6498   -4.7045    3.5701 C   0  0  0  0  0  0  0  0  0  0  0  0
  -19.0232   -4.6049    3.3022 C   0  0  0  0  0  0  0  0  0  0  0  0
  -19.9478   -5.3046    4.0399 C   0  0  0  0  0  0  0  0  0  0  0  0
  -19.4786   -6.1206    5.0676 C   0  0  0  0  0  0  0  0  0  0  0  0
  -18.1206   -6.1919    5.3006 C   0  0  0  0  0  0  0  0  0  0  0  0
  -17.4277   -6.9135    6.2156 C   0  0  0  0  0  0  0  0  0  0  0  0
  -17.7578   -7.7974    7.2139 C   0  0  0  0  0  0  0  0  0  0  0  0
  -19.1248   -8.2422    7.6136 C   0  0  0  0  0  0  0  0  0  0  0  0
  -18.9160   -9.1630    8.6880 N   0  0  0  0  0  0  0  0  0  0  0  0
  -17.5041   -9.2857    8.9613 C   0  0  0  0  0  0  0  0  0  0  0  0
  -17.0905  -10.0236    9.8535 O   0  0  0  0  0  0  0  0  0  0  0  0
  -16.8090   -8.4274    8.0321 C   0  0  0  0  0  0  0  0  0  0  0  0
  -15.4781   -8.1446    7.8213 C   0  0  0  0  0  0  0  0  0  0  0  0
  -14.3075   -8.5593    8.3760 C   0  0  0  0  0  0  0  0  0  0  0  0
  -14.0035   -9.4198    9.3941 C   0  0  0  0  0  0  0  0  0  0  0  0
  -12.6647   -9.6289    9.7231 C   0  0  0  0  0  0  0  0  0  0  0  0
  -11.6490   -8.9859    9.0426 C   0  0  0  0  0  0  0  0  0  0  0  0
  -11.9621   -8.1202    8.0177 C   0  0  0  0  0  0  0  0  0  0  0  0
  -13.3000   -7.8984    7.6744 C   0  0  0  0  0  0  0  0  0  0  0  0
  -13.8129   -7.1189    6.7406 N   0  0  0  0  0  0  0  0  0  0  0  0
  -15.1492   -7.2471    6.8084 C   0  0  0  0  0  0  0  0  0  0  0  0
  -16.1194   -6.6428    6.0225 C   0  0  0  0  0  0  0  0  0  0  0  0
  -19.6919   -9.6567    9.1793 H   0  0  0  0  0  0  0  0  0  0  0  0
  -14.8389   -8.0139    3.0203 C   0  0  0  0  0  0  0  0  0  0  0  0
  -14.5483   -6.6551    2.5346 N   0  0  0  0  0  0  0  0  0  0  0  0
  -15.4765   -6.2432    2.3077 H   0  0  0  0  0  0  0  0  0  0  0  0
 32 33  1  0  0  0
 33  1  1  0  0  0
  1  2  1  0  0  0
  2  3  1  0  0  0
  3  4  1  0  0  0
  4  5  1  0  0  0
  5  6  1  0  0  0
  5  7  1  0  0  0
  7  8  1  0  0  0
  8  9  2  0  0  0
  9 10  1  0  0  0
 10 11  2  0  0  0
 11 12  1  0  0  0
 12 13  2  0  0  0
 13 14  1  0  0  0
 14 15  2  0  0  0
 15 16  1  0  0  0
 16 17  1  0  0  0
 17 18  1  0  0  0
 18 19  2  0  0  0
 18 20  1  0  0  0
 20 21  2  0  0  0
 21 22  1  0  0  0
 22 23  2  0  0  0
 23 24  1  0  0  0
 24 25  2  0  0  0
 25 26  1  0  0  0
 26 27  2  0  0  0
 27 28  1  0  0  0
 28 29  1  0  0  0
 29 30  2  0  0  0
  5  1  1  0  0  0
 30  7  1  0  0  0
 28  3  1  0  0  0
 13  8  1  0  0  0
 30 14  1  0  0  0
 20 15  1  0  0  0
 29 21  1  0  0  0
 27 22  1  0  0  0
 33 34  1  0  0  0
 17 31  1  0  0  0
M  END
> <minimizedAffinity>
23.84276

> <CNNscore>
0.3495305181

> <CNNaffinity>
6.6676268578

> <CNN_VS>
2.3305389881

> <CNNaffinity_variance>
0.3791419864

$$$$
[H]c1c([H])c([H])c2c(c1[H])c1c3c(c4c5c([H])c([H])c([H])c([H])c5n5c4c1n2[C@@]1(C([H])([H])[H])O[C@]5([H])C([H])([H])[C@@]1([H])N([H])C([H])([H])[H])C(=O)N([H])C3([H])[H]


 34 41  0  0  0  0  0  0  0  0999 V2000
  -11.6715   -9.1758    7.3679 C   0  0  0  0  0  0  0  0  0  0  0  0
  -10.3012   -9.6861    6.9841 C   0  0  0  0  0  0  0  0  0  0  0  0
   -9.7106   -8.4393    6.3658 C   0  0  0  0  0  0  0  0  0  0  0  0
  -10.5917   -7.4151    6.4821 O   0  0  0  0  0  0  0  0  0  0  0  0
  -11.5261   -7.7208    7.5199 C   0  0  0  0  0  0  0  0  0  0  0  0
  -12.7661   -6.9533    7.0289 C   0  0  0  0  0  0  0  0  0  0  0  0
  -10.9760   -7.2229    8.7457 N   0  0  0  0  0  0  0  0  0  0  0  0
  -11.6293   -6.7167    9.8147 C   0  0  0  0  0  0  0  0  0  0  0  0
  -12.9495   -6.5751   10.0928 C   0  0  0  0  0  0  0  0  0  0  0  0
  -13.3912   -6.0180   11.3020 C   0  0  0  0  0  0  0  0  0  0  0  0
  -12.5021   -5.5918   12.2594 C   0  0  0  0  0  0  0  0  0  0  0  0
  -11.1414   -5.7302   11.9926 C   0  0  0  0  0  0  0  0  0  0  0  0
  -10.7461   -6.2826   10.7916 C   0  0  0  0  0  0  0  0  0  0  0  0
   -9.5030   -6.5334   10.3122 C   0  0  0  0  0  0  0  0  0  0  0  0
   -8.2233   -6.3535   10.7778 C   0  0  0  0  0  0  0  0  0  0  0  0
   -7.8096   -5.7537   12.0799 C   0  0  0  0  0  0  0  0  0  0  0  0
   -6.3804   -5.8084   12.0763 N   0  0  0  0  0  0  0  0  0  0  0  0
   -5.9153   -6.3956   10.8425 C   0  0  0  0  0  0  0  0  0  0  0  0
   -4.7148   -6.5379   10.6184 O   0  0  0  0  0  0  0  0  0  0  0  0
   -7.0798   -6.7243   10.0556 C   0  0  0  0  0  0  0  0  0  0  0  0
   -7.2512   -7.2991    8.8164 C   0  0  0  0  0  0  0  0  0  0  0  0
   -6.4174   -7.7930    7.8620 C   0  0  0  0  0  0  0  0  0  0  0  0
   -5.0572   -7.8874    7.7607 C   0  0  0  0  0  0  0  0  0  0  0  0
   -4.5046   -8.4627    6.6170 C   0  0  0  0  0  0  0  0  0  0  0  0
   -5.3026   -8.9347    5.5931 C   0  0  0  0  0  0  0  0  0  0  0  0
   -6.6725   -8.8366    5.7014 C   0  0  0  0  0  0  0  0  0  0  0  0
   -7.2440   -8.2621    6.8417 C   0  0  0  0  0  0  0  0  0  0  0  0
   -8.5150   -8.0706    7.1428 N   0  0  0  0  0  0  0  0  0  0  0  0
   -8.5509   -7.4783    8.3489 C   0  0  0  0  0  0  0  0  0  0  0  0
   -9.6561   -7.0948    9.0942 C   0  0  0  0  0  0  0  0  0  0  0  0
   -5.7912   -5.4664   12.8656 H   0  0  0  0  0  0  0  0  0  0  0  0
  -13.4936  -10.4103    8.1146 C   0  0  0  0  0  0  0  0  0  0  0  0
  -12.1506   -9.9284    8.4760 N   0  0  0  0  0  0  0  0  0  0  0  0
  -11.5926  -10.7882    8.6559 H   0  0  0  0  0  0  0  0  0  0  0  0
 32 33  1  0  0  0
 33  1  1  0  0  0
  1  2  1  0  0  0
  2  3  1  0  0  0
  3  4  1  0  0  0
  4  5  1  0  0  0
  5  6  1  0  0  0
  5  7  1  0  0  0
  7  8  1  0  0  0
  8  9  2  0  0  0
  9 10  1  0  0  0
 10 11  2  0  0  0
 11 12  1  0  0  0
 12 13  2  0  0  0
 13 14  1  0  0  0
 14 15  2  0  0  0
 15 16  1  0  0  0
 16 17  1  0  0  0
 17 18  1  0  0  0
 18 19  2  0  0  0
 18 20  1  0  0  0
 20 21  2  0  0  0
 21 22  1  0  0  0
 22 23  2  0  0  0
 23 24  1  0  0  0
 24 25  2  0  0  0
 25 26  1  0  0  0
 26 27  2  0  0  0
 27 28  1  0  0  0
 28 29  1  0  0  0
 29 30  2  0  0  0
  5  1  1  0  0  0
 30  7  1  0  0  0
 28  3  1  0  0  0
 13  8  1  0  0  0
 30 14  1  0  0  0
 20 15  1  0  0  0
 29 21  1  0  0  0
 27 22  1  0  0  0
 33 34  1  0  0  0
 17 31  1  0  0  0
M  END
> <minimizedAffinity>
14.02552

> <CNNscore>
0.2993909717

> <CNNaffinity>
6.2293443680

> <CNN_VS>
1.8650094271

> <CNNaffinity_variance>
0.2572016120

$$$$
[H]c1c([H])c([H])c2c(c1[H])c1c3c(c4c5c([H])c([H])c([H])c([H])c5n5c4c1n2[C@@]1(C([H])([H])[H])O[C@]5([H])C([H])([H])[C@@]1([H])N([H])C([H])([H])[H])C(=O)N([H])C3([H])[H]


 34 41  0  0  0  0  0  0  0  0999 V2000
  -11.5660   -4.8292   10.1895 C   0  0  0  0  0  0  0  0  0  0  0  0
  -10.2082   -4.7785    9.5268 C   0  0  0  0  0  0  0  0  0  0  0  0
   -9.5311   -5.9477   10.2053 C   0  0  0  0  0  0  0  0  0  0  0  0
  -10.4139   -6.5674   11.0272 O   0  0  0  0  0  0  0  0  0  0  0  0
  -11.7425   -6.2208   10.6292 C   0  0  0  0  0  0  0  0  0  0  0  0
  -12.4834   -6.3211   11.9741 C   0  0  0  0  0  0  0  0  0  0  0  0
  -12.1594   -7.1872    9.6569 N   0  0  0  0  0  0  0  0  0  0  0  0
  -13.3996   -7.6769    9.4380 C   0  0  0  0  0  0  0  0  0  0  0  0
  -14.6039   -7.3894    9.9925 C   0  0  0  0  0  0  0  0  0  0  0  0
  -15.7772   -8.0390    9.5813 C   0  0  0  0  0  0  0  0  0  0  0  0
  -15.7562   -8.9962    8.5955 C   0  0  0  0  0  0  0  0  0  0  0  0
  -14.5284   -9.3045    8.0128 C   0  0  0  0  0  0  0  0  0  0  0  0
  -13.3964   -8.6441    8.4445 C   0  0  0  0  0  0  0  0  0  0  0  0
  -12.1099   -8.7533    8.0308 C   0  0  0  0  0  0  0  0  0  0  0  0
  -11.4476   -9.5065    7.0923 C   0  0  0  0  0  0  0  0  0  0  0  0
  -12.0304  -10.5334    6.1802 C   0  0  0  0  0  0  0  0  0  0  0  0
  -10.9270  -11.0101    5.4049 N   0  0  0  0  0  0  0  0  0  0  0  0
   -9.7164  -10.3359    5.8086 C   0  0  0  0  0  0  0  0  0  0  0  0
   -8.6376  -10.5927    5.2776 O   0  0  0  0  0  0  0  0  0  0  0  0
  -10.0685   -9.4086    6.8572 C   0  0  0  0  0  0  0  0  0  0  0  0
   -9.3432   -8.5096    7.6063 C   0  0  0  0  0  0  0  0  0  0  0  0
   -8.0386   -8.1273    7.6513 C   0  0  0  0  0  0  0  0  0  0  0  0
   -6.9214   -8.5177    6.9668 C   0  0  0  0  0  0  0  0  0  0  0  0
   -5.7020   -7.9098    7.2636 C   0  0  0  0  0  0  0  0  0  0  0  0
   -5.6055   -6.9278    8.2303 C   0  0  0  0  0  0  0  0  0  0  0  0
   -6.7351   -6.5390    8.9164 C   0  0  0  0  0  0  0  0  0  0  0  0
   -7.9666   -7.1384    8.6317 C   0  0  0  0  0  0  0  0  0  0  0  0
   -9.1543   -6.9195    9.1649 N   0  0  0  0  0  0  0  0  0  0  0  0
  -10.0198   -7.7492    8.5570 C   0  0  0  0  0  0  0  0  0  0  0  0
  -11.3857   -7.8786    8.7605 C   0  0  0  0  0  0  0  0  0  0  0  0
  -11.0185  -11.7380    4.6640 H   0  0  0  0  0  0  0  0  0  0  0  0
  -12.9901   -3.0125    9.9195 C   0  0  0  0  0  0  0  0  0  0  0  0
  -12.5314   -4.2698    9.3069 N   0  0  0  0  0  0  0  0  0  0  0  0
  -12.1305   -3.9936    8.3872 H   0  0  0  0  0  0  0  0  0  0  0  0
 32 33  1  0  0  0
 33  1  1  0  0  0
  1  2  1  0  0  0
  2  3  1  0  0  0
  3  4  1  0  0  0
  4  5  1  0  0  0
  5  6  1  0  0  0
  5  7  1  0  0  0
  7  8  1  0  0  0
  8  9  2  0  0  0
  9 10  1  0  0  0
 10 11  2  0  0  0
 11 12  1  0  0  0
 12 13  2  0  0  0
 13 14  1  0  0  0
 14 15  2  0  0  0
 15 16  1  0  0  0
 16 17  1  0  0  0
 17 18  1  0  0  0
 18 19  2  0  0  0
 18 20  1  0  0  0
 20 21  2  0  0  0
 21 22  1  0  0  0
 22 23  2  0  0  0
 23 24  1  0  0  0
 24 25  2  0  0  0
 25 26  1  0  0  0
 26 27  2  0  0  0
 27 28  1  0  0  0
 28 29  1  0  0  0
 29 30  2  0  0  0
  5  1  1  0  0  0
 30  7  1  0  0  0
 28  3  1  0  0  0
 13  8  1  0  0  0
 30 14  1  0  0  0
 20 15  1  0  0  0
 29 21  1  0  0  0
 27 22  1  0  0  0
 33 34  1  0  0  0
 17 31  1  0  0  0
M  END
> <minimizedAffinity>
13.59375

> <CNNscore>
0.2646521032

> <CNNaffinity>
6.4321146011

> <CNN_VS>
1.7022726536

> <CNNaffinity_variance>
0.3790153563

$$$$
[H]c1c([H])c([H])c2c(c1[H])c1c3c(c4c5c([H])c([H])c([H])c([H])c5n5c4c1n2[C@@]1(C([H])([H])[H])O[C@]5([H])C([H])([H])[C@@]1([H])N([H])C([H])([H])[H])C(=O)N([H])C3([H])[H]


 34 41  0  0  0  0  0  0  0  0999 V2000
  -13.0460  -10.8570    6.0910 C   0  0  0  0  0  0  0  0  0  0  0  0
  -11.7243  -10.8732    6.8247 C   0  0  0  0  0  0  0  0  0  0  0  0
  -11.0250   -9.7152    6.1495 C   0  0  0  0  0  0  0  0  0  0  0  0
  -11.8699   -9.1291    5.2656 O   0  0  0  0  0  0  0  0  0  0  0  0
  -13.2138   -9.4803    5.6035 C   0  0  0  0  0  0  0  0  0  0  0  0
  -13.8842   -9.4261    4.2195 C   0  0  0  0  0  0  0  0  0  0  0  0
  -13.6912   -8.4924    6.5250 N   0  0  0  0  0  0  0  0  0  0  0  0
  -14.9462   -8.0117    6.6651 C   0  0  0  0  0  0  0  0  0  0  0  0
  -16.1166   -8.3288    6.0570 C   0  0  0  0  0  0  0  0  0  0  0  0
  -17.3166   -7.6821    6.3879 C   0  0  0  0  0  0  0  0  0  0  0  0
  -17.3573   -6.6977    7.3460 C   0  0  0  0  0  0  0  0  0  0  0  0
  -16.1651   -6.3588    7.9829 C   0  0  0  0  0  0  0  0  0  0  0  0
  -15.0052   -7.0173    7.6296 C   0  0  0  0  0  0  0  0  0  0  0  0
  -13.7434   -6.8814    8.1065 C   0  0  0  0  0  0  0  0  0  0  0  0
  -13.1390   -6.0947    9.0565 C   0  0  0  0  0  0  0  0  0  0  0  0
  -13.7795   -5.0499    9.9077 C   0  0  0  0  0  0  0  0  0  0  0  0
  -12.7234   -4.5388   10.7256 N   0  0  0  0  0  0  0  0  0  0  0  0
  -11.4862   -5.2094   10.4047 C   0  0  0  0  0  0  0  0  0  0  0  0
  -10.4396   -4.9251   10.9837 O   0  0  0  0  0  0  0  0  0  0  0  0
  -11.7732   -6.1695    9.3659 C   0  0  0  0  0  0  0  0  0  0  0  0
  -11.0003   -7.0803    8.6813 C   0  0  0  0  0  0  0  0  0  0  0  0
   -9.6912   -7.4480    8.7151 C   0  0  0  0  0  0  0  0  0  0  0  0
   -8.6155   -7.0256    9.4456 C   0  0  0  0  0  0  0  0  0  0  0  0
   -7.3760   -7.6268    9.2300 C   0  0  0  0  0  0  0  0  0  0  0  0
   -7.2187   -8.6340    8.2979 C   0  0  0  0  0  0  0  0  0  0  0  0
   -8.3066   -9.0551    7.5651 C   0  0  0  0  0  0  0  0  0  0  0  0
   -9.5576   -8.4628    7.7682 C   0  0  0  0  0  0  0  0  0  0  0  0
  -10.7133   -8.7105    7.1803 N   0  0  0  0  0  0  0  0  0  0  0  0
  -11.6181   -7.8747    7.7186 C   0  0  0  0  0  0  0  0  0  0  0  0
  -12.9728   -7.7673    7.4406 C   0  0  0  0  0  0  0  0  0  0  0  0
  -12.8612   -3.7918   11.4399 H   0  0  0  0  0  0  0  0  0  0  0  0
  -13.8437  -10.8212    8.2737 C   0  0  0  0  0  0  0  0  0  0  0  0
  -14.0504  -11.4032    6.9376 N   0  0  0  0  0  0  0  0  0  0  0  0
  -15.0130  -11.1188    6.6632 H   0  0  0  0  0  0  0  0  0  0  0  0
 32 33  1  0  0  0
 33  1  1  0  0  0
  1  2  1  0  0  0
  2  3  1  0  0  0
  3  4  1  0  0  0
  4  5  1  0  0  0
  5  6  1  0  0  0
  5  7  1  0  0  0
  7  8  1  0  0  0
  8  9  2  0  0  0
  9 10  1  0  0  0
 10 11  2  0  0  0
 11 12  1  0  0  0
 12 13  2  0  0  0
 13 14  1  0  0  0
 14 15  2  0  0  0
 15 16  1  0  0  0
 16 17  1  0  0  0
 17 18  1  0  0  0
 18 19  2  0  0  0
 18 20  1  0  0  0
 20 21  2  0  0  0
 21 22  1  0  0  0
 22 23  2  0  0  0
 23 24  1  0  0  0
 24 25  2  0  0  0
 25 26  1  0  0  0
 26 27  2  0  0  0
 27 28  1  0  0  0
 28 29  1  0  0  0
 29 30  2  0  0  0
  5  1  1  0  0  0
 30  7  1  0  0  0
 28  3  1  0  0  0
 13  8  1  0  0  0
 30 14  1  0  0  0
 20 15  1  0  0  0
 29 21  1  0  0  0
 27 22  1  0  0  0
 33 34  1  0  0  0
 17 31  1  0  0  0
M  END
> <minimizedAffinity>
12.95487

> <CNNscore>
0.2375110388

> <CNNaffinity>
6.5959768295

> <CNN_VS>
1.5666172504

> <CNNaffinity_variance>
0.3069568574

$$$$
[H]c1c([H])c([H])c2c(c1[H])c1c3c(c4c5c([H])c([H])c([H])c([H])c5n5c4c1n2[C@@]1(C([H])([H])[H])O[C@]5([H])C([H])([H])[C@@]1([H])N([H])C([H])([H])[H])C(=O)N([H])C3([H])[H]


 34 41  0  0  0  0  0  0  0  0999 V2000
  -17.5174   -6.6308    6.0073 C   0  0  0  0  0  0  0  0  0  0  0  0
  -16.9508   -6.3615    7.3827 C   0  0  0  0  0  0  0  0  0  0  0  0
  -16.9999   -7.7522    7.9736 C   0  0  0  0  0  0  0  0  0  0  0  0
  -17.4387   -8.6276    7.0355 O   0  0  0  0  0  0  0  0  0  0  0  0
  -17.2544   -8.0522    5.7399 C   0  0  0  0  0  0  0  0  0  0  0  0
  -18.3982   -8.7233    4.9593 C   0  0  0  0  0  0  0  0  0  0  0  0
  -15.9441   -8.4230    5.2940 N   0  0  0  0  0  0  0  0  0  0  0  0
  -15.5258   -8.6742    4.0339 C   0  0  0  0  0  0  0  0  0  0  0  0
  -16.1547   -8.6044    2.8340 C   0  0  0  0  0  0  0  0  0  0  0  0
  -15.4913   -8.9109    1.6366 C   0  0  0  0  0  0  0  0  0  0  0  0
  -14.1718   -9.2948    1.6287 C   0  0  0  0  0  0  0  0  0  0  0  0
  -13.5081   -9.3711    2.8516 C   0  0  0  0  0  0  0  0  0  0  0  0
  -14.1948   -9.0622    4.0078 C   0  0  0  0  0  0  0  0  0  0  0  0
  -13.7736   -9.0458    5.2964 C   0  0  0  0  0  0  0  0  0  0  0  0
  -12.5892   -9.3124    5.9389 C   0  0  0  0  0  0  0  0  0  0  0  0
  -11.3042   -9.7541    5.3224 C   0  0  0  0  0  0  0  0  0  0  0  0
  -10.3919   -9.8810    6.4167 N   0  0  0  0  0  0  0  0  0  0  0  0
  -11.0601   -9.5518    7.6529 C   0  0  0  0  0  0  0  0  0  0  0  0
  -10.4667   -9.5976    8.7288 O   0  0  0  0  0  0  0  0  0  0  0  0
  -12.4223   -9.2028    7.3270 C   0  0  0  0  0  0  0  0  0  0  0  0
  -13.5027   -8.8064    8.0827 C   0  0  0  0  0  0  0  0  0  0  0  0
  -13.7168   -8.5726    9.4054 C   0  0  0  0  0  0  0  0  0  0  0  0
  -12.9251   -8.6666   10.5161 C   0  0  0  0  0  0  0  0  0  0  0  0
  -13.4678   -8.3464   11.7600 C   0  0  0  0  0  0  0  0  0  0  0  0
  -14.7815   -7.9391   11.8872 C   0  0  0  0  0  0  0  0  0  0  0  0
  -15.5740   -7.8463   10.7641 C   0  0  0  0  0  0  0  0  0  0  0  0
  -15.0461   -8.1640    9.5081 C   0  0  0  0  0  0  0  0  0  0  0  0
  -15.6240   -8.1458    8.3214 N   0  0  0  0  0  0  0  0  0  0  0  0
  -14.7013   -8.5383    7.4261 C   0  0  0  0  0  0  0  0  0  0  0  0
  -14.8254   -8.6617    6.0501 C   0  0  0  0  0  0  0  0  0  0  0  0
   -9.3967  -10.1703    6.3031 H   0  0  0  0  0  0  0  0  0  0  0  0
  -18.1282   -5.2355    4.2519 C   0  0  0  0  0  0  0  0  0  0  0  0
  -17.0034   -5.6640    5.0990 N   0  0  0  0  0  0  0  0  0  0  0  0
  -16.6730   -4.7974    5.5709 H   0  0  0  0  0  0  0  0  0  0  0  0
 32 33  1  0  0  0
 33  1  1  0  0  0
  1  2  1  0  0  0
  2  3  1  0  0  0
  3  4  1  0  0  0
  4  5  1  0  0  0
  5  6  1  0  0  0
  5  7  1  0  0  0
  7  8  1  0  0  0
  8  9  2  0  0  0
  9 10  1  0  0  0
 10 11  2  0  0  0
 11 12  1  0  0  0
 12 13  2  0  0  0
 13 14  1  0  0  0
 14 15  2  0  0  0
 15 16  1  0  0  0
 16 17  1  0  0  0
 17 18  1  0  0  0
 18 19  2  0  0  0
 18 20  1  0  0  0
 20 21  2  0  0  0
 21 22  1  0  0  0
 22 23  2  0  0  0
 23 24  1  0  0  0
 24 25  2  0  0  0
 25 26  1  0  0  0
 26 27  2  0  0  0
 27 28  1  0  0  0
 28 29  1  0  0  0
 29 30  2  0  0  0
  5  1  1  0  0  0
 30  7  1  0  0  0
 28  3  1  0  0  0
 13  8  1  0  0  0
 30 14  1  0  0  0
 20 15  1  0  0  0
 29 21  1  0  0  0
 27 22  1  0  0  0
 33 34  1  0  0  0
 17 31  1  0  0  0
M  END
> <minimizedAffinity>
15.82691

> <CNNscore>
0.2206540406

> <CNNaffinity>
6.5643477440

> <CNN_VS>
1.4484498501

> <CNNaffinity_variance>
0.2621859312

$$$$
[H]c1c([H])c([H])c2c(c1[H])c1c3c(c4c5c([H])c([H])c([H])c([H])c5n5c4c1n2[C@@]1(C([H])([H])[H])O[C@]5([H])C([H])([H])[C@@]1([H])N([H])C([H])([H])[H])C(=O)N([H])C3([H])[H]


 34 41  0  0  0  0  0  0  0  0999 V2000
   -3.3497   -5.7501    5.5080 C   0  0  0  0  0  0  0  0  0  0  0  0
   -3.3865   -7.1891    5.9699 C   0  0  0  0  0  0  0  0  0  0  0  0
   -1.9090   -7.4536    6.1518 C   0  0  0  0  0  0  0  0  0  0  0  0
   -1.2122   -6.3158    5.9097 O   0  0  0  0  0  0  0  0  0  0  0  0
   -2.0926   -5.1961    6.0313 C   0  0  0  0  0  0  0  0  0  0  0  0
   -1.4372   -4.2045    5.0540 C   0  0  0  0  0  0  0  0  0  0  0  0
   -2.0592   -4.7775    7.4012 N   0  0  0  0  0  0  0  0  0  0  0  0
   -2.1782   -3.5275    7.9004 C   0  0  0  0  0  0  0  0  0  0  0  0
   -2.4158   -2.3294    7.3102 C   0  0  0  0  0  0  0  0  0  0  0  0
   -2.5085   -1.1462    8.0581 C   0  0  0  0  0  0  0  0  0  0  0  0
   -2.3633   -1.1513    9.4246 C   0  0  0  0  0  0  0  0  0  0  0  0
   -2.1200   -2.3730   10.0494 C   0  0  0  0  0  0  0  0  0  0  0  0
   -2.0352   -3.5149    9.2795 C   0  0  0  0  0  0  0  0  0  0  0  0
   -1.8251   -4.8029    9.6470 C   0  0  0  0  0  0  0  0  0  0  0  0
   -1.6202   -5.4565   10.8376 C   0  0  0  0  0  0  0  0  0  0  0  0
   -1.5537   -4.8545   12.2012 C   0  0  0  0  0  0  0  0  0  0  0  0
   -1.3332   -5.9581   13.0838 N   0  0  0  0  0  0  0  0  0  0  0  0
   -1.2525   -7.1837   12.3258 C   0  0  0  0  0  0  0  0  0  0  0  0
   -1.0605   -8.2638   12.8809 O   0  0  0  0  0  0  0  0  0  0  0  0
   -1.4339   -6.8431   10.9349 C   0  0  0  0  0  0  0  0  0  0  0  0
   -1.4591   -7.5857    9.7759 C   0  0  0  0  0  0  0  0  0  0  0  0
   -1.3432   -8.9078    9.4784 C   0  0  0  0  0  0  0  0  0  0  0  0
   -1.1301  -10.0258   10.2360 C   0  0  0  0  0  0  0  0  0  0  0  0
   -1.0602  -11.2662    9.6028 C   0  0  0  0  0  0  0  0  0  0  0  0
   -1.2013  -11.3826    8.2337 C   0  0  0  0  0  0  0  0  0  0  0  0
   -1.4158  -10.2522    7.4760 C   0  0  0  0  0  0  0  0  0  0  0  0
   -1.4886   -8.9996    8.0947 C   0  0  0  0  0  0  0  0  0  0  0  0
   -1.6822   -7.8067    7.5635 N   0  0  0  0  0  0  0  0  0  0  0  0
   -1.6664   -6.9176    8.5715 C   0  0  0  0  0  0  0  0  0  0  0  0
   -1.8438   -5.5429    8.5183 C   0  0  0  0  0  0  0  0  0  0  0  0
   -1.2487   -5.8574   14.1182 H   0  0  0  0  0  0  0  0  0  0  0  0
   -5.3291   -6.0870    6.6784 C   0  0  0  0  0  0  0  0  0  0  0  0
   -4.5716   -5.1179    5.8701 N   0  0  0  0  0  0  0  0  0  0  0  0
   -4.4352   -4.2939    6.4909 H   0  0  0  0  0  0  0  0  0  0  0  0
 32 33  1  0  0  0
 33  1  1  0  0  0
  1  2  1  0  0  0
  2  3  1  0  0  0
  3  4  1  0  0  0
  4  5  1  0  0  0
  5  6  1  0  0  0
  5  7  1  0  0  0
  7  8  1  0  0  0
  8  9  2  0  0  0
  9 10  1  0  0  0
 10 11  2  0  0  0
 11 12  1  0  0  0
 12 13  2  0  0  0
 13 14  1  0  0  0
 14 15  2  0  0  0
 15 16  1  0  0  0
 16 17  1  0  0  0
 17 18  1  0  0  0
 18 19  2  0  0  0
 18 20  1  0  0  0
 20 21  2  0  0  0
 21 22  1  0  0  0
 22 23  2  0  0  0
 23 24  1  0  0  0
 24 25  2  0  0  0
 25 26  1  0  0  0
 26 27  2  0  0  0
 27 28  1  0  0  0
 28 29  1  0  0  0
 29 30  2  0  0  0
  5  1  1  0  0  0
 30  7  1  0  0  0
 28  3  1  0  0  0
 13  8  1  0  0  0
 30 14  1  0  0  0
 20 15  1  0  0  0
 29 21  1  0  0  0
 27 22  1  0  0  0
 33 34  1  0  0  0
 17 31  1  0  0  0
M  END
> <minimizedAffinity>
-3.54070

> <CNNscore>
0.2173960507

> <CNNaffinity>
5.2684316635

> <CNN_VS>
1.1453362703

> <CNNaffinity_variance>
0.4907685816

$$$$
[H]c1c([H])c([H])c2c(c1[H])c1c3c(c4c5c([H])c([H])c([H])c([H])c5n5c4c1n2[C@@]1(C([H])([H])[H])O[C@]5([H])C([H])([H])[C@@]1([H])N([H])C([H])([H])[H])C(=O)N([H])C3([H])[H]


 34 41  0  0  0  0  0  0  0  0999 V2000
   -4.2564   -8.1426    7.8540 C   0  0  0  0  0  0  0  0  0  0  0  0
   -4.6946   -6.7810    8.3433 C   0  0  0  0  0  0  0  0  0  0  0  0
   -3.3887   -6.2586    8.8979 C   0  0  0  0  0  0  0  0  0  0  0  0
   -2.4037   -7.1603    8.6623 O   0  0  0  0  0  0  0  0  0  0  0  0
   -2.8122   -8.0296    7.6034 C   0  0  0  0  0  0  0  0  0  0  0  0
   -2.0508   -9.3146    7.9733 C   0  0  0  0  0  0  0  0  0  0  0  0
   -2.3864   -7.4294    6.3740 N   0  0  0  0  0  0  0  0  0  0  0  0
   -1.9789   -8.0388    5.2390 C   0  0  0  0  0  0  0  0  0  0  0  0
   -1.8992   -9.3458    4.8846 C   0  0  0  0  0  0  0  0  0  0  0  0
   -1.4443   -9.7381    3.6170 C   0  0  0  0  0  0  0  0  0  0  0  0
   -1.0601   -8.8117    2.6773 C   0  0  0  0  0  0  0  0  0  0  0  0
   -1.1362   -7.4637    3.0224 C   0  0  0  0  0  0  0  0  0  0  0  0
   -1.5884   -7.1175    4.2791 C   0  0  0  0  0  0  0  0  0  0  0  0
   -1.7650   -5.8951    4.8381 C   0  0  0  0  0  0  0  0  0  0  0  0
   -1.5788   -4.5980    4.4263 C   0  0  0  0  0  0  0  0  0  0  0  0
   -1.0612   -4.1327    3.1065 C   0  0  0  0  0  0  0  0  0  0  0  0
   -1.0705   -2.7047    3.1868 N   0  0  0  0  0  0  0  0  0  0  0  0
   -1.5529   -2.2895    4.4822 C   0  0  0  0  0  0  0  0  0  0  0  0
   -1.6409   -1.0991    4.7769 O   0  0  0  0  0  0  0  0  0  0  0  0
   -1.8607   -3.4845    5.2309 C   0  0  0  0  0  0  0  0  0  0  0  0
   -2.3504   -3.7054    6.4986 C   0  0  0  0  0  0  0  0  0  0  0  0
   -2.7481   -2.9099    7.5277 C   0  0  0  0  0  0  0  0  0  0  0  0
   -2.7922   -1.5549    7.7046 C   0  0  0  0  0  0  0  0  0  0  0  0
   -3.2664   -1.0480    8.9140 C   0  0  0  0  0  0  0  0  0  0  0  0
   -3.6887   -1.8858    9.9278 C   0  0  0  0  0  0  0  0  0  0  0  0
   -3.6417   -3.2502    9.7431 C   0  0  0  0  0  0  0  0  0  0  0  0
   -3.1686   -3.7761    8.5362 C   0  0  0  0  0  0  0  0  0  0  0  0
   -3.0393   -5.0342    8.1577 N   0  0  0  0  0  0  0  0  0  0  0  0
   -2.5363   -5.0225    6.9112 C   0  0  0  0  0  0  0  0  0  0  0  0
   -2.2421   -6.0969    6.0846 C   0  0  0  0  0  0  0  0  0  0  0  0
   -0.7676   -2.0842    2.4055 H   0  0  0  0  0  0  0  0  0  0  0  0
   -6.2262   -7.5926    6.7500 C   0  0  0  0  0  0  0  0  0  0  0  0
   -5.1012   -8.5412    6.7811 N   0  0  0  0  0  0  0  0  0  0  0  0
   -4.6455   -8.4531    5.8497 H   0  0  0  0  0  0  0  0  0  0  0  0
 32 33  1  0  0  0
 33  1  1  0  0  0
  1  2  1  0  0  0
  2  3  1  0  0  0
  3  4  1  0  0  0
  4  5  1  0  0  0
  5  6  1  0  0  0
  5  7  1  0  0  0
  7  8  1  0  0  0
  8  9  2  0  0  0
  9 10  1  0  0  0
 10 11  2  0  0  0
 11 12  1  0  0  0
 12 13  2  0  0  0
 13 14  1  0  0  0
 14 15  2  0  0  0
 15 16  1  0  0  0
 16 17  1  0  0  0
 17 18  1  0  0  0
 18 19  2  0  0  0
 18 20  1  0  0  0
 20 21  2  0  0  0
 21 22  1  0  0  0
 22 23  2  0  0  0
 23 24  1  0  0  0
 24 25  2  0  0  0
 25 26  1  0  0  0
 26 27  2  0  0  0
 27 28  1  0  0  0
 28 29  1  0  0  0
 29 30  2  0  0  0
  5  1  1  0  0  0
 30  7  1  0  0  0
 28  3  1  0  0  0
 13  8  1  0  0  0
 30 14  1  0  0  0
 20 15  1  0  0  0
 29 21  1  0  0  0
 27 22  1  0  0  0
 33 34  1  0  0  0
 17 31  1  0  0  0
M  END
> <minimizedAffinity>
-1.22714

> <CNNscore>
0.2071837932

> <CNNaffinity>
5.3381357193

> <CNN_VS>
1.1059751511

> <CNNaffinity_variance>
0.8961971998

$$$$
[H]c1nc(-c2c([H])c([H])c([H])c(N3C([H])([H])C([H])([H])N(C([H])([H])[H])C([H])([H])C3([H])[H])c2[H])c2nc([H])c(N([H])C(=O)c3c([H])c([H])c(F)c(C(F)(F)F)c3[H])c([H])c2n1


 38 42  0  0  0  0  0  0  0  0999 V2000
   -9.3337   -5.3766   13.4309 C   0  0  0  0  0  0  0  0  0  0  0  0
  -10.0908   -5.6535   12.3144 C   0  0  0  0  0  0  0  0  0  0  0  0
  -11.4789   -5.5275   12.3384 C   0  0  0  0  0  0  0  0  0  0  0  0
  -12.1806   -5.8190   11.1714 C   0  0  0  0  0  0  0  0  0  0  0  0
  -11.5707   -6.2127   10.0345 C   0  0  0  0  0  0  0  0  0  0  0  0
  -10.1613   -6.3244   10.0642 C   0  0  0  0  0  0  0  0  0  0  0  0
   -9.4868   -6.0460   11.1817 N   0  0  0  0  0  0  0  0  0  0  0  0
  -12.0640   -5.1302   13.4726 N   0  0  0  0  0  0  0  0  0  0  0  0
  -11.3284   -4.8541   14.5793 C   0  0  0  0  0  0  0  0  0  0  0  0
   -9.9906   -4.9811   14.5382 N   0  0  0  0  0  0  0  0  0  0  0  0
   -5.6798   -4.9428   14.2479 C   0  0  0  0  0  0  0  0  0  0  0  0
   -7.0705   -4.8186   14.2773 C   0  0  0  0  0  0  0  0  0  0  0  0
   -7.8867   -5.5016   13.3840 C   0  0  0  0  0  0  0  0  0  0  0  0
   -7.2614   -6.3104   12.4642 C   0  0  0  0  0  0  0  0  0  0  0  0
   -5.8676   -6.4358   12.4332 C   0  0  0  0  0  0  0  0  0  0  0  0
   -5.0757   -5.7494   13.3282 C   0  0  0  0  0  0  0  0  0  0  0  0
   -4.9281   -4.2135   15.1846 N   0  0  0  0  0  0  0  0  0  0  0  0
   -3.7966   -4.7149   15.9288 C   0  0  0  0  0  0  0  0  0  0  0  0
   -2.5089   -4.0282   15.5192 C   0  0  0  0  0  0  0  0  0  0  0  0
   -2.7936   -2.6146   15.3457 N   0  0  0  0  0  0  0  0  0  0  0  0
   -2.7975   -2.2298   13.9544 C   0  0  0  0  0  0  0  0  0  0  0  0
   -3.9677   -2.1830   16.0497 C   0  0  0  0  0  0  0  0  0  0  0  0
   -5.2521   -2.8068   15.4891 C   0  0  0  0  0  0  0  0  0  0  0  0
  -12.2643   -6.4910    8.8456 N   0  0  0  0  0  0  0  0  0  0  0  0
  -12.6826   -7.7363    8.3691 C   0  0  0  0  0  0  0  0  0  0  0  0
  -12.4646   -8.7883    9.0086 O   0  0  0  0  0  0  0  0  0  0  0  0
  -12.5101   -5.6522    8.2030 H   0  0  0  0  0  0  0  0  0  0  0  0
  -13.4038   -7.8889    7.0874 C   0  0  0  0  0  0  0  0  0  0  0  0
  -14.0991   -6.8186    6.5572 C   0  0  0  0  0  0  0  0  0  0  0  0
  -14.7799   -6.8902    5.3806 C   0  0  0  0  0  0  0  0  0  0  0  0
  -14.8030   -8.0542    4.6587 C   0  0  0  0  0  0  0  0  0  0  0  0
  -15.4834   -8.1310    3.4799 F   0  0  0  0  0  0  0  0  0  0  0  0
  -14.1184   -9.1268    5.1692 C   0  0  0  0  0  0  0  0  0  0  0  0
  -13.4229   -9.0526    6.3718 C   0  0  0  0  0  0  0  0  0  0  0  0
  -15.5198   -5.7246    4.8326 C   0  0  0  0  0  0  0  0  0  0  0  0
  -15.1257   -5.5338    3.5393 F   0  0  0  0  0  0  0  0  0  0  0  0
  -16.8672   -5.9974    4.9338 F   0  0  0  0  0  0  0  0  0  0  0  0
  -15.2603   -4.6296    5.6304 F   0  0  0  0  0  0  0  0  0  0  0  0
 11 17  1  0  0  0
 17 18  1  0  0  0
 18 19  1  0  0  0
 19 20  1  0  0  0
 20 21  1  0  0  0
 20 22  1  0  0  0
 22 23  1  0  0  0
 11 12  2  0  0  0
 12 13  1  0  0  0
 13  1  1  0  0  0
  1  2  1  0  0  0
  2  3  1  0  0  0
  3  4  2  0  0  0
  4  5  1  0  0  0
  5 24  1  0  0  0
 24 25  1  0  0  0
 25 26  2  0  0  0
 25 28  1  0  0  0
 28 29  2  0  0  0
 29 30  1  0  0  0
 30 35  1  0  0  0
 35 36  1  0  0  0
 35 37  1  0  0  0
 35 38  1  0  0  0
 30 31  2  0  0  0
 31 32  1  0  0  0
 31 33  1  0  0  0
 33 34  2  0  0  0
  5  6  2  0  0  0
  6  7  1  0  0  0
  3  8  1  0  0  0
  8  9  2  0  0  0
  9 10  1  0  0  0
 13 14  2  0  0  0
 14 15  1  0  0  0
 15 16  2  0  0  0
 16 11  1  0  0  0
 23 17  1  0  0  0
 10  1  2  0  0  0
  7  2  2  0  0  0
 34 28  1  0  0  0
 24 27  1  0  0  0
M  END
> <minimizedAffinity>
3.31524

> <CNNscore>
0.5805910826

> <CNNaffinity>
6.8393926620

> <CNN_VS>
3.9708902836

> <CNNaffinity_variance>
0.5663117766

$$$$
[H]c1nc(-c2c([H])c([H])c([H])c(N3C([H])([H])C([H])([H])N(C([H])([H])[H])C([H])([H])C3([H])[H])c2[H])c2nc([H])c(N([H])C(=O)c3c([H])c([H])c(F)c(C(F)(F)F)c3[H])c([H])c2n1


 38 42  0  0  0  0  0  0  0  0999 V2000
   -6.9328   -9.9123    3.9046 C   0  0  0  0  0  0  0  0  0  0  0  0
   -7.8557   -9.6276    4.8862 C   0  0  0  0  0  0  0  0  0  0  0  0
   -7.5777   -8.6956    5.8850 C   0  0  0  0  0  0  0  0  0  0  0  0
   -8.5593   -8.4534    6.8427 C   0  0  0  0  0  0  0  0  0  0  0  0
   -9.7534   -9.0808    6.8357 C   0  0  0  0  0  0  0  0  0  0  0  0
   -9.9843  -10.0165    5.8009 C   0  0  0  0  0  0  0  0  0  0  0  0
   -9.0447  -10.2507    4.8823 N   0  0  0  0  0  0  0  0  0  0  0  0
   -6.3913   -8.0802    5.8710 N   0  0  0  0  0  0  0  0  0  0  0  0
   -5.4738   -8.3522    4.9086 C   0  0  0  0  0  0  0  0  0  0  0  0
   -5.7588   -9.2540    3.9530 N   0  0  0  0  0  0  0  0  0  0  0  0
   -7.7520  -13.1544    2.1655 C   0  0  0  0  0  0  0  0  0  0  0  0
   -7.4395  -12.2219    3.1570 C   0  0  0  0  0  0  0  0  0  0  0  0
   -7.2446  -10.8777    2.8642 C   0  0  0  0  0  0  0  0  0  0  0  0
   -7.3740  -10.5033    1.5472 C   0  0  0  0  0  0  0  0  0  0  0  0
   -7.6870  -11.4367    0.5522 C   0  0  0  0  0  0  0  0  0  0  0  0
   -7.8763  -12.7659    0.8636 C   0  0  0  0  0  0  0  0  0  0  0  0
   -7.9288  -14.4951    2.5469 N   0  0  0  0  0  0  0  0  0  0  0  0
   -7.2828  -15.6348    1.9392 C   0  0  0  0  0  0  0  0  0  0  0  0
   -6.3108  -16.3011    2.8925 C   0  0  0  0  0  0  0  0  0  0  0  0
   -6.9277  -16.3338    4.2070 N   0  0  0  0  0  0  0  0  0  0  0  0
   -6.3187  -15.3909    5.1146 C   0  0  0  0  0  0  0  0  0  0  0  0
   -8.3584  -16.2259    4.1636 C   0  0  0  0  0  0  0  0  0  0  0  0
   -8.8298  -14.8565    3.6578 C   0  0  0  0  0  0  0  0  0  0  0  0
  -10.7591   -8.8318    7.7837 N   0  0  0  0  0  0  0  0  0  0  0  0
  -11.1981   -7.5944    8.2622 C   0  0  0  0  0  0  0  0  0  0  0  0
  -10.7012   -6.5218    7.8548 O   0  0  0  0  0  0  0  0  0  0  0  0
  -11.2650   -9.6905    8.2121 H   0  0  0  0  0  0  0  0  0  0  0  0
  -12.2697   -7.4749    9.2739 C   0  0  0  0  0  0  0  0  0  0  0  0
  -12.4055   -6.3055    9.9978 C   0  0  0  0  0  0  0  0  0  0  0  0
  -13.3720   -6.1283   10.9399 C   0  0  0  0  0  0  0  0  0  0  0  0
  -14.2696   -7.1263   11.2137 C   0  0  0  0  0  0  0  0  0  0  0  0
  -15.2392   -6.9537   12.1562 F   0  0  0  0  0  0  0  0  0  0  0  0
  -14.1503   -8.2939   10.5049 C   0  0  0  0  0  0  0  0  0  0  0  0
  -13.1622   -8.4741    9.5423 C   0  0  0  0  0  0  0  0  0  0  0  0
  -13.4962   -4.8609   11.7046 C   0  0  0  0  0  0  0  0  0  0  0  0
  -13.2325   -3.8209   10.8600 F   0  0  0  0  0  0  0  0  0  0  0  0
  -14.7735   -4.8050   12.2199 F   0  0  0  0  0  0  0  0  0  0  0  0
  -12.6234   -4.9086   12.7716 F   0  0  0  0  0  0  0  0  0  0  0  0
 11 17  1  0  0  0
 17 18  1  0  0  0
 18 19  1  0  0  0
 19 20  1  0  0  0
 20 21  1  0  0  0
 20 22  1  0  0  0
 22 23  1  0  0  0
 11 12  2  0  0  0
 12 13  1  0  0  0
 13  1  1  0  0  0
  1  2  1  0  0  0
  2  3  1  0  0  0
  3  4  2  0  0  0
  4  5  1  0  0  0
  5 24  1  0  0  0
 24 25  1  0  0  0
 25 26  2  0  0  0
 25 28  1  0  0  0
 28 29  2  0  0  0
 29 30  1  0  0  0
 30 35  1  0  0  0
 35 36  1  0  0  0
 35 37  1  0  0  0
 35 38  1  0  0  0
 30 31  2  0  0  0
 31 32  1  0  0  0
 31 33  1  0  0  0
 33 34  2  0  0  0
  5  6  2  0  0  0
  6  7  1  0  0  0
  3  8  1  0  0  0
  8  9  2  0  0  0
  9 10  1  0  0  0
 13 14  2  0  0  0
 14 15  1  0  0  0
 15 16  2  0  0  0
 16 11  1  0  0  0
 23 17  1  0  0  0
 10  1  2  0  0  0
  7  2  2  0  0  0
 34 28  1  0  0  0
 24 27  1  0  0  0
M  END
> <minimizedAffinity>
24.77093

> <CNNscore>
0.5253007412

> <CNNaffinity>
6.7375335693

> <CNN_VS>
3.5392313004

> <CNNaffinity_variance>
0.6080557704

$$$$
[H]c1nc(-c2c([H])c([H])c([H])c(N3C([H])([H])C([H])([H])N(C([H])([H])[H])C([H])([H])C3([H])[H])c2[H])c2nc([H])c(N([H])C(=O)c3c([H])c([H])c(F)c(C(F)(F)F)c3[H])c([H])c2n1


 38 42  0  0  0  0  0  0  0  0999 V2000
   -9.2351   -5.6519   12.8493 C   0  0  0  0  0  0  0  0  0  0  0  0
  -10.2139   -5.8612   11.9036 C   0  0  0  0  0  0  0  0  0  0  0  0
  -11.5637   -5.7267   12.2249 C   0  0  0  0  0  0  0  0  0  0  0  0
  -12.4993   -5.9482   11.2175 C   0  0  0  0  0  0  0  0  0  0  0  0
  -12.1481   -6.2828    9.9588 C   0  0  0  0  0  0  0  0  0  0  0  0
  -10.7660   -6.4061    9.6862 C   0  0  0  0  0  0  0  0  0  0  0  0
   -9.8676   -6.1948   10.6503 N   0  0  0  0  0  0  0  0  0  0  0  0
  -11.8912   -5.3886   13.4759 N   0  0  0  0  0  0  0  0  0  0  0  0
  -10.9354   -5.1794   14.4166 C   0  0  0  0  0  0  0  0  0  0  0  0
   -9.6384   -5.3135   14.0890 N   0  0  0  0  0  0  0  0  0  0  0  0
   -5.4802   -5.3351   12.9336 C   0  0  0  0  0  0  0  0  0  0  0  0
   -6.8313   -5.2021   13.2609 C   0  0  0  0  0  0  0  0  0  0  0  0
   -7.8325   -5.7845   12.4933 C   0  0  0  0  0  0  0  0  0  0  0  0
   -7.4322   -6.5022   11.3906 C   0  0  0  0  0  0  0  0  0  0  0  0
   -6.0784   -6.6363   11.0610 C   0  0  0  0  0  0  0  0  0  0  0  0
   -5.1006   -6.0504   11.8356 C   0  0  0  0  0  0  0  0  0  0  0  0
   -4.5319   -4.7106   13.7612 N   0  0  0  0  0  0  0  0  0  0  0  0
   -4.7736   -4.2242   15.0993 C   0  0  0  0  0  0  0  0  0  0  0  0
   -4.0046   -5.0234   16.1325 C   0  0  0  0  0  0  0  0  0  0  0  0
   -2.6787   -5.2821   15.5991 N   0  0  0  0  0  0  0  0  0  0  0  0
   -2.5115   -6.6619   15.2095 C   0  0  0  0  0  0  0  0  0  0  0  0
   -2.2923   -4.3586   14.5703 C   0  0  0  0  0  0  0  0  0  0  0  0
   -3.1455   -4.4993   13.3031 C   0  0  0  0  0  0  0  0  0  0  0  0
  -13.0801   -6.4899    8.9290 N   0  0  0  0  0  0  0  0  0  0  0  0
  -13.9420   -7.5767    8.7593 C   0  0  0  0  0  0  0  0  0  0  0  0
  -13.9643   -8.5271    9.5715 O   0  0  0  0  0  0  0  0  0  0  0  0
  -13.1515   -5.7284    8.1597 H   0  0  0  0  0  0  0  0  0  0  0  0
  -14.8755   -7.6724    7.6167 C   0  0  0  0  0  0  0  0  0  0  0  0
  -14.4317   -8.1669    6.4049 C   0  0  0  0  0  0  0  0  0  0  0  0
  -15.2392   -8.2854    5.3154 C   0  0  0  0  0  0  0  0  0  0  0  0
  -16.5551   -7.9099    5.3792 C   0  0  0  0  0  0  0  0  0  0  0  0
  -17.3677   -8.0265    4.2909 F   0  0  0  0  0  0  0  0  0  0  0  0
  -17.0132   -7.4170    6.5737 C   0  0  0  0  0  0  0  0  0  0  0  0
  -16.1872   -7.2963    7.6867 C   0  0  0  0  0  0  0  0  0  0  0  0
  -14.7370   -8.8202    4.0238 C   0  0  0  0  0  0  0  0  0  0  0  0
  -15.5889   -9.8011    3.6035 F   0  0  0  0  0  0  0  0  0  0  0  0
  -14.6683   -7.7704    3.1330 F   0  0  0  0  0  0  0  0  0  0  0  0
  -13.4518   -9.2833    4.2143 F   0  0  0  0  0  0  0  0  0  0  0  0
 11 17  1  0  0  0
 17 18  1  0  0  0
 18 19  1  0  0  0
 19 20  1  0  0  0
 20 21  1  0  0  0
 20 22  1  0  0  0
 22 23  1  0  0  0
 11 12  2  0  0  0
 12 13  1  0  0  0
 13  1  1  0  0  0
  1  2  1  0  0  0
  2  3  1  0  0  0
  3  4  2  0  0  0
  4  5  1  0  0  0
  5 24  1  0  0  0
 24 25  1  0  0  0
 25 26  2  0  0  0
 25 28  1  0  0  0
 28 29  2  0  0  0
 29 30  1  0  0  0
 30 35  1  0  0  0
 35 36  1  0  0  0
 35 37  1  0  0  0
 35 38  1  0  0  0
 30 31  2  0  0  0
 31 32  1  0  0  0
 31 33  1  0  0  0
 33 34  2  0  0  0
  5  6  2  0  0  0
  6  7  1  0  0  0
  3  8  1  0  0  0
  8  9  2  0  0  0
  9 10  1  0  0  0
 13 14  2  0  0  0
 14 15  1  0  0  0
 15 16  2  0  0  0
 16 11  1  0  0  0
 23 17  1  0  0  0
 10  1  2  0  0  0
  7  2  2  0  0  0
 34 28  1  0  0  0
 24 27  1  0  0  0
M  END
> <minimizedAffinity>
6.11311

> <CNNscore>
0.4542080462

> <CNNaffinity>
6.7531890869

> <CNN_VS>
3.0673527718

> <CNNaffinity_variance>
0.8900478482

$$$$
[H]c1nc(-c2c([H])c([H])c([H])c(N3C([H])([H])C([H])([H])N(C([H])([H])[H])C([H])([H])C3([H])[H])c2[H])c2nc([H])c(N([H])C(=O)c3c([H])c([H])c(F)c(C(F)(F)F)c3[H])c([H])c2n1


 38 42  0  0  0  0  0  0  0  0999 V2000
  -10.5866   -6.8975    8.6903 C   0  0  0  0  0  0  0  0  0  0  0  0
  -11.8651   -7.3041    8.3795 C   0  0  0  0  0  0  0  0  0  0  0  0
  -12.9735   -6.7160    8.9869 C   0  0  0  0  0  0  0  0  0  0  0  0
  -14.2370   -7.1730    8.6209 C   0  0  0  0  0  0  0  0  0  0  0  0
  -14.4216   -8.1510    7.7104 C   0  0  0  0  0  0  0  0  0  0  0  0
  -13.2640   -8.7135    7.1244 C   0  0  0  0  0  0  0  0  0  0  0  0
  -12.0521   -8.2774    7.4741 N   0  0  0  0  0  0  0  0  0  0  0  0
  -12.7699   -5.7444    9.8820 N   0  0  0  0  0  0  0  0  0  0  0  0
  -11.5146   -5.3350   10.1963 C   0  0  0  0  0  0  0  0  0  0  0  0
  -10.4571   -5.9134    9.6006 N   0  0  0  0  0  0  0  0  0  0  0  0
   -7.1571   -7.3966    7.2082 C   0  0  0  0  0  0  0  0  0  0  0  0
   -8.2651   -6.8091    7.8227 C   0  0  0  0  0  0  0  0  0  0  0  0
   -9.4434   -7.5133    8.0380 C   0  0  0  0  0  0  0  0  0  0  0  0
   -9.4709   -8.8224    7.6173 C   0  0  0  0  0  0  0  0  0  0  0  0
   -8.3613   -9.4127    7.0011 C   0  0  0  0  0  0  0  0  0  0  0  0
   -7.2017   -8.6966    6.7965 C   0  0  0  0  0  0  0  0  0  0  0  0
   -6.0060   -6.6122    7.0248 N   0  0  0  0  0  0  0  0  0  0  0  0
   -5.2508   -5.9683    8.0740 C   0  0  0  0  0  0  0  0  0  0  0  0
   -3.8702   -6.5761    8.2233 C   0  0  0  0  0  0  0  0  0  0  0  0
   -3.3458   -6.8229    6.8916 N   0  0  0  0  0  0  0  0  0  0  0  0
   -3.3296   -8.2297    6.5682 C   0  0  0  0  0  0  0  0  0  0  0  0
   -3.9731   -6.0223    5.8787 C   0  0  0  0  0  0  0  0  0  0  0  0
   -5.4511   -6.3805    5.6776 C   0  0  0  0  0  0  0  0  0  0  0  0
  -15.6902   -8.6077    7.3180 N   0  0  0  0  0  0  0  0  0  0  0  0
  -16.6803   -7.9009    6.6303 C   0  0  0  0  0  0  0  0  0  0  0  0
  -16.5091   -6.7149    6.2733 O   0  0  0  0  0  0  0  0  0  0  0  0
  -15.9550   -9.6280    7.5747 H   0  0  0  0  0  0  0  0  0  0  0  0
  -17.9844   -8.5053    6.2836 C   0  0  0  0  0  0  0  0  0  0  0  0
  -18.5693   -9.4185    7.1403 C   0  0  0  0  0  0  0  0  0  0  0  0
  -19.7691  -10.0083    6.8837 C   0  0  0  0  0  0  0  0  0  0  0  0
  -20.4602   -9.7124    5.7386 C   0  0  0  0  0  0  0  0  0  0  0  0
  -21.6620  -10.3005    5.4771 F   0  0  0  0  0  0  0  0  0  0  0  0
  -19.8953   -8.8082    4.8767 C   0  0  0  0  0  0  0  0  0  0  0  0
  -18.6691   -8.2059    5.1397 C   0  0  0  0  0  0  0  0  0  0  0  0
  -20.3760  -10.9873    7.8216 C   0  0  0  0  0  0  0  0  0  0  0  0
  -20.2747  -12.2321    7.2697 F   0  0  0  0  0  0  0  0  0  0  0  0
  -19.7043  -10.8911    9.0215 F   0  0  0  0  0  0  0  0  0  0  0  0
  -21.6847  -10.6168    8.0514 F   0  0  0  0  0  0  0  0  0  0  0  0
 11 17  1  0  0  0
 17 18  1  0  0  0
 18 19  1  0  0  0
 19 20  1  0  0  0
 20 21  1  0  0  0
 20 22  1  0  0  0
 22 23  1  0  0  0
 11 12  2  0  0  0
 12 13  1  0  0  0
 13  1  1  0  0  0
  1  2  1  0  0  0
  2  3  1  0  0  0
  3  4  2  0  0  0
  4  5  1  0  0  0
  5 24  1  0  0  0
 24 25  1  0  0  0
 25 26  2  0  0  0
 25 28  1  0  0  0
 28 29  2  0  0  0
 29 30  1  0  0  0
 30 35  1  0  0  0
 35 36  1  0  0  0
 35 37  1  0  0  0
 35 38  1  0  0  0
 30 31  2  0  0  0
 31 32  1  0  0  0
 31 33  1  0  0  0
 33 34  2  0  0  0
  5  6  2  0  0  0
  6  7  1  0  0  0
  3  8  1  0  0  0
  8  9  2  0  0  0
  9 10  1  0  0  0
 13 14  2  0  0  0
 14 15  1  0  0  0
 15 16  2  0  0  0
 16 11  1  0  0  0
 23 17  1  0  0  0
 10  1  2  0  0  0
  7  2  2  0  0  0
 34 28  1  0  0  0
 24 27  1  0  0  0
M  END
> <minimizedAffinity>
-1.66555

> <CNNscore>
0.4474055171

> <CNNaffinity>
7.5992116928

> <CNN_VS>
3.3999292850

> <CNNaffinity_variance>
0.4981999397

$$$$
[H]c1nc(-c2c([H])c([H])c([H])c(N3C([H])([H])C([H])([H])N(C([H])([H])[H])C([H])([H])C3([H])[H])c2[H])c2nc([H])c(N([H])C(=O)c3c([H])c([H])c(F)c(C(F)(F)F)c3[H])c([H])c2n1


 38 42  0  0  0  0  0  0  0  0999 V2000
   -8.3716   -7.2026    8.9276 C   0  0  0  0  0  0  0  0  0  0  0  0
   -9.6702   -7.3478    8.4927 C   0  0  0  0  0  0  0  0  0  0  0  0
  -10.7421   -6.9263    9.2781 C   0  0  0  0  0  0  0  0  0  0  0  0
  -12.0284   -7.0992    8.7732 C   0  0  0  0  0  0  0  0  0  0  0  0
  -12.2683   -7.6522    7.5665 C   0  0  0  0  0  0  0  0  0  0  0  0
  -11.1459   -8.0625    6.8104 C   0  0  0  0  0  0  0  0  0  0  0  0
   -9.9123   -7.8982    7.2925 N   0  0  0  0  0  0  0  0  0  0  0  0
  -10.4834   -6.3752   10.4680 N   0  0  0  0  0  0  0  0  0  0  0  0
   -9.2078   -6.2265   10.9072 C   0  0  0  0  0  0  0  0  0  0  0  0
   -8.1861   -6.6388   10.1366 N   0  0  0  0  0  0  0  0  0  0  0  0
   -5.0063   -7.3342    7.2353 C   0  0  0  0  0  0  0  0  0  0  0  0
   -6.0786   -6.9178    8.0272 C   0  0  0  0  0  0  0  0  0  0  0  0
   -7.2661   -7.6365    8.0902 C   0  0  0  0  0  0  0  0  0  0  0  0
   -7.3397   -8.7830    7.3343 C   0  0  0  0  0  0  0  0  0  0  0  0
   -6.2659   -9.2016    6.5398 C   0  0  0  0  0  0  0  0  0  0  0  0
   -5.0964   -8.4741    6.4911 C   0  0  0  0  0  0  0  0  0  0  0  0
   -3.8428   -6.5465    7.2256 N   0  0  0  0  0  0  0  0  0  0  0  0
   -2.5998   -6.8900    6.5757 C   0  0  0  0  0  0  0  0  0  0  0  0
   -2.3028   -5.9654    5.4119 C   0  0  0  0  0  0  0  0  0  0  0  0
   -2.6516   -4.6146    5.8159 N   0  0  0  0  0  0  0  0  0  0  0  0
   -3.8539   -4.1487    5.1669 C   0  0  0  0  0  0  0  0  0  0  0  0
   -2.6797   -4.4392    7.2403 C   0  0  0  0  0  0  0  0  0  0  0  0
   -3.8043   -5.2398    7.9093 C   0  0  0  0  0  0  0  0  0  0  0  0
  -13.5589   -7.8147    7.0373 N   0  0  0  0  0  0  0  0  0  0  0  0
  -14.2829   -6.9131    6.2525 C   0  0  0  0  0  0  0  0  0  0  0  0
  -13.8085   -5.8037    5.9244 O   0  0  0  0  0  0  0  0  0  0  0  0
  -14.0753   -8.7431    7.2569 H   0  0  0  0  0  0  0  0  0  0  0  0
  -15.6463   -7.2105    5.7639 C   0  0  0  0  0  0  0  0  0  0  0  0
  -16.2564   -6.3573    4.8640 C   0  0  0  0  0  0  0  0  0  0  0  0
  -17.5068   -6.5744    4.3718 C   0  0  0  0  0  0  0  0  0  0  0  0
  -18.2268   -7.6738    4.7587 C   0  0  0  0  0  0  0  0  0  0  0  0
  -19.4794   -7.8956    4.2687 F   0  0  0  0  0  0  0  0  0  0  0  0
  -17.6374   -8.5317    5.6510 C   0  0  0  0  0  0  0  0  0  0  0  0
  -16.3594   -8.3090    6.1535 C   0  0  0  0  0  0  0  0  0  0  0  0
  -18.1401   -5.6411    3.4052 C   0  0  0  0  0  0  0  0  0  0  0  0
  -19.3187   -5.2036    3.9381 F   0  0  0  0  0  0  0  0  0  0  0  0
  -17.2549   -4.6095    3.1763 F   0  0  0  0  0  0  0  0  0  0  0  0
  -18.3160   -6.3057    2.2094 F   0  0  0  0  0  0  0  0  0  0  0  0
 11 17  1  0  0  0
 17 18  1  0  0  0
 18 19  1  0  0  0
 19 20  1  0  0  0
 20 21  1  0  0  0
 20 22  1  0  0  0
 22 23  1  0  0  0
 11 12  2  0  0  0
 12 13  1  0  0  0
 13  1  1  0  0  0
  1  2  1  0  0  0
  2  3  1  0  0  0
  3  4  2  0  0  0
  4  5  1  0  0  0
  5 24  1  0  0  0
 24 25  1  0  0  0
 25 26  2  0  0  0
 25 28  1  0  0  0
 28 29  2  0  0  0
 29 30  1  0  0  0
 30 35  1  0  0  0
 35 36  1  0  0  0
 35 37  1  0  0  0
 35 38  1  0  0  0
 30 31  2  0  0  0
 31 32  1  0  0  0
 31 33  1  0  0  0
 33 34  2  0  0  0
  5  6  2  0  0  0
  6  7  1  0  0  0
  3  8  1  0  0  0
  8  9  2  0  0  0
  9 10  1  0  0  0
 13 14  2  0  0  0
 14 15  1  0  0  0
 15 16  2  0  0  0
 16 11  1  0  0  0
 23 17  1  0  0  0
 10  1  2  0  0  0
  7  2  2  0  0  0
 34 28  1  0  0  0
 24 27  1  0  0  0
M  END
> <minimizedAffinity>
0.46829

> <CNNscore>
0.3708357215

> <CNNaffinity>
7.0945496559

> <CNN_VS>
2.6309125423

> <CNNaffinity_variance>
1.0939381123

$$$$
[H]c1nc(-c2c([H])c([H])c([H])c(N3C([H])([H])C([H])([H])N(C([H])([H])[H])C([H])([H])C3([H])[H])c2[H])c2nc([H])c(N([H])C(=O)c3c([H])c([H])c(F)c(C(F)(F)F)c3[H])c([H])c2n1


 38 42  0  0  0  0  0  0  0  0999 V2000
   -7.9868   -7.5387    8.1059 C   0  0  0  0  0  0  0  0  0  0  0  0
   -9.2918   -7.6543    7.6816 C   0  0  0  0  0  0  0  0  0  0  0  0
  -10.2274   -6.6580    7.9564 C   0  0  0  0  0  0  0  0  0  0  0  0
  -11.5279   -6.8385    7.4922 C   0  0  0  0  0  0  0  0  0  0  0  0
  -11.9069   -7.9292    6.7948 C   0  0  0  0  0  0  0  0  0  0  0  0
  -10.9191   -8.9093    6.5435 C   0  0  0  0  0  0  0  0  0  0  0  0
   -9.6722   -8.7387    6.9878 N   0  0  0  0  0  0  0  0  0  0  0  0
   -9.8307   -5.5823    8.6434 N   0  0  0  0  0  0  0  0  0  0  0  0
   -8.5472   -5.4570    9.0666 C   0  0  0  0  0  0  0  0  0  0  0  0
   -7.6582   -6.4277    8.7926 N   0  0  0  0  0  0  0  0  0  0  0  0
   -4.8303   -9.2748    6.9970 C   0  0  0  0  0  0  0  0  0  0  0  0
   -5.7684   -8.2802    7.2821 C   0  0  0  0  0  0  0  0  0  0  0  0
   -7.0221   -8.5815    7.7997 C   0  0  0  0  0  0  0  0  0  0  0  0
   -7.3006   -9.9100    8.0206 C   0  0  0  0  0  0  0  0  0  0  0  0
   -6.3616  -10.9081    7.7352 C   0  0  0  0  0  0  0  0  0  0  0  0
   -5.1233  -10.5882    7.2218 C   0  0  0  0  0  0  0  0  0  0  0  0
   -3.5872   -8.8840    6.4714 N   0  0  0  0  0  0  0  0  0  0  0  0
   -3.2486   -7.5585    6.0090 C   0  0  0  0  0  0  0  0  0  0  0  0
   -2.2061   -6.9061    6.8951 C   0  0  0  0  0  0  0  0  0  0  0  0
   -1.2182   -7.9144    7.2372 N   0  0  0  0  0  0  0  0  0  0  0  0
   -1.3289   -8.3360    8.6133 C   0  0  0  0  0  0  0  0  0  0  0  0
   -1.1888   -9.0139    6.3149 C   0  0  0  0  0  0  0  0  0  0  0  0
   -2.4762   -9.8472    6.3520 C   0  0  0  0  0  0  0  0  0  0  0  0
  -13.2097   -8.1146    6.3045 N   0  0  0  0  0  0  0  0  0  0  0  0
  -14.1363   -7.1336    5.9416 C   0  0  0  0  0  0  0  0  0  0  0  0
  -13.8653   -5.9157    6.0228 O   0  0  0  0  0  0  0  0  0  0  0  0
  -13.5598   -9.1351    6.1911 H   0  0  0  0  0  0  0  0  0  0  0  0
  -15.4869   -7.4701    5.4427 C   0  0  0  0  0  0  0  0  0  0  0  0
  -16.3594   -6.4602    5.0838 C   0  0  0  0  0  0  0  0  0  0  0  0
  -17.6141   -6.7008    4.6136 C   0  0  0  0  0  0  0  0  0  0  0  0
  -18.0718   -7.9845    4.4745 C   0  0  0  0  0  0  0  0  0  0  0  0
  -19.3274   -8.2306    4.0042 F   0  0  0  0  0  0  0  0  0  0  0  0
  -17.2197   -8.9995    4.8257 C   0  0  0  0  0  0  0  0  0  0  0  0
  -15.9377   -8.7527    5.3061 C   0  0  0  0  0  0  0  0  0  0  0  0
  -18.5327   -5.5967    4.2348 C   0  0  0  0  0  0  0  0  0  0  0  0
  -19.7228   -6.1412    3.8455 F   0  0  0  0  0  0  0  0  0  0  0  0
  -18.6692   -4.7700    5.3294 F   0  0  0  0  0  0  0  0  0  0  0  0
  -17.9372   -4.8588    3.2331 F   0  0  0  0  0  0  0  0  0  0  0  0
 11 17  1  0  0  0
 17 18  1  0  0  0
 18 19  1  0  0  0
 19 20  1  0  0  0
 20 21  1  0  0  0
 20 22  1  0  0  0
 22 23  1  0  0  0
 11 12  2  0  0  0
 12 13  1  0  0  0
 13  1  1  0  0  0
  1  2  1  0  0  0
  2  3  1  0  0  0
  3  4  2  0  0  0
  4  5  1  0  0  0
  5 24  1  0  0  0
 24 25  1  0  0  0
 25 26  2  0  0  0
 25 28  1  0  0  0
 28 29  2  0  0  0
 29 30  1  0  0  0
 30 35  1  0  0  0
 35 36  1  0  0  0
 35 37  1  0  0  0
 35 38  1  0  0  0
 30 31  2  0  0  0
 31 32  1  0  0  0
 31 33  1  0  0  0
 33 34  2  0  0  0
  5  6  2  0  0  0
  6  7  1  0  0  0
  3  8  1  0  0  0
  8  9  2  0  0  0
  9 10  1  0  0  0
 13 14  2  0  0  0
 14 15  1  0  0  0
 15 16  2  0  0  0
 16 11  1  0  0  0
 23 17  1  0  0  0
 10  1  2  0  0  0
  7  2  2  0  0  0
 34 28  1  0  0  0
 24 27  1  0  0  0
M  END
> <minimizedAffinity>
9.31056

> <CNNscore>
0.3583789170

> <CNNaffinity>
6.7635574341

> <CNN_VS>
2.4239163399

> <CNNaffinity_variance>
0.8434309959

$$$$
[H]c1nc(-c2c([H])c([H])c([H])c(N3C([H])([H])C([H])([H])N(C([H])([H])[H])C([H])([H])C3([H])[H])c2[H])c2nc([H])c(N([H])C(=O)c3c([H])c([H])c(F)c(C(F)(F)F)c3[H])c([H])c2n1


 38 42  0  0  0  0  0  0  0  0999 V2000
   -2.3424   -5.4559    6.1872 C   0  0  0  0  0  0  0  0  0  0  0  0
   -3.6158   -5.7786    6.6005 C   0  0  0  0  0  0  0  0  0  0  0  0
   -3.9267   -5.8821    7.9555 C   0  0  0  0  0  0  0  0  0  0  0  0
   -5.2360   -6.2067    8.3015 C   0  0  0  0  0  0  0  0  0  0  0  0
   -6.1999   -6.4203    7.3824 C   0  0  0  0  0  0  0  0  0  0  0  0
   -5.8315   -6.3027    6.0222 C   0  0  0  0  0  0  0  0  0  0  0  0
   -4.5772   -5.9922    5.6883 N   0  0  0  0  0  0  0  0  0  0  0  0
   -2.9591   -5.6608    8.8508 N   0  0  0  0  0  0  0  0  0  0  0  0
   -1.7005   -5.3418    8.4556 C   0  0  0  0  0  0  0  0  0  0  0  0
   -1.4185   -5.2463    7.1445 N   0  0  0  0  0  0  0  0  0  0  0  0
   -2.0447   -4.0635    2.6973 C   0  0  0  0  0  0  0  0  0  0  0  0
   -2.3438   -4.1884    4.0558 C   0  0  0  0  0  0  0  0  0  0  0  0
   -2.0395   -5.3403    4.7707 C   0  0  0  0  0  0  0  0  0  0  0  0
   -1.4267   -6.3581    4.0780 C   0  0  0  0  0  0  0  0  0  0  0  0
   -1.1264   -6.2346    2.7164 C   0  0  0  0  0  0  0  0  0  0  0  0
   -1.4369   -5.0835    2.0253 C   0  0  0  0  0  0  0  0  0  0  0  0
   -2.3905   -2.8661    2.0487 N   0  0  0  0  0  0  0  0  0  0  0  0
   -1.5847   -2.1778    1.0676 C   0  0  0  0  0  0  0  0  0  0  0  0
   -2.2314   -2.2009   -0.3032 C   0  0  0  0  0  0  0  0  0  0  0  0
   -3.6547   -1.9706   -0.1282 N   0  0  0  0  0  0  0  0  0  0  0  0
   -4.4282   -3.1695   -0.3479 C   0  0  0  0  0  0  0  0  0  0  0  0
   -3.9745   -1.3163    1.1088 C   0  0  0  0  0  0  0  0  0  0  0  0
   -3.6712   -2.1908    2.3322 C   0  0  0  0  0  0  0  0  0  0  0  0
   -7.5281   -6.7291    7.7177 N   0  0  0  0  0  0  0  0  0  0  0  0
   -8.2369   -7.8968    7.4229 C   0  0  0  0  0  0  0  0  0  0  0  0
   -7.7108   -8.8401    6.7931 O   0  0  0  0  0  0  0  0  0  0  0  0
   -8.0908   -5.9822    8.2677 H   0  0  0  0  0  0  0  0  0  0  0  0
   -9.6443   -8.0902    7.8330 C   0  0  0  0  0  0  0  0  0  0  0  0
  -10.2845   -7.1169    8.5764 C   0  0  0  0  0  0  0  0  0  0  0  0
  -11.5789   -7.2300    8.9826 C   0  0  0  0  0  0  0  0  0  0  0  0
  -12.3151   -8.3400    8.6624 C   0  0  0  0  0  0  0  0  0  0  0  0
  -13.6116   -8.4580    9.0668 F   0  0  0  0  0  0  0  0  0  0  0  0
  -11.6964   -9.3162    7.9250 C   0  0  0  0  0  0  0  0  0  0  0  0
  -10.3735   -9.1997    7.5104 C   0  0  0  0  0  0  0  0  0  0  0  0
  -12.2438   -6.1688    9.7813 C   0  0  0  0  0  0  0  0  0  0  0  0
  -12.4495   -6.6456   11.0442 F   0  0  0  0  0  0  0  0  0  0  0  0
  -11.4261   -5.0591    9.7682 F   0  0  0  0  0  0  0  0  0  0  0  0
  -13.4200   -5.8210    9.1504 F   0  0  0  0  0  0  0  0  0  0  0  0
 11 17  1  0  0  0
 17 18  1  0  0  0
 18 19  1  0  0  0
 19 20  1  0  0  0
 20 21  1  0  0  0
 20 22  1  0  0  0
 22 23  1  0  0  0
 11 12  2  0  0  0
 12 13  1  0  0  0
 13  1  1  0  0  0
  1  2  1  0  0  0
  2  3  1  0  0  0
  3  4  2  0  0  0
  4  5  1  0  0  0
  5 24  1  0  0  0
 24 25  1  0  0  0
 25 26  2  0  0  0
 25 28  1  0  0  0
 28 29  2  0  0  0
 29 30  1  0  0  0
 30 35  1  0  0  0
 35 36  1  0  0  0
 35 37  1  0  0  0
 35 38  1  0  0  0
 30 31  2  0  0  0
 31 32  1  0  0  0
 31 33  1  0  0  0
 33 34  2  0  0  0
  5  6  2  0  0  0
  6  7  1  0  0  0
  3  8  1  0  0  0
  8  9  2  0  0  0
  9 10  1  0  0  0
 13 14  2  0  0  0
 14 15  1  0  0  0
 15 16  2  0  0  0
 16 11  1  0  0  0
 23 17  1  0  0  0
 10  1  2  0  0  0
  7  2  2  0  0  0
 34 28  1  0  0  0
 24 27  1  0  0  0
M  END
> <minimizedAffinity>
-9.55102

> <CNNscore>
0.3558267057

> <CNNaffinity>
6.3797192574

> <CNN_VS>
2.2700743675

> <CNNaffinity_variance>
0.1982088089

$$$$
[H]c1nc(-c2c([H])c([H])c([H])c(N3C([H])([H])C([H])([H])N(C([H])([H])[H])C([H])([H])C3([H])[H])c2[H])c2nc([H])c(N([H])C(=O)c3c([H])c([H])c(F)c(C(F)(F)F)c3[H])c([H])c2n1


 38 42  0  0  0  0  0  0  0  0999 V2000
   -8.5557   -6.9571    9.0691 C   0  0  0  0  0  0  0  0  0  0  0  0
   -9.8186   -7.0090    8.5225 C   0  0  0  0  0  0  0  0  0  0  0  0
  -10.9309   -6.5740    9.2414 C   0  0  0  0  0  0  0  0  0  0  0  0
  -12.1771   -6.6504    8.6244 C   0  0  0  0  0  0  0  0  0  0  0  0
  -12.3413   -7.1237    7.3720 C   0  0  0  0  0  0  0  0  0  0  0  0
  -11.1806   -7.5517    6.6870 C   0  0  0  0  0  0  0  0  0  0  0  0
   -9.9853   -7.4799    7.2765 N   0  0  0  0  0  0  0  0  0  0  0  0
  -10.7467   -6.1028   10.4786 N   0  0  0  0  0  0  0  0  0  0  0  0
   -9.5069   -6.0464   11.0279 C   0  0  0  0  0  0  0  0  0  0  0  0
   -8.4453   -6.4703   10.3201 N   0  0  0  0  0  0  0  0  0  0  0  0
   -5.0823   -7.1508    7.6184 C   0  0  0  0  0  0  0  0  0  0  0  0
   -6.1960   -6.7219    8.3437 C   0  0  0  0  0  0  0  0  0  0  0  0
   -7.4061   -7.4034    8.3005 C   0  0  0  0  0  0  0  0  0  0  0  0
   -7.4594   -8.5258    7.5077 C   0  0  0  0  0  0  0  0  0  0  0  0
   -6.3441   -8.9570    6.7800 C   0  0  0  0  0  0  0  0  0  0  0  0
   -5.1527   -8.2665    6.8364 C   0  0  0  0  0  0  0  0  0  0  0  0
   -3.8979   -6.4011    7.7151 N   0  0  0  0  0  0  0  0  0  0  0  0
   -3.5399   -5.2819    6.8756 C   0  0  0  0  0  0  0  0  0  0  0  0
   -3.5095   -3.9835    7.6571 C   0  0  0  0  0  0  0  0  0  0  0  0
   -2.8918   -4.2524    8.9438 N   0  0  0  0  0  0  0  0  0  0  0  0
   -3.8541   -4.2390   10.0198 C   0  0  0  0  0  0  0  0  0  0  0  0
   -2.0695   -5.4289    8.9422 C   0  0  0  0  0  0  0  0  0  0  0  0
   -2.8820   -6.7140    8.7381 C   0  0  0  0  0  0  0  0  0  0  0  0
  -13.5891   -7.1882    6.7311 N   0  0  0  0  0  0  0  0  0  0  0  0
  -14.8242   -7.5238    7.2922 C   0  0  0  0  0  0  0  0  0  0  0  0
  -14.9356   -7.8122    8.5037 O   0  0  0  0  0  0  0  0  0  0  0  0
  -13.6185   -6.9582    5.6713 H   0  0  0  0  0  0  0  0  0  0  0  0
  -16.0691   -7.5598    6.4953 C   0  0  0  0  0  0  0  0  0  0  0  0
  -16.3871   -6.5000    5.6672 C   0  0  0  0  0  0  0  0  0  0  0  0
  -17.5142   -6.4714    4.9043 C   0  0  0  0  0  0  0  0  0  0  0  0
  -18.3985   -7.5173    4.9281 C   0  0  0  0  0  0  0  0  0  0  0  0
  -19.5285   -7.4934    4.1660 F   0  0  0  0  0  0  0  0  0  0  0  0
  -18.0992   -8.5778    5.7439 C   0  0  0  0  0  0  0  0  0  0  0  0
  -16.9472   -8.6062    6.5232 C   0  0  0  0  0  0  0  0  0  0  0  0
  -17.8329   -5.3194    4.0224 C   0  0  0  0  0  0  0  0  0  0  0  0
  -16.6605   -4.7941    3.5596 F   0  0  0  0  0  0  0  0  0  0  0  0
  -18.6372   -5.7814    3.0026 F   0  0  0  0  0  0  0  0  0  0  0  0
  -18.5704   -4.4066    4.7473 F   0  0  0  0  0  0  0  0  0  0  0  0
 11 17  1  0  0  0
 17 18  1  0  0  0
 18 19  1  0  0  0
 19 20  1  0  0  0
 20 21  1  0  0  0
 20 22  1  0  0  0
 22 23  1  0  0  0
 11 12  2  0  0  0
 12 13  1  0  0  0
 13  1  1  0  0  0
  1  2  1  0  0  0
  2  3  1  0  0  0
  3  4  2  0  0  0
  4  5  1  0  0  0
  5 24  1  0  0  0
 24 25  1  0  0  0
 25 26  2  0  0  0
 25 28  1  0  0  0
 28 29  2  0  0  0
 29 30  1  0  0  0
 30 35  1  0  0  0
 35 36  1  0  0  0
 35 37  1  0  0  0
 35 38  1  0  0  0
 30 31  2  0  0  0
 31 32  1  0  0  0
 31 33  1  0  0  0
 33 34  2  0  0  0
  5  6  2  0  0  0
  6  7  1  0  0  0
  3  8  1  0  0  0
  8  9  2  0  0  0
  9 10  1  0  0  0
 13 14  2  0  0  0
 14 15  1  0  0  0
 15 16  2  0  0  0
 16 11  1  0  0  0
 23 17  1  0  0  0
 10  1  2  0  0  0
  7  2  2  0  0  0
 34 28  1  0  0  0
 24 27  1  0  0  0
M  END
> <minimizedAffinity>
0.97606

> <CNNscore>
0.3349701762

> <CNNaffinity>
6.9193849564

> <CNN_VS>
2.3177876472

> <CNNaffinity_variance>
0.5904302001

$$$$
[H]c1nc(-c2c([H])c([H])c([H])c(N3C([H])([H])C([H])([H])N(C([H])([H])[H])C([H])([H])C3([H])[H])c2[H])c2nc([H])c(N([H])C(=O)c3c([H])c([H])c(F)c(C(F)(F)F)c3[H])c([H])c2n1


 38 42  0  0  0  0  0  0  0  0999 V2000
   -4.7435   -4.4790    4.7955 C   0  0  0  0  0  0  0  0  0  0  0  0
   -4.4351   -4.6831    6.1220 C   0  0  0  0  0  0  0  0  0  0  0  0
   -5.0836   -5.6668    6.8672 C   0  0  0  0  0  0  0  0  0  0  0  0
   -4.7176   -5.8215    8.2019 C   0  0  0  0  0  0  0  0  0  0  0  0
   -3.7696   -5.0626    8.7892 C   0  0  0  0  0  0  0  0  0  0  0  0
   -3.1430   -4.0796    7.9888 C   0  0  0  0  0  0  0  0  0  0  0  0
   -3.4924   -3.9293    6.7095 N   0  0  0  0  0  0  0  0  0  0  0  0
   -6.0157   -6.4123    6.2655 N   0  0  0  0  0  0  0  0  0  0  0  0
   -6.3280   -6.2207    4.9586 C   0  0  0  0  0  0  0  0  0  0  0  0
   -5.6925   -5.2674    4.2552 N   0  0  0  0  0  0  0  0  0  0  0  0
   -3.1699   -1.1962    3.8189 C   0  0  0  0  0  0  0  0  0  0  0  0
   -3.8478   -2.1806    4.5413 C   0  0  0  0  0  0  0  0  0  0  0  0
   -4.0486   -3.4572    4.0309 C   0  0  0  0  0  0  0  0  0  0  0  0
   -3.5472   -3.7108    2.7757 C   0  0  0  0  0  0  0  0  0  0  0  0
   -2.8676   -2.7252    2.0502 C   0  0  0  0  0  0  0  0  0  0  0  0
   -2.6792   -1.4647    2.5745 C   0  0  0  0  0  0  0  0  0  0  0  0
   -3.0141    0.0702    4.4071 N   0  0  0  0  0  0  0  0  0  0  0  0
   -3.9825    1.1408    4.3681 C   0  0  0  0  0  0  0  0  0  0  0  0
   -4.5531    1.4294    5.7424 C   0  0  0  0  0  0  0  0  0  0  0  0
   -3.4624    1.3673    6.6996 N   0  0  0  0  0  0  0  0  0  0  0  0
   -3.5312    0.1836    7.5228 C   0  0  0  0  0  0  0  0  0  0  0  0
   -2.1720    1.5591    6.1007 C   0  0  0  0  0  0  0  0  0  0  0  0
   -1.7884    0.4165    5.1517 C   0  0  0  0  0  0  0  0  0  0  0  0
   -3.3774   -5.2209   10.1283 N   0  0  0  0  0  0  0  0  0  0  0  0
   -2.0815   -5.3688   10.6298 C   0  0  0  0  0  0  0  0  0  0  0  0
   -1.0841   -5.3679    9.8758 O   0  0  0  0  0  0  0  0  0  0  0  0
   -4.1603   -5.2383   10.8790 H   0  0  0  0  0  0  0  0  0  0  0  0
   -1.8085   -5.5352   12.0734 C   0  0  0  0  0  0  0  0  0  0  0  0
   -2.0316   -6.7569   12.6798 C   0  0  0  0  0  0  0  0  0  0  0  0
   -1.7973   -6.9787   14.0022 C   0  0  0  0  0  0  0  0  0  0  0  0
   -1.3194   -5.9752   14.8031 C   0  0  0  0  0  0  0  0  0  0  0  0
   -1.0832   -6.1922   16.1280 F   0  0  0  0  0  0  0  0  0  0  0  0
   -1.0919   -4.7560   14.2186 C   0  0  0  0  0  0  0  0  0  0  0  0
   -1.3317   -4.5303   12.8670 C   0  0  0  0  0  0  0  0  0  0  0  0
   -2.0458   -8.3019   14.6297 C   0  0  0  0  0  0  0  0  0  0  0  0
   -3.3220   -8.3154   15.1150 F   0  0  0  0  0  0  0  0  0  0  0  0
   -1.8421   -9.2676   13.6674 F   0  0  0  0  0  0  0  0  0  0  0  0
   -1.1034   -8.4996   15.6174 F   0  0  0  0  0  0  0  0  0  0  0  0
 11 17  1  0  0  0
 17 18  1  0  0  0
 18 19  1  0  0  0
 19 20  1  0  0  0
 20 21  1  0  0  0
 20 22  1  0  0  0
 22 23  1  0  0  0
 11 12  2  0  0  0
 12 13  1  0  0  0
 13  1  1  0  0  0
  1  2  1  0  0  0
  2  3  1  0  0  0
  3  4  2  0  0  0
  4  5  1  0  0  0
  5 24  1  0  0  0
 24 25  1  0  0  0
 25 26  2  0  0  0
 25 28  1  0  0  0
 28 29  2  0  0  0
 29 30  1  0  0  0
 30 35  1  0  0  0
 35 36  1  0  0  0
 35 37  1  0  0  0
 35 38  1  0  0  0
 30 31  2  0  0  0
 31 32  1  0  0  0
 31 33  1  0  0  0
 33 34  2  0  0  0
  5  6  2  0  0  0
  6  7  1  0  0  0
  3  8  1  0  0  0
  8  9  2  0  0  0
  9 10  1  0  0  0
 13 14  2  0  0  0
 14 15  1  0  0  0
 15 16  2  0  0  0
 16 11  1  0  0  0
 23 17  1  0  0  0
 10  1  2  0  0  0
  7  2  2  0  0  0
 34 28  1  0  0  0
 24 27  1  0  0  0
M  END
> <minimizedAffinity>
-2.12685

> <CNNscore>
0.3320952654

> <CNNaffinity>
5.8579854965

> <CNN_VS>
1.9454092979

> <CNNaffinity_variance>
0.6286048889

$$$$
[H]/C(C(=O)N1C([H])([H])C([H])([H])N(C(=O)c2c([H])c([H])c([H])c(C(F)(F)F)c2[H])C([H])([H])C1([H])[H])=C(/[H])c1c([H])c([H])c(OC([H])([H])[H])c([H])c1[H]


 30 32  0  0  0  0  0  0  0  0999 V2000
  -12.6063   -7.0875   11.5671 C   0  0  0  0  0  0  0  0  0  0  0  0
  -13.4602   -7.6899   12.4055 O   0  0  0  0  0  0  0  0  0  0  0  0
  -12.8018   -7.3310   10.2192 N   0  0  0  0  0  0  0  0  0  0  0  0
  -12.3098   -6.6849    9.0795 C   0  0  0  0  0  0  0  0  0  0  0  0
  -13.1721   -6.9281    7.8125 C   0  0  0  0  0  0  0  0  0  0  0  0
  -13.3474   -8.3268    7.6028 N   0  0  0  0  0  0  0  0  0  0  0  0
  -12.8446   -9.2084    8.7223 C   0  0  0  0  0  0  0  0  0  0  0  0
  -13.5491   -8.6192    9.9499 C   0  0  0  0  0  0  0  0  0  0  0  0
  -13.9745   -8.9911    6.5874 C   0  0  0  0  0  0  0  0  0  0  0  0
  -13.9211  -10.2873    6.6662 O   0  0  0  0  0  0  0  0  0  0  0  0
  -14.6972   -8.5050    5.4429 C   0  0  0  0  0  0  0  0  0  0  0  0
  -14.4752   -8.7888    4.1229 C   0  0  0  0  0  0  0  0  0  0  0  0
  -15.2044   -8.1840    3.0940 C   0  0  0  0  0  0  0  0  0  0  0  0
  -16.1962   -7.2481    3.3617 C   0  0  0  0  0  0  0  0  0  0  0  0
  -16.4522   -6.9281    4.6952 C   0  0  0  0  0  0  0  0  0  0  0  0
  -15.7292   -7.5410    5.6670 C   0  0  0  0  0  0  0  0  0  0  0  0
  -17.4612   -5.8797    5.0584 C   0  0  0  0  0  0  0  0  0  0  0  0
  -18.4627   -5.7703    4.1358 F   0  0  0  0  0  0  0  0  0  0  0  0
  -17.9368   -6.2046    6.3130 F   0  0  0  0  0  0  0  0  0  0  0  0
  -16.7309   -4.6891    5.1187 F   0  0  0  0  0  0  0  0  0  0  0  0
  -11.6391   -5.8979   13.4574 C   0  0  0  0  0  0  0  0  0  0  0  0
  -11.6197   -6.2963   12.2286 C   0  0  0  0  0  0  0  0  0  0  0  0
   -8.5671   -3.2462   14.7905 C   0  0  0  0  0  0  0  0  0  0  0  0
   -8.2320   -4.4562   14.2773 C   0  0  0  0  0  0  0  0  0  0  0  0
   -9.1915   -5.3901   13.8616 C   0  0  0  0  0  0  0  0  0  0  0  0
  -10.5081   -5.0669   13.9728 C   0  0  0  0  0  0  0  0  0  0  0  0
  -10.8602   -3.8120   14.5097 C   0  0  0  0  0  0  0  0  0  0  0  0
   -9.9118   -2.9033   14.9166 C   0  0  0  0  0  0  0  0  0  0  0  0
   -6.2866   -2.7168   15.3817 C   0  0  0  0  0  0  0  0  0  0  0  0
   -7.6246   -2.3387   15.1919 O   0  0  0  0  0  0  0  0  0  0  0  0
 29 30  1  0  0  0
 30 23  1  0  0  0
 23 24  2  0  0  0
 24 25  1  0  0  0
 25 26  2  0  0  0
 26 21  1  0  0  0
 21 22  2  0  0  0
 22  1  1  0  0  0
  1  2  2  0  0  0
  1  3  1  0  0  0
  3  4  1  0  0  0
  4  5  1  0  0  0
  5  6  1  0  0  0
  6  7  1  0  0  0
  7  8  1  0  0  0
  6  9  1  0  0  0
  9 10  2  0  0  0
  9 11  1  0  0  0
 11 12  2  0  0  0
 12 13  1  0  0  0
 13 14  2  0  0  0
 14 15  1  0  0  0
 15 16  2  0  0  0
 15 17  1  0  0  0
 17 18  1  0  0  0
 17 19  1  0  0  0
 17 20  1  0  0  0
 26 27  1  0  0  0
 27 28  2  0  0  0
 28 23  1  0  0  0
  8  3  1  0  0  0
 16 11  1  0  0  0
M  END
> <minimizedAffinity>
3.71164

> <CNNscore>
0.5483464599

> <CNNaffinity>
6.3832826614

> <CNN_VS>
3.5002503395

> <CNNaffinity_variance>
0.7008758187

$$$$
[H]/C(C(=O)N1C([H])([H])C([H])([H])N(C(=O)c2c([H])c([H])c([H])c(C(F)(F)F)c2[H])C([H])([H])C1([H])[H])=C(/[H])c1c([H])c([H])c(OC([H])([H])[H])c([H])c1[H]


 30 32  0  0  0  0  0  0  0  0999 V2000
  -13.0942   -7.8423    8.6497 C   0  0  0  0  0  0  0  0  0  0  0  0
  -12.8507   -9.1566    8.7411 O   0  0  0  0  0  0  0  0  0  0  0  0
  -12.5991   -7.0580    9.6764 N   0  0  0  0  0  0  0  0  0  0  0  0
  -12.4180   -5.6744    9.7814 C   0  0  0  0  0  0  0  0  0  0  0  0
  -11.3702   -5.2693   10.8520 C   0  0  0  0  0  0  0  0  0  0  0  0
  -11.6979   -5.8642   12.1048 N   0  0  0  0  0  0  0  0  0  0  0  0
  -12.8265   -6.8680   12.0596 C   0  0  0  0  0  0  0  0  0  0  0  0
  -12.3696   -7.8306   10.9573 C   0  0  0  0  0  0  0  0  0  0  0  0
  -11.0965   -5.7322   13.3241 C   0  0  0  0  0  0  0  0  0  0  0  0
  -11.6725   -6.3814   14.2916 O   0  0  0  0  0  0  0  0  0  0  0  0
   -9.9238   -5.0037   13.7268 C   0  0  0  0  0  0  0  0  0  0  0  0
   -8.6154   -5.3927   13.6310 C   0  0  0  0  0  0  0  0  0  0  0  0
   -7.5653   -4.6193   14.1360 C   0  0  0  0  0  0  0  0  0  0  0  0
   -7.7995   -3.4075   14.7747 C   0  0  0  0  0  0  0  0  0  0  0  0
   -9.1204   -2.9756   14.8961 C   0  0  0  0  0  0  0  0  0  0  0  0
  -10.1127   -3.7496   14.3872 C   0  0  0  0  0  0  0  0  0  0  0  0
   -9.4558   -1.7116   15.6305 C   0  0  0  0  0  0  0  0  0  0  0  0
  -10.0436   -0.7759   14.8273 F   0  0  0  0  0  0  0  0  0  0  0  0
  -10.2609   -2.0716   16.6926 F   0  0  0  0  0  0  0  0  0  0  0  0
   -8.2279   -1.2377   16.1018 F   0  0  0  0  0  0  0  0  0  0  0  0
  -14.9510   -8.0144    7.0856 C   0  0  0  0  0  0  0  0  0  0  0  0
  -13.8472   -7.4806    7.4925 C   0  0  0  0  0  0  0  0  0  0  0  0
  -16.8411   -6.2395    3.6910 C   0  0  0  0  0  0  0  0  0  0  0  0
  -17.1227   -7.5250    4.0190 C   0  0  0  0  0  0  0  0  0  0  0  0
  -16.5059   -8.1808    5.0939 C   0  0  0  0  0  0  0  0  0  0  0  0
  -15.5946   -7.4986    5.8385 C   0  0  0  0  0  0  0  0  0  0  0  0
  -15.2962   -6.1637    5.4979 C   0  0  0  0  0  0  0  0  0  0  0  0
  -15.9050   -5.5296    4.4404 C   0  0  0  0  0  0  0  0  0  0  0  0
  -17.6836   -4.2219    2.6662 C   0  0  0  0  0  0  0  0  0  0  0  0
  -17.4492   -5.6053    2.6417 O   0  0  0  0  0  0  0  0  0  0  0  0
 29 30  1  0  0  0
 30 23  1  0  0  0
 23 24  2  0  0  0
 24 25  1  0  0  0
 25 26  2  0  0  0
 26 21  1  0  0  0
 21 22  2  0  0  0
 22  1  1  0  0  0
  1  2  2  0  0  0
  1  3  1  0  0  0
  3  4  1  0  0  0
  4  5  1  0  0  0
  5  6  1  0  0  0
  6  7  1  0  0  0
  7  8  1  0  0  0
  6  9  1  0  0  0
  9 10  2  0  0  0
  9 11  1  0  0  0
 11 12  2  0  0  0
 12 13  1  0  0  0
 13 14  2  0  0  0
 14 15  1  0  0  0
 15 16  2  0  0  0
 15 17  1  0  0  0
 17 18  1  0  0  0
 17 19  1  0  0  0
 17 20  1  0  0  0
 26 27  1  0  0  0
 27 28  2  0  0  0
 28 23  1  0  0  0
  8  3  1  0  0  0
 16 11  1  0  0  0
M  END
> <minimizedAffinity>
8.41778

> <CNNscore>
0.5263545513

> <CNNaffinity>
6.1663656235

> <CNN_VS>
3.2456946373

> <CNNaffinity_variance>
0.4615329802

$$$$
[H]/C(C(=O)N1C([H])([H])C([H])([H])N(C(=O)c2c([H])c([H])c([H])c(C(F)(F)F)c2[H])C([H])([H])C1([H])[H])=C(/[H])c1c([H])c([H])c(OC([H])([H])[H])c([H])c1[H]


 30 32  0  0  0  0  0  0  0  0999 V2000
  -13.9311   -7.4311    6.4137 C   0  0  0  0  0  0  0  0  0  0  0  0
  -13.1513   -8.3222    5.7870 O   0  0  0  0  0  0  0  0  0  0  0  0
  -13.9599   -7.5113    7.7947 N   0  0  0  0  0  0  0  0  0  0  0  0
  -14.4160   -6.6132    8.7662 C   0  0  0  0  0  0  0  0  0  0  0  0
  -13.7922   -6.8511   10.1670 C   0  0  0  0  0  0  0  0  0  0  0  0
  -13.9796   -8.2080   10.5604 N   0  0  0  0  0  0  0  0  0  0  0  0
  -14.5409   -9.1123    9.4878 C   0  0  0  0  0  0  0  0  0  0  0  0
  -13.5767   -8.8782    8.3191 C   0  0  0  0  0  0  0  0  0  0  0  0
  -13.6526   -8.8374   11.7277 C   0  0  0  0  0  0  0  0  0  0  0  0
  -14.0021  -10.0876   11.7918 O   0  0  0  0  0  0  0  0  0  0  0  0
  -12.9760   -8.3593   12.9032 C   0  0  0  0  0  0  0  0  0  0  0  0
  -13.0377   -8.8617   14.1744 C   0  0  0  0  0  0  0  0  0  0  0  0
  -12.3889   -8.2519   15.2530 C   0  0  0  0  0  0  0  0  0  0  0  0
  -11.6474   -7.0881   15.0889 C   0  0  0  0  0  0  0  0  0  0  0  0
  -11.5615   -6.5412   13.8084 C   0  0  0  0  0  0  0  0  0  0  0  0
  -12.1986   -7.1651   12.7849 C   0  0  0  0  0  0  0  0  0  0  0  0
  -10.8346   -5.2519   13.5659 C   0  0  0  0  0  0  0  0  0  0  0  0
  -11.0137   -4.7768   12.2977 F   0  0  0  0  0  0  0  0  0  0  0  0
  -11.2732   -4.3625   14.5262 F   0  0  0  0  0  0  0  0  0  0  0  0
   -9.4872   -5.5579   13.7789 F   0  0  0  0  0  0  0  0  0  0  0  0
  -15.8616   -6.6017    5.1852 C   0  0  0  0  0  0  0  0  0  0  0  0
  -14.6166   -6.5485    5.5258 C   0  0  0  0  0  0  0  0  0  0  0  0
  -17.3522   -3.9256    2.2082 C   0  0  0  0  0  0  0  0  0  0  0  0
  -16.5403   -3.4542    3.1871 C   0  0  0  0  0  0  0  0  0  0  0  0
  -16.0515   -4.2692    4.2180 C   0  0  0  0  0  0  0  0  0  0  0  0
  -16.4013   -5.5836    4.2325 C   0  0  0  0  0  0  0  0  0  0  0  0
  -17.2485   -6.0761    3.2192 C   0  0  0  0  0  0  0  0  0  0  0  0
  -17.7245   -5.2684    2.2132 C   0  0  0  0  0  0  0  0  0  0  0  0
  -18.4868   -3.6668    0.0925 C   0  0  0  0  0  0  0  0  0  0  0  0
  -17.8234   -3.1243    1.2037 O   0  0  0  0  0  0  0  0  0  0  0  0
 29 30  1  0  0  0
 30 23  1  0  0  0
 23 24  2  0  0  0
 24 25  1  0  0  0
 25 26  2  0  0  0
 26 21  1  0  0  0
 21 22  2  0  0  0
 22  1  1  0  0  0
  1  2  2  0  0  0
  1  3  1  0  0  0
  3  4  1  0  0  0
  4  5  1  0  0  0
  5  6  1  0  0  0
  6  7  1  0  0  0
  7  8  1  0  0  0
  6  9  1  0  0  0
  9 10  2  0  0  0
  9 11  1  0  0  0
 11 12  2  0  0  0
 12 13  1  0  0  0
 13 14  2  0  0  0
 14 15  1  0  0  0
 15 16  2  0  0  0
 15 17  1  0  0  0
 17 18  1  0  0  0
 17 19  1  0  0  0
 17 20  1  0  0  0
 26 27  1  0  0  0
 27 28  2  0  0  0
 28 23  1  0  0  0
  8  3  1  0  0  0
 16 11  1  0  0  0
M  END
> <minimizedAffinity>
36.75549

> <CNNscore>
0.4770381749

> <CNNaffinity>
6.2483224869

> <CNN_VS>
2.9806883335

> <CNNaffinity_variance>
1.0067660809

$$$$
[H]/C(C(=O)N1C([H])([H])C([H])([H])N(C(=O)c2c([H])c([H])c([H])c(C(F)(F)F)c2[H])C([H])([H])C1([H])[H])=C(/[H])c1c([H])c([H])c(OC([H])([H])[H])c([H])c1[H]


 30 32  0  0  0  0  0  0  0  0999 V2000
  -11.2812   -5.8809   11.5463 C   0  0  0  0  0  0  0  0  0  0  0  0
  -12.1888   -5.3548   12.3796 O   0  0  0  0  0  0  0  0  0  0  0  0
  -11.7801   -6.4991   10.4134 N   0  0  0  0  0  0  0  0  0  0  0  0
  -11.1581   -6.8983    9.2251 C   0  0  0  0  0  0  0  0  0  0  0  0
  -12.1433   -7.0564    8.0366 C   0  0  0  0  0  0  0  0  0  0  0  0
  -13.2119   -7.9258    8.4012 N   0  0  0  0  0  0  0  0  0  0  0  0
  -13.2465   -8.3185    9.8599 C   0  0  0  0  0  0  0  0  0  0  0  0
  -13.2131   -6.9600   10.5697 C   0  0  0  0  0  0  0  0  0  0  0  0
  -14.2583   -8.3918    7.6571 C   0  0  0  0  0  0  0  0  0  0  0  0
  -15.0480   -9.2158    8.2788 O   0  0  0  0  0  0  0  0  0  0  0  0
  -14.6483   -8.1215    6.2994 C   0  0  0  0  0  0  0  0  0  0  0  0
  -14.3493   -8.8442    5.1767 C   0  0  0  0  0  0  0  0  0  0  0  0
  -14.7254   -8.4275    3.8957 C   0  0  0  0  0  0  0  0  0  0  0  0
  -15.4220   -7.2419    3.6944 C   0  0  0  0  0  0  0  0  0  0  0  0
  -15.7441   -6.4734    4.8132 C   0  0  0  0  0  0  0  0  0  0  0  0
  -15.3688   -6.9137    6.0412 C   0  0  0  0  0  0  0  0  0  0  0  0
  -16.4361   -5.1507    4.6691 C   0  0  0  0  0  0  0  0  0  0  0  0
  -17.5555   -5.0544    5.4461 F   0  0  0  0  0  0  0  0  0  0  0  0
  -15.5027   -4.1796    4.9711 F   0  0  0  0  0  0  0  0  0  0  0  0
  -16.7818   -5.0758    3.3165 F   0  0  0  0  0  0  0  0  0  0  0  0
   -9.5203   -5.6821   13.2147 C   0  0  0  0  0  0  0  0  0  0  0  0
   -9.9351   -5.7174   11.9917 C   0  0  0  0  0  0  0  0  0  0  0  0
   -5.4136   -4.8123   14.0045 C   0  0  0  0  0  0  0  0  0  0  0  0
   -5.7340   -5.7483   13.0767 C   0  0  0  0  0  0  0  0  0  0  0  0
   -7.0595   -6.1119   12.8000 C   0  0  0  0  0  0  0  0  0  0  0  0
   -8.0614   -5.4977   13.4851 C   0  0  0  0  0  0  0  0  0  0  0  0
   -7.7319   -4.5275   14.4531 C   0  0  0  0  0  0  0  0  0  0  0  0
   -6.4286   -4.1790   14.7189 C   0  0  0  0  0  0  0  0  0  0  0  0
   -3.1140   -4.6072   13.2970 C   0  0  0  0  0  0  0  0  0  0  0  0
   -4.1172   -4.4609   14.2673 O   0  0  0  0  0  0  0  0  0  0  0  0
 29 30  1  0  0  0
 30 23  1  0  0  0
 23 24  2  0  0  0
 24 25  1  0  0  0
 25 26  2  0  0  0
 26 21  1  0  0  0
 21 22  2  0  0  0
 22  1  1  0  0  0
  1  2  2  0  0  0
  1  3  1  0  0  0
  3  4  1  0  0  0
  4  5  1  0  0  0
  5  6  1  0  0  0
  6  7  1  0  0  0
  7  8  1  0  0  0
  6  9  1  0  0  0
  9 10  2  0  0  0
  9 11  1  0  0  0
 11 12  2  0  0  0
 12 13  1  0  0  0
 13 14  2  0  0  0
 14 15  1  0  0  0
 15 16  2  0  0  0
 15 17  1  0  0  0
 17 18  1  0  0  0
 17 19  1  0  0  0
 17 20  1  0  0  0
 26 27  1  0  0  0
 27 28  2  0  0  0
 28 23  1  0  0  0
  8  3  1  0  0  0
 16 11  1  0  0  0
M  END
> <minimizedAffinity>
-1.74020

> <CNNscore>
0.4723483026

> <CNNaffinity>
6.0808472633

> <CNN_VS>
2.8722779751

> <CNNaffinity_variance>
0.1869384348

$$$$
[H]/C(C(=O)N1C([H])([H])C([H])([H])N(C(=O)c2c([H])c([H])c([H])c(C(F)(F)F)c2[H])C([H])([H])C1([H])[H])=C(/[H])c1c([H])c([H])c(OC([H])([H])[H])c([H])c1[H]


 30 32  0  0  0  0  0  0  0  0999 V2000
  -13.0726   -6.7982    5.7656 C   0  0  0  0  0  0  0  0  0  0  0  0
  -13.1816   -5.9882    4.7041 O   0  0  0  0  0  0  0  0  0  0  0  0
  -14.2581   -7.2946    6.2778 N   0  0  0  0  0  0  0  0  0  0  0  0
  -14.5168   -8.3456    7.1648 C   0  0  0  0  0  0  0  0  0  0  0  0
  -15.9630   -8.8986    7.0604 C   0  0  0  0  0  0  0  0  0  0  0  0
  -16.9027   -7.8362    7.1986 N   0  0  0  0  0  0  0  0  0  0  0  0
  -16.3017   -6.4499    7.2147 C   0  0  0  0  0  0  0  0  0  0  0  0
  -15.4585   -6.4395    5.9342 C   0  0  0  0  0  0  0  0  0  0  0  0
  -18.2677   -7.8697    7.2337 C   0  0  0  0  0  0  0  0  0  0  0  0
  -18.8390   -6.7168    7.4173 O   0  0  0  0  0  0  0  0  0  0  0  0
  -19.1913   -8.9631    7.0926 C   0  0  0  0  0  0  0  0  0  0  0  0
  -19.9775   -9.2687    6.0152 C   0  0  0  0  0  0  0  0  0  0  0  0
  -20.8985  -10.3210    6.0348 C   0  0  0  0  0  0  0  0  0  0  0  0
  -21.0701  -11.1133    7.1636 C   0  0  0  0  0  0  0  0  0  0  0  0
  -20.2897  -10.8330    8.2854 C   0  0  0  0  0  0  0  0  0  0  0  0
  -19.4012   -9.8084    8.2266 C   0  0  0  0  0  0  0  0  0  0  0  0
  -20.4655  -11.6020    9.5610 C   0  0  0  0  0  0  0  0  0  0  0  0
  -20.7370  -10.7952   10.6293 F   0  0  0  0  0  0  0  0  0  0  0  0
  -21.4664  -12.5251    9.3329 F   0  0  0  0  0  0  0  0  0  0  0  0
  -19.2458  -12.2581    9.7516 F   0  0  0  0  0  0  0  0  0  0  0  0
  -11.3353   -7.5608    7.2902 C   0  0  0  0  0  0  0  0  0  0  0  0
  -11.7261   -6.9981    6.1950 C   0  0  0  0  0  0  0  0  0  0  0  0
   -7.0958   -7.7207    7.7864 C   0  0  0  0  0  0  0  0  0  0  0  0
   -7.8481   -8.8062    8.0952 C   0  0  0  0  0  0  0  0  0  0  0  0
   -9.2467   -8.8063    7.9964 C   0  0  0  0  0  0  0  0  0  0  0  0
   -9.8709   -7.6757    7.5691 C   0  0  0  0  0  0  0  0  0  0  0  0
   -9.0925   -6.5443    7.2514 C   0  0  0  0  0  0  0  0  0  0  0  0
   -7.7212   -6.5532    7.3535 C   0  0  0  0  0  0  0  0  0  0  0  0
   -4.9843   -6.5507    7.7294 C   0  0  0  0  0  0  0  0  0  0  0  0
   -5.7306   -7.7291    7.8832 O   0  0  0  0  0  0  0  0  0  0  0  0
 29 30  1  0  0  0
 30 23  1  0  0  0
 23 24  2  0  0  0
 24 25  1  0  0  0
 25 26  2  0  0  0
 26 21  1  0  0  0
 21 22  2  0  0  0
 22  1  1  0  0  0
  1  2  2  0  0  0
  1  3  1  0  0  0
  3  4  1  0  0  0
  4  5  1  0  0  0
  5  6  1  0  0  0
  6  7  1  0  0  0
  7  8  1  0  0  0
  6  9  1  0  0  0
  9 10  2  0  0  0
  9 11  1  0  0  0
 11 12  2  0  0  0
 12 13  1  0  0  0
 13 14  2  0  0  0
 14 15  1  0  0  0
 15 16  2  0  0  0
 15 17  1  0  0  0
 17 18  1  0  0  0
 17 19  1  0  0  0
 17 20  1  0  0  0
 26 27  1  0  0  0
 27 28  2  0  0  0
 28 23  1  0  0  0
  8  3  1  0  0  0
 16 11  1  0  0  0
M  END
> <minimizedAffinity>
8.18182

> <CNNscore>
0.4625512362

> <CNNaffinity>
6.2507300377

> <CNN_VS>
2.8912827969

> <CNNaffinity_variance>
2.1596391201

$$$$
[H]/C(C(=O)N1C([H])([H])C([H])([H])N(C(=O)c2c([H])c([H])c([H])c(C(F)(F)F)c2[H])C([H])([H])C1([H])[H])=C(/[H])c1c([H])c([H])c(OC([H])([H])[H])c([H])c1[H]


 30 32  0  0  0  0  0  0  0  0999 V2000
   -6.3058   -6.8131    9.4841 C   0  0  0  0  0  0  0  0  0  0  0  0
   -5.5244   -7.6589    8.7993 O   0  0  0  0  0  0  0  0  0  0  0  0
   -7.6443   -6.8008    9.1337 N   0  0  0  0  0  0  0  0  0  0  0  0
   -8.7681   -6.2795    9.7845 C   0  0  0  0  0  0  0  0  0  0  0  0
  -10.1012   -6.9307    9.3296 C   0  0  0  0  0  0  0  0  0  0  0  0
  -10.2205   -6.8580    7.9114 N   0  0  0  0  0  0  0  0  0  0  0  0
   -8.9871   -6.3651    7.1910 C   0  0  0  0  0  0  0  0  0  0  0  0
   -7.8953   -7.2986    7.7268 C   0  0  0  0  0  0  0  0  0  0  0  0
  -11.2455   -7.2438    7.0950 C   0  0  0  0  0  0  0  0  0  0  0  0
  -11.0613   -6.9985    5.8320 O   0  0  0  0  0  0  0  0  0  0  0  0
  -12.4977   -7.8873    7.3882 C   0  0  0  0  0  0  0  0  0  0  0  0
  -13.3397   -8.5281    6.5206 C   0  0  0  0  0  0  0  0  0  0  0  0
  -14.5752   -9.0466    6.9215 C   0  0  0  0  0  0  0  0  0  0  0  0
  -15.0194   -8.9294    8.2331 C   0  0  0  0  0  0  0  0  0  0  0  0
  -14.1919   -8.2799    9.1493 C   0  0  0  0  0  0  0  0  0  0  0  0
  -12.9966   -7.7961    8.7252 C   0  0  0  0  0  0  0  0  0  0  0  0
  -14.6320   -8.0574   10.5657 C   0  0  0  0  0  0  0  0  0  0  0  0
  -14.0890   -8.9611   11.4343 F   0  0  0  0  0  0  0  0  0  0  0  0
  -14.2978   -6.7566   10.8852 F   0  0  0  0  0  0  0  0  0  0  0  0
  -16.0225   -8.1982   10.5323 F   0  0  0  0  0  0  0  0  0  0  0  0
   -5.4836   -6.3219   11.7216 C   0  0  0  0  0  0  0  0  0  0  0  0
   -5.6010   -6.0513   10.4639 C   0  0  0  0  0  0  0  0  0  0  0  0
   -3.0188   -3.9280   14.2592 C   0  0  0  0  0  0  0  0  0  0  0  0
   -4.3655   -3.9063   14.4186 C   0  0  0  0  0  0  0  0  0  0  0  0
   -5.2338   -4.6341   13.5927 C   0  0  0  0  0  0  0  0  0  0  0  0
   -4.7034   -5.3948   12.5975 C   0  0  0  0  0  0  0  0  0  0  0  0
   -3.3044   -5.4164   12.4261 C   0  0  0  0  0  0  0  0  0  0  0  0
   -2.4610   -4.6974   13.2401 C   0  0  0  0  0  0  0  0  0  0  0  0
   -2.6634   -2.2029   15.9110 C   0  0  0  0  0  0  0  0  0  0  0  0
   -2.1774   -3.2166   15.0711 O   0  0  0  0  0  0  0  0  0  0  0  0
 29 30  1  0  0  0
 30 23  1  0  0  0
 23 24  2  0  0  0
 24 25  1  0  0  0
 25 26  2  0  0  0
 26 21  1  0  0  0
 21 22  2  0  0  0
 22  1  1  0  0  0
  1  2  2  0  0  0
  1  3  1  0  0  0
  3  4  1  0  0  0
  4  5  1  0  0  0
  5  6  1  0  0  0
  6  7  1  0  0  0
  7  8  1  0  0  0
  6  9  1  0  0  0
  9 10  2  0  0  0
  9 11  1  0  0  0
 11 12  2  0  0  0
 12 13  1  0  0  0
 13 14  2  0  0  0
 14 15  1  0  0  0
 15 16  2  0  0  0
 15 17  1  0  0  0
 17 18  1  0  0  0
 17 19  1  0  0  0
 17 20  1  0  0  0
 26 27  1  0  0  0
 27 28  2  0  0  0
 28 23  1  0  0  0
  8  3  1  0  0  0
 16 11  1  0  0  0
M  END
> <minimizedAffinity>
5.62958

> <CNNscore>
0.4432389438

> <CNNaffinity>
5.7064361572

> <CNN_VS>
2.5293147564

> <CNNaffinity_variance>
1.8515031338

$$$$
[H]/C(C(=O)N1C([H])([H])C([H])([H])N(C(=O)c2c([H])c([H])c([H])c(C(F)(F)F)c2[H])C([H])([H])C1([H])[H])=C(/[H])c1c([H])c([H])c(OC([H])([H])[H])c([H])c1[H]


 30 32  0  0  0  0  0  0  0  0999 V2000
  -15.2760   -7.8375    9.1685 C   0  0  0  0  0  0  0  0  0  0  0  0
  -15.4970   -7.2064   10.3294 O   0  0  0  0  0  0  0  0  0  0  0  0
  -14.0097   -7.6958    8.6294 N   0  0  0  0  0  0  0  0  0  0  0  0
  -13.3472   -8.4036    7.6202 C   0  0  0  0  0  0  0  0  0  0  0  0
  -11.8021   -8.2787    7.6919 C   0  0  0  0  0  0  0  0  0  0  0  0
  -11.4247   -6.9048    7.7201 N   0  0  0  0  0  0  0  0  0  0  0  0
  -12.5702   -5.9305    7.8685 C   0  0  0  0  0  0  0  0  0  0  0  0
  -13.2919   -6.4552    9.1152 C   0  0  0  0  0  0  0  0  0  0  0  0
  -10.1835   -6.3345    7.7191 C   0  0  0  0  0  0  0  0  0  0  0  0
  -10.1783   -5.0349    7.7039 O   0  0  0  0  0  0  0  0  0  0  0  0
   -8.8716   -6.9233    7.7420 C   0  0  0  0  0  0  0  0  0  0  0  0
   -7.6611   -6.2867    7.7023 C   0  0  0  0  0  0  0  0  0  0  0  0
   -6.4497   -6.9838    7.6498 C   0  0  0  0  0  0  0  0  0  0  0  0
   -6.4132   -8.3729    7.6269 C   0  0  0  0  0  0  0  0  0  0  0  0
   -7.6263   -9.0607    7.6630 C   0  0  0  0  0  0  0  0  0  0  0  0
   -8.7815   -8.3502    7.7210 C   0  0  0  0  0  0  0  0  0  0  0  0
   -7.6690  -10.5573    7.5749 C   0  0  0  0  0  0  0  0  0  0  0  0
   -7.3044  -11.1644    8.7430 F   0  0  0  0  0  0  0  0  0  0  0  0
   -8.9495  -10.8954    7.1854 F   0  0  0  0  0  0  0  0  0  0  0  0
   -6.7613  -10.8799    6.5617 F   0  0  0  0  0  0  0  0  0  0  0  0
  -17.2021   -8.1858    7.7219 C   0  0  0  0  0  0  0  0  0  0  0  0
  -16.4135   -8.5473    8.6792 C   0  0  0  0  0  0  0  0  0  0  0  0
  -20.5819  -10.4587    6.4350 C   0  0  0  0  0  0  0  0  0  0  0  0
  -20.2799  -10.3962    7.7557 C   0  0  0  0  0  0  0  0  0  0  0  0
  -19.1612   -9.7040    8.2408 C   0  0  0  0  0  0  0  0  0  0  0  0
  -18.3520   -9.0669    7.3521 C   0  0  0  0  0  0  0  0  0  0  0  0
  -18.6604   -9.1334    5.9782 C   0  0  0  0  0  0  0  0  0  0  0  0
  -19.7589   -9.8165    5.5119 C   0  0  0  0  0  0  0  0  0  0  0  0
  -21.5389  -12.3016    5.2027 C   0  0  0  0  0  0  0  0  0  0  0  0
  -21.6773  -11.1344    5.9693 O   0  0  0  0  0  0  0  0  0  0  0  0
 29 30  1  0  0  0
 30 23  1  0  0  0
 23 24  2  0  0  0
 24 25  1  0  0  0
 25 26  2  0  0  0
 26 21  1  0  0  0
 21 22  2  0  0  0
 22  1  1  0  0  0
  1  2  2  0  0  0
  1  3  1  0  0  0
  3  4  1  0  0  0
  4  5  1  0  0  0
  5  6  1  0  0  0
  6  7  1  0  0  0
  7  8  1  0  0  0
  6  9  1  0  0  0
  9 10  2  0  0  0
  9 11  1  0  0  0
 11 12  2  0  0  0
 12 13  1  0  0  0
 13 14  2  0  0  0
 14 15  1  0  0  0
 15 16  2  0  0  0
 15 17  1  0  0  0
 17 18  1  0  0  0
 17 19  1  0  0  0
 17 20  1  0  0  0
 26 27  1  0  0  0
 27 28  2  0  0  0
 28 23  1  0  0  0
  8  3  1  0  0  0
 16 11  1  0  0  0
M  END
> <minimizedAffinity>
11.64189

> <CNNscore>
0.4364395738

> <CNNaffinity>
6.3219718933

> <CNN_VS>
2.7591586113

> <CNNaffinity_variance>
2.0916247368

$$$$
[H]/C(C(=O)N1C([H])([H])C([H])([H])N(C(=O)c2c([H])c([H])c([H])c(C(F)(F)F)c2[H])C([H])([H])C1([H])[H])=C(/[H])c1c([H])c([H])c(OC([H])([H])[H])c([H])c1[H]


 30 32  0  0  0  0  0  0  0  0999 V2000
  -13.7916   -7.9964    7.0494 C   0  0  0  0  0  0  0  0  0  0  0  0
  -14.2707   -9.0068    7.7873 O   0  0  0  0  0  0  0  0  0  0  0  0
  -14.7249   -7.2707    6.3306 N   0  0  0  0  0  0  0  0  0  0  0  0
  -14.6431   -6.0258    5.6968 C   0  0  0  0  0  0  0  0  0  0  0  0
  -16.0248   -5.3548    5.4753 C   0  0  0  0  0  0  0  0  0  0  0  0
  -16.8972   -6.2495    4.7902 N   0  0  0  0  0  0  0  0  0  0  0  0
  -16.3670   -7.6543    4.6207 C   0  0  0  0  0  0  0  0  0  0  0  0
  -15.9966   -8.0440    6.0565 C   0  0  0  0  0  0  0  0  0  0  0  0
  -18.1718   -6.0593    4.3375 C   0  0  0  0  0  0  0  0  0  0  0  0
  -18.6845   -7.0718    3.7041 O   0  0  0  0  0  0  0  0  0  0  0  0
  -19.0565   -4.9308    4.4476 C   0  0  0  0  0  0  0  0  0  0  0  0
  -19.9216   -4.4429    3.5064 C   0  0  0  0  0  0  0  0  0  0  0  0
  -20.6741   -3.2818    3.7113 C   0  0  0  0  0  0  0  0  0  0  0  0
  -20.5748   -2.5522    4.8898 C   0  0  0  0  0  0  0  0  0  0  0  0
  -19.7013   -3.0141    5.8746 C   0  0  0  0  0  0  0  0  0  0  0  0
  -18.9930   -4.1487    5.6430 C   0  0  0  0  0  0  0  0  0  0  0  0
  -19.4919   -2.2444    7.1446 C   0  0  0  0  0  0  0  0  0  0  0  0
  -18.5373   -1.2750    7.0219 F   0  0  0  0  0  0  0  0  0  0  0  0
  -20.7210   -1.7279    7.5028 F   0  0  0  0  0  0  0  0  0  0  0  0
  -19.0867   -3.2027    8.0784 F   0  0  0  0  0  0  0  0  0  0  0  0
  -11.5554   -8.5915    7.8038 C   0  0  0  0  0  0  0  0  0  0  0  0
  -12.3736   -7.8544    7.1284 C   0  0  0  0  0  0  0  0  0  0  0  0
   -7.3192   -8.0451    7.7600 C   0  0  0  0  0  0  0  0  0  0  0  0
   -8.1078   -7.1222    8.3649 C   0  0  0  0  0  0  0  0  0  0  0  0
   -9.5065   -7.2188    8.3782 C   0  0  0  0  0  0  0  0  0  0  0  0
  -10.0931   -8.2821    7.7653 C   0  0  0  0  0  0  0  0  0  0  0  0
   -9.2769   -9.2410    7.1319 C   0  0  0  0  0  0  0  0  0  0  0  0
   -7.9058   -9.1365    7.1225 C   0  0  0  0  0  0  0  0  0  0  0  0
   -5.3104   -6.7648    8.1551 C   0  0  0  0  0  0  0  0  0  0  0  0
   -5.9542   -7.9452    7.7534 O   0  0  0  0  0  0  0  0  0  0  0  0
 29 30  1  0  0  0
 30 23  1  0  0  0
 23 24  2  0  0  0
 24 25  1  0  0  0
 25 26  2  0  0  0
 26 21  1  0  0  0
 21 22  2  0  0  0
 22  1  1  0  0  0
  1  2  2  0  0  0
  1  3  1  0  0  0
  3  4  1  0  0  0
  4  5  1  0  0  0
  5  6  1  0  0  0
  6  7  1  0  0  0
  7  8  1  0  0  0
  6  9  1  0  0  0
  9 10  2  0  0  0
  9 11  1  0  0  0
 11 12  2  0  0  0
 12 13  1  0  0  0
 13 14  2  0  0  0
 14 15  1  0  0  0
 15 16  2  0  0  0
 15 17  1  0  0  0
 17 18  1  0  0  0
 17 19  1  0  0  0
 17 20  1  0  0  0
 26 27  1  0  0  0
 27 28  2  0  0  0
 28 23  1  0  0  0
  8  3  1  0  0  0
 16 11  1  0  0  0
M  END
> <minimizedAffinity>
8.69896

> <CNNscore>
0.4303311408

> <CNNaffinity>
6.6101379395

> <CNN_VS>
2.8445482254

> <CNNaffinity_variance>
0.6228669286

$$$$
[H]/C(C(=O)N1C([H])([H])C([H])([H])N(C(=O)c2c([H])c([H])c([H])c(C(F)(F)F)c2[H])C([H])([H])C1([H])[H])=C(/[H])c1c([H])c([H])c(OC([H])([H])[H])c([H])c1[H]


 30 32  0  0  0  0  0  0  0  0999 V2000
   -6.1468   -6.6861    8.8849 C   0  0  0  0  0  0  0  0  0  0  0  0
   -5.5271   -7.6609    8.2062 O   0  0  0  0  0  0  0  0  0  0  0  0
   -7.5082   -6.5646    8.6705 N   0  0  0  0  0  0  0  0  0  0  0  0
   -8.5009   -5.8790    9.3797 C   0  0  0  0  0  0  0  0  0  0  0  0
   -9.9306   -6.4245    9.1221 C   0  0  0  0  0  0  0  0  0  0  0  0
  -10.1959   -6.4559    7.7223 N   0  0  0  0  0  0  0  0  0  0  0  0
   -9.0072   -6.1531    6.8399 C   0  0  0  0  0  0  0  0  0  0  0  0
   -7.9561   -7.1472    7.3475 C   0  0  0  0  0  0  0  0  0  0  0  0
  -11.3351   -6.7995    7.0515 C   0  0  0  0  0  0  0  0  0  0  0  0
  -11.2670   -6.6784    5.7593 O   0  0  0  0  0  0  0  0  0  0  0  0
  -12.6030   -7.2845    7.5264 C   0  0  0  0  0  0  0  0  0  0  0  0
  -13.6097   -6.5721    8.1191 C   0  0  0  0  0  0  0  0  0  0  0  0
  -14.7686   -7.1810    8.6113 C   0  0  0  0  0  0  0  0  0  0  0  0
  -14.9556   -8.5557    8.5303 C   0  0  0  0  0  0  0  0  0  0  0  0
  -13.9511   -9.3194    7.9355 C   0  0  0  0  0  0  0  0  0  0  0  0
  -12.8438   -8.6926    7.4628 C   0  0  0  0  0  0  0  0  0  0  0  0
  -14.0524  -10.8144    7.8715 C   0  0  0  0  0  0  0  0  0  0  0  0
  -15.2306  -11.2848    8.3781 F   0  0  0  0  0  0  0  0  0  0  0  0
  -13.8714  -11.1681    6.5494 F   0  0  0  0  0  0  0  0  0  0  0  0
  -12.9800  -11.2767    8.6401 F   0  0  0  0  0  0  0  0  0  0  0  0
   -5.0857   -6.0655   10.9856 C   0  0  0  0  0  0  0  0  0  0  0  0
   -5.2713   -5.9234    9.7151 C   0  0  0  0  0  0  0  0  0  0  0  0
   -2.0838   -3.6240   12.7948 C   0  0  0  0  0  0  0  0  0  0  0  0
   -3.0492   -4.1818   13.5671 C   0  0  0  0  0  0  0  0  0  0  0  0
   -4.0874   -4.9575   13.0321 C   0  0  0  0  0  0  0  0  0  0  0  0
   -4.1233   -5.1621   11.6877 C   0  0  0  0  0  0  0  0  0  0  0  0
   -3.1240   -4.5803   10.8815 C   0  0  0  0  0  0  0  0  0  0  0  0
   -2.1107   -3.8192   11.4154 C   0  0  0  0  0  0  0  0  0  0  0  0
   -1.1325   -2.3984   14.6451 C   0  0  0  0  0  0  0  0  0  0  0  0
   -1.0720   -2.8699   13.3248 O   0  0  0  0  0  0  0  0  0  0  0  0
 29 30  1  0  0  0
 30 23  1  0  0  0
 23 24  2  0  0  0
 24 25  1  0  0  0
 25 26  2  0  0  0
 26 21  1  0  0  0
 21 22  2  0  0  0
 22  1  1  0  0  0
  1  2  2  0  0  0
  1  3  1  0  0  0
  3  4  1  0  0  0
  4  5  1  0  0  0
  5  6  1  0  0  0
  6  7  1  0  0  0
  7  8  1  0  0  0
  6  9  1  0  0  0
  9 10  2  0  0  0
  9 11  1  0  0  0
 11 12  2  0  0  0
 12 13  1  0  0  0
 13 14  2  0  0  0
 14 15  1  0  0  0
 15 16  2  0  0  0
 15 17  1  0  0  0
 17 18  1  0  0  0
 17 19  1  0  0  0
 17 20  1  0  0  0
 26 27  1  0  0  0
 27 28  2  0  0  0
 28 23  1  0  0  0
  8  3  1  0  0  0
 16 11  1  0  0  0
M  END
> <minimizedAffinity>
8.14255

> <CNNscore>
0.4259258211

> <CNNaffinity>
5.6267099380

> <CNN_VS>
2.3965611458

> <CNNaffinity_variance>
2.1053259373

$$$$
[H]OC(=O)[C@@]([H])(N([H])C(=O)[C@@]([H])(N([H])C(=O)[C@@]([H])(N([H])C(=O)[C@@]([H])(N([H])C(=O)[C@@]([H])(N([H])C(=O)N([H])[H])C([H])([H])c1c([H])c([H])c([H])c([H])c1[H])C([H])([H])c1c([H])c([H])c([H])c([H])c1[H])C([H])([H])C([H])(C([H])([H])[H])C([H])([H])[H])C([H])([H])C([H])(C([H])([H])[H])C([H])([H])[H])C([H])([H])c1c([H])c([H])c(O[H])c([H])c1[H]


 63 65  0  0  0  0  0  0  0  0999 V2000
   -7.0924   -7.4666    7.5506 C   0  0  0  0  0  0  0  0  0  0  0  0
   -9.3542   -6.7992    8.4829 C   0  0  0  0  0  0  0  0  0  0  0  0
   -9.3372   -7.8779    9.1920 O   0  0  0  0  0  0  0  0  0  0  0  0
   -8.2643   -6.5236    7.6380 N   0  0  0  0  0  0  0  0  0  0  0  0
   -8.2504   -5.6657    7.0673 H   0  0  0  0  0  0  0  0  0  0  0  0
  -10.5325   -5.9631    8.6491 C   0  0  0  0  0  0  0  0  0  0  0  0
  -11.8911   -7.5103    7.1774 C   0  0  0  0  0  0  0  0  0  0  0  0
  -10.9734   -8.4024    7.2896 O   0  0  0  0  0  0  0  0  0  0  0  0
  -11.6721   -6.3048    7.8540 N   0  0  0  0  0  0  0  0  0  0  0  0
  -12.4304   -5.5491    7.7550 H   0  0  0  0  0  0  0  0  0  0  0  0
  -13.1000   -7.7534    6.3674 C   0  0  0  0  0  0  0  0  0  0  0  0
  -12.4780  -10.4405    7.1529 O   0  0  0  0  0  0  0  0  0  0  0  0
  -13.6929   -9.9939    7.3591 C   0  0  0  0  0  0  0  0  0  0  0  0
  -14.0029   -8.7186    6.9847 N   0  0  0  0  0  0  0  0  0  0  0  0
  -14.5347  -10.9352    7.9693 N   0  0  0  0  0  0  0  0  0  0  0  0
  -14.9976   -8.3666    7.1343 H   0  0  0  0  0  0  0  0  0  0  0  0
  -15.5488  -10.9215    7.7565 H   0  0  0  0  0  0  0  0  0  0  0  0
  -14.1618  -11.6373    8.6274 H   0  0  0  0  0  0  0  0  0  0  0  0
  -13.8464   -6.4616    6.1049 C   0  0  0  0  0  0  0  0  0  0  0  0
  -14.9990   -6.7014    5.1996 C   0  0  0  0  0  0  0  0  0  0  0  0
  -15.9553   -5.7274    5.0120 C   0  0  0  0  0  0  0  0  0  0  0  0
  -16.9865   -5.9951    4.1607 C   0  0  0  0  0  0  0  0  0  0  0  0
  -17.0870   -7.2216    3.4866 C   0  0  0  0  0  0  0  0  0  0  0  0
  -16.1176   -8.1728    3.6959 C   0  0  0  0  0  0  0  0  0  0  0  0
  -15.0720   -7.9249    4.5475 C   0  0  0  0  0  0  0  0  0  0  0  0
  -10.9090   -5.9032   10.1294 C   0  0  0  0  0  0  0  0  0  0  0  0
  -12.2388   -6.5729   10.3149 C   0  0  0  0  0  0  0  0  0  0  0  0
  -13.3410   -5.7607   10.4003 C   0  0  0  0  0  0  0  0  0  0  0  0
  -14.5902   -6.2922   10.5851 C   0  0  0  0  0  0  0  0  0  0  0  0
  -14.7506   -7.6568   10.6868 C   0  0  0  0  0  0  0  0  0  0  0  0
  -13.6301   -8.4893   10.6003 C   0  0  0  0  0  0  0  0  0  0  0  0
  -12.3911   -7.9280   10.4155 C   0  0  0  0  0  0  0  0  0  0  0  0
   -5.9294   -6.5563    7.4156 C   0  0  0  0  0  0  0  0  0  0  0  0
   -6.2030   -5.4223    6.8555 O   0  0  0  0  0  0  0  0  0  0  0  0
   -4.5981   -6.7889    7.8371 N   0  0  0  0  0  0  0  0  0  0  0  0
   -4.3412   -7.7176    8.2842 H   0  0  0  0  0  0  0  0  0  0  0  0
   -3.6096   -5.7584    7.6840 C   0  0  0  0  0  0  0  0  0  0  0  0
   -3.6155   -5.4116    6.2098 C   0  0  0  0  0  0  0  0  0  0  0  0
   -3.7750   -6.3801    5.4083 O   0  0  0  0  0  0  0  0  0  0  0  0
   -3.4565   -4.1156    5.6986 N   0  0  0  0  0  0  0  0  0  0  0  0
   -3.3040   -3.2589    6.3143 H   0  0  0  0  0  0  0  0  0  0  0  0
   -3.4928   -3.9190    4.2500 C   0  0  0  0  0  0  0  0  0  0  0  0
   -2.1181   -4.2121    3.7310 C   0  0  0  0  0  0  0  0  0  0  0  0
   -1.0623   -3.5513    4.3413 O   0  0  0  0  0  0  0  0  0  0  0  0
   -1.9185   -5.0209    2.7802 O   0  0  0  0  0  0  0  0  0  0  0  0
   -1.2452   -2.6882    4.8603 H   0  0  0  0  0  0  0  0  0  0  0  0
   -3.8578   -2.4748    3.9288 C   0  0  0  0  0  0  0  0  0  0  0  0
   -3.5686   -2.3098    2.4623 C   0  0  0  0  0  0  0  0  0  0  0  0
   -2.5431   -1.5303    1.9879 C   0  0  0  0  0  0  0  0  0  0  0  0
   -2.3106   -1.4128    0.6212 C   0  0  0  0  0  0  0  0  0  0  0  0
   -3.0821   -2.0606   -0.3120 C   0  0  0  0  0  0  0  0  0  0  0  0
   -2.8284   -1.9285   -1.6729 O   0  0  0  0  0  0  0  0  0  0  0  0
   -4.1230   -2.8501    0.1583 C   0  0  0  0  0  0  0  0  0  0  0  0
   -4.3542   -2.9667    1.5263 C   0  0  0  0  0  0  0  0  0  0  0  0
   -3.3004   -1.1674   -2.1534 H   0  0  0  0  0  0  0  0  0  0  0  0
   -2.2587   -6.0667    8.1400 C   0  0  0  0  0  0  0  0  0  0  0  0
   -1.5984   -7.3380    7.7817 C   0  0  0  0  0  0  0  0  0  0  0  0
   -1.0620   -7.1344    6.3313 C   0  0  0  0  0  0  0  0  0  0  0  0
   -2.4810   -8.5514    7.6563 C   0  0  0  0  0  0  0  0  0  0  0  0
   -7.3266   -8.3271    6.3972 C   0  0  0  0  0  0  0  0  0  0  0  0
   -7.5628   -9.7843    6.5825 C   0  0  0  0  0  0  0  0  0  0  0  0
   -9.0473  -10.0287    6.2307 C   0  0  0  0  0  0  0  0  0  0  0  0
   -7.3994  -10.2089    8.0305 C   0  0  0  0  0  0  0  0  0  0  0  0
 12 13  2  0  0  0
 13 14  1  0  0  0
 14 11  1  0  0  0
 11 19  1  0  0  0
 19 20  1  0  0  0
 20 21  2  0  0  0
 21 22  1  0  0  0
 22 23  2  0  0  0
 23 24  1  0  0  0
 24 25  2  0  0  0
 11  7  1  0  0  0
  7  8  2  0  0  0
  7  9  1  0  0  0
  9  6  1  0  0  0
  6 26  1  0  0  0
 26 27  1  0  0  0
 27 28  2  0  0  0
 28 29  1  0  0  0
 29 30  2  0  0  0
 30 31  1  0  0  0
 31 32  2  0  0  0
  6  2  1  0  0  0
  2  3  2  0  0  0
  2  4  1  0  0  0
  4  1  1  0  0  0
  1 60  1  0  0  0
 60 61  1  0  0  0
 61 62  1  0  0  0
 61 63  1  0  0  0
  1 33  1  0  0  0
 33 34  2  0  0  0
 33 35  1  0  0  0
 35 37  1  0  0  0
 37 56  1  0  0  0
 56 57  1  0  0  0
 57 58  1  0  0  0
 57 59  1  0  0  0
 37 38  1  0  0  0
 38 39  2  0  0  0
 38 40  1  0  0  0
 40 42  1  0  0  0
 42 47  1  0  0  0
 47 48  1  0  0  0
 48 49  2  0  0  0
 49 50  1  0  0  0
 50 51  2  0  0  0
 51 52  1  0  0  0
 51 53  1  0  0  0
 53 54  2  0  0  0
 42 43  1  0  0  0
 43 44  1  0  0  0
 43 45  2  0  0  0
 13 15  1  0  0  0
 25 20  1  0  0  0
 32 27  1  0  0  0
 54 48  1  0  0  0
 14 16  1  0  0  0
  9 10  1  0  0  0
  4  5  1  0  0  0
 35 36  1  0  0  0
 40 41  1  0  0  0
 52 55  1  0  0  0
 44 46  1  0  0  0
 15 17  1  0  0  0
 15 18  1  0  0  0
M  END
> <minimizedAffinity>
-2.78063

> <CNNscore>
0.4144931138

> <CNNaffinity>
7.5422377586

> <CNN_VS>
3.1262056828

> <CNNaffinity_variance>
0.3688262105

$$$$
[H]OC(=O)[C@@]([H])(N([H])C(=O)[C@@]([H])(N([H])C(=O)[C@@]([H])(N([H])C(=O)[C@@]([H])(N([H])C(=O)[C@@]([H])(N([H])C(=O)N([H])[H])C([H])([H])c1c([H])c([H])c([H])c([H])c1[H])C([H])([H])c1c([H])c([H])c([H])c([H])c1[H])C([H])([H])C([H])(C([H])([H])[H])C([H])([H])[H])C([H])([H])C([H])(C([H])([H])[H])C([H])([H])[H])C([H])([H])c1c([H])c([H])c(O[H])c([H])c1[H]


 63 65  0  0  0  0  0  0  0  0999 V2000
   -7.4931   -8.2210    7.7108 C   0  0  0  0  0  0  0  0  0  0  0  0
  -10.0242   -8.3701    7.6710 C   0  0  0  0  0  0  0  0  0  0  0  0
   -9.9081   -9.5541    7.1697 O   0  0  0  0  0  0  0  0  0  0  0  0
   -8.8594   -7.6413    7.9704 N   0  0  0  0  0  0  0  0  0  0  0  0
   -8.9249   -6.6971    8.3781 H   0  0  0  0  0  0  0  0  0  0  0  0
  -11.3890   -7.9138    7.8814 C   0  0  0  0  0  0  0  0  0  0  0  0
  -13.5083   -7.9141    6.4979 C   0  0  0  0  0  0  0  0  0  0  0  0
  -13.6260   -6.6509    6.7007 O   0  0  0  0  0  0  0  0  0  0  0  0
  -12.3983   -8.5365    7.0807 N   0  0  0  0  0  0  0  0  0  0  0  0
  -12.2997   -9.5957    6.9251 H   0  0  0  0  0  0  0  0  0  0  0  0
  -14.5026   -8.6573    5.7006 C   0  0  0  0  0  0  0  0  0  0  0  0
  -15.2136   -8.3467    8.4616 O   0  0  0  0  0  0  0  0  0  0  0  0
  -16.1738   -8.4097    7.5716 C   0  0  0  0  0  0  0  0  0  0  0  0
  -15.8486   -8.5629    6.2551 N   0  0  0  0  0  0  0  0  0  0  0  0
  -17.4560   -8.2988    8.1291 N   0  0  0  0  0  0  0  0  0  0  0  0
  -16.6328   -8.6355    5.5371 H   0  0  0  0  0  0  0  0  0  0  0  0
  -18.2492   -8.7896    7.6777 H   0  0  0  0  0  0  0  0  0  0  0  0
  -17.6221   -7.7350    8.9775 H   0  0  0  0  0  0  0  0  0  0  0  0
  -14.5147   -8.1775    4.2639 C   0  0  0  0  0  0  0  0  0  0  0  0
  -15.6024   -7.1882    4.0549 C   0  0  0  0  0  0  0  0  0  0  0  0
  -15.3690   -5.8429    4.2391 C   0  0  0  0  0  0  0  0  0  0  0  0
  -16.3995   -4.9765    4.0221 C   0  0  0  0  0  0  0  0  0  0  0  0
  -17.6678   -5.4241    3.6223 C   0  0  0  0  0  0  0  0  0  0  0  0
  -17.8688   -6.7723    3.4482 C   0  0  0  0  0  0  0  0  0  0  0  0
  -16.8468   -7.6613    3.6607 C   0  0  0  0  0  0  0  0  0  0  0  0
  -11.7383   -8.0219    9.3656 C   0  0  0  0  0  0  0  0  0  0  0  0
  -12.0701   -6.6530    9.8825 C   0  0  0  0  0  0  0  0  0  0  0  0
  -13.3359   -6.4608   10.3752 C   0  0  0  0  0  0  0  0  0  0  0  0
  -13.7235   -5.2364   10.8522 C   0  0  0  0  0  0  0  0  0  0  0  0
  -12.8385   -4.1805   10.8411 C   0  0  0  0  0  0  0  0  0  0  0  0
  -11.5467   -4.3712   10.3399 C   0  0  0  0  0  0  0  0  0  0  0  0
  -11.1870   -5.6091    9.8683 C   0  0  0  0  0  0  0  0  0  0  0  0
   -6.5886   -7.0590    7.8872 C   0  0  0  0  0  0  0  0  0  0  0  0
   -7.1686   -5.9089    7.7620 O   0  0  0  0  0  0  0  0  0  0  0  0
   -5.2045   -7.0800    8.1837 N   0  0  0  0  0  0  0  0  0  0  0  0
   -4.6989   -8.0097    8.2751 H   0  0  0  0  0  0  0  0  0  0  0  0
   -4.4984   -5.8461    8.3874 C   0  0  0  0  0  0  0  0  0  0  0  0
   -3.9670   -5.4573    7.0236 C   0  0  0  0  0  0  0  0  0  0  0  0
   -3.4498   -6.3894    6.3386 O   0  0  0  0  0  0  0  0  0  0  0  0
   -4.0128   -4.1596    6.4944 N   0  0  0  0  0  0  0  0  0  0  0  0
   -4.4198   -3.3272    7.0214 H   0  0  0  0  0  0  0  0  0  0  0  0
   -3.4715   -3.9235    5.1566 C   0  0  0  0  0  0  0  0  0  0  0  0
   -2.0114   -4.2566    5.2070 C   0  0  0  0  0  0  0  0  0  0  0  0
   -1.2921   -3.7652    6.2864 O   0  0  0  0  0  0  0  0  0  0  0  0
   -1.4507   -4.9508    4.3117 O   0  0  0  0  0  0  0  0  0  0  0  0
   -1.6573   -2.9636    6.8076 H   0  0  0  0  0  0  0  0  0  0  0  0
   -3.6435   -2.4582    4.7755 C   0  0  0  0  0  0  0  0  0  0  0  0
   -3.2307   -2.3731    3.3320 C   0  0  0  0  0  0  0  0  0  0  0  0
   -3.7884   -3.1533    2.3500 C   0  0  0  0  0  0  0  0  0  0  0  0
   -3.3776   -3.0345    1.0260 C   0  0  0  0  0  0  0  0  0  0  0  0
   -2.4077   -2.1439    0.6365 C   0  0  0  0  0  0  0  0  0  0  0  0
   -2.0154   -2.0427   -0.6938 O   0  0  0  0  0  0  0  0  0  0  0  0
   -1.8364   -1.3514    1.6232 C   0  0  0  0  0  0  0  0  0  0  0  0
   -2.2487   -1.4714    2.9476 C   0  0  0  0  0  0  0  0  0  0  0  0
   -1.2528   -2.6449   -0.9918 H   0  0  0  0  0  0  0  0  0  0  0  0
   -3.4287   -5.8538    9.3792 C   0  0  0  0  0  0  0  0  0  0  0  0
   -2.6896   -4.6221    9.7215 C   0  0  0  0  0  0  0  0  0  0  0  0
   -1.7177   -5.0259   10.8727 C   0  0  0  0  0  0  0  0  0  0  0  0
   -3.4869   -3.4949   10.3221 C   0  0  0  0  0  0  0  0  0  0  0  0
   -7.5166   -8.7723    6.3613 C   0  0  0  0  0  0  0  0  0  0  0  0
   -6.4627   -8.4004    5.3792 C   0  0  0  0  0  0  0  0  0  0  0  0
   -6.8320   -9.1138    4.0595 C   0  0  0  0  0  0  0  0  0  0  0  0
   -5.0987   -8.9341    5.7771 C   0  0  0  0  0  0  0  0  0  0  0  0
 12 13  2  0  0  0
 13 14  1  0  0  0
 14 11  1  0  0  0
 11 19  1  0  0  0
 19 20  1  0  0  0
 20 21  2  0  0  0
 21 22  1  0  0  0
 22 23  2  0  0  0
 23 24  1  0  0  0
 24 25  2  0  0  0
 11  7  1  0  0  0
  7  8  2  0  0  0
  7  9  1  0  0  0
  9  6  1  0  0  0
  6 26  1  0  0  0
 26 27  1  0  0  0
 27 28  2  0  0  0
 28 29  1  0  0  0
 29 30  2  0  0  0
 30 31  1  0  0  0
 31 32  2  0  0  0
  6  2  1  0  0  0
  2  3  2  0  0  0
  2  4  1  0  0  0
  4  1  1  0  0  0
  1 60  1  0  0  0
 60 61  1  0  0  0
 61 62  1  0  0  0
 61 63  1  0  0  0
  1 33  1  0  0  0
 33 34  2  0  0  0
 33 35  1  0  0  0
 35 37  1  0  0  0
 37 56  1  0  0  0
 56 57  1  0  0  0
 57 58  1  0  0  0
 57 59  1  0  0  0
 37 38  1  0  0  0
 38 39  2  0  0  0
 38 40  1  0  0  0
 40 42  1  0  0  0
 42 47  1  0  0  0
 47 48  1  0  0  0
 48 49  2  0  0  0
 49 50  1  0  0  0
 50 51  2  0  0  0
 51 52  1  0  0  0
 51 53  1  0  0  0
 53 54  2  0  0  0
 42 43  1  0  0  0
 43 44  1  0  0  0
 43 45  2  0  0  0
 13 15  1  0  0  0
 25 20  1  0  0  0
 32 27  1  0  0  0
 54 48  1  0  0  0
 14 16  1  0  0  0
  9 10  1  0  0  0
  4  5  1  0  0  0
 35 36  1  0  0  0
 40 41  1  0  0  0
 52 55  1  0  0  0
 44 46  1  0  0  0
 15 17  1  0  0  0
 15 18  1  0  0  0
M  END
> <minimizedAffinity>
-6.27925

> <CNNscore>
0.4071982503

> <CNNaffinity>
7.7086400986

> <CNN_VS>
3.1389448643

> <CNNaffinity_variance>
0.3624342382

$$$$
[H]OC(=O)[C@@]([H])(N([H])C(=O)[C@@]([H])(N([H])C(=O)[C@@]([H])(N([H])C(=O)[C@@]([H])(N([H])C(=O)[C@@]([H])(N([H])C(=O)N([H])[H])C([H])([H])c1c([H])c([H])c([H])c([H])c1[H])C([H])([H])c1c([H])c([H])c([H])c([H])c1[H])C([H])([H])C([H])(C([H])([H])[H])C([H])([H])[H])C([H])([H])C([H])(C([H])([H])[H])C([H])([H])[H])C([H])([H])c1c([H])c([H])c(O[H])c([H])c1[H]


 63 65  0  0  0  0  0  0  0  0999 V2000
   -7.7523   -7.8370    7.6915 C   0  0  0  0  0  0  0  0  0  0  0  0
  -10.2252   -7.6583    8.2237 C   0  0  0  0  0  0  0  0  0  0  0  0
  -10.2758   -8.9483    8.2388 O   0  0  0  0  0  0  0  0  0  0  0  0
   -8.9957   -7.0291    7.9588 N   0  0  0  0  0  0  0  0  0  0  0  0
   -8.9273   -6.0009    7.9484 H   0  0  0  0  0  0  0  0  0  0  0  0
  -11.4835   -6.9824    8.4974 C   0  0  0  0  0  0  0  0  0  0  0  0
  -13.7654   -6.5296    7.5008 C   0  0  0  0  0  0  0  0  0  0  0  0
  -14.1787   -6.1433    8.6543 O   0  0  0  0  0  0  0  0  0  0  0  0
  -12.4299   -6.9415    7.4249 N   0  0  0  0  0  0  0  0  0  0  0  0
  -12.0803   -7.2774    6.4653 H   0  0  0  0  0  0  0  0  0  0  0  0
  -14.6640   -6.5431    6.3307 C   0  0  0  0  0  0  0  0  0  0  0  0
  -16.3369   -4.6336    4.9967 O   0  0  0  0  0  0  0  0  0  0  0  0
  -15.0659   -4.6808    4.6800 C   0  0  0  0  0  0  0  0  0  0  0  0
  -14.2605   -5.5889    5.3038 N   0  0  0  0  0  0  0  0  0  0  0  0
  -14.7014   -3.7418    3.7040 N   0  0  0  0  0  0  0  0  0  0  0  0
  -13.2323   -5.6388    5.0279 H   0  0  0  0  0  0  0  0  0  0  0  0
  -13.9344   -3.9677    3.0448 H   0  0  0  0  0  0  0  0  0  0  0  0
  -15.1813   -2.8308    3.6343 H   0  0  0  0  0  0  0  0  0  0  0  0
  -14.7468   -7.9294    5.7258 C   0  0  0  0  0  0  0  0  0  0  0  0
  -16.0090   -8.0881    4.9595 C   0  0  0  0  0  0  0  0  0  0  0  0
  -17.2122   -8.2308    5.6155 C   0  0  0  0  0  0  0  0  0  0  0  0
  -18.3424   -8.3611    4.8636 C   0  0  0  0  0  0  0  0  0  0  0  0
  -18.3003   -8.3523    3.4611 C   0  0  0  0  0  0  0  0  0  0  0  0
  -17.0846   -8.2093    2.8367 C   0  0  0  0  0  0  0  0  0  0  0  0
  -15.9356   -8.0767    3.5731 C   0  0  0  0  0  0  0  0  0  0  0  0
  -12.1194   -7.5801    9.7523 C   0  0  0  0  0  0  0  0  0  0  0  0
  -12.1170   -6.5406   10.8344 C   0  0  0  0  0  0  0  0  0  0  0  0
  -12.9755   -5.4810   10.6850 C   0  0  0  0  0  0  0  0  0  0  0  0
  -13.0238   -4.4814   11.6207 C   0  0  0  0  0  0  0  0  0  0  0  0
  -12.2049   -4.5330   12.7275 C   0  0  0  0  0  0  0  0  0  0  0  0
  -11.3279   -5.6111   12.8846 C   0  0  0  0  0  0  0  0  0  0  0  0
  -11.3013   -6.5976   11.9304 C   0  0  0  0  0  0  0  0  0  0  0  0
   -6.6581   -6.8532    7.8765 C   0  0  0  0  0  0  0  0  0  0  0  0
   -7.0209   -5.6196    7.7310 O   0  0  0  0  0  0  0  0  0  0  0  0
   -5.3055   -7.1177    8.2001 N   0  0  0  0  0  0  0  0  0  0  0  0
   -4.9759   -8.1216    8.3085 H   0  0  0  0  0  0  0  0  0  0  0  0
   -4.3940   -6.0275    8.4079 C   0  0  0  0  0  0  0  0  0  0  0  0
   -3.7969   -5.7377    7.0466 C   0  0  0  0  0  0  0  0  0  0  0  0
   -3.2392   -6.7135    6.4616 O   0  0  0  0  0  0  0  0  0  0  0  0
   -3.8251   -4.4846    6.4180 N   0  0  0  0  0  0  0  0  0  0  0  0
   -4.2641   -3.6190    6.8588 H   0  0  0  0  0  0  0  0  0  0  0  0
   -3.2184   -4.3450    5.0948 C   0  0  0  0  0  0  0  0  0  0  0  0
   -1.7330   -4.4049    5.2826 C   0  0  0  0  0  0  0  0  0  0  0  0
   -1.1191   -3.2733    5.7988 O   0  0  0  0  0  0  0  0  0  0  0  0
   -1.0604   -5.4333    4.9859 O   0  0  0  0  0  0  0  0  0  0  0  0
   -1.5947   -2.3697    5.7277 H   0  0  0  0  0  0  0  0  0  0  0  0
   -3.5978   -3.0005    4.4863 C   0  0  0  0  0  0  0  0  0  0  0  0
   -3.3385   -3.1454    3.0121 C   0  0  0  0  0  0  0  0  0  0  0  0
   -2.4267   -4.0341    2.4994 C   0  0  0  0  0  0  0  0  0  0  0  0
   -2.2254   -4.1365    1.1266 C   0  0  0  0  0  0  0  0  0  0  0  0
   -2.9177   -3.3663    0.2248 C   0  0  0  0  0  0  0  0  0  0  0  0
   -2.6997   -3.4885   -1.1433 O   0  0  0  0  0  0  0  0  0  0  0  0
   -3.8411   -2.4631    0.7340 C   0  0  0  0  0  0  0  0  0  0  0  0
   -4.0414   -2.3620    2.1081 C   0  0  0  0  0  0  0  0  0  0  0  0
   -1.9784   -2.8960   -1.5452 H   0  0  0  0  0  0  0  0  0  0  0  0
   -3.3464   -6.2238    9.4038 C   0  0  0  0  0  0  0  0  0  0  0  0
   -2.6237   -5.0794    9.9943 C   0  0  0  0  0  0  0  0  0  0  0  0
   -1.6307   -5.7007   11.0243 C   0  0  0  0  0  0  0  0  0  0  0  0
   -3.4320   -4.1214   10.8285 C   0  0  0  0  0  0  0  0  0  0  0  0
   -7.8725   -8.3635    6.3372 C   0  0  0  0  0  0  0  0  0  0  0  0
   -6.7937   -8.1266    5.3405 C   0  0  0  0  0  0  0  0  0  0  0  0
   -7.1259   -6.7814    4.6569 C   0  0  0  0  0  0  0  0  0  0  0  0
   -6.7970   -9.1696    4.2378 C   0  0  0  0  0  0  0  0  0  0  0  0
 12 13  2  0  0  0
 13 14  1  0  0  0
 14 11  1  0  0  0
 11 19  1  0  0  0
 19 20  1  0  0  0
 20 21  2  0  0  0
 21 22  1  0  0  0
 22 23  2  0  0  0
 23 24  1  0  0  0
 24 25  2  0  0  0
 11  7  1  0  0  0
  7  8  2  0  0  0
  7  9  1  0  0  0
  9  6  1  0  0  0
  6 26  1  0  0  0
 26 27  1  0  0  0
 27 28  2  0  0  0
 28 29  1  0  0  0
 29 30  2  0  0  0
 30 31  1  0  0  0
 31 32  2  0  0  0
  6  2  1  0  0  0
  2  3  2  0  0  0
  2  4  1  0  0  0
  4  1  1  0  0  0
  1 60  1  0  0  0
 60 61  1  0  0  0
 61 62  1  0  0  0
 61 63  1  0  0  0
  1 33  1  0  0  0
 33 34  2  0  0  0
 33 35  1  0  0  0
 35 37  1  0  0  0
 37 56  1  0  0  0
 56 57  1  0  0  0
 57 58  1  0  0  0
 57 59  1  0  0  0
 37 38  1  0  0  0
 38 39  2  0  0  0
 38 40  1  0  0  0
 40 42  1  0  0  0
 42 47  1  0  0  0
 47 48  1  0  0  0
 48 49  2  0  0  0
 49 50  1  0  0  0
 50 51  2  0  0  0
 51 52  1  0  0  0
 51 53  1  0  0  0
 53 54  2  0  0  0
 42 43  1  0  0  0
 43 44  1  0  0  0
 43 45  2  0  0  0
 13 15  1  0  0  0
 25 20  1  0  0  0
 32 27  1  0  0  0
 54 48  1  0  0  0
 14 16  1  0  0  0
  9 10  1  0  0  0
  4  5  1  0  0  0
 35 36  1  0  0  0
 40 41  1  0  0  0
 52 55  1  0  0  0
 44 46  1  0  0  0
 15 17  1  0  0  0
 15 18  1  0  0  0
M  END
> <minimizedAffinity>
-1.91793

> <CNNscore>
0.3496087193

> <CNNaffinity>
7.5323152542

> <CNN_VS>
2.6333630085

> <CNNaffinity_variance>
0.5948796272

$$$$
[H]OC(=O)[C@@]([H])(N([H])C(=O)[C@@]([H])(N([H])C(=O)[C@@]([H])(N([H])C(=O)[C@@]([H])(N([H])C(=O)[C@@]([H])(N([H])C(=O)N([H])[H])C([H])([H])c1c([H])c([H])c([H])c([H])c1[H])C([H])([H])c1c([H])c([H])c([H])c([H])c1[H])C([H])([H])C([H])(C([H])([H])[H])C([H])([H])[H])C([H])([H])C([H])(C([H])([H])[H])C([H])([H])[H])C([H])([H])c1c([H])c([H])c(O[H])c([H])c1[H]


 63 65  0  0  0  0  0  0  0  0999 V2000
   -6.5448   -8.0693    7.9260 C   0  0  0  0  0  0  0  0  0  0  0  0
   -9.0673   -8.2619    8.1003 C   0  0  0  0  0  0  0  0  0  0  0  0
   -8.9418   -9.5377    7.9470 O   0  0  0  0  0  0  0  0  0  0  0  0
   -7.9117   -7.4605    8.1027 N   0  0  0  0  0  0  0  0  0  0  0  0
   -7.9843   -6.4405    8.2307 H   0  0  0  0  0  0  0  0  0  0  0  0
  -10.4315   -7.7855    8.2646 C   0  0  0  0  0  0  0  0  0  0  0  0
  -12.6061   -8.0600    6.9991 C   0  0  0  0  0  0  0  0  0  0  0  0
  -12.7520   -6.7835    6.9980 O   0  0  0  0  0  0  0  0  0  0  0  0
  -11.4549   -8.5534    7.6239 N   0  0  0  0  0  0  0  0  0  0  0  0
  -11.3320   -9.6214    7.6391 H   0  0  0  0  0  0  0  0  0  0  0  0
  -13.6108   -8.9458    6.3808 C   0  0  0  0  0  0  0  0  0  0  0  0
  -14.3984   -8.8904    9.1378 O   0  0  0  0  0  0  0  0  0  0  0  0
  -15.3145   -8.6928    8.2215 C   0  0  0  0  0  0  0  0  0  0  0  0
  -14.9534   -8.7221    6.9057 N   0  0  0  0  0  0  0  0  0  0  0  0
  -16.5917   -8.4629    8.7534 N   0  0  0  0  0  0  0  0  0  0  0  0
  -15.7050   -8.5826    6.1632 H   0  0  0  0  0  0  0  0  0  0  0  0
  -17.4258   -8.7663    8.2184 H   0  0  0  0  0  0  0  0  0  0  0  0
  -16.7139   -7.9947    9.6650 H   0  0  0  0  0  0  0  0  0  0  0  0
  -13.6250   -8.7828    4.8748 C   0  0  0  0  0  0  0  0  0  0  0  0
  -14.9002   -8.1649    4.4304 C   0  0  0  0  0  0  0  0  0  0  0  0
  -15.9280   -8.9486    3.9531 C   0  0  0  0  0  0  0  0  0  0  0  0
  -17.0819   -8.3313    3.5695 C   0  0  0  0  0  0  0  0  0  0  0  0
  -17.2359   -6.9390    3.6514 C   0  0  0  0  0  0  0  0  0  0  0  0
  -16.1918   -6.1851    4.1309 C   0  0  0  0  0  0  0  0  0  0  0  0
  -15.0227   -6.7850    4.5222 C   0  0  0  0  0  0  0  0  0  0  0  0
  -10.7367   -7.6202    9.7532 C   0  0  0  0  0  0  0  0  0  0  0  0
  -11.6711   -6.4590    9.9265 C   0  0  0  0  0  0  0  0  0  0  0  0
  -11.1316   -5.2019    9.8234 C   0  0  0  0  0  0  0  0  0  0  0  0
  -11.9138   -4.0887    9.9838 C   0  0  0  0  0  0  0  0  0  0  0  0
  -13.2586   -4.2237   10.2515 C   0  0  0  0  0  0  0  0  0  0  0  0
  -13.8136   -5.5032   10.3576 C   0  0  0  0  0  0  0  0  0  0  0  0
  -13.0049   -6.6000   10.1925 C   0  0  0  0  0  0  0  0  0  0  0  0
   -5.6741   -6.8929    7.6865 C   0  0  0  0  0  0  0  0  0  0  0  0
   -6.3155   -5.8021    7.4153 O   0  0  0  0  0  0  0  0  0  0  0  0
   -4.2603   -6.8410    7.7377 N   0  0  0  0  0  0  0  0  0  0  0  0
   -3.7073   -7.7248    7.9411 H   0  0  0  0  0  0  0  0  0  0  0  0
   -3.5835   -5.5894    7.5428 C   0  0  0  0  0  0  0  0  0  0  0  0
   -3.7284   -4.8458    8.8542 C   0  0  0  0  0  0  0  0  0  0  0  0
   -4.8260   -4.2388    9.0343 O   0  0  0  0  0  0  0  0  0  0  0  0
   -2.7421   -4.7922    9.8494 N   0  0  0  0  0  0  0  0  0  0  0  0
   -1.7921   -5.2669    9.7572 H   0  0  0  0  0  0  0  0  0  0  0  0
   -3.0169   -4.0448   11.0759 C   0  0  0  0  0  0  0  0  0  0  0  0
   -1.9986   -2.9489   11.1615 C   0  0  0  0  0  0  0  0  0  0  0  0
   -1.0745   -2.8683   10.1302 O   0  0  0  0  0  0  0  0  0  0  0  0
   -1.9726   -2.1315   12.1254 O   0  0  0  0  0  0  0  0  0  0  0  0
   -0.8975   -3.6938    9.5516 H   0  0  0  0  0  0  0  0  0  0  0  0
   -2.8786   -4.9600   12.2864 C   0  0  0  0  0  0  0  0  0  0  0  0
   -4.2603   -5.0531   12.8727 C   0  0  0  0  0  0  0  0  0  0  0  0
   -4.6638   -4.3075   13.9521 C   0  0  0  0  0  0  0  0  0  0  0  0
   -5.9554   -4.4240   14.4561 C   0  0  0  0  0  0  0  0  0  0  0  0
   -6.8815   -5.2775   13.9090 C   0  0  0  0  0  0  0  0  0  0  0  0
   -8.1673   -5.3747   14.4299 O   0  0  0  0  0  0  0  0  0  0  0  0
   -6.4820   -6.0374   12.8177 C   0  0  0  0  0  0  0  0  0  0  0  0
   -5.1892   -5.9195   12.3145 C   0  0  0  0  0  0  0  0  0  0  0  0
   -8.3115   -6.0629   15.1638 H   0  0  0  0  0  0  0  0  0  0  0  0
   -4.0301   -4.7646    6.4255 C   0  0  0  0  0  0  0  0  0  0  0  0
   -3.1376   -3.7666    5.8027 C   0  0  0  0  0  0  0  0  0  0  0  0
   -2.8538   -4.3012    4.3652 C   0  0  0  0  0  0  0  0  0  0  0  0
   -1.7610   -3.6211    6.3950 C   0  0  0  0  0  0  0  0  0  0  0  0
   -6.6358   -8.9955    6.8037 C   0  0  0  0  0  0  0  0  0  0  0  0
   -6.3741   -8.5238    5.4172 C   0  0  0  0  0  0  0  0  0  0  0  0
   -4.8515   -8.2784    5.3253 C   0  0  0  0  0  0  0  0  0  0  0  0
   -7.0324   -7.1854    5.1363 C   0  0  0  0  0  0  0  0  0  0  0  0
 12 13  2  0  0  0
 13 14  1  0  0  0
 14 11  1  0  0  0
 11 19  1  0  0  0
 19 20  1  0  0  0
 20 21  2  0  0  0
 21 22  1  0  0  0
 22 23  2  0  0  0
 23 24  1  0  0  0
 24 25  2  0  0  0
 11  7  1  0  0  0
  7  8  2  0  0  0
  7  9  1  0  0  0
  9  6  1  0  0  0
  6 26  1  0  0  0
 26 27  1  0  0  0
 27 28  2  0  0  0
 28 29  1  0  0  0
 29 30  2  0  0  0
 30 31  1  0  0  0
 31 32  2  0  0  0
  6  2  1  0  0  0
  2  3  2  0  0  0
  2  4  1  0  0  0
  4  1  1  0  0  0
  1 60  1  0  0  0
 60 61  1  0  0  0
 61 62  1  0  0  0
 61 63  1  0  0  0
  1 33  1  0  0  0
 33 34  2  0  0  0
 33 35  1  0  0  0
 35 37  1  0  0  0
 37 56  1  0  0  0
 56 57  1  0  0  0
 57 58  1  0  0  0
 57 59  1  0  0  0
 37 38  1  0  0  0
 38 39  2  0  0  0
 38 40  1  0  0  0
 40 42  1  0  0  0
 42 47  1  0  0  0
 47 48  1  0  0  0
 48 49  2  0  0  0
 49 50  1  0  0  0
 50 51  2  0  0  0
 51 52  1  0  0  0
 51 53  1  0  0  0
 53 54  2  0  0  0
 42 43  1  0  0  0
 43 44  1  0  0  0
 43 45  2  0  0  0
 13 15  1  0  0  0
 25 20  1  0  0  0
 32 27  1  0  0  0
 54 48  1  0  0  0
 14 16  1  0  0  0
  9 10  1  0  0  0
  4  5  1  0  0  0
 35 36  1  0  0  0
 40 41  1  0  0  0
 52 55  1  0  0  0
 44 46  1  0  0  0
 15 17  1  0  0  0
 15 18  1  0  0  0
M  END
> <minimizedAffinity>
-5.10538

> <CNNscore>
0.3308445215

> <CNNaffinity>
7.6439847946

> <CNN_VS>
2.5289704800

> <CNNaffinity_variance>
0.1915181875

$$$$
[H]OC(=O)[C@@]([H])(N([H])C(=O)[C@@]([H])(N([H])C(=O)[C@@]([H])(N([H])C(=O)[C@@]([H])(N([H])C(=O)[C@@]([H])(N([H])C(=O)N([H])[H])C([H])([H])c1c([H])c([H])c([H])c([H])c1[H])C([H])([H])c1c([H])c([H])c([H])c([H])c1[H])C([H])([H])C([H])(C([H])([H])[H])C([H])([H])[H])C([H])([H])C([H])(C([H])([H])[H])C([H])([H])[H])C([H])([H])c1c([H])c([H])c(O[H])c([H])c1[H]


 63 65  0  0  0  0  0  0  0  0999 V2000
  -11.2165   -9.6205    6.9744 C   0  0  0  0  0  0  0  0  0  0  0  0
   -9.7065   -7.6482    7.4848 C   0  0  0  0  0  0  0  0  0  0  0  0
   -9.1249   -7.8492    6.3499 O   0  0  0  0  0  0  0  0  0  0  0  0
  -10.7640   -8.4933    7.8659 N   0  0  0  0  0  0  0  0  0  0  0  0
  -11.2495   -8.3493    8.7635 H   0  0  0  0  0  0  0  0  0  0  0  0
   -9.1897   -6.5320    8.2606 C   0  0  0  0  0  0  0  0  0  0  0  0
   -6.6714   -6.7558    8.1425 C   0  0  0  0  0  0  0  0  0  0  0  0
   -6.7604   -7.9098    8.7002 O   0  0  0  0  0  0  0  0  0  0  0  0
   -7.8757   -6.0770    7.9229 N   0  0  0  0  0  0  0  0  0  0  0  0
   -7.8081   -5.1056    7.4673 H   0  0  0  0  0  0  0  0  0  0  0  0
   -5.3633   -6.1850    7.7686 C   0  0  0  0  0  0  0  0  0  0  0  0
   -3.2027   -5.6626    5.9567 O   0  0  0  0  0  0  0  0  0  0  0  0
   -4.3868   -5.1762    5.6750 C   0  0  0  0  0  0  0  0  0  0  0  0
   -5.4219   -5.4132    6.5322 N   0  0  0  0  0  0  0  0  0  0  0  0
   -4.4191   -4.4540    4.4731 N   0  0  0  0  0  0  0  0  0  0  0  0
   -6.3780   -4.9977    6.3106 H   0  0  0  0  0  0  0  0  0  0  0  0
   -5.0787   -3.6607    4.3760 H   0  0  0  0  0  0  0  0  0  0  0  0
   -3.8005   -4.7015    3.6850 H   0  0  0  0  0  0  0  0  0  0  0  0
   -4.8130   -5.3151    8.8800 C   0  0  0  0  0  0  0  0  0  0  0  0
   -3.5013   -5.8333    9.3453 C   0  0  0  0  0  0  0  0  0  0  0  0
   -2.9035   -6.8977    8.7065 C   0  0  0  0  0  0  0  0  0  0  0  0
   -1.6935   -7.3261    9.1670 C   0  0  0  0  0  0  0  0  0  0  0  0
   -1.0605   -6.7126   10.2587 C   0  0  0  0  0  0  0  0  0  0  0  0
   -1.6833   -5.6539   10.8750 C   0  0  0  0  0  0  0  0  0  0  0  0
   -2.9001   -5.2067   10.4286 C   0  0  0  0  0  0  0  0  0  0  0  0
  -10.1872   -5.3747    8.2135 C   0  0  0  0  0  0  0  0  0  0  0  0
  -11.0460   -5.4297    9.4427 C   0  0  0  0  0  0  0  0  0  0  0  0
  -10.4799   -5.9527   10.5776 C   0  0  0  0  0  0  0  0  0  0  0  0
  -11.2011   -6.0523   11.7382 C   0  0  0  0  0  0  0  0  0  0  0  0
  -12.5103   -5.6246   11.7751 C   0  0  0  0  0  0  0  0  0  0  0  0
  -13.0922   -5.0907   10.6207 C   0  0  0  0  0  0  0  0  0  0  0  0
  -12.3449   -5.0038    9.4725 C   0  0  0  0  0  0  0  0  0  0  0  0
  -12.6729   -9.7048    7.2411 C   0  0  0  0  0  0  0  0  0  0  0  0
  -13.1655  -10.8968    7.1352 O   0  0  0  0  0  0  0  0  0  0  0  0
  -13.5465   -8.6510    7.6023 N   0  0  0  0  0  0  0  0  0  0  0  0
  -13.1730   -7.6597    7.6798 H   0  0  0  0  0  0  0  0  0  0  0  0
  -14.9252   -8.9323    7.8897 C   0  0  0  0  0  0  0  0  0  0  0  0
  -15.7189   -8.1040    6.9010 C   0  0  0  0  0  0  0  0  0  0  0  0
  -15.6815   -6.8483    7.0666 O   0  0  0  0  0  0  0  0  0  0  0  0
  -16.4726   -8.6357    5.8448 N   0  0  0  0  0  0  0  0  0  0  0  0
  -16.5594   -9.6814    5.6569 H   0  0  0  0  0  0  0  0  0  0  0  0
  -17.1849   -7.7196    4.9550 C   0  0  0  0  0  0  0  0  0  0  0  0
  -18.4471   -8.4080    4.5327 C   0  0  0  0  0  0  0  0  0  0  0  0
  -18.9103   -9.4277    5.3509 O   0  0  0  0  0  0  0  0  0  0  0  0
  -19.0680   -8.0836    3.4804 O   0  0  0  0  0  0  0  0  0  0  0  0
  -18.2592   -9.8901    5.9912 H   0  0  0  0  0  0  0  0  0  0  0  0
  -16.3356   -7.4208    3.7257 C   0  0  0  0  0  0  0  0  0  0  0  0
  -15.7770   -6.0436    3.9550 C   0  0  0  0  0  0  0  0  0  0  0  0
  -16.5646   -4.9215    4.0228 C   0  0  0  0  0  0  0  0  0  0  0  0
  -16.0022   -3.6681    4.2427 C   0  0  0  0  0  0  0  0  0  0  0  0
  -14.6500   -3.4891    4.4018 C   0  0  0  0  0  0  0  0  0  0  0  0
  -14.1120   -2.2258    4.6223 O   0  0  0  0  0  0  0  0  0  0  0  0
  -13.8448   -4.6182    4.3331 C   0  0  0  0  0  0  0  0  0  0  0  0
  -14.4093   -5.8717    4.1131 C   0  0  0  0  0  0  0  0  0  0  0  0
  -13.8496   -1.6914    3.7986 H   0  0  0  0  0  0  0  0  0  0  0  0
  -15.3781   -8.6875    9.2546 C   0  0  0  0  0  0  0  0  0  0  0  0
  -14.4938   -8.0591   10.2563 C   0  0  0  0  0  0  0  0  0  0  0  0
  -13.2007   -8.9311   10.2758 C   0  0  0  0  0  0  0  0  0  0  0  0
  -14.9556   -8.0942   11.6890 C   0  0  0  0  0  0  0  0  0  0  0  0
  -10.4581  -10.8019    7.3676 C   0  0  0  0  0  0  0  0  0  0  0  0
   -9.2652  -11.2238    6.5850 C   0  0  0  0  0  0  0  0  0  0  0  0
   -8.0428  -10.5926    7.2882 C   0  0  0  0  0  0  0  0  0  0  0  0
   -9.2777  -10.6579    5.1768 C   0  0  0  0  0  0  0  0  0  0  0  0
 12 13  2  0  0  0
 13 14  1  0  0  0
 14 11  1  0  0  0
 11 19  1  0  0  0
 19 20  1  0  0  0
 20 21  2  0  0  0
 21 22  1  0  0  0
 22 23  2  0  0  0
 23 24  1  0  0  0
 24 25  2  0  0  0
 11  7  1  0  0  0
  7  8  2  0  0  0
  7  9  1  0  0  0
  9  6  1  0  0  0
  6 26  1  0  0  0
 26 27  1  0  0  0
 27 28  2  0  0  0
 28 29  1  0  0  0
 29 30  2  0  0  0
 30 31  1  0  0  0
 31 32  2  0  0  0
  6  2  1  0  0  0
  2  3  2  0  0  0
  2  4  1  0  0  0
  4  1  1  0  0  0
  1 60  1  0  0  0
 60 61  1  0  0  0
 61 62  1  0  0  0
 61 63  1  0  0  0
  1 33  1  0  0  0
 33 34  2  0  0  0
 33 35  1  0  0  0
 35 37  1  0  0  0
 37 56  1  0  0  0
 56 57  1  0  0  0
 57 58  1  0  0  0
 57 59  1  0  0  0
 37 38  1  0  0  0
 38 39  2  0  0  0
 38 40  1  0  0  0
 40 42  1  0  0  0
 42 47  1  0  0  0
 47 48  1  0  0  0
 48 49  2  0  0  0
 49 50  1  0  0  0
 50 51  2  0  0  0
 51 52  1  0  0  0
 51 53  1  0  0  0
 53 54  2  0  0  0
 42 43  1  0  0  0
 43 44  1  0  0  0
 43 45  2  0  0  0
 13 15  1  0  0  0
 25 20  1  0  0  0
 32 27  1  0  0  0
 54 48  1  0  0  0
 14 16  1  0  0  0
  9 10  1  0  0  0
  4  5  1  0  0  0
 35 36  1  0  0  0
 40 41  1  0  0  0
 52 55  1  0  0  0
 44 46  1  0  0  0
 15 17  1  0  0  0
 15 18  1  0  0  0
M  END
> <minimizedAffinity>
0.20429

> <CNNscore>
0.3295215368

> <CNNaffinity>
7.5660066605

> <CNN_VS>
2.4931621552

> <CNNaffinity_variance>
0.2965958714

$$$$
[H]OC(=O)[C@@]([H])(N([H])C(=O)[C@@]([H])(N([H])C(=O)[C@@]([H])(N([H])C(=O)[C@@]([H])(N([H])C(=O)[C@@]([H])(N([H])C(=O)N([H])[H])C([H])([H])c1c([H])c([H])c([H])c([H])c1[H])C([H])([H])c1c([H])c([H])c([H])c([H])c1[H])C([H])([H])C([H])(C([H])([H])[H])C([H])([H])[H])C([H])([H])C([H])(C([H])([H])[H])C([H])([H])[H])C([H])([H])c1c([H])c([H])c(O[H])c([H])c1[H]


 63 65  0  0  0  0  0  0  0  0999 V2000
   -7.0204   -9.0442    7.3305 C   0  0  0  0  0  0  0  0  0  0  0  0
   -9.5068   -8.6763    7.6658 C   0  0  0  0  0  0  0  0  0  0  0  0
   -9.6619   -9.9575    7.6310 O   0  0  0  0  0  0  0  0  0  0  0  0
   -8.2129   -8.1440    7.5243 N   0  0  0  0  0  0  0  0  0  0  0  0
   -8.0615   -7.1251    7.5559 H   0  0  0  0  0  0  0  0  0  0  0  0
  -10.7253   -7.9064    7.8600 C   0  0  0  0  0  0  0  0  0  0  0  0
  -12.9373   -7.4696    6.7101 C   0  0  0  0  0  0  0  0  0  0  0  0
  -12.9205   -6.2671    7.1623 O   0  0  0  0  0  0  0  0  0  0  0  0
  -11.8478   -8.2782    7.0542 N   0  0  0  0  0  0  0  0  0  0  0  0
  -11.8607   -9.2894    6.6891 H   0  0  0  0  0  0  0  0  0  0  0  0
  -14.0558   -7.9610    5.8830 C   0  0  0  0  0  0  0  0  0  0  0  0
  -14.5296   -8.9712    8.5249 O   0  0  0  0  0  0  0  0  0  0  0  0
  -15.5350   -8.4501    7.8648 C   0  0  0  0  0  0  0  0  0  0  0  0
  -15.3236   -7.9709    6.6046 N   0  0  0  0  0  0  0  0  0  0  0  0
  -16.7369   -8.4562    8.5876 N   0  0  0  0  0  0  0  0  0  0  0  0
  -16.1481   -7.5678    6.0630 H   0  0  0  0  0  0  0  0  0  0  0  0
  -17.6347   -8.5427    8.0774 H   0  0  0  0  0  0  0  0  0  0  0  0
  -16.7415   -8.3728    9.6162 H   0  0  0  0  0  0  0  0  0  0  0  0
  -14.2008   -7.1361    4.6208 C   0  0  0  0  0  0  0  0  0  0  0  0
  -15.6062   -6.6868    4.4515 C   0  0  0  0  0  0  0  0  0  0  0  0
  -16.0122   -5.4626    4.9360 C   0  0  0  0  0  0  0  0  0  0  0  0
  -17.3109   -5.0939    4.7430 C   0  0  0  0  0  0  0  0  0  0  0  0
  -18.2216   -5.9245    4.0725 C   0  0  0  0  0  0  0  0  0  0  0  0
  -17.7859   -7.1399    3.6021 C   0  0  0  0  0  0  0  0  0  0  0  0
  -16.4844   -7.5307    3.7850 C   0  0  0  0  0  0  0  0  0  0  0  0
  -11.1015   -7.9148    9.3415 C   0  0  0  0  0  0  0  0  0  0  0  0
  -11.6427   -6.5642    9.7079 C   0  0  0  0  0  0  0  0  0  0  0  0
  -12.9062   -6.5206   10.2404 C   0  0  0  0  0  0  0  0  0  0  0  0
  -13.4792   -5.3256   10.5875 C   0  0  0  0  0  0  0  0  0  0  0  0
  -12.7858   -4.1493   10.4035 C   0  0  0  0  0  0  0  0  0  0  0  0
  -11.4973   -4.1882    9.8610 C   0  0  0  0  0  0  0  0  0  0  0  0
  -10.9493   -5.4004    9.5224 C   0  0  0  0  0  0  0  0  0  0  0  0
   -5.9296   -8.0993    6.9887 C   0  0  0  0  0  0  0  0  0  0  0  0
   -4.7809   -8.6612    6.7907 O   0  0  0  0  0  0  0  0  0  0  0  0
   -6.0185   -6.6935    6.8474 N   0  0  0  0  0  0  0  0  0  0  0  0
   -6.9450   -6.2037    7.0208 H   0  0  0  0  0  0  0  0  0  0  0  0
   -4.8639   -5.9414    6.4428 C   0  0  0  0  0  0  0  0  0  0  0  0
   -4.0820   -5.6898    7.7152 C   0  0  0  0  0  0  0  0  0  0  0  0
   -4.7564   -5.6504    8.7872 O   0  0  0  0  0  0  0  0  0  0  0  0
   -2.6936   -5.5015    7.7695 N   0  0  0  0  0  0  0  0  0  0  0  0
   -2.0684   -5.5078    6.9061 H   0  0  0  0  0  0  0  0  0  0  0  0
   -2.0621   -5.2773    9.0692 C   0  0  0  0  0  0  0  0  0  0  0  0
   -1.7720   -6.6250    9.6565 C   0  0  0  0  0  0  0  0  0  0  0  0
   -1.6838   -6.7019   11.0387 O   0  0  0  0  0  0  0  0  0  0  0  0
   -1.6115   -7.6505    8.9351 O   0  0  0  0  0  0  0  0  0  0  0  0
   -1.4911   -5.8522   11.5757 H   0  0  0  0  0  0  0  0  0  0  0  0
   -3.0131   -4.5192    9.9873 C   0  0  0  0  0  0  0  0  0  0  0  0
   -2.7500   -3.0637    9.7158 C   0  0  0  0  0  0  0  0  0  0  0  0
   -3.5280   -2.0569   10.2307 C   0  0  0  0  0  0  0  0  0  0  0  0
   -3.2416   -0.7234    9.9560 C   0  0  0  0  0  0  0  0  0  0  0  0
   -2.1815   -0.3486    9.1677 C   0  0  0  0  0  0  0  0  0  0  0  0
   -1.9148    0.9915    8.9092 O   0  0  0  0  0  0  0  0  0  0  0  0
   -1.3897   -1.3602    8.6408 C   0  0  0  0  0  0  0  0  0  0  0  0
   -1.6776   -2.6942    8.9168 C   0  0  0  0  0  0  0  0  0  0  0  0
   -2.3641    1.3970    8.0927 H   0  0  0  0  0  0  0  0  0  0  0  0
   -5.1065   -4.6940    5.7266 C   0  0  0  0  0  0  0  0  0  0  0  0
   -3.9969   -3.9188    5.1363 C   0  0  0  0  0  0  0  0  0  0  0  0
   -4.0656   -2.5138    5.8102 C   0  0  0  0  0  0  0  0  0  0  0  0
   -4.0939   -3.6024    3.6674 C   0  0  0  0  0  0  0  0  0  0  0  0
   -7.3659   -9.9819    6.2688 C   0  0  0  0  0  0  0  0  0  0  0  0
   -7.7578   -9.4823    4.9233 C   0  0  0  0  0  0  0  0  0  0  0  0
   -8.5296  -10.6351    4.2433 C   0  0  0  0  0  0  0  0  0  0  0  0
   -6.5520   -9.2081    4.0433 C   0  0  0  0  0  0  0  0  0  0  0  0
 12 13  2  0  0  0
 13 14  1  0  0  0
 14 11  1  0  0  0
 11 19  1  0  0  0
 19 20  1  0  0  0
 20 21  2  0  0  0
 21 22  1  0  0  0
 22 23  2  0  0  0
 23 24  1  0  0  0
 24 25  2  0  0  0
 11  7  1  0  0  0
  7  8  2  0  0  0
  7  9  1  0  0  0
  9  6  1  0  0  0
  6 26  1  0  0  0
 26 27  1  0  0  0
 27 28  2  0  0  0
 28 29  1  0  0  0
 29 30  2  0  0  0
 30 31  1  0  0  0
 31 32  2  0  0  0
  6  2  1  0  0  0
  2  3  2  0  0  0
  2  4  1  0  0  0
  4  1  1  0  0  0
  1 60  1  0  0  0
 60 61  1  0  0  0
 61 62  1  0  0  0
 61 63  1  0  0  0
  1 33  1  0  0  0
 33 34  2  0  0  0
 33 35  1  0  0  0
 35 37  1  0  0  0
 37 56  1  0  0  0
 56 57  1  0  0  0
 57 58  1  0  0  0
 57 59  1  0  0  0
 37 38  1  0  0  0
 38 39  2  0  0  0
 38 40  1  0  0  0
 40 42  1  0  0  0
 42 47  1  0  0  0
 47 48  1  0  0  0
 48 49  2  0  0  0
 49 50  1  0  0  0
 50 51  2  0  0  0
 51 52  1  0  0  0
 51 53  1  0  0  0
 53 54  2  0  0  0
 42 43  1  0  0  0
 43 44  1  0  0  0
 43 45  2  0  0  0
 13 15  1  0  0  0
 25 20  1  0  0  0
 32 27  1  0  0  0
 54 48  1  0  0  0
 14 16  1  0  0  0
  9 10  1  0  0  0
  4  5  1  0  0  0
 35 36  1  0  0  0
 40 41  1  0  0  0
 52 55  1  0  0  0
 44 46  1  0  0  0
 15 17  1  0  0  0
 15 18  1  0  0  0
M  END
> <minimizedAffinity>
-1.78335

> <CNNscore>
0.3279934824

> <CNNaffinity>
7.6811780930

> <CNN_VS>
2.5193762779

> <CNNaffinity_variance>
0.6423648000

$$$$
[H]OC(=O)[C@@]([H])(N([H])C(=O)[C@@]([H])(N([H])C(=O)[C@@]([H])(N([H])C(=O)[C@@]([H])(N([H])C(=O)[C@@]([H])(N([H])C(=O)N([H])[H])C([H])([H])c1c([H])c([H])c([H])c([H])c1[H])C([H])([H])c1c([H])c([H])c([H])c([H])c1[H])C([H])([H])C([H])(C([H])([H])[H])C([H])([H])[H])C([H])([H])C([H])(C([H])([H])[H])C([H])([H])[H])C([H])([H])c1c([H])c([H])c(O[H])c([H])c1[H]


 63 65  0  0  0  0  0  0  0  0999 V2000
   -6.8704   -8.2144    7.2910 C   0  0  0  0  0  0  0  0  0  0  0  0
   -9.3889   -8.4290    7.4942 C   0  0  0  0  0  0  0  0  0  0  0  0
   -9.2871   -9.6235    7.0153 O   0  0  0  0  0  0  0  0  0  0  0  0
   -8.2221   -7.6624    7.6632 N   0  0  0  0  0  0  0  0  0  0  0  0
   -8.2757   -6.7089    8.0504 H   0  0  0  0  0  0  0  0  0  0  0  0
  -10.7403   -8.0017    7.8204 C   0  0  0  0  0  0  0  0  0  0  0  0
  -12.9539   -8.1457    6.6019 C   0  0  0  0  0  0  0  0  0  0  0  0
  -13.0584   -6.8668    6.6667 O   0  0  0  0  0  0  0  0  0  0  0  0
  -11.8038   -8.7049    7.1709 N   0  0  0  0  0  0  0  0  0  0  0  0
  -11.7152   -9.7757    7.1309 H   0  0  0  0  0  0  0  0  0  0  0  0
  -14.0021   -8.9683    5.9685 C   0  0  0  0  0  0  0  0  0  0  0  0
  -14.5039   -8.7457    8.7833 O   0  0  0  0  0  0  0  0  0  0  0  0
  -15.5242   -8.7111    7.9614 C   0  0  0  0  0  0  0  0  0  0  0  0
  -15.2991   -8.8215    6.6199 N   0  0  0  0  0  0  0  0  0  0  0  0
  -16.7565   -8.5518    8.6120 N   0  0  0  0  0  0  0  0  0  0  0  0
  -16.1331   -8.8148    5.9565 H   0  0  0  0  0  0  0  0  0  0  0  0
  -17.6071   -8.9740    8.1972 H   0  0  0  0  0  0  0  0  0  0  0  0
  -16.8299   -8.0194    9.4931 H   0  0  0  0  0  0  0  0  0  0  0  0
  -14.1371   -8.6366    4.4966 C   0  0  0  0  0  0  0  0  0  0  0  0
  -15.3574   -7.8251    4.2559 C   0  0  0  0  0  0  0  0  0  0  0  0
  -15.3050   -6.4495    4.3133 C   0  0  0  0  0  0  0  0  0  0  0  0
  -16.4521   -5.7524    4.0724 C   0  0  0  0  0  0  0  0  0  0  0  0
  -17.6601   -6.4005    3.7732 C   0  0  0  0  0  0  0  0  0  0  0  0
  -17.6796   -7.7737    3.7246 C   0  0  0  0  0  0  0  0  0  0  0  0
  -16.5380   -8.4946    3.9634 C   0  0  0  0  0  0  0  0  0  0  0  0
  -10.9288   -8.0249    9.3372 C   0  0  0  0  0  0  0  0  0  0  0  0
  -11.6339   -6.7675    9.7533 C   0  0  0  0  0  0  0  0  0  0  0  0
  -10.9703   -5.5835    9.5537 C   0  0  0  0  0  0  0  0  0  0  0  0
  -11.5383   -4.3918    9.9201 C   0  0  0  0  0  0  0  0  0  0  0  0
  -12.7898   -4.3728   10.4960 C   0  0  0  0  0  0  0  0  0  0  0  0
  -13.4706   -5.5771   10.7017 C   0  0  0  0  0  0  0  0  0  0  0  0
  -12.8761   -6.7556   10.3247 C   0  0  0  0  0  0  0  0  0  0  0  0
   -5.9255   -7.2647    7.9273 C   0  0  0  0  0  0  0  0  0  0  0  0
   -6.4439   -6.5522    8.8750 O   0  0  0  0  0  0  0  0  0  0  0  0
   -4.5559   -7.0759    7.6228 N   0  0  0  0  0  0  0  0  0  0  0  0
   -4.1083   -7.6348    6.8382 H   0  0  0  0  0  0  0  0  0  0  0  0
   -3.7730   -6.1516    8.3945 C   0  0  0  0  0  0  0  0  0  0  0  0
   -3.1750   -5.1923    7.3867 C   0  0  0  0  0  0  0  0  0  0  0  0
   -2.0893   -5.5564    6.8443 O   0  0  0  0  0  0  0  0  0  0  0  0
   -3.7398   -3.9584    7.0335 N   0  0  0  0  0  0  0  0  0  0  0  0
   -4.6420   -3.5845    7.4607 H   0  0  0  0  0  0  0  0  0  0  0  0
   -3.0620   -3.1318    6.0356 C   0  0  0  0  0  0  0  0  0  0  0  0
   -2.6910   -1.8450    6.7079 C   0  0  0  0  0  0  0  0  0  0  0  0
   -3.2853   -1.5827    7.9334 O   0  0  0  0  0  0  0  0  0  0  0  0
   -1.8768   -1.0283    6.1902 O   0  0  0  0  0  0  0  0  0  0  0  0
   -4.1549   -2.0626    8.1806 H   0  0  0  0  0  0  0  0  0  0  0  0
   -4.0025   -2.8422    4.8723 C   0  0  0  0  0  0  0  0  0  0  0  0
   -3.2791   -3.3291    3.6471 C   0  0  0  0  0  0  0  0  0  0  0  0
   -2.3665   -4.3540    3.6783 C   0  0  0  0  0  0  0  0  0  0  0  0
   -1.7262   -4.7738    2.5166 C   0  0  0  0  0  0  0  0  0  0  0  0
   -1.9692   -4.1948    1.2955 C   0  0  0  0  0  0  0  0  0  0  0  0
   -1.3175   -4.6335    0.1480 O   0  0  0  0  0  0  0  0  0  0  0  0
   -2.8896   -3.1559    1.2541 C   0  0  0  0  0  0  0  0  0  0  0  0
   -3.5296   -2.7372    2.4175 C   0  0  0  0  0  0  0  0  0  0  0  0
   -0.4343   -4.1830   -0.0757 H   0  0  0  0  0  0  0  0  0  0  0  0
   -2.7370   -6.7186    9.2507 C   0  0  0  0  0  0  0  0  0  0  0  0
   -1.9730   -5.8763   10.1928 C   0  0  0  0  0  0  0  0  0  0  0  0
   -1.0607   -6.8614   10.9865 C   0  0  0  0  0  0  0  0  0  0  0  0
   -2.7570   -5.1832   11.2754 C   0  0  0  0  0  0  0  0  0  0  0  0
   -6.8119   -8.2446    5.8346 C   0  0  0  0  0  0  0  0  0  0  0  0
   -7.0529   -7.0055    5.0471 C   0  0  0  0  0  0  0  0  0  0  0  0
   -5.7392   -6.1945    5.1066 C   0  0  0  0  0  0  0  0  0  0  0  0
   -8.1174   -6.1268    5.6781 C   0  0  0  0  0  0  0  0  0  0  0  0
 12 13  2  0  0  0
 13 14  1  0  0  0
 14 11  1  0  0  0
 11 19  1  0  0  0
 19 20  1  0  0  0
 20 21  2  0  0  0
 21 22  1  0  0  0
 22 23  2  0  0  0
 23 24  1  0  0  0
 24 25  2  0  0  0
 11  7  1  0  0  0
  7  8  2  0  0  0
  7  9  1  0  0  0
  9  6  1  0  0  0
  6 26  1  0  0  0
 26 27  1  0  0  0
 27 28  2  0  0  0
 28 29  1  0  0  0
 29 30  2  0  0  0
 30 31  1  0  0  0
 31 32  2  0  0  0
  6  2  1  0  0  0
  2  3  2  0  0  0
  2  4  1  0  0  0
  4  1  1  0  0  0
  1 60  1  0  0  0
 60 61  1  0  0  0
 61 62  1  0  0  0
 61 63  1  0  0  0
  1 33  1  0  0  0
 33 34  2  0  0  0
 33 35  1  0  0  0
 35 37  1  0  0  0
 37 56  1  0  0  0
 56 57  1  0  0  0
 57 58  1  0  0  0
 57 59  1  0  0  0
 37 38  1  0  0  0
 38 39  2  0  0  0
 38 40  1  0  0  0
 40 42  1  0  0  0
 42 47  1  0  0  0
 47 48  1  0  0  0
 48 49  2  0  0  0
 49 50  1  0  0  0
 50 51  2  0  0  0
 51 52  1  0  0  0
 51 53  1  0  0  0
 53 54  2  0  0  0
 42 43  1  0  0  0
 43 44  1  0  0  0
 43 45  2  0  0  0
 13 15  1  0  0  0
 25 20  1  0  0  0
 32 27  1  0  0  0
 54 48  1  0  0  0
 14 16  1  0  0  0
  9 10  1  0  0  0
  4  5  1  0  0  0
 35 36  1  0  0  0
 40 41  1  0  0  0
 52 55  1  0  0  0
 44 46  1  0  0  0
 15 17  1  0  0  0
 15 18  1  0  0  0
M  END
> <minimizedAffinity>
-7.05967

> <CNNscore>
0.2980254889

> <CNNaffinity>
7.5386643410

> <CNN_VS>
2.2467141151

> <CNNaffinity_variance>
0.1786610633

$$$$
[H]OC(=O)[C@@]([H])(N([H])C(=O)[C@@]([H])(N([H])C(=O)[C@@]([H])(N([H])C(=O)[C@@]([H])(N([H])C(=O)[C@@]([H])(N([H])C(=O)N([H])[H])C([H])([H])c1c([H])c([H])c([H])c([H])c1[H])C([H])([H])c1c([H])c([H])c([H])c([H])c1[H])C([H])([H])C([H])(C([H])([H])[H])C([H])([H])[H])C([H])([H])C([H])(C([H])([H])[H])C([H])([H])[H])C([H])([H])c1c([H])c([H])c(O[H])c([H])c1[H]


 63 65  0  0  0  0  0  0  0  0999 V2000
  -11.2431   -9.7131    6.9300 C   0  0  0  0  0  0  0  0  0  0  0  0
   -9.7399   -7.7826    7.5964 C   0  0  0  0  0  0  0  0  0  0  0  0
   -9.3055   -7.7518    6.3810 O   0  0  0  0  0  0  0  0  0  0  0  0
  -10.7125   -8.7360    7.9469 N   0  0  0  0  0  0  0  0  0  0  0  0
  -11.0808   -8.7764    8.9085 H   0  0  0  0  0  0  0  0  0  0  0  0
   -9.1602   -6.7927    8.4904 C   0  0  0  0  0  0  0  0  0  0  0  0
   -6.7037   -7.3837    8.6383 C   0  0  0  0  0  0  0  0  0  0  0  0
   -7.0218   -8.5316    9.1199 O   0  0  0  0  0  0  0  0  0  0  0  0
   -7.7642   -6.5259    8.3244 N   0  0  0  0  0  0  0  0  0  0  0  0
   -7.5053   -5.5590    7.9320 H   0  0  0  0  0  0  0  0  0  0  0  0
   -5.2927   -7.0002    8.4421 C   0  0  0  0  0  0  0  0  0  0  0  0
   -2.5304   -7.7206    8.1677 O   0  0  0  0  0  0  0  0  0  0  0  0
   -3.3584   -8.0377    7.2024 C   0  0  0  0  0  0  0  0  0  0  0  0
   -4.6744   -7.6956    7.3186 N   0  0  0  0  0  0  0  0  0  0  0  0
   -2.7420   -8.7204    6.1436 N   0  0  0  0  0  0  0  0  0  0  0  0
   -5.3402   -7.9360    6.5220 H   0  0  0  0  0  0  0  0  0  0  0  0
   -3.1087   -8.6012    5.1818 H   0  0  0  0  0  0  0  0  0  0  0  0
   -1.9333   -9.3404    6.3072 H   0  0  0  0  0  0  0  0  0  0  0  0
   -5.1592   -5.5044    8.2440 C   0  0  0  0  0  0  0  0  0  0  0  0
   -4.1613   -4.9414    9.1888 C   0  0  0  0  0  0  0  0  0  0  0  0
   -3.0747   -4.2358    8.7200 C   0  0  0  0  0  0  0  0  0  0  0  0
   -2.1952   -3.7301    9.6313 C   0  0  0  0  0  0  0  0  0  0  0  0
   -2.3756   -3.9133   11.0107 C   0  0  0  0  0  0  0  0  0  0  0  0
   -3.4689   -4.6228   11.4464 C   0  0  0  0  0  0  0  0  0  0  0  0
   -4.3659   -5.1400   10.5477 C   0  0  0  0  0  0  0  0  0  0  0  0
   -9.9680   -5.4977    8.4075 C   0  0  0  0  0  0  0  0  0  0  0  0
  -10.9420   -5.4645    9.5484 C   0  0  0  0  0  0  0  0  0  0  0  0
  -10.5177   -5.9790   10.7473 C   0  0  0  0  0  0  0  0  0  0  0  0
  -11.3511   -6.0002   11.8345 C   0  0  0  0  0  0  0  0  0  0  0  0
  -12.6311   -5.5010   11.7319 C   0  0  0  0  0  0  0  0  0  0  0  0
  -13.0685   -4.9753   10.5118 C   0  0  0  0  0  0  0  0  0  0  0  0
  -12.2113   -4.9679    9.4397 C   0  0  0  0  0  0  0  0  0  0  0  0
  -12.6954   -9.7616    7.2269 C   0  0  0  0  0  0  0  0  0  0  0  0
  -13.1960  -10.9548    7.2425 O   0  0  0  0  0  0  0  0  0  0  0  0
  -13.5571   -8.6723    7.5004 N   0  0  0  0  0  0  0  0  0  0  0  0
  -13.1771   -7.6807    7.4774 H   0  0  0  0  0  0  0  0  0  0  0  0
  -14.9324   -8.9155    7.8352 C   0  0  0  0  0  0  0  0  0  0  0  0
  -15.7365   -8.0671    6.8723 C   0  0  0  0  0  0  0  0  0  0  0  0
  -15.6637   -6.8129    7.0374 O   0  0  0  0  0  0  0  0  0  0  0  0
  -16.5355   -8.5791    5.8400 N   0  0  0  0  0  0  0  0  0  0  0  0
  -16.6532   -9.6222    5.6543 H   0  0  0  0  0  0  0  0  0  0  0  0
  -17.2531   -7.6450    4.9735 C   0  0  0  0  0  0  0  0  0  0  0  0
  -18.5385   -8.3073    4.5805 C   0  0  0  0  0  0  0  0  0  0  0  0
  -19.2241   -7.7599    3.5061 O   0  0  0  0  0  0  0  0  0  0  0  0
  -18.9874   -9.3174    5.1939 O   0  0  0  0  0  0  0  0  0  0  0  0
  -19.0394   -6.7899    3.2366 H   0  0  0  0  0  0  0  0  0  0  0  0
  -16.4303   -7.3554    3.7241 C   0  0  0  0  0  0  0  0  0  0  0  0
  -15.7813   -6.0227    3.9770 C   0  0  0  0  0  0  0  0  0  0  0  0
  -14.4199   -5.8494    4.0022 C   0  0  0  0  0  0  0  0  0  0  0  0
  -13.8653   -4.5948    4.2346 C   0  0  0  0  0  0  0  0  0  0  0  0
  -14.6379   -3.4797    4.4474 C   0  0  0  0  0  0  0  0  0  0  0  0
  -14.0596   -2.2358    4.6759 O   0  0  0  0  0  0  0  0  0  0  0  0
  -16.0163   -3.6454    4.4255 C   0  0  0  0  0  0  0  0  0  0  0  0
  -16.5697   -4.9016    4.1927 C   0  0  0  0  0  0  0  0  0  0  0  0
  -13.8604   -1.9959    5.6433 H   0  0  0  0  0  0  0  0  0  0  0  0
  -15.3316   -8.6568    9.2141 C   0  0  0  0  0  0  0  0  0  0  0  0
  -14.4087   -8.0187   10.1742 C   0  0  0  0  0  0  0  0  0  0  0  0
  -13.1513   -8.9405   10.2188 C   0  0  0  0  0  0  0  0  0  0  0  0
  -14.8511   -7.9683   11.6125 C   0  0  0  0  0  0  0  0  0  0  0  0
  -10.5377  -10.9710    7.1434 C   0  0  0  0  0  0  0  0  0  0  0  0
   -9.2901  -11.2700    6.3899 C   0  0  0  0  0  0  0  0  0  0  0  0
   -8.1388  -10.6141    7.1846 C   0  0  0  0  0  0  0  0  0  0  0  0
   -9.2805  -10.6159    5.0204 C   0  0  0  0  0  0  0  0  0  0  0  0
 12 13  2  0  0  0
 13 14  1  0  0  0
 14 11  1  0  0  0
 11 19  1  0  0  0
 19 20  1  0  0  0
 20 21  2  0  0  0
 21 22  1  0  0  0
 22 23  2  0  0  0
 23 24  1  0  0  0
 24 25  2  0  0  0
 11  7  1  0  0  0
  7  8  2  0  0  0
  7  9  1  0  0  0
  9  6  1  0  0  0
  6 26  1  0  0  0
 26 27  1  0  0  0
 27 28  2  0  0  0
 28 29  1  0  0  0
 29 30  2  0  0  0
 30 31  1  0  0  0
 31 32  2  0  0  0
  6  2  1  0  0  0
  2  3  2  0  0  0
  2  4  1  0  0  0
  4  1  1  0  0  0
  1 60  1  0  0  0
 60 61  1  0  0  0
 61 62  1  0  0  0
 61 63  1  0  0  0
  1 33  1  0  0  0
 33 34  2  0  0  0
 33 35  1  0  0  0
 35 37  1  0  0  0
 37 56  1  0  0  0
 56 57  1  0  0  0
 57 58  1  0  0  0
 57 59  1  0  0  0
 37 38  1  0  0  0
 38 39  2  0  0  0
 38 40  1  0  0  0
 40 42  1  0  0  0
 42 47  1  0  0  0
 47 48  1  0  0  0
 48 49  2  0  0  0
 49 50  1  0  0  0
 50 51  2  0  0  0
 51 52  1  0  0  0
 51 53  1  0  0  0
 53 54  2  0  0  0
 42 43  1  0  0  0
 43 44  1  0  0  0
 43 45  2  0  0  0
 13 15  1  0  0  0
 25 20  1  0  0  0
 32 27  1  0  0  0
 54 48  1  0  0  0
 14 16  1  0  0  0
  9 10  1  0  0  0
  4  5  1  0  0  0
 35 36  1  0  0  0
 40 41  1  0  0  0
 52 55  1  0  0  0
 44 46  1  0  0  0
 15 17  1  0  0  0
 15 18  1  0  0  0
M  END
> <minimizedAffinity>
-0.14378

> <CNNscore>
0.2897356749

> <CNNaffinity>
7.4998235703

> <CNN_VS>
2.1729664803

> <CNNaffinity_variance>
0.2462530136

$$$$
[H]OC(=O)[C@@]([H])(N([H])C(=O)[C@@]([H])(N([H])C(=O)[C@@]([H])(N([H])C(=O)[C@@]([H])(N([H])C(=O)[C@@]([H])(N([H])C(=O)N([H])[H])C([H])([H])c1c([H])c([H])c([H])c([H])c1[H])C([H])([H])c1c([H])c([H])c([H])c([H])c1[H])C([H])([H])C([H])(C([H])([H])[H])C([H])([H])[H])C([H])([H])C([H])(C([H])([H])[H])C([H])([H])[H])C([H])([H])c1c([H])c([H])c(O[H])c([H])c1[H]


 63 65  0  0  0  0  0  0  0  0999 V2000
  -11.6087   -9.2958    6.5192 C   0  0  0  0  0  0  0  0  0  0  0  0
  -10.1033   -8.2139    8.2494 C   0  0  0  0  0  0  0  0  0  0  0  0
   -9.8076   -9.3962    8.6752 O   0  0  0  0  0  0  0  0  0  0  0  0
  -10.9970   -8.0831    7.1715 N   0  0  0  0  0  0  0  0  0  0  0  0
  -11.2435   -7.1508    6.8082 H   0  0  0  0  0  0  0  0  0  0  0  0
   -9.4530   -7.1184    8.9510 C   0  0  0  0  0  0  0  0  0  0  0  0
   -7.3927   -6.6727    7.5502 C   0  0  0  0  0  0  0  0  0  0  0  0
   -8.1451   -6.4852    6.5258 O   0  0  0  0  0  0  0  0  0  0  0  0
   -8.0427   -6.9828    8.7504 N   0  0  0  0  0  0  0  0  0  0  0  0
   -7.4187   -7.1527    9.6093 H   0  0  0  0  0  0  0  0  0  0  0  0
   -5.9241   -6.5735    7.4498 C   0  0  0  0  0  0  0  0  0  0  0  0
   -4.0689   -4.4974    8.1372 O   0  0  0  0  0  0  0  0  0  0  0  0
   -4.4097   -5.3627    9.0608 C   0  0  0  0  0  0  0  0  0  0  0  0
   -5.2876   -6.3587    8.7447 N   0  0  0  0  0  0  0  0  0  0  0  0
   -3.7976   -5.1229   10.2997 N   0  0  0  0  0  0  0  0  0  0  0  0
   -5.5454   -7.0730    9.4924 H   0  0  0  0  0  0  0  0  0  0  0  0
   -3.5830   -5.9230   10.9224 H   0  0  0  0  0  0  0  0  0  0  0  0
   -3.5611   -4.1648   10.6016 H   0  0  0  0  0  0  0  0  0  0  0  0
   -5.3396   -7.8108    6.8001 C   0  0  0  0  0  0  0  0  0  0  0  0
   -3.9105   -7.5937    6.4593 C   0  0  0  0  0  0  0  0  0  0  0  0
   -3.5299   -6.5097    5.6987 C   0  0  0  0  0  0  0  0  0  0  0  0
   -2.2034   -6.3511    5.4249 C   0  0  0  0  0  0  0  0  0  0  0  0
   -1.2397   -7.2556    5.8959 C   0  0  0  0  0  0  0  0  0  0  0  0
   -1.6516   -8.3273    6.6511 C   0  0  0  0  0  0  0  0  0  0  0  0
   -2.9803   -8.5062    6.9385 C   0  0  0  0  0  0  0  0  0  0  0  0
  -10.1702   -5.8086    8.6249 C   0  0  0  0  0  0  0  0  0  0  0  0
  -11.2483   -5.5839    9.6440 C   0  0  0  0  0  0  0  0  0  0  0  0
  -10.8871   -5.6683   10.9648 C   0  0  0  0  0  0  0  0  0  0  0  0
  -11.8147   -5.4912   11.9573 C   0  0  0  0  0  0  0  0  0  0  0  0
  -13.1274   -5.2246   11.6345 C   0  0  0  0  0  0  0  0  0  0  0  0
  -13.5008   -5.1376   10.2895 C   0  0  0  0  0  0  0  0  0  0  0  0
  -12.5495   -5.3201    9.3169 C   0  0  0  0  0  0  0  0  0  0  0  0
  -12.9232   -9.4215    7.1941 C   0  0  0  0  0  0  0  0  0  0  0  0
  -13.1371  -10.5790    7.7318 O   0  0  0  0  0  0  0  0  0  0  0  0
  -13.9276   -8.4317    7.3183 N   0  0  0  0  0  0  0  0  0  0  0  0
  -13.7862   -7.4782    6.8721 H   0  0  0  0  0  0  0  0  0  0  0  0
  -15.1185   -8.7123    8.0705 C   0  0  0  0  0  0  0  0  0  0  0  0
  -16.2618   -8.2029    7.2179 C   0  0  0  0  0  0  0  0  0  0  0  0
  -17.0635   -7.3989    7.7803 O   0  0  0  0  0  0  0  0  0  0  0  0
  -16.4762   -8.5638    5.8800 N   0  0  0  0  0  0  0  0  0  0  0  0
  -15.8503   -9.2453    5.3507 H   0  0  0  0  0  0  0  0  0  0  0  0
  -17.6164   -7.9884    5.1678 C   0  0  0  0  0  0  0  0  0  0  0  0
  -18.6553   -9.0626    5.0585 C   0  0  0  0  0  0  0  0  0  0  0  0
  -18.2074  -10.3419    4.7641 O   0  0  0  0  0  0  0  0  0  0  0  0
  -19.8859   -8.8247    5.2233 O   0  0  0  0  0  0  0  0  0  0  0  0
  -17.2918  -10.4620    4.3226 H   0  0  0  0  0  0  0  0  0  0  0  0
  -17.1921   -7.5507    3.7713 C   0  0  0  0  0  0  0  0  0  0  0  0
  -16.3586   -6.3163    3.9789 C   0  0  0  0  0  0  0  0  0  0  0  0
  -15.0021   -6.3588    4.1841 C   0  0  0  0  0  0  0  0  0  0  0  0
  -14.2718   -5.1886    4.3658 C   0  0  0  0  0  0  0  0  0  0  0  0
  -14.8595   -3.9477    4.3494 C   0  0  0  0  0  0  0  0  0  0  0  0
  -14.1074   -2.7922    4.5318 O   0  0  0  0  0  0  0  0  0  0  0  0
  -16.2318   -3.8947    4.1442 C   0  0  0  0  0  0  0  0  0  0  0  0
  -16.9611   -5.0666    3.9624 C   0  0  0  0  0  0  0  0  0  0  0  0
  -13.9934   -2.4681    5.4883 H   0  0  0  0  0  0  0  0  0  0  0  0
  -15.1915   -8.1629    9.4199 C   0  0  0  0  0  0  0  0  0  0  0  0
  -14.5299   -8.8314   10.5583 C   0  0  0  0  0  0  0  0  0  0  0  0
  -15.1188   -8.1582   11.8361 C   0  0  0  0  0  0  0  0  0  0  0  0
  -13.0472   -8.6152   10.7062 C   0  0  0  0  0  0  0  0  0  0  0  0
  -10.6966  -10.4086    6.7547 C   0  0  0  0  0  0  0  0  0  0  0  0
   -9.6413  -10.7387    5.7593 C   0  0  0  0  0  0  0  0  0  0  0  0
   -9.2129  -12.1941    6.0518 C   0  0  0  0  0  0  0  0  0  0  0  0
   -8.3969   -9.8898    5.9446 C   0  0  0  0  0  0  0  0  0  0  0  0
 12 13  2  0  0  0
 13 14  1  0  0  0
 14 11  1  0  0  0
 11 19  1  0  0  0
 19 20  1  0  0  0
 20 21  2  0  0  0
 21 22  1  0  0  0
 22 23  2  0  0  0
 23 24  1  0  0  0
 24 25  2  0  0  0
 11  7  1  0  0  0
  7  8  2  0  0  0
  7  9  1  0  0  0
  9  6  1  0  0  0
  6 26  1  0  0  0
 26 27  1  0  0  0
 27 28  2  0  0  0
 28 29  1  0  0  0
 29 30  2  0  0  0
 30 31  1  0  0  0
 31 32  2  0  0  0
  6  2  1  0  0  0
  2  3  2  0  0  0
  2  4  1  0  0  0
  4  1  1  0  0  0
  1 60  1  0  0  0
 60 61  1  0  0  0
 61 62  1  0  0  0
 61 63  1  0  0  0
  1 33  1  0  0  0
 33 34  2  0  0  0
 33 35  1  0  0  0
 35 37  1  0  0  0
 37 56  1  0  0  0
 56 57  1  0  0  0
 57 58  1  0  0  0
 57 59  1  0  0  0
 37 38  1  0  0  0
 38 39  2  0  0  0
 38 40  1  0  0  0
 40 42  1  0  0  0
 42 47  1  0  0  0
 47 48  1  0  0  0
 48 49  2  0  0  0
 49 50  1  0  0  0
 50 51  2  0  0  0
 51 52  1  0  0  0
 51 53  1  0  0  0
 53 54  2  0  0  0
 42 43  1  0  0  0
 43 44  1  0  0  0
 43 45  2  0  0  0
 13 15  1  0  0  0
 25 20  1  0  0  0
 32 27  1  0  0  0
 54 48  1  0  0  0
 14 16  1  0  0  0
  9 10  1  0  0  0
  4  5  1  0  0  0
 35 36  1  0  0  0
 40 41  1  0  0  0
 52 55  1  0  0  0
 44 46  1  0  0  0
 15 17  1  0  0  0
 15 18  1  0  0  0
M  END
> <minimizedAffinity>
-0.73812

> <CNNscore>
0.2885514200

> <CNNaffinity>
7.5758666992

> <CNN_VS>
2.1860270500

> <CNNaffinity_variance>
0.2863985598

$$$$
[H]OC(=O)c1c([H])c([H])c2c(=S)n([H])c(=O)n([H])c2c1[H]


 18 19  0  0  0  0  0  0  0  0999 V2000
  -13.5738   -8.5093    8.5391 C   0  0  0  0  0  0  0  0  0  0  0  0
  -12.9864   -8.9126    9.7181 C   0  0  0  0  0  0  0  0  0  0  0  0
  -12.5385   -8.0501   10.6895 C   0  0  0  0  0  0  0  0  0  0  0  0
  -12.6869   -6.6965   10.4692 C   0  0  0  0  0  0  0  0  0  0  0  0
  -13.2680   -6.2306    9.3070 C   0  0  0  0  0  0  0  0  0  0  0  0
  -13.7073   -7.1357    8.3503 C   0  0  0  0  0  0  0  0  0  0  0  0
  -13.3814   -4.9062    9.1567 N   0  0  0  0  0  0  0  0  0  0  0  0
  -12.9626   -4.0132   10.0705 C   0  0  0  0  0  0  0  0  0  0  0  0
  -13.0794   -2.7676    9.9081 O   0  0  0  0  0  0  0  0  0  0  0  0
  -12.3911   -4.4354   11.2158 N   0  0  0  0  0  0  0  0  0  0  0  0
  -12.2573   -5.7610   11.4078 C   0  0  0  0  0  0  0  0  0  0  0  0
  -11.5758   -6.3382   12.7687 S   0  0  0  0  0  0  0  0  0  0  0  0
  -13.8117   -4.5484    8.2967 H   0  0  0  0  0  0  0  0  0  0  0  0
  -12.0676   -3.7276   11.9225 H   0  0  0  0  0  0  0  0  0  0  0  0
  -14.7091   -9.1216    6.4018 O   0  0  0  0  0  0  0  0  0  0  0  0
  -14.0338   -9.4612    7.5370 C   0  0  0  0  0  0  0  0  0  0  0  0
  -13.7877  -10.6775    7.7399 O   0  0  0  0  0  0  0  0  0  0  0  0
  -15.6523   -8.8201    6.3184 H   0  0  0  0  0  0  0  0  0  0  0  0
 15 16  1  0  0  0
 16 17  2  0  0  0
 16  1  1  0  0  0
  1  2  2  0  0  0
  2  3  1  0  0  0
  3  4  2  0  0  0
  4  5  1  0  0  0
  5  6  2  0  0  0
  5  7  1  0  0  0
  7  8  1  0  0  0
  8  9  2  0  0  0
  8 10  1  0  0  0
 10 11  1  0  0  0
 11 12  2  0  0  0
  6  1  1  0  0  0
 11  4  1  0  0  0
 15 18  1  0  0  0
  7 13  1  0  0  0
 10 14  1  0  0  0
M  END
> <minimizedAffinity>
2.04234

> <CNNscore>
0.5519635081

> <CNNaffinity>
4.6245870590

> <CNN_VS>
2.5526032448

> <CNNaffinity_variance>
0.7564859986

$$$$
[H]OC(=O)c1c([H])c([H])c2c(=S)n([H])c(=O)n([H])c2c1[H]


 18 19  0  0  0  0  0  0  0  0999 V2000
   -8.4210   -8.2324    7.3583 C   0  0  0  0  0  0  0  0  0  0  0  0
   -8.8267   -7.0893    8.0113 C   0  0  0  0  0  0  0  0  0  0  0  0
  -10.0942   -6.8930    8.5043 C   0  0  0  0  0  0  0  0  0  0  0  0
  -11.0168   -7.9044    8.3342 C   0  0  0  0  0  0  0  0  0  0  0  0
  -10.6703   -9.0739    7.6880 C   0  0  0  0  0  0  0  0  0  0  0  0
   -9.3785   -9.2323    7.2045 C   0  0  0  0  0  0  0  0  0  0  0  0
  -11.6128  -10.0141    7.5568 N   0  0  0  0  0  0  0  0  0  0  0  0
  -12.8689   -9.8804    8.0176 C   0  0  0  0  0  0  0  0  0  0  0  0
  -13.7425  -10.7805    7.8828 O   0  0  0  0  0  0  0  0  0  0  0  0
  -13.2392   -8.7510    8.6530 N   0  0  0  0  0  0  0  0  0  0  0  0
  -12.3212   -7.7785    8.8067 C   0  0  0  0  0  0  0  0  0  0  0  0
  -12.7024   -6.3893    9.5646 S   0  0  0  0  0  0  0  0  0  0  0  0
  -11.3666  -10.8876    7.0782 H   0  0  0  0  0  0  0  0  0  0  0  0
  -14.2241   -8.6583    9.0087 H   0  0  0  0  0  0  0  0  0  0  0  0
   -6.7567   -8.8085    5.5892 O   0  0  0  0  0  0  0  0  0  0  0  0
   -7.0650   -8.3960    6.8520 C   0  0  0  0  0  0  0  0  0  0  0  0
   -6.1195   -8.1372    7.6395 O   0  0  0  0  0  0  0  0  0  0  0  0
   -6.8396   -9.7220    5.2070 H   0  0  0  0  0  0  0  0  0  0  0  0
 15 16  1  0  0  0
 16 17  2  0  0  0
 16  1  1  0  0  0
  1  2  2  0  0  0
  2  3  1  0  0  0
  3  4  2  0  0  0
  4  5  1  0  0  0
  5  6  2  0  0  0
  5  7  1  0  0  0
  7  8  1  0  0  0
  8  9  2  0  0  0
  8 10  1  0  0  0
 10 11  1  0  0  0
 11 12  2  0  0  0
  6  1  1  0  0  0
 11  4  1  0  0  0
 15 18  1  0  0  0
  7 13  1  0  0  0
 10 14  1  0  0  0
M  END
> <minimizedAffinity>
-7.08776

> <CNNscore>
0.4897479415

> <CNNaffinity>
4.7979383469

> <CNN_VS>
2.3497803211

> <CNNaffinity_variance>
0.1837916672

$$$$
[H]OC(=O)c1c([H])c([H])c2c(=S)n([H])c(=O)n([H])c2c1[H]


 18 19  0  0  0  0  0  0  0  0999 V2000
   -9.4217  -10.3837    6.5731 C   0  0  0  0  0  0  0  0  0  0  0  0
  -10.4920   -9.7891    7.2045 C   0  0  0  0  0  0  0  0  0  0  0  0
  -10.4454   -8.5497    7.7959 C   0  0  0  0  0  0  0  0  0  0  0  0
   -9.2522   -7.8589    7.7540 C   0  0  0  0  0  0  0  0  0  0  0  0
   -8.1440   -8.4020    7.1357 C   0  0  0  0  0  0  0  0  0  0  0  0
   -8.2332   -9.6576    6.5500 C   0  0  0  0  0  0  0  0  0  0  0  0
   -7.0184   -7.6792    7.1310 N   0  0  0  0  0  0  0  0  0  0  0  0
   -6.9112   -6.4621    7.6922 C   0  0  0  0  0  0  0  0  0  0  0  0
   -5.8391   -5.7974    7.6762 O   0  0  0  0  0  0  0  0  0  0  0  0
   -7.9746   -5.9036    8.3037 N   0  0  0  0  0  0  0  0  0  0  0  0
   -9.1279   -6.5972    8.3315 C   0  0  0  0  0  0  0  0  0  0  0  0
  -10.4501   -5.9810    9.0537 S   0  0  0  0  0  0  0  0  0  0  0  0
   -6.1883   -8.0730    6.6743 H   0  0  0  0  0  0  0  0  0  0  0  0
   -7.8783   -4.9515    8.7388 H   0  0  0  0  0  0  0  0  0  0  0  0
   -9.9148  -12.8305    6.6131 O   0  0  0  0  0  0  0  0  0  0  0  0
   -9.5180  -11.7012    5.9593 C   0  0  0  0  0  0  0  0  0  0  0  0
   -9.2126  -11.7956    4.7433 O   0  0  0  0  0  0  0  0  0  0  0  0
   -9.4087  -13.3565    7.2873 H   0  0  0  0  0  0  0  0  0  0  0  0
 15 16  1  0  0  0
 16 17  2  0  0  0
 16  1  1  0  0  0
  1  2  2  0  0  0
  2  3  1  0  0  0
  3  4  2  0  0  0
  4  5  1  0  0  0
  5  6  2  0  0  0
  5  7  1  0  0  0
  7  8  1  0  0  0
  8  9  2  0  0  0
  8 10  1  0  0  0
 10 11  1  0  0  0
 11 12  2  0  0  0
  6  1  1  0  0  0
 11  4  1  0  0  0
 15 18  1  0  0  0
  7 13  1  0  0  0
 10 14  1  0  0  0
M  END
> <minimizedAffinity>
2.63327

> <CNNscore>
0.4703877270

> <CNNaffinity>
4.3718495369

> <CNN_VS>
2.0564644337

> <CNNaffinity_variance>
0.7075816989

$$$$
[H]OC(=O)c1c([H])c([H])c2c(=S)n([H])c(=O)n([H])c2c1[H]


 18 19  0  0  0  0  0  0  0  0999 V2000
  -19.3071   -9.1405    6.2105 C   0  0  0  0  0  0  0  0  0  0  0  0
  -18.9252   -8.9084    4.9074 C   0  0  0  0  0  0  0  0  0  0  0  0
  -17.7327   -8.3293    4.5462 C   0  0  0  0  0  0  0  0  0  0  0  0
  -16.8647   -7.9577    5.5519 C   0  0  0  0  0  0  0  0  0  0  0  0
  -17.1909   -8.1641    6.8771 C   0  0  0  0  0  0  0  0  0  0  0  0
  -18.4064   -8.7525    7.1997 C   0  0  0  0  0  0  0  0  0  0  0  0
  -16.3043   -7.7804    7.8024 N   0  0  0  0  0  0  0  0  0  0  0  0
  -15.1224   -7.2091    7.5113 C   0  0  0  0  0  0  0  0  0  0  0  0
  -14.3006   -6.8546    8.4003 O   0  0  0  0  0  0  0  0  0  0  0  0
  -14.7738   -6.9937    6.2273 N   0  0  0  0  0  0  0  0  0  0  0  0
  -15.6374   -7.3649    5.2638 C   0  0  0  0  0  0  0  0  0  0  0  0
  -15.2786   -7.1333    3.6930 S   0  0  0  0  0  0  0  0  0  0  0  0
  -16.5360   -7.9290    8.7908 H   0  0  0  0  0  0  0  0  0  0  0  0
  -13.8472   -6.5462    6.0124 H   0  0  0  0  0  0  0  0  0  0  0  0
  -21.6850   -9.7391    5.7427 O   0  0  0  0  0  0  0  0  0  0  0  0
  -20.5831   -9.7580    6.5460 C   0  0  0  0  0  0  0  0  0  0  0  0
  -20.6661  -10.3467    7.6540 O   0  0  0  0  0  0  0  0  0  0  0  0
  -22.2874   -8.9730    5.5489 H   0  0  0  0  0  0  0  0  0  0  0  0
 15 16  1  0  0  0
 16 17  2  0  0  0
 16  1  1  0  0  0
  1  2  2  0  0  0
  2  3  1  0  0  0
  3  4  2  0  0  0
  4  5  1  0  0  0
  5  6  2  0  0  0
  5  7  1  0  0  0
  7  8  1  0  0  0
  8  9  2  0  0  0
  8 10  1  0  0  0
 10 11  1  0  0  0
 11 12  2  0  0  0
  6  1  1  0  0  0
 11  4  1  0  0  0
 15 18  1  0  0  0
  7 13  1  0  0  0
 10 14  1  0  0  0
M  END
> <minimizedAffinity>
-2.28345

> <CNNscore>
0.4386267662

> <CNNaffinity>
5.0273108482

> <CNN_VS>
2.2051131725

> <CNNaffinity_variance>
0.2672912478

$$$$
[H]OC(=O)c1c([H])c([H])c2c(=S)n([H])c(=O)n([H])c2c1[H]


 18 19  0  0  0  0  0  0  0  0999 V2000
   -8.1364   -8.3938    7.1845 C   0  0  0  0  0  0  0  0  0  0  0  0
   -9.0201   -9.4304    6.9790 C   0  0  0  0  0  0  0  0  0  0  0  0
  -10.3153   -9.4402    7.4378 C   0  0  0  0  0  0  0  0  0  0  0  0
  -10.7568   -8.3433    8.1482 C   0  0  0  0  0  0  0  0  0  0  0  0
   -9.9181   -7.2732    8.3868 C   0  0  0  0  0  0  0  0  0  0  0  0
   -8.6161   -7.3030    7.9056 C   0  0  0  0  0  0  0  0  0  0  0  0
  -10.4095   -6.2415    9.0822 N   0  0  0  0  0  0  0  0  0  0  0  0
  -11.6667   -6.1931    9.5567 C   0  0  0  0  0  0  0  0  0  0  0  0
  -12.1097   -5.2095   10.2107 O   0  0  0  0  0  0  0  0  0  0  0  0
  -12.5107   -7.2215    9.3410 N   0  0  0  0  0  0  0  0  0  0  0  0
  -12.0567   -8.2806    8.6452 C   0  0  0  0  0  0  0  0  0  0  0  0
  -13.0239   -9.5560    8.3493 S   0  0  0  0  0  0  0  0  0  0  0  0
   -9.7952   -5.4405    9.2655 H   0  0  0  0  0  0  0  0  0  0  0  0
  -13.4911   -7.1719    9.7171 H   0  0  0  0  0  0  0  0  0  0  0  0
   -5.6668   -8.1105    7.4137 O   0  0  0  0  0  0  0  0  0  0  0  0
   -6.7708   -8.4277    6.6785 C   0  0  0  0  0  0  0  0  0  0  0  0
   -6.6071   -8.7740    5.4809 O   0  0  0  0  0  0  0  0  0  0  0  0
   -5.3664   -7.2103    7.7086 H   0  0  0  0  0  0  0  0  0  0  0  0
 15 16  1  0  0  0
 16 17  2  0  0  0
 16  1  1  0  0  0
  1  2  2  0  0  0
  2  3  1  0  0  0
  3  4  2  0  0  0
  4  5  1  0  0  0
  5  6  2  0  0  0
  5  7  1  0  0  0
  7  8  1  0  0  0
  8  9  2  0  0  0
  8 10  1  0  0  0
 10 11  1  0  0  0
 11 12  2  0  0  0
  6  1  1  0  0  0
 11  4  1  0  0  0
 15 18  1  0  0  0
  7 13  1  0  0  0
 10 14  1  0  0  0
M  END
> <minimizedAffinity>
-6.72612

> <CNNscore>
0.3829085231

> <CNNaffinity>
4.5383186340

> <CNN_VS>
1.7377609015

> <CNNaffinity_variance>
0.2315609455

$$$$
[H]OC(=O)c1c([H])c([H])c2c(=S)n([H])c(=O)n([H])c2c1[H]


 18 19  0  0  0  0  0  0  0  0999 V2000
   -6.0359   -7.8531    7.4265 C   0  0  0  0  0  0  0  0  0  0  0  0
   -6.5736   -6.7967    8.1285 C   0  0  0  0  0  0  0  0  0  0  0  0
   -7.9084   -6.6725    8.4299 C   0  0  0  0  0  0  0  0  0  0  0  0
   -8.7621   -7.6681    8.0025 C   0  0  0  0  0  0  0  0  0  0  0  0
   -8.2832   -8.7521    7.2947 C   0  0  0  0  0  0  0  0  0  0  0  0
   -6.9270   -8.8396    7.0107 C   0  0  0  0  0  0  0  0  0  0  0  0
   -9.1648   -9.6818    6.9101 N   0  0  0  0  0  0  0  0  0  0  0  0
  -10.4815   -9.6160    7.1748 C   0  0  0  0  0  0  0  0  0  0  0  0
  -11.2957  -10.5046    6.8022 O   0  0  0  0  0  0  0  0  0  0  0  0
  -10.9810   -8.5708    7.8638 N   0  0  0  0  0  0  0  0  0  0  0  0
  -10.1281   -7.6119    8.2701 C   0  0  0  0  0  0  0  0  0  0  0  0
  -10.6654   -6.3228    9.1063 S   0  0  0  0  0  0  0  0  0  0  0  0
   -8.8202  -10.4920    6.3834 H   0  0  0  0  0  0  0  0  0  0  0  0
  -12.0121   -8.5306    8.0644 H   0  0  0  0  0  0  0  0  0  0  0  0
   -3.6326   -7.3326    7.8566 O   0  0  0  0  0  0  0  0  0  0  0  0
   -4.6126   -7.9423    7.1300 C   0  0  0  0  0  0  0  0  0  0  0  0
   -4.2722   -8.6304    6.1341 O   0  0  0  0  0  0  0  0  0  0  0  0
   -3.4041   -6.3660    7.8851 H   0  0  0  0  0  0  0  0  0  0  0  0
 15 16  1  0  0  0
 16 17  2  0  0  0
 16  1  1  0  0  0
  1  2  2  0  0  0
  2  3  1  0  0  0
  3  4  2  0  0  0
  4  5  1  0  0  0
  5  6  2  0  0  0
  5  7  1  0  0  0
  7  8  1  0  0  0
  8  9  2  0  0  0
  8 10  1  0  0  0
 10 11  1  0  0  0
 11 12  2  0  0  0
  6  1  1  0  0  0
 11  4  1  0  0  0
 15 18  1  0  0  0
  7 13  1  0  0  0
 10 14  1  0  0  0
M  END
> <minimizedAffinity>
-4.31185

> <CNNscore>
0.2818563879

> <CNNaffinity>
4.1811227798

> <CNN_VS>
1.1784762144

> <CNNaffinity_variance>
0.2664978504

$$$$
[H]OC(=O)c1c([H])c([H])c2c(=S)n([H])c(=O)n([H])c2c1[H]


 18 19  0  0  0  0  0  0  0  0999 V2000
   -8.6191   -8.4707    7.5458 C   0  0  0  0  0  0  0  0  0  0  0  0
   -9.3474   -9.5689    7.1444 C   0  0  0  0  0  0  0  0  0  0  0  0
  -10.6990   -9.7121    7.3468 C   0  0  0  0  0  0  0  0  0  0  0  0
  -11.3667   -8.6920    7.9921 C   0  0  0  0  0  0  0  0  0  0  0  0
  -10.6918   -7.5659    8.4183 C   0  0  0  0  0  0  0  0  0  0  0  0
   -9.3257   -7.4605    8.1942 C   0  0  0  0  0  0  0  0  0  0  0  0
  -11.3994   -6.6144    9.0375 N   0  0  0  0  0  0  0  0  0  0  0  0
  -12.7221   -6.6970    9.2642 C   0  0  0  0  0  0  0  0  0  0  0  0
  -13.3702   -5.7873    9.8505 O   0  0  0  0  0  0  0  0  0  0  0  0
  -13.4106   -7.7833    8.8607 N   0  0  0  0  0  0  0  0  0  0  0  0
  -12.7369   -8.7653    8.2332 C   0  0  0  0  0  0  0  0  0  0  0  0
  -13.5075  -10.1041    7.7201 S   0  0  0  0  0  0  0  0  0  0  0  0
  -10.9081   -5.7729    9.3586 H   0  0  0  0  0  0  0  0  0  0  0  0
  -14.4443   -7.8362    9.0438 H   0  0  0  0  0  0  0  0  0  0  0  0
   -6.5656   -8.7197    6.1484 O   0  0  0  0  0  0  0  0  0  0  0  0
   -7.1858   -8.3627    7.3094 C   0  0  0  0  0  0  0  0  0  0  0  0
   -6.4788   -7.9083    8.2447 O   0  0  0  0  0  0  0  0  0  0  0  0
   -6.3925   -9.6356    5.8041 H   0  0  0  0  0  0  0  0  0  0  0  0
 15 16  1  0  0  0
 16 17  2  0  0  0
 16  1  1  0  0  0
  1  2  2  0  0  0
  2  3  1  0  0  0
  3  4  2  0  0  0
  4  5  1  0  0  0
  5  6  2  0  0  0
  5  7  1  0  0  0
  7  8  1  0  0  0
  8  9  2  0  0  0
  8 10  1  0  0  0
 10 11  1  0  0  0
 11 12  2  0  0  0
  6  1  1  0  0  0
 11  4  1  0  0  0
 15 18  1  0  0  0
  7 13  1  0  0  0
 10 14  1  0  0  0
M  END
> <minimizedAffinity>
-6.76375

> <CNNscore>
0.2716835439

> <CNNaffinity>
4.6017169952

> <CNN_VS>
1.2502107620

> <CNNaffinity_variance>
0.1628803909

$$$$
[H]OC(=O)c1c([H])c([H])c2c(=S)n([H])c(=O)n([H])c2c1[H]


 18 19  0  0  0  0  0  0  0  0999 V2000
   -9.4981   -8.2674    7.8559 C   0  0  0  0  0  0  0  0  0  0  0  0
   -9.5050   -7.1259    8.6270 C   0  0  0  0  0  0  0  0  0  0  0  0
  -10.6418   -6.5539    9.1453 C   0  0  0  0  0  0  0  0  0  0  0  0
  -11.8506   -7.1615    8.8761 C   0  0  0  0  0  0  0  0  0  0  0  0
  -11.9086   -8.3078    8.1093 C   0  0  0  0  0  0  0  0  0  0  0  0
  -10.7363   -8.8539    7.6042 C   0  0  0  0  0  0  0  0  0  0  0  0
  -13.1127   -8.8460    7.8862 N   0  0  0  0  0  0  0  0  0  0  0  0
  -14.2594   -8.3331    8.3658 C   0  0  0  0  0  0  0  0  0  0  0  0
  -15.3850   -8.8573    8.1430 O   0  0  0  0  0  0  0  0  0  0  0  0
  -14.2373   -7.2148    9.1179 N   0  0  0  0  0  0  0  0  0  0  0  0
  -13.0457   -6.6403    9.3669 C   0  0  0  0  0  0  0  0  0  0  0  0
  -12.9480   -5.2882   10.2680 S   0  0  0  0  0  0  0  0  0  0  0  0
  -13.1679   -9.6982    7.3175 H   0  0  0  0  0  0  0  0  0  0  0  0
  -15.1404   -6.8235    9.4871 H   0  0  0  0  0  0  0  0  0  0  0  0
   -7.5405   -8.2977    6.3072 O   0  0  0  0  0  0  0  0  0  0  0  0
   -8.2666   -8.8382    7.3273 C   0  0  0  0  0  0  0  0  0  0  0  0
   -7.8512   -9.9023    7.8528 O   0  0  0  0  0  0  0  0  0  0  0  0
   -7.7627   -8.2840    5.3387 H   0  0  0  0  0  0  0  0  0  0  0  0
 15 16  1  0  0  0
 16 17  2  0  0  0
 16  1  1  0  0  0
  1  2  2  0  0  0
  2  3  1  0  0  0
  3  4  2  0  0  0
  4  5  1  0  0  0
  5  6  2  0  0  0
  5  7  1  0  0  0
  7  8  1  0  0  0
  8  9  2  0  0  0
  8 10  1  0  0  0
 10 11  1  0  0  0
 11 12  2  0  0  0
  6  1  1  0  0  0
 11  4  1  0  0  0
 15 18  1  0  0  0
  7 13  1  0  0  0
 10 14  1  0  0  0
M  END
> <minimizedAffinity>
-6.51901

> <CNNscore>
0.2681941986

> <CNNaffinity>
4.6202731133

> <CNN_VS>
1.2391304970

> <CNNaffinity_variance>
0.1738261282

$$$$
[H]OC(=O)c1c([H])c([H])c2c(=S)n([H])c(=O)n([H])c2c1[H]


 18 19  0  0  0  0  0  0  0  0999 V2000
  -13.8964   -8.1045    7.9903 C   0  0  0  0  0  0  0  0  0  0  0  0
  -13.5318   -6.8838    7.4663 C   0  0  0  0  0  0  0  0  0  0  0  0
  -14.2359   -6.2249    6.4875 C   0  0  0  0  0  0  0  0  0  0  0  0
  -15.3788   -6.8240    6.0001 C   0  0  0  0  0  0  0  0  0  0  0  0
  -15.7957   -8.0472    6.4852 C   0  0  0  0  0  0  0  0  0  0  0  0
  -15.0554   -8.6800    7.4746 C   0  0  0  0  0  0  0  0  0  0  0  0
  -16.9125   -8.5725    5.9691 N   0  0  0  0  0  0  0  0  0  0  0  0
  -17.6436   -7.9763    5.0109 C   0  0  0  0  0  0  0  0  0  0  0  0
  -18.6943   -8.4900    4.5381 O   0  0  0  0  0  0  0  0  0  0  0  0
  -17.2637   -6.7816    4.5159 N   0  0  0  0  0  0  0  0  0  0  0  0
  -16.1450   -6.2170    5.0075 C   0  0  0  0  0  0  0  0  0  0  0  0
  -15.6302   -4.7755    4.4538 S   0  0  0  0  0  0  0  0  0  0  0  0
  -17.2320   -9.4813    6.3221 H   0  0  0  0  0  0  0  0  0  0  0  0
  -17.8435   -6.3255    3.7670 H   0  0  0  0  0  0  0  0  0  0  0  0
  -12.6222  -10.0332    8.9328 O   0  0  0  0  0  0  0  0  0  0  0  0
  -13.1178   -8.7662    9.0284 C   0  0  0  0  0  0  0  0  0  0  0  0
  -12.8914   -8.1182   10.0819 O   0  0  0  0  0  0  0  0  0  0  0  0
  -13.1219  -10.8907    8.9831 H   0  0  0  0  0  0  0  0  0  0  0  0
 15 16  1  0  0  0
 16 17  2  0  0  0
 16  1  1  0  0  0
  1  2  2  0  0  0
  2  3  1  0  0  0
  3  4  2  0  0  0
  4  5  1  0  0  0
  5  6  2  0  0  0
  5  7  1  0  0  0
  7  8  1  0  0  0
  8  9  2  0  0  0
  8 10  1  0  0  0
 10 11  1  0  0  0
 11 12  2  0  0  0
  6  1  1  0  0  0
 11  4  1  0  0  0
 15 18  1  0  0  0
  7 13  1  0  0  0
 10 14  1  0  0  0
M  END
> <minimizedAffinity>
-6.64568

> <CNNscore>
0.2159398049

> <CNNaffinity>
4.9589924812

> <CNN_VS>
1.0708438158

> <CNNaffinity_variance>
0.1413593292

$$$$
[H]ON([H])C(=O)N1C([H])([H])[C@@]([H])(N([H])S(=O)(=O)c2c([H])c([H])c(OC([H])([H])c3c([H])c(C([H])([H])[H])nc4c([H])c([H])c([H])c([H])c34)c([H])c2[H])[C@@]([H])(C([H])([H])[H])C1([H])[H]


 36 39  0  0  0  0  0  0  0  0999 V2000
   -7.7092   -8.1504    7.0801 C   0  0  0  0  0  0  0  0  0  0  0  0
   -8.4676   -9.2934    7.1976 C   0  0  0  0  0  0  0  0  0  0  0  0
   -9.7652   -9.2551    7.6872 C   0  0  0  0  0  0  0  0  0  0  0  0
  -10.3598   -8.0758    8.0797 C   0  0  0  0  0  0  0  0  0  0  0  0
   -9.5856   -6.9152    7.9587 C   0  0  0  0  0  0  0  0  0  0  0  0
   -8.2951   -6.9671    7.4699 C   0  0  0  0  0  0  0  0  0  0  0  0
  -11.9784   -8.0441    8.6841 S   0  0  0  0  0  0  0  0  0  0  0  0
  -12.1035   -7.0937    9.8687 O   0  0  0  0  0  0  0  0  0  0  0  0
  -12.3043   -9.4232    9.1917 O   0  0  0  0  0  0  0  0  0  0  0  0
  -13.0647   -7.5838    7.4284 N   0  0  0  0  0  0  0  0  0  0  0  0
  -12.5988   -7.0612    6.6527 H   0  0  0  0  0  0  0  0  0  0  0  0
  -13.9493   -8.6162    7.0029 C   0  0  0  0  0  0  0  0  0  0  0  0
  -14.2150   -8.4561    5.5035 C   0  0  0  0  0  0  0  0  0  0  0  0
  -15.5465   -7.9264    5.3842 N   0  0  0  0  0  0  0  0  0  0  0  0
  -15.9196   -7.3895    6.6689 C   0  0  0  0  0  0  0  0  0  0  0  0
  -15.3163   -8.4495    7.6016 C   0  0  0  0  0  0  0  0  0  0  0  0
  -15.3167   -7.9702    9.0266 C   0  0  0  0  0  0  0  0  0  0  0  0
  -16.3657   -7.9171    4.2323 C   0  0  0  0  0  0  0  0  0  0  0  0
  -15.8939   -8.4275    3.1680 O   0  0  0  0  0  0  0  0  0  0  0  0
  -17.6709   -7.3715    4.2132 N   0  0  0  0  0  0  0  0  0  0  0  0
  -18.3761   -7.4089    3.0655 O   0  0  0  0  0  0  0  0  0  0  0  0
  -18.0979   -6.9457    5.0533 H   0  0  0  0  0  0  0  0  0  0  0  0
  -18.0839   -6.6970    2.4504 H   0  0  0  0  0  0  0  0  0  0  0  0
   -6.4135   -8.2099    6.5882 O   0  0  0  0  0  0  0  0  0  0  0  0
   -5.7466   -7.0119    6.2433 C   0  0  0  0  0  0  0  0  0  0  0  0
   -4.1510   -4.4569   10.2204 C   0  0  0  0  0  0  0  0  0  0  0  0
   -3.9332   -5.4892    9.1789 C   0  0  0  0  0  0  0  0  0  0  0  0
   -4.9051   -5.7532    8.2407 C   0  0  0  0  0  0  0  0  0  0  0  0
   -4.7134   -6.7171    7.2591 C   0  0  0  0  0  0  0  0  0  0  0  0
   -3.5348   -7.4252    7.2164 C   0  0  0  0  0  0  0  0  0  0  0  0
   -3.2925   -8.3920    6.2642 C   0  0  0  0  0  0  0  0  0  0  0  0
   -2.1077   -9.1024    6.2227 C   0  0  0  0  0  0  0  0  0  0  0  0
   -1.1631   -8.8045    7.1825 C   0  0  0  0  0  0  0  0  0  0  0  0
   -1.3930   -7.8422    8.1377 C   0  0  0  0  0  0  0  0  0  0  0  0
   -2.5868   -7.1396    8.1642 C   0  0  0  0  0  0  0  0  0  0  0  0
   -2.7974   -6.1871    9.1203 N   0  0  0  0  0  0  0  0  0  0  0  0
 26 27  1  0  0  0
 27 28  2  0  0  0
 28 29  1  0  0  0
 29 25  1  0  0  0
 25 24  1  0  0  0
 24  1  1  0  0  0
  1  2  2  0  0  0
  2  3  1  0  0  0
  3  4  2  0  0  0
  4  5  1  0  0  0
  5  6  2  0  0  0
  4  7  1  0  0  0
  7  8  2  0  0  0
  7  9  2  0  0  0
  7 10  1  0  0  0
 10 12  1  0  0  0
 12 13  1  0  0  0
 13 14  1  0  0  0
 14 15  1  0  0  0
 15 16  1  0  0  0
 16 17  1  0  0  0
 14 18  1  0  0  0
 18 19  2  0  0  0
 18 20  1  0  0  0
 20 21  1  0  0  0
 29 30  2  0  0  0
 30 31  1  0  0  0
 31 32  2  0  0  0
 32 33  1  0  0  0
 33 34  2  0  0  0
 34 35  1  0  0  0
 35 36  2  0  0  0
 36 27  1  0  0  0
  6  1  1  0  0  0
 16 12  1  0  0  0
 35 30  1  0  0  0
 10 11  1  0  0  0
 20 22  1  0  0  0
 21 23  1  0  0  0
M  END
> <minimizedAffinity>
-8.90132

> <CNNscore>
0.2984482646

> <CNNaffinity>
6.7840261459

> <CNN_VS>
2.0246808529

> <CNNaffinity_variance>
0.0034409394

$$$$
[H]ON([H])C(=O)N1C([H])([H])[C@@]([H])(N([H])S(=O)(=O)c2c([H])c([H])c(OC([H])([H])c3c([H])c(C([H])([H])[H])nc4c([H])c([H])c([H])c([H])c34)c([H])c2[H])[C@@]([H])(C([H])([H])[H])C1([H])[H]


 36 39  0  0  0  0  0  0  0  0999 V2000
   -7.7036   -8.1284    7.0062 C   0  0  0  0  0  0  0  0  0  0  0  0
   -8.4424   -9.2798    7.1607 C   0  0  0  0  0  0  0  0  0  0  0  0
   -9.7322   -9.2504    7.6710 C   0  0  0  0  0  0  0  0  0  0  0  0
  -10.3383   -8.0720    8.0483 C   0  0  0  0  0  0  0  0  0  0  0  0
   -9.5841   -6.9029    7.8896 C   0  0  0  0  0  0  0  0  0  0  0  0
   -8.3011   -6.9459    7.3805 C   0  0  0  0  0  0  0  0  0  0  0  0
  -11.9470   -8.0516    8.6789 S   0  0  0  0  0  0  0  0  0  0  0  0
  -12.0559   -7.1138    9.8752 O   0  0  0  0  0  0  0  0  0  0  0  0
  -12.2607   -9.4369    9.1774 O   0  0  0  0  0  0  0  0  0  0  0  0
  -13.0547   -7.5818    7.4456 N   0  0  0  0  0  0  0  0  0  0  0  0
  -12.6039   -7.0451    6.6707 H   0  0  0  0  0  0  0  0  0  0  0  0
  -13.9382   -8.6146    7.0187 C   0  0  0  0  0  0  0  0  0  0  0  0
  -14.2056   -8.4514    5.5199 C   0  0  0  0  0  0  0  0  0  0  0  0
  -15.5381   -7.9235    5.4031 N   0  0  0  0  0  0  0  0  0  0  0  0
  -15.9108   -7.3902    6.6895 C   0  0  0  0  0  0  0  0  0  0  0  0
  -15.3048   -8.4514    7.6191 C   0  0  0  0  0  0  0  0  0  0  0  0
  -15.3046   -7.9754    9.0452 C   0  0  0  0  0  0  0  0  0  0  0  0
  -16.3584   -7.9128    4.2520 C   0  0  0  0  0  0  0  0  0  0  0  0
  -15.8869   -8.4200    3.1861 O   0  0  0  0  0  0  0  0  0  0  0  0
  -17.6645   -7.3692    4.2356 N   0  0  0  0  0  0  0  0  0  0  0  0
  -18.3708   -7.4050    3.0885 O   0  0  0  0  0  0  0  0  0  0  0  0
  -18.0913   -6.9460    5.0771 H   0  0  0  0  0  0  0  0  0  0  0  0
  -18.0803   -6.6913    2.4748 H   0  0  0  0  0  0  0  0  0  0  0  0
   -6.4154   -8.1790    6.4941 O   0  0  0  0  0  0  0  0  0  0  0  0
   -5.6168   -7.0124    6.5082 C   0  0  0  0  0  0  0  0  0  0  0  0
   -1.4967   -9.8213    6.3465 C   0  0  0  0  0  0  0  0  0  0  0  0
   -2.2712   -8.7011    6.9323 C   0  0  0  0  0  0  0  0  0  0  0  0
   -3.5282   -8.3973    6.4612 C   0  0  0  0  0  0  0  0  0  0  0  0
   -4.2648   -7.3509    7.0018 C   0  0  0  0  0  0  0  0  0  0  0  0
   -3.7364   -6.5999    8.0260 C   0  0  0  0  0  0  0  0  0  0  0  0
   -4.4239   -5.5513    8.5987 C   0  0  0  0  0  0  0  0  0  0  0  0
   -3.8915   -4.7978    9.6277 C   0  0  0  0  0  0  0  0  0  0  0  0
   -2.6294   -5.1381   10.0672 C   0  0  0  0  0  0  0  0  0  0  0  0
   -1.9333   -6.1821    9.5040 C   0  0  0  0  0  0  0  0  0  0  0  0
   -2.4827   -6.9269    8.4730 C   0  0  0  0  0  0  0  0  0  0  0  0
   -1.7768   -7.9604    7.9260 N   0  0  0  0  0  0  0  0  0  0  0  0
 26 27  1  0  0  0
 27 28  2  0  0  0
 28 29  1  0  0  0
 29 25  1  0  0  0
 25 24  1  0  0  0
 24  1  1  0  0  0
  1  2  2  0  0  0
  2  3  1  0  0  0
  3  4  2  0  0  0
  4  5  1  0  0  0
  5  6  2  0  0  0
  4  7  1  0  0  0
  7  8  2  0  0  0
  7  9  2  0  0  0
  7 10  1  0  0  0
 10 12  1  0  0  0
 12 13  1  0  0  0
 13 14  1  0  0  0
 14 15  1  0  0  0
 15 16  1  0  0  0
 16 17  1  0  0  0
 14 18  1  0  0  0
 18 19  2  0  0  0
 18 20  1  0  0  0
 20 21  1  0  0  0
 29 30  2  0  0  0
 30 31  1  0  0  0
 31 32  2  0  0  0
 32 33  1  0  0  0
 33 34  2  0  0  0
 34 35  1  0  0  0
 35 36  2  0  0  0
 36 27  1  0  0  0
  6  1  1  0  0  0
 16 12  1  0  0  0
 35 30  1  0  0  0
 10 11  1  0  0  0
 20 22  1  0  0  0
 21 23  1  0  0  0
M  END
> <minimizedAffinity>
-8.84770

> <CNNscore>
0.2905979156

> <CNNaffinity>
6.7366113663

> <CNN_VS>
1.9576451778

> <CNNaffinity_variance>
0.0045375442

$$$$
[H]ON([H])C(=O)N1C([H])([H])[C@@]([H])(N([H])S(=O)(=O)c2c([H])c([H])c(OC([H])([H])c3c([H])c(C([H])([H])[H])nc4c([H])c([H])c([H])c([H])c34)c([H])c2[H])[C@@]([H])(C([H])([H])[H])C1([H])[H]


 36 39  0  0  0  0  0  0  0  0999 V2000
   -7.3243   -8.0235    7.2035 C   0  0  0  0  0  0  0  0  0  0  0  0
   -6.5578   -7.4371    8.1854 C   0  0  0  0  0  0  0  0  0  0  0  0
   -5.1824   -7.3113    8.0528 C   0  0  0  0  0  0  0  0  0  0  0  0
   -4.5149   -7.7649    6.9361 C   0  0  0  0  0  0  0  0  0  0  0  0
   -5.2977   -8.3607    5.9395 C   0  0  0  0  0  0  0  0  0  0  0  0
   -6.6659   -8.4798    6.0838 C   0  0  0  0  0  0  0  0  0  0  0  0
   -2.8017   -7.5975    6.7844 S   0  0  0  0  0  0  0  0  0  0  0  0
   -2.2323   -8.6314    5.8205 O   0  0  0  0  0  0  0  0  0  0  0  0
   -2.1937   -7.8737    8.1335 O   0  0  0  0  0  0  0  0  0  0  0  0
   -2.4125   -6.0049    6.2545 N   0  0  0  0  0  0  0  0  0  0  0  0
   -1.7080   -5.9890    5.4830 H   0  0  0  0  0  0  0  0  0  0  0  0
   -3.5389   -5.1574    6.0492 C   0  0  0  0  0  0  0  0  0  0  0  0
   -3.4649   -4.5657    4.6389 C   0  0  0  0  0  0  0  0  0  0  0  0
   -3.0665   -3.1931    4.7980 N   0  0  0  0  0  0  0  0  0  0  0  0
   -2.5153   -3.0490    6.1221 C   0  0  0  0  0  0  0  0  0  0  0  0
   -3.4762   -3.9386    6.9240 C   0  0  0  0  0  0  0  0  0  0  0  0
   -2.9419   -4.1924    8.3062 C   0  0  0  0  0  0  0  0  0  0  0  0
   -3.1798   -2.1518    3.8489 C   0  0  0  0  0  0  0  0  0  0  0  0
   -3.6867   -2.4358    2.7183 O   0  0  0  0  0  0  0  0  0  0  0  0
   -2.7593   -0.8245    4.0999 N   0  0  0  0  0  0  0  0  0  0  0  0
   -2.9083    0.1005    3.1313 O   0  0  0  0  0  0  0  0  0  0  0  0
   -2.3415   -0.5449    5.0036 H   0  0  0  0  0  0  0  0  0  0  0  0
   -2.1977    0.0175    2.4541 H   0  0  0  0  0  0  0  0  0  0  0  0
   -8.6982   -8.1399    7.3552 O   0  0  0  0  0  0  0  0  0  0  0  0
   -9.3882   -7.2088    8.1651 C   0  0  0  0  0  0  0  0  0  0  0  0
  -13.1625  -10.2354    6.9464 C   0  0  0  0  0  0  0  0  0  0  0  0
  -12.6378   -9.0618    7.6847 C   0  0  0  0  0  0  0  0  0  0  0  0
  -11.3127   -8.7045    7.5810 C   0  0  0  0  0  0  0  0  0  0  0  0
  -10.8086   -7.6067    8.2667 C   0  0  0  0  0  0  0  0  0  0  0  0
  -11.6411   -6.8578    9.0657 C   0  0  0  0  0  0  0  0  0  0  0  0
  -11.1933   -5.7592    9.7676 C   0  0  0  0  0  0  0  0  0  0  0  0
  -12.0312   -5.0078   10.5699 C   0  0  0  0  0  0  0  0  0  0  0  0
  -13.3504   -5.4030   10.6437 C   0  0  0  0  0  0  0  0  0  0  0  0
  -13.8092   -6.4972    9.9483 C   0  0  0  0  0  0  0  0  0  0  0  0
  -12.9550   -7.2389    9.1485 C   0  0  0  0  0  0  0  0  0  0  0  0
  -13.4285   -8.3225    8.4650 N   0  0  0  0  0  0  0  0  0  0  0  0
 26 27  1  0  0  0
 27 28  2  0  0  0
 28 29  1  0  0  0
 29 25  1  0  0  0
 25 24  1  0  0  0
 24  1  1  0  0  0
  1  2  2  0  0  0
  2  3  1  0  0  0
  3  4  2  0  0  0
  4  5  1  0  0  0
  5  6  2  0  0  0
  4  7  1  0  0  0
  7  8  2  0  0  0
  7  9  2  0  0  0
  7 10  1  0  0  0
 10 12  1  0  0  0
 12 13  1  0  0  0
 13 14  1  0  0  0
 14 15  1  0  0  0
 15 16  1  0  0  0
 16 17  1  0  0  0
 14 18  1  0  0  0
 18 19  2  0  0  0
 18 20  1  0  0  0
 20 21  1  0  0  0
 29 30  2  0  0  0
 30 31  1  0  0  0
 31 32  2  0  0  0
 32 33  1  0  0  0
 33 34  2  0  0  0
 34 35  1  0  0  0
 35 36  2  0  0  0
 36 27  1  0  0  0
  6  1  1  0  0  0
 16 12  1  0  0  0
 35 30  1  0  0  0
 10 11  1  0  0  0
 20 22  1  0  0  0
 21 23  1  0  0  0
M  END
> <minimizedAffinity>
-8.40626

> <CNNscore>
0.2829591930

> <CNNaffinity>
6.1243896484

> <CNN_VS>
1.7329523563

> <CNNaffinity_variance>
0.1432322264

$$$$
[H]ON([H])C(=O)N1C([H])([H])[C@@]([H])(N([H])S(=O)(=O)c2c([H])c([H])c(OC([H])([H])c3c([H])c(C([H])([H])[H])nc4c([H])c([H])c([H])c([H])c34)c([H])c2[H])[C@@]([H])(C([H])([H])[H])C1([H])[H]


 36 39  0  0  0  0  0  0  0  0999 V2000
   -7.9020   -7.1865    7.0990 C   0  0  0  0  0  0  0  0  0  0  0  0
   -7.1696   -7.6082    8.1858 C   0  0  0  0  0  0  0  0  0  0  0  0
   -5.7838   -7.5413    8.1960 C   0  0  0  0  0  0  0  0  0  0  0  0
   -5.0715   -7.0513    7.1232 C   0  0  0  0  0  0  0  0  0  0  0  0
   -5.8196   -6.6231    6.0197 C   0  0  0  0  0  0  0  0  0  0  0  0
   -7.1987   -6.6952    6.0222 C   0  0  0  0  0  0  0  0  0  0  0  0
   -3.3456   -6.9710    7.1528 S   0  0  0  0  0  0  0  0  0  0  0  0
   -2.7872   -6.6510    5.7715 O   0  0  0  0  0  0  0  0  0  0  0  0
   -2.8305   -8.3345    7.5292 O   0  0  0  0  0  0  0  0  0  0  0  0
   -2.8327   -5.7883    8.2960 N   0  0  0  0  0  0  0  0  0  0  0  0
   -1.8035   -5.6100    8.2695 H   0  0  0  0  0  0  0  0  0  0  0  0
   -3.6391   -4.6146    8.3358 C   0  0  0  0  0  0  0  0  0  0  0  0
   -2.9579   -3.5159    7.5153 C   0  0  0  0  0  0  0  0  0  0  0  0
   -2.4055   -2.5876    8.4645 N   0  0  0  0  0  0  0  0  0  0  0  0
   -2.3518   -3.2508    9.7434 C   0  0  0  0  0  0  0  0  0  0  0  0
   -3.6791   -4.0222    9.7150 C   0  0  0  0  0  0  0  0  0  0  0  0
   -3.7328   -5.0345   10.8252 C   0  0  0  0  0  0  0  0  0  0  0  0
   -1.9817   -1.2614    8.2201 C   0  0  0  0  0  0  0  0  0  0  0  0
   -2.0895   -0.8161    7.0345 O   0  0  0  0  0  0  0  0  0  0  0  0
   -1.4501   -0.4195    9.2252 N   0  0  0  0  0  0  0  0  0  0  0  0
   -1.0728    0.8314    8.8951 O   0  0  0  0  0  0  0  0  0  0  0  0
   -1.3431   -0.7363   10.2037 H   0  0  0  0  0  0  0  0  0  0  0  0
   -0.1931    0.8273    8.4516 H   0  0  0  0  0  0  0  0  0  0  0  0
   -9.2871   -7.2618    7.1084 O   0  0  0  0  0  0  0  0  0  0  0  0
   -9.9298   -8.1052    8.0437 C   0  0  0  0  0  0  0  0  0  0  0  0
  -12.8165   -5.0389   10.7188 C   0  0  0  0  0  0  0  0  0  0  0  0
  -12.6595   -6.0679    9.6632 C   0  0  0  0  0  0  0  0  0  0  0  0
  -11.4174   -6.5795    9.3632 C   0  0  0  0  0  0  0  0  0  0  0  0
  -11.2567   -7.5445    8.3772 C   0  0  0  0  0  0  0  0  0  0  0  0
  -12.3525   -8.0027    7.6832 C   0  0  0  0  0  0  0  0  0  0  0  0
  -12.2497   -8.9589    6.6956 C   0  0  0  0  0  0  0  0  0  0  0  0
  -13.3517   -9.4182    5.9995 C   0  0  0  0  0  0  0  0  0  0  0  0
  -14.5756   -8.8773    6.3335 C   0  0  0  0  0  0  0  0  0  0  0  0
  -14.6911   -7.9227    7.3168 C   0  0  0  0  0  0  0  0  0  0  0  0
  -13.5754   -7.4739    8.0047 C   0  0  0  0  0  0  0  0  0  0  0  0
  -13.7094   -6.5255    8.9784 N   0  0  0  0  0  0  0  0  0  0  0  0
 26 27  1  0  0  0
 27 28  2  0  0  0
 28 29  1  0  0  0
 29 25  1  0  0  0
 25 24  1  0  0  0
 24  1  1  0  0  0
  1  2  2  0  0  0
  2  3  1  0  0  0
  3  4  2  0  0  0
  4  5  1  0  0  0
  5  6  2  0  0  0
  4  7  1  0  0  0
  7  8  2  0  0  0
  7  9  2  0  0  0
  7 10  1  0  0  0
 10 12  1  0  0  0
 12 13  1  0  0  0
 13 14  1  0  0  0
 14 15  1  0  0  0
 15 16  1  0  0  0
 16 17  1  0  0  0
 14 18  1  0  0  0
 18 19  2  0  0  0
 18 20  1  0  0  0
 20 21  1  0  0  0
 29 30  2  0  0  0
 30 31  1  0  0  0
 31 32  2  0  0  0
 32 33  1  0  0  0
 33 34  2  0  0  0
 34 35  1  0  0  0
 35 36  2  0  0  0
 36 27  1  0  0  0
  6  1  1  0  0  0
 16 12  1  0  0  0
 35 30  1  0  0  0
 10 11  1  0  0  0
 20 22  1  0  0  0
 21 23  1  0  0  0
M  END
> <minimizedAffinity>
-8.13325

> <CNNscore>
0.2698763609

> <CNNaffinity>
5.9284105301

> <CNN_VS>
1.5999379158

> <CNNaffinity_variance>
0.1684012562

$$$$
[H]ON([H])C(=O)N1C([H])([H])[C@@]([H])(N([H])S(=O)(=O)c2c([H])c([H])c(OC([H])([H])c3c([H])c(C([H])([H])[H])nc4c([H])c([H])c([H])c([H])c34)c([H])c2[H])[C@@]([H])(C([H])([H])[H])C1([H])[H]


 36 39  0  0  0  0  0  0  0  0999 V2000
  -11.6596   -6.8588    8.9968 C   0  0  0  0  0  0  0  0  0  0  0  0
  -11.5406   -8.2211    8.8371 C   0  0  0  0  0  0  0  0  0  0  0  0
  -10.3438   -8.8031    8.4448 C   0  0  0  0  0  0  0  0  0  0  0  0
   -9.2166   -8.0509    8.1956 C   0  0  0  0  0  0  0  0  0  0  0  0
   -9.3412   -6.6657    8.3592 C   0  0  0  0  0  0  0  0  0  0  0  0
  -10.5383   -6.0990    8.7500 C   0  0  0  0  0  0  0  0  0  0  0  0
   -7.7323   -8.7912    7.7113 S   0  0  0  0  0  0  0  0  0  0  0  0
   -7.8653   -9.4420    6.3398 O   0  0  0  0  0  0  0  0  0  0  0  0
   -7.4288   -9.8923    8.6918 O   0  0  0  0  0  0  0  0  0  0  0  0
   -6.4688   -7.6197    7.6994 N   0  0  0  0  0  0  0  0  0  0  0  0
   -6.0309   -7.4778    8.6374 H   0  0  0  0  0  0  0  0  0  0  0  0
   -5.5432   -7.7581    6.6254 C   0  0  0  0  0  0  0  0  0  0  0  0
   -4.1381   -7.4250    7.1346 C   0  0  0  0  0  0  0  0  0  0  0  0
   -3.8165   -6.1255    6.6094 N   0  0  0  0  0  0  0  0  0  0  0  0
   -5.0486   -5.5086    6.1858 C   0  0  0  0  0  0  0  0  0  0  0  0
   -5.7687   -6.7159    5.5682 C   0  0  0  0  0  0  0  0  0  0  0  0
   -7.2147   -6.3991    5.3059 C   0  0  0  0  0  0  0  0  0  0  0  0
   -2.5373   -5.5320    6.5134 C   0  0  0  0  0  0  0  0  0  0  0  0
   -1.5423   -6.2021    6.9337 O   0  0  0  0  0  0  0  0  0  0  0  0
   -2.3195   -4.2413    5.9765 N   0  0  0  0  0  0  0  0  0  0  0  0
   -1.0619   -3.7598    5.9269 O   0  0  0  0  0  0  0  0  0  0  0  0
   -3.0966   -3.6582    5.6220 H   0  0  0  0  0  0  0  0  0  0  0  0
   -0.7785   -3.4261    6.8094 H   0  0  0  0  0  0  0  0  0  0  0  0
  -12.8652   -6.2963    9.3896 O   0  0  0  0  0  0  0  0  0  0  0  0
  -13.7646   -5.8256    8.4054 C   0  0  0  0  0  0  0  0  0  0  0  0
  -14.0564  -10.7035    7.3993 C   0  0  0  0  0  0  0  0  0  0  0  0
  -14.2714   -9.2907    7.0050 C   0  0  0  0  0  0  0  0  0  0  0  0
  -13.9308   -8.2660    7.8585 C   0  0  0  0  0  0  0  0  0  0  0  0
  -14.1261   -6.9380    7.5010 C   0  0  0  0  0  0  0  0  0  0  0  0
  -14.6689   -6.6324    6.2745 C   0  0  0  0  0  0  0  0  0  0  0  0
  -14.8839   -5.3325    5.8693 C   0  0  0  0  0  0  0  0  0  0  0  0
  -15.4292   -5.0272    4.6366 C   0  0  0  0  0  0  0  0  0  0  0  0
  -15.7553   -6.0857    3.8148 C   0  0  0  0  0  0  0  0  0  0  0  0
  -15.5457   -7.3870    4.2076 C   0  0  0  0  0  0  0  0  0  0  0  0
  -14.9978   -7.6745    5.4472 C   0  0  0  0  0  0  0  0  0  0  0  0
  -14.7966   -8.9730    5.8202 N   0  0  0  0  0  0  0  0  0  0  0  0
 26 27  1  0  0  0
 27 28  2  0  0  0
 28 29  1  0  0  0
 29 25  1  0  0  0
 25 24  1  0  0  0
 24  1  1  0  0  0
  1  2  2  0  0  0
  2  3  1  0  0  0
  3  4  2  0  0  0
  4  5  1  0  0  0
  5  6  2  0  0  0
  4  7  1  0  0  0
  7  8  2  0  0  0
  7  9  2  0  0  0
  7 10  1  0  0  0
 10 12  1  0  0  0
 12 13  1  0  0  0
 13 14  1  0  0  0
 14 15  1  0  0  0
 15 16  1  0  0  0
 16 17  1  0  0  0
 14 18  1  0  0  0
 18 19  2  0  0  0
 18 20  1  0  0  0
 20 21  1  0  0  0
 29 30  2  0  0  0
 30 31  1  0  0  0
 31 32  2  0  0  0
 32 33  1  0  0  0
 33 34  2  0  0  0
 34 35  1  0  0  0
 35 36  2  0  0  0
 36 27  1  0  0  0
  6  1  1  0  0  0
 16 12  1  0  0  0
 35 30  1  0  0  0
 10 11  1  0  0  0
 20 22  1  0  0  0
 21 23  1  0  0  0
M  END
> <minimizedAffinity>
-6.62671

> <CNNscore>
0.2643751502

> <CNNaffinity>
6.7088441849

> <CNN_VS>
1.7736517191

> <CNNaffinity_variance>
0.1058682427

$$$$
[H]ON([H])C(=O)N1C([H])([H])[C@@]([H])(N([H])S(=O)(=O)c2c([H])c([H])c(OC([H])([H])c3c([H])c(C([H])([H])[H])nc4c([H])c([H])c([H])c([H])c34)c([H])c2[H])[C@@]([H])(C([H])([H])[H])C1([H])[H]


 36 39  0  0  0  0  0  0  0  0999 V2000
   -7.5458   -7.2603    7.0034 C   0  0  0  0  0  0  0  0  0  0  0  0
   -6.8087   -7.6278    8.1067 C   0  0  0  0  0  0  0  0  0  0  0  0
   -5.4302   -7.4750    8.1411 C   0  0  0  0  0  0  0  0  0  0  0  0
   -4.7300   -6.9495    7.0771 C   0  0  0  0  0  0  0  0  0  0  0  0
   -5.4828   -6.5766    5.9569 C   0  0  0  0  0  0  0  0  0  0  0  0
   -6.8546   -6.7341    5.9354 C   0  0  0  0  0  0  0  0  0  0  0  0
   -3.0132   -6.7621    7.1369 S   0  0  0  0  0  0  0  0  0  0  0  0
   -2.4592   -6.3426    5.7806 O   0  0  0  0  0  0  0  0  0  0  0  0
   -2.4170   -8.1066    7.4575 O   0  0  0  0  0  0  0  0  0  0  0  0
   -2.5909   -5.6048    8.3414 N   0  0  0  0  0  0  0  0  0  0  0  0
   -1.5670   -5.3984    8.3722 H   0  0  0  0  0  0  0  0  0  0  0  0
   -3.4310   -4.4549    8.3781 C   0  0  0  0  0  0  0  0  0  0  0  0
   -2.7197   -3.2973    7.6720 C   0  0  0  0  0  0  0  0  0  0  0  0
   -2.2695   -2.4083    8.7089 N   0  0  0  0  0  0  0  0  0  0  0  0
   -2.2964   -3.1380    9.9518 C   0  0  0  0  0  0  0  0  0  0  0  0
   -3.5950   -3.9388    9.7786 C   0  0  0  0  0  0  0  0  0  0  0  0
   -3.7059   -5.0105   10.8271 C   0  0  0  0  0  0  0  0  0  0  0  0
   -1.8660   -1.0610    8.5678 C   0  0  0  0  0  0  0  0  0  0  0  0
   -1.8939   -0.5551    7.4021 O   0  0  0  0  0  0  0  0  0  0  0  0
   -1.4384   -0.2617    9.6540 N   0  0  0  0  0  0  0  0  0  0  0  0
   -1.0723    1.0139    9.4201 O   0  0  0  0  0  0  0  0  0  0  0  0
   -1.3987   -0.6282   10.6203 H   0  0  0  0  0  0  0  0  0  0  0  0
   -0.1611    1.0552    9.0481 H   0  0  0  0  0  0  0  0  0  0  0  0
   -8.9235   -7.4213    6.9888 O   0  0  0  0  0  0  0  0  0  0  0  0
   -9.5468   -8.1596    8.0210 C   0  0  0  0  0  0  0  0  0  0  0  0
  -13.8886   -9.3564    5.8744 C   0  0  0  0  0  0  0  0  0  0  0  0
  -13.1157   -8.5866    6.8783 C   0  0  0  0  0  0  0  0  0  0  0  0
  -11.7502   -8.7319    6.9723 C   0  0  0  0  0  0  0  0  0  0  0  0
  -11.0140   -8.0161    7.9078 C   0  0  0  0  0  0  0  0  0  0  0  0
  -11.6526   -7.1445    8.7592 C   0  0  0  0  0  0  0  0  0  0  0  0
  -10.9708   -6.4095    9.7054 C   0  0  0  0  0  0  0  0  0  0  0  0
  -11.6140   -5.5342   10.5599 C   0  0  0  0  0  0  0  0  0  0  0  0
  -12.9823   -5.4212   10.4298 C   0  0  0  0  0  0  0  0  0  0  0  0
  -13.6738   -6.1490    9.4897 C   0  0  0  0  0  0  0  0  0  0  0  0
  -13.0126   -7.0219    8.6411 C   0  0  0  0  0  0  0  0  0  0  0  0
  -13.7158   -7.7364    7.7134 N   0  0  0  0  0  0  0  0  0  0  0  0
 26 27  1  0  0  0
 27 28  2  0  0  0
 28 29  1  0  0  0
 29 25  1  0  0  0
 25 24  1  0  0  0
 24  1  1  0  0  0
  1  2  2  0  0  0
  2  3  1  0  0  0
  3  4  2  0  0  0
  4  5  1  0  0  0
  5  6  2  0  0  0
  4  7  1  0  0  0
  7  8  2  0  0  0
  7  9  2  0  0  0
  7 10  1  0  0  0
 10 12  1  0  0  0
 12 13  1  0  0  0
 13 14  1  0  0  0
 14 15  1  0  0  0
 15 16  1  0  0  0
 16 17  1  0  0  0
 14 18  1  0  0  0
 18 19  2  0  0  0
 18 20  1  0  0  0
 20 21  1  0  0  0
 29 30  2  0  0  0
 30 31  1  0  0  0
 31 32  2  0  0  0
 32 33  1  0  0  0
 33 34  2  0  0  0
 34 35  1  0  0  0
 35 36  2  0  0  0
 36 27  1  0  0  0
  6  1  1  0  0  0
 16 12  1  0  0  0
 35 30  1  0  0  0
 10 11  1  0  0  0
 20 22  1  0  0  0
 21 23  1  0  0  0
M  END
> <minimizedAffinity>
-8.07796

> <CNNscore>
0.2536053061

> <CNNaffinity>
6.0515589714

> <CNN_VS>
1.5347074270

> <CNNaffinity_variance>
0.1118018031

$$$$
[H]ON([H])C(=O)N1C([H])([H])[C@@]([H])(N([H])S(=O)(=O)c2c([H])c([H])c(OC([H])([H])c3c([H])c(C([H])([H])[H])nc4c([H])c([H])c([H])c([H])c34)c([H])c2[H])[C@@]([H])(C([H])([H])[H])C1([H])[H]


 36 39  0  0  0  0  0  0  0  0999 V2000
   -7.7306   -7.7577    6.9469 C   0  0  0  0  0  0  0  0  0  0  0  0
   -8.4572   -6.6375    7.2824 C   0  0  0  0  0  0  0  0  0  0  0  0
   -9.7410   -6.7344    7.7997 C   0  0  0  0  0  0  0  0  0  0  0  0
  -10.3529   -7.9519    8.0035 C   0  0  0  0  0  0  0  0  0  0  0  0
   -9.6109   -9.0891    7.6613 C   0  0  0  0  0  0  0  0  0  0  0  0
   -8.3340   -8.9789    7.1472 C   0  0  0  0  0  0  0  0  0  0  0  0
  -11.9512   -8.0559    8.6521 S   0  0  0  0  0  0  0  0  0  0  0  0
  -12.0887   -7.2092    9.9117 O   0  0  0  0  0  0  0  0  0  0  0  0
  -12.1885   -9.4863    9.0570 O   0  0  0  0  0  0  0  0  0  0  0  0
  -13.0989   -7.5591    7.4670 N   0  0  0  0  0  0  0  0  0  0  0  0
  -12.6807   -6.9722    6.7104 H   0  0  0  0  0  0  0  0  0  0  0  0
  -13.9622   -8.5951    7.0080 C   0  0  0  0  0  0  0  0  0  0  0  0
  -14.2272   -8.3951    5.5132 C   0  0  0  0  0  0  0  0  0  0  0  0
  -15.5685   -7.8879    5.4059 N   0  0  0  0  0  0  0  0  0  0  0  0
  -15.9552   -7.3973    6.7050 C   0  0  0  0  0  0  0  0  0  0  0  0
  -15.3336   -8.4732    7.6072 C   0  0  0  0  0  0  0  0  0  0  0  0
  -15.3469   -8.0372    9.0459 C   0  0  0  0  0  0  0  0  0  0  0  0
  -16.3849   -7.8597    4.2523 C   0  0  0  0  0  0  0  0  0  0  0  0
  -15.9006   -8.3285    3.1745 O   0  0  0  0  0  0  0  0  0  0  0  0
  -17.7004   -7.3393    4.2457 N   0  0  0  0  0  0  0  0  0  0  0  0
  -18.4020   -7.3557    3.0952 O   0  0  0  0  0  0  0  0  0  0  0  0
  -18.1377   -6.9473    5.0969 H   0  0  0  0  0  0  0  0  0  0  0  0
  -18.1221   -6.6200    2.5028 H   0  0  0  0  0  0  0  0  0  0  0  0
   -6.4484   -7.6396    6.4310 O   0  0  0  0  0  0  0  0  0  0  0  0
   -5.5474   -6.7198    7.0152 C   0  0  0  0  0  0  0  0  0  0  0  0
   -1.6023   -9.7709    6.8808 C   0  0  0  0  0  0  0  0  0  0  0  0
   -2.2618   -8.4987    6.5007 C   0  0  0  0  0  0  0  0  0  0  0  0
   -3.5431   -8.2217    6.9202 C   0  0  0  0  0  0  0  0  0  0  0  0
   -4.1721   -7.0332    6.5719 C   0  0  0  0  0  0  0  0  0  0  0  0
   -3.5104   -6.1112    5.7944 C   0  0  0  0  0  0  0  0  0  0  0  0
   -4.0873   -4.9165    5.4201 C   0  0  0  0  0  0  0  0  0  0  0  0
   -3.4210   -3.9913    4.6390 C   0  0  0  0  0  0  0  0  0  0  0  0
   -2.1396   -4.3114    4.2420 C   0  0  0  0  0  0  0  0  0  0  0  0
   -1.5532   -5.5001    4.6088 C   0  0  0  0  0  0  0  0  0  0  0  0
   -2.2361   -6.4161    5.3925 C   0  0  0  0  0  0  0  0  0  0  0  0
   -1.6375   -7.5915    5.7472 N   0  0  0  0  0  0  0  0  0  0  0  0
 26 27  1  0  0  0
 27 28  2  0  0  0
 28 29  1  0  0  0
 29 25  1  0  0  0
 25 24  1  0  0  0
 24  1  1  0  0  0
  1  2  2  0  0  0
  2  3  1  0  0  0
  3  4  2  0  0  0
  4  5  1  0  0  0
  5  6  2  0  0  0
  4  7  1  0  0  0
  7  8  2  0  0  0
  7  9  2  0  0  0
  7 10  1  0  0  0
 10 12  1  0  0  0
 12 13  1  0  0  0
 13 14  1  0  0  0
 14 15  1  0  0  0
 15 16  1  0  0  0
 16 17  1  0  0  0
 14 18  1  0  0  0
 18 19  2  0  0  0
 18 20  1  0  0  0
 20 21  1  0  0  0
 29 30  2  0  0  0
 30 31  1  0  0  0
 31 32  2  0  0  0
 32 33  1  0  0  0
 33 34  2  0  0  0
 34 35  1  0  0  0
 35 36  2  0  0  0
 36 27  1  0  0  0
  6  1  1  0  0  0
 16 12  1  0  0  0
 35 30  1  0  0  0
 10 11  1  0  0  0
 20 22  1  0  0  0
 21 23  1  0  0  0
M  END
> <minimizedAffinity>
-8.98290

> <CNNscore>
0.2435627431

> <CNNaffinity>
6.6116166115

> <CNN_VS>
1.6103434563

> <CNNaffinity_variance>
0.0145196123

$$$$
[H]ON([H])C(=O)N1C([H])([H])[C@@]([H])(N([H])S(=O)(=O)c2c([H])c([H])c(OC([H])([H])c3c([H])c(C([H])([H])[H])nc4c([H])c([H])c([H])c([H])c34)c([H])c2[H])[C@@]([H])(C([H])([H])[H])C1([H])[H]


 36 39  0  0  0  0  0  0  0  0999 V2000
   -7.6475   -7.7132    6.9500 C   0  0  0  0  0  0  0  0  0  0  0  0
   -8.2836   -8.9226    7.1177 C   0  0  0  0  0  0  0  0  0  0  0  0
   -9.5715   -8.9994    7.6281 C   0  0  0  0  0  0  0  0  0  0  0  0
  -10.2779   -7.8739    7.9922 C   0  0  0  0  0  0  0  0  0  0  0  0
   -9.6278   -6.6456    7.8200 C   0  0  0  0  0  0  0  0  0  0  0  0
   -8.3456   -6.5828    7.3111 C   0  0  0  0  0  0  0  0  0  0  0  0
  -11.8827   -7.9860    8.6229 S   0  0  0  0  0  0  0  0  0  0  0  0
  -12.0438   -7.1253    9.8701 O   0  0  0  0  0  0  0  0  0  0  0  0
  -12.1106   -9.4136    9.0427 O   0  0  0  0  0  0  0  0  0  0  0  0
  -13.0209   -7.5154    7.4181 N   0  0  0  0  0  0  0  0  0  0  0  0
  -12.5961   -6.9477    6.6506 H   0  0  0  0  0  0  0  0  0  0  0  0
  -13.8832   -8.5604    6.9779 C   0  0  0  0  0  0  0  0  0  0  0  0
  -14.1757   -8.3683    5.4872 C   0  0  0  0  0  0  0  0  0  0  0  0
  -15.5229   -7.8729    5.4013 N   0  0  0  0  0  0  0  0  0  0  0  0
  -15.8913   -7.3807    6.7052 C   0  0  0  0  0  0  0  0  0  0  0  0
  -15.2450   -8.4478    7.6004 C   0  0  0  0  0  0  0  0  0  0  0  0
  -15.2371   -8.0065    9.0375 C   0  0  0  0  0  0  0  0  0  0  0  0
  -16.3594   -7.8560    4.2619 C   0  0  0  0  0  0  0  0  0  0  0  0
  -15.8899   -8.3248    3.1777 O   0  0  0  0  0  0  0  0  0  0  0  0
  -17.6792   -7.3467    4.2762 N   0  0  0  0  0  0  0  0  0  0  0  0
  -18.4004   -7.3734    3.1382 O   0  0  0  0  0  0  0  0  0  0  0  0
  -18.1050   -6.9552    5.1335 H   0  0  0  0  0  0  0  0  0  0  0  0
  -18.1371   -6.6377    2.5382 H   0  0  0  0  0  0  0  0  0  0  0  0
   -6.3594   -7.6576    6.4381 O   0  0  0  0  0  0  0  0  0  0  0  0
   -5.2609   -7.6113    7.3271 C   0  0  0  0  0  0  0  0  0  0  0  0
   -2.6742   -4.7958    4.1219 C   0  0  0  0  0  0  0  0  0  0  0  0
   -3.1878   -5.0525    5.4887 C   0  0  0  0  0  0  0  0  0  0  0  0
   -3.9526   -6.1663    5.7515 C   0  0  0  0  0  0  0  0  0  0  0  0
   -4.4392   -6.4190    7.0277 C   0  0  0  0  0  0  0  0  0  0  0  0
   -4.1569   -5.5463    8.0529 C   0  0  0  0  0  0  0  0  0  0  0  0
   -4.6140   -5.7490    9.3375 C   0  0  0  0  0  0  0  0  0  0  0  0
   -4.3293   -4.8712   10.3662 C   0  0  0  0  0  0  0  0  0  0  0  0
   -3.5601   -3.7691   10.0565 C   0  0  0  0  0  0  0  0  0  0  0  0
   -3.0981   -3.5558    8.7788 C   0  0  0  0  0  0  0  0  0  0  0  0
   -3.3933   -4.4466    7.7595 C   0  0  0  0  0  0  0  0  0  0  0  0
   -2.9256   -4.2184    6.4967 N   0  0  0  0  0  0  0  0  0  0  0  0
 26 27  1  0  0  0
 27 28  2  0  0  0
 28 29  1  0  0  0
 29 25  1  0  0  0
 25 24  1  0  0  0
 24  1  1  0  0  0
  1  2  2  0  0  0
  2  3  1  0  0  0
  3  4  2  0  0  0
  4  5  1  0  0  0
  5  6  2  0  0  0
  4  7  1  0  0  0
  7  8  2  0  0  0
  7  9  2  0  0  0
  7 10  1  0  0  0
 10 12  1  0  0  0
 12 13  1  0  0  0
 13 14  1  0  0  0
 14 15  1  0  0  0
 15 16  1  0  0  0
 16 17  1  0  0  0
 14 18  1  0  0  0
 18 19  2  0  0  0
 18 20  1  0  0  0
 20 21  1  0  0  0
 29 30  2  0  0  0
 30 31  1  0  0  0
 31 32  2  0  0  0
 32 33  1  0  0  0
 33 34  2  0  0  0
 34 35  1  0  0  0
 35 36  2  0  0  0
 36 27  1  0  0  0
  6  1  1  0  0  0
 16 12  1  0  0  0
 35 30  1  0  0  0
 10 11  1  0  0  0
 20 22  1  0  0  0
 21 23  1  0  0  0
M  END
> <minimizedAffinity>
-8.63238

> <CNNscore>
0.2117918283

> <CNNaffinity>
6.6532945633

> <CNN_VS>
1.4091134071

> <CNNaffinity_variance>
0.0466966480

$$$$
[H]ON([H])C(=O)N1C([H])([H])[C@@]([H])(N([H])S(=O)(=O)c2c([H])c([H])c(OC([H])([H])c3c([H])c(C([H])([H])[H])nc4c([H])c([H])c([H])c([H])c34)c([H])c2[H])[C@@]([H])(C([H])([H])[H])C1([H])[H]


 36 39  0  0  0  0  0  0  0  0999 V2000
  -10.6323   -6.8186    8.6298 C   0  0  0  0  0  0  0  0  0  0  0  0
  -10.1970   -8.0742    8.2699 C   0  0  0  0  0  0  0  0  0  0  0  0
   -9.0289   -8.2558    7.5435 C   0  0  0  0  0  0  0  0  0  0  0  0
   -8.2470   -7.1932    7.1461 C   0  0  0  0  0  0  0  0  0  0  0  0
   -8.6926   -5.9177    7.5141 C   0  0  0  0  0  0  0  0  0  0  0  0
   -9.8572   -5.7506    8.2371 C   0  0  0  0  0  0  0  0  0  0  0  0
   -6.7928   -7.4361    6.2449 S   0  0  0  0  0  0  0  0  0  0  0  0
   -7.0154   -7.1691    4.7612 O   0  0  0  0  0  0  0  0  0  0  0  0
   -6.4094   -8.8858    6.3770 O   0  0  0  0  0  0  0  0  0  0  0  0
   -5.5457   -6.4172    6.8574 N   0  0  0  0  0  0  0  0  0  0  0  0
   -5.8258   -5.4120    6.9119 H   0  0  0  0  0  0  0  0  0  0  0  0
   -4.8910   -6.9162    8.0201 C   0  0  0  0  0  0  0  0  0  0  0  0
   -4.9253   -5.8409    9.1096 C   0  0  0  0  0  0  0  0  0  0  0  0
   -3.5961   -5.2969    9.1811 N   0  0  0  0  0  0  0  0  0  0  0  0
   -2.9067   -5.6679    7.9706 C   0  0  0  0  0  0  0  0  0  0  0  0
   -3.4198   -7.1030    7.7845 C   0  0  0  0  0  0  0  0  0  0  0  0
   -3.0701   -7.6227    6.4178 C   0  0  0  0  0  0  0  0  0  0  0  0
   -3.0375   -4.5329   10.2310 C   0  0  0  0  0  0  0  0  0  0  0  0
   -3.7740   -4.2836   11.2365 O   0  0  0  0  0  0  0  0  0  0  0  0
   -1.7113   -4.0405   10.2112 N   0  0  0  0  0  0  0  0  0  0  0  0
   -1.2678   -3.3204   11.2604 O   0  0  0  0  0  0  0  0  0  0  0  0
   -1.0742   -4.2171    9.4160 H   0  0  0  0  0  0  0  0  0  0  0  0
   -1.5986   -2.3935   11.2151 H   0  0  0  0  0  0  0  0  0  0  0  0
  -11.8031   -6.6583    9.3562 O   0  0  0  0  0  0  0  0  0  0  0  0
  -12.9683   -6.1973    8.7012 C   0  0  0  0  0  0  0  0  0  0  0  0
  -13.7547  -11.0429    7.8110 C   0  0  0  0  0  0  0  0  0  0  0  0
  -13.9055   -9.6199    7.4237 C   0  0  0  0  0  0  0  0  0  0  0  0
  -13.3870   -8.6202    8.2150 C   0  0  0  0  0  0  0  0  0  0  0  0
  -13.5205   -7.2831    7.8632 C   0  0  0  0  0  0  0  0  0  0  0  0
  -14.1811   -6.9429    6.7055 C   0  0  0  0  0  0  0  0  0  0  0  0
  -14.3420   -5.6325    6.3092 C   0  0  0  0  0  0  0  0  0  0  0  0
  -15.0058   -5.2925    5.1457 C   0  0  0  0  0  0  0  0  0  0  0  0
  -15.5089   -6.3269    4.3847 C   0  0  0  0  0  0  0  0  0  0  0  0
  -15.3549   -7.6383    4.7694 C   0  0  0  0  0  0  0  0  0  0  0  0
  -14.6863   -7.9608    5.9392 C   0  0  0  0  0  0  0  0  0  0  0  0
  -14.5428   -9.2689    6.3052 N   0  0  0  0  0  0  0  0  0  0  0  0
 26 27  1  0  0  0
 27 28  2  0  0  0
 28 29  1  0  0  0
 29 25  1  0  0  0
 25 24  1  0  0  0
 24  1  1  0  0  0
  1  2  2  0  0  0
  2  3  1  0  0  0
  3  4  2  0  0  0
  4  5  1  0  0  0
  5  6  2  0  0  0
  4  7  1  0  0  0
  7  8  2  0  0  0
  7  9  2  0  0  0
  7 10  1  0  0  0
 10 12  1  0  0  0
 12 13  1  0  0  0
 13 14  1  0  0  0
 14 15  1  0  0  0
 15 16  1  0  0  0
 16 17  1  0  0  0
 14 18  1  0  0  0
 18 19  2  0  0  0
 18 20  1  0  0  0
 20 21  1  0  0  0
 29 30  2  0  0  0
 30 31  1  0  0  0
 31 32  2  0  0  0
 32 33  1  0  0  0
 33 34  2  0  0  0
 34 35  1  0  0  0
 35 36  2  0  0  0
 36 27  1  0  0  0
  6  1  1  0  0  0
 16 12  1  0  0  0
 35 30  1  0  0  0
 10 11  1  0  0  0
 20 22  1  0  0  0
 21 23  1  0  0  0
M  END
> <minimizedAffinity>
-6.14934

> <CNNscore>
0.1958760917

> <CNNaffinity>
6.3835663795

> <CNN_VS>
1.2503880262

> <CNNaffinity_variance>
0.1800986528

$$$$
[H]c1nc2c([H])c(N([H])c3nn([H])c(C([H])([H])[H])c3[H])nc(N([H])[C@@]3([H])C([H])([H])[C@@]4([H])N(S(=O)(=O)N5C([H])([H])C([H])([H])OC([H])([H])C5([H])[H])[C@]([H])(C([H])([H])C([H])([H])C4([H])[H])C3([H])[H])c2c([H])c1[H]


 39 44  0  0  0  0  0  0  0  0999 V2000
  -15.0438   -9.6550    5.5643 N   0  0  0  0  0  0  0  0  0  0  0  0
  -15.5947  -10.5546    5.7743 H   0  0  0  0  0  0  0  0  0  0  0  0
  -17.2466   -7.3456    3.7045 C   0  0  0  0  0  0  0  0  0  0  0  0
  -16.5876   -7.2033    2.5227 C   0  0  0  0  0  0  0  0  0  0  0  0
  -15.3758   -7.8920    2.3388 C   0  0  0  0  0  0  0  0  0  0  0  0
  -14.7428   -7.7294    1.1506 N   0  0  0  0  0  0  0  0  0  0  0  0
  -13.5839   -8.3325    0.8598 C   0  0  0  0  0  0  0  0  0  0  0  0
  -13.0586   -9.1369    1.8389 C   0  0  0  0  0  0  0  0  0  0  0  0
  -13.6742   -9.3312    3.0702 C   0  0  0  0  0  0  0  0  0  0  0  0
  -14.8622   -8.6947    3.3299 C   0  0  0  0  0  0  0  0  0  0  0  0
  -15.5510   -8.8319    4.5410 C   0  0  0  0  0  0  0  0  0  0  0  0
  -16.6836   -8.1628    4.6601 N   0  0  0  0  0  0  0  0  0  0  0  0
  -18.4593   -6.7011    3.9835 N   0  0  0  0  0  0  0  0  0  0  0  0
  -19.3165   -7.3228    3.6747 H   0  0  0  0  0  0  0  0  0  0  0  0
  -18.8794   -2.3982    6.5956 C   0  0  0  0  0  0  0  0  0  0  0  0
  -19.0891   -3.4987    5.6485 C   0  0  0  0  0  0  0  0  0  0  0  0
  -18.3046   -4.6645    5.5323 C   0  0  0  0  0  0  0  0  0  0  0  0
  -18.7790   -5.4753    4.5520 C   0  0  0  0  0  0  0  0  0  0  0  0
  -19.8771   -4.7713    4.0716 N   0  0  0  0  0  0  0  0  0  0  0  0
  -20.0248   -3.6616    4.7104 N   0  0  0  0  0  0  0  0  0  0  0  0
  -20.7751   -2.9502    4.5419 H   0  0  0  0  0  0  0  0  0  0  0  0
  -13.8656   -9.4204    6.3617 C   0  0  0  0  0  0  0  0  0  0  0  0
  -13.6611   -7.9537    6.5587 C   0  0  0  0  0  0  0  0  0  0  0  0
  -12.6000   -7.6743    7.6113 C   0  0  0  0  0  0  0  0  0  0  0  0
  -11.2353   -7.9015    6.9470 C   0  0  0  0  0  0  0  0  0  0  0  0
  -10.5564   -9.0943    7.5237 C   0  0  0  0  0  0  0  0  0  0  0  0
  -11.4586  -10.2800    7.7820 C   0  0  0  0  0  0  0  0  0  0  0  0
  -12.7319   -9.8891    8.5179 C   0  0  0  0  0  0  0  0  0  0  0  0
  -13.9142  -10.2072    7.6184 C   0  0  0  0  0  0  0  0  0  0  0  0
  -12.6822   -8.4984    8.7377 N   0  0  0  0  0  0  0  0  0  0  0  0
  -13.1387   -7.8737   10.2186 S   0  0  0  0  0  0  0  0  0  0  0  0
  -12.8580   -8.8358   11.3729 O   0  0  0  0  0  0  0  0  0  0  0  0
  -14.6234   -7.5535   10.2962 O   0  0  0  0  0  0  0  0  0  0  0  0
  -12.3046   -6.4455   10.5939 N   0  0  0  0  0  0  0  0  0  0  0  0
  -12.7844   -5.2465   10.0304 C   0  0  0  0  0  0  0  0  0  0  0  0
  -13.0572   -4.1519   11.0321 C   0  0  0  0  0  0  0  0  0  0  0  0
  -11.9375   -4.0355   11.8498 O   0  0  0  0  0  0  0  0  0  0  0  0
  -11.9317   -5.1903   12.6672 C   0  0  0  0  0  0  0  0  0  0  0  0
  -11.6086   -6.3888   11.8106 C   0  0  0  0  0  0  0  0  0  0  0  0
 15 16  1  0  0  0
 16 17  2  0  0  0
 17 18  1  0  0  0
 18 13  1  0  0  0
 13  3  1  0  0  0
  3  4  2  0  0  0
  4  5  1  0  0  0
  5  6  2  0  0  0
  6  7  1  0  0  0
  7  8  2  0  0  0
  8  9  1  0  0  0
  9 10  2  0  0  0
 10 11  1  0  0  0
 11  1  1  0  0  0
  1 22  1  0  0  0
 22 23  1  0  0  0
 23 24  1  0  0  0
 24 25  1  0  0  0
 25 26  1  0  0  0
 26 27  1  0  0  0
 27 28  1  0  0  0
 28 29  1  0  0  0
 28 30  1  0  0  0
 30 31  1  0  0  0
 31 32  2  0  0  0
 31 33  2  0  0  0
 31 34  1  0  0  0
 34 35  1  0  0  0
 35 36  1  0  0  0
 36 37  1  0  0  0
 37 38  1  0  0  0
 38 39  1  0  0  0
 11 12  2  0  0  0
 18 19  2  0  0  0
 19 20  1  0  0  0
 20 16  1  0  0  0
 12  3  1  0  0  0
 10  5  1  0  0  0
 29 22  1  0  0  0
 39 34  1  0  0  0
 30 24  1  0  0  0
 13 14  1  0  0  0
  1  2  1  0  0  0
 20 21  1  0  0  0
M  END
> <minimizedAffinity>
19.53215

> <CNNscore>
0.4722131193

> <CNNaffinity>
7.6091513634

> <CNN_VS>
3.5931410789

> <CNNaffinity_variance>
1.0954596996

$$$$
[H]c1nc2c([H])c(N([H])c3nn([H])c(C([H])([H])[H])c3[H])nc(N([H])[C@@]3([H])C([H])([H])[C@@]4([H])N(S(=O)(=O)N5C([H])([H])C([H])([H])OC([H])([H])C5([H])[H])[C@]([H])(C([H])([H])C([H])([H])C4([H])[H])C3([H])[H])c2c([H])c1[H]


 39 44  0  0  0  0  0  0  0  0999 V2000
  -15.6132   -5.6651    6.8732 N   0  0  0  0  0  0  0  0  0  0  0  0
  -16.1011   -5.0574    7.6144 H   0  0  0  0  0  0  0  0  0  0  0  0
  -14.6079   -4.4590    3.5296 C   0  0  0  0  0  0  0  0  0  0  0  0
  -15.8062   -4.3018    2.9046 C   0  0  0  0  0  0  0  0  0  0  0  0
  -16.9816   -4.6072    3.6127 C   0  0  0  0  0  0  0  0  0  0  0  0
  -18.1599   -4.4407    2.9623 N   0  0  0  0  0  0  0  0  0  0  0  0
  -19.3434   -4.6989    3.5317 C   0  0  0  0  0  0  0  0  0  0  0  0
  -19.3058   -5.1478    4.8273 C   0  0  0  0  0  0  0  0  0  0  0  0
  -18.1208   -5.3324    5.5306 C   0  0  0  0  0  0  0  0  0  0  0  0
  -16.9275   -5.0562    4.9112 C   0  0  0  0  0  0  0  0  0  0  0  0
  -15.6876   -5.2133    5.5419 C   0  0  0  0  0  0  0  0  0  0  0  0
  -14.6161   -4.9121    4.8307 N   0  0  0  0  0  0  0  0  0  0  0  0
  -13.3824   -4.1819    2.9092 N   0  0  0  0  0  0  0  0  0  0  0  0
  -13.5286   -3.5724    2.0016 H   0  0  0  0  0  0  0  0  0  0  0  0
   -8.9030   -5.4572    4.8647 C   0  0  0  0  0  0  0  0  0  0  0  0
   -9.9868   -5.0834    3.9493 C   0  0  0  0  0  0  0  0  0  0  0  0
  -11.3306   -4.8380    4.2986 C   0  0  0  0  0  0  0  0  0  0  0  0
  -12.0672   -4.5150    3.2047 C   0  0  0  0  0  0  0  0  0  0  0  0
  -11.1344   -4.5699    2.1755 N   0  0  0  0  0  0  0  0  0  0  0  0
   -9.9716   -4.8930    2.6281 N   0  0  0  0  0  0  0  0  0  0  0  0
   -9.0988   -5.0022    2.0591 H   0  0  0  0  0  0  0  0  0  0  0  0
  -14.9520   -6.8547    7.3493 C   0  0  0  0  0  0  0  0  0  0  0  0
  -14.0233   -7.3806    6.3039 C   0  0  0  0  0  0  0  0  0  0  0  0
  -13.1113   -8.4626    6.8605 C   0  0  0  0  0  0  0  0  0  0  0  0
  -13.9414   -9.7505    6.9481 C   0  0  0  0  0  0  0  0  0  0  0  0
  -14.1746  -10.1361    8.3669 C   0  0  0  0  0  0  0  0  0  0  0  0
  -14.4937   -8.9871    9.2968 C   0  0  0  0  0  0  0  0  0  0  0  0
  -13.5262   -7.8240    9.1331 C   0  0  0  0  0  0  0  0  0  0  0  0
  -14.3172   -6.6131    8.6681 C   0  0  0  0  0  0  0  0  0  0  0  0
  -12.6019   -8.1818    8.1317 N   0  0  0  0  0  0  0  0  0  0  0  0
  -10.9770   -7.8566    8.3455 S   0  0  0  0  0  0  0  0  0  0  0  0
  -10.3098   -7.3383    7.0714 O   0  0  0  0  0  0  0  0  0  0  0  0
  -10.1766   -9.0796    8.7657 O   0  0  0  0  0  0  0  0  0  0  0  0
  -10.7136   -6.6648    9.5230 N   0  0  0  0  0  0  0  0  0  0  0  0
  -10.2028   -5.4254    9.0890 C   0  0  0  0  0  0  0  0  0  0  0  0
  -11.0190   -4.2305    9.5157 C   0  0  0  0  0  0  0  0  0  0  0  0
  -11.2594   -4.3458   10.8813 O   0  0  0  0  0  0  0  0  0  0  0  0
  -12.1871   -5.4045   11.0242 C   0  0  0  0  0  0  0  0  0  0  0  0
  -11.4974   -6.7023   10.6859 C   0  0  0  0  0  0  0  0  0  0  0  0
 15 16  1  0  0  0
 16 17  2  0  0  0
 17 18  1  0  0  0
 18 13  1  0  0  0
 13  3  1  0  0  0
  3  4  2  0  0  0
  4  5  1  0  0  0
  5  6  2  0  0  0
  6  7  1  0  0  0
  7  8  2  0  0  0
  8  9  1  0  0  0
  9 10  2  0  0  0
 10 11  1  0  0  0
 11  1  1  0  0  0
  1 22  1  0  0  0
 22 23  1  0  0  0
 23 24  1  0  0  0
 24 25  1  0  0  0
 25 26  1  0  0  0
 26 27  1  0  0  0
 27 28  1  0  0  0
 28 29  1  0  0  0
 28 30  1  0  0  0
 30 31  1  0  0  0
 31 32  2  0  0  0
 31 33  2  0  0  0
 31 34  1  0  0  0
 34 35  1  0  0  0
 35 36  1  0  0  0
 36 37  1  0  0  0
 37 38  1  0  0  0
 38 39  1  0  0  0
 11 12  2  0  0  0
 18 19  2  0  0  0
 19 20  1  0  0  0
 20 16  1  0  0  0
 12  3  1  0  0  0
 10  5  1  0  0  0
 29 22  1  0  0  0
 39 34  1  0  0  0
 30 24  1  0  0  0
 13 14  1  0  0  0
  1  2  1  0  0  0
 20 21  1  0  0  0
M  END
> <minimizedAffinity>
29.45561

> <CNNscore>
0.4674829841

> <CNNaffinity>
7.4327416420

> <CNN_VS>
3.4746801853

> <CNNaffinity_variance>
0.9215623736

$$$$
[H]c1nc2c([H])c(N([H])c3nn([H])c(C([H])([H])[H])c3[H])nc(N([H])[C@@]3([H])C([H])([H])[C@@]4([H])N(S(=O)(=O)N5C([H])([H])C([H])([H])OC([H])([H])C5([H])[H])[C@]([H])(C([H])([H])C([H])([H])C4([H])[H])C3([H])[H])c2c([H])c1[H]


 39 44  0  0  0  0  0  0  0  0999 V2000
   -9.5901   -7.0937    6.5793 N   0  0  0  0  0  0  0  0  0  0  0  0
   -9.7584   -6.0315    6.5925 H   0  0  0  0  0  0  0  0  0  0  0  0
   -6.6826   -8.4572    4.7539 C   0  0  0  0  0  0  0  0  0  0  0  0
   -5.6935   -8.3830    5.6852 C   0  0  0  0  0  0  0  0  0  0  0  0
   -6.0000   -7.8631    6.9549 C   0  0  0  0  0  0  0  0  0  0  0  0
   -4.9927   -7.8018    7.8609 N   0  0  0  0  0  0  0  0  0  0  0  0
   -5.1626   -7.3264    9.1005 C   0  0  0  0  0  0  0  0  0  0  0  0
   -6.4268   -6.8970    9.4153 C   0  0  0  0  0  0  0  0  0  0  0  0
   -7.4872   -6.9420    8.5174 C   0  0  0  0  0  0  0  0  0  0  0  0
   -7.2721   -7.4367    7.2553 C   0  0  0  0  0  0  0  0  0  0  0  0
   -8.2802   -7.5190    6.2873 C   0  0  0  0  0  0  0  0  0  0  0  0
   -7.9372   -8.0150    5.1121 N   0  0  0  0  0  0  0  0  0  0  0  0
   -6.4769   -8.9589    3.4617 N   0  0  0  0  0  0  0  0  0  0  0  0
   -5.7485   -8.3413    2.9101 H   0  0  0  0  0  0  0  0  0  0  0  0
   -8.6112  -13.2157    1.7763 C   0  0  0  0  0  0  0  0  0  0  0  0
   -7.9225  -11.9234    1.8658 C   0  0  0  0  0  0  0  0  0  0  0  0
   -7.6459  -11.2019    3.0452 C   0  0  0  0  0  0  0  0  0  0  0  0
   -6.9948  -10.0435    2.7664 C   0  0  0  0  0  0  0  0  0  0  0  0
   -6.8811  -10.0773    1.3814 N   0  0  0  0  0  0  0  0  0  0  0  0
   -7.4139  -11.1497    0.9042 N   0  0  0  0  0  0  0  0  0  0  0  0
   -7.4606  -11.4152   -0.1081 H   0  0  0  0  0  0  0  0  0  0  0  0
  -10.7299   -7.9298    6.8636 C   0  0  0  0  0  0  0  0  0  0  0  0
  -10.6179   -8.5022    8.2390 C   0  0  0  0  0  0  0  0  0  0  0  0
  -11.9168   -9.1599    8.6776 C   0  0  0  0  0  0  0  0  0  0  0  0
  -11.9883  -10.5254    7.9805 C   0  0  0  0  0  0  0  0  0  0  0  0
  -13.0823  -10.5494    6.9712 C   0  0  0  0  0  0  0  0  0  0  0  0
  -13.2162   -9.2903    6.1446 C   0  0  0  0  0  0  0  0  0  0  0  0
  -13.2048   -8.0320    7.0002 C   0  0  0  0  0  0  0  0  0  0  0  0
  -11.9959   -7.2017    6.6035 C   0  0  0  0  0  0  0  0  0  0  0  0
  -13.0649   -8.4359    8.3427 N   0  0  0  0  0  0  0  0  0  0  0  0
  -13.9921   -7.7125    9.5296 S   0  0  0  0  0  0  0  0  0  0  0  0
  -14.0084   -8.5139   10.8313 O   0  0  0  0  0  0  0  0  0  0  0  0
  -15.4489   -7.5454    9.1262 O   0  0  0  0  0  0  0  0  0  0  0  0
  -13.4135   -6.1725    9.9421 N   0  0  0  0  0  0  0  0  0  0  0  0
  -13.4026   -5.8278   11.3083 C   0  0  0  0  0  0  0  0  0  0  0  0
  -12.0647   -5.3565   11.8219 C   0  0  0  0  0  0  0  0  0  0  0  0
  -11.5906   -4.3860   10.9448 O   0  0  0  0  0  0  0  0  0  0  0  0
  -11.2284   -5.0742    9.7629 C   0  0  0  0  0  0  0  0  0  0  0  0
  -12.4825   -5.5667    9.0852 C   0  0  0  0  0  0  0  0  0  0  0  0
 15 16  1  0  0  0
 16 17  2  0  0  0
 17 18  1  0  0  0
 18 13  1  0  0  0
 13  3  1  0  0  0
  3  4  2  0  0  0
  4  5  1  0  0  0
  5  6  2  0  0  0
  6  7  1  0  0  0
  7  8  2  0  0  0
  8  9  1  0  0  0
  9 10  2  0  0  0
 10 11  1  0  0  0
 11  1  1  0  0  0
  1 22  1  0  0  0
 22 23  1  0  0  0
 23 24  1  0  0  0
 24 25  1  0  0  0
 25 26  1  0  0  0
 26 27  1  0  0  0
 27 28  1  0  0  0
 28 29  1  0  0  0
 28 30  1  0  0  0
 30 31  1  0  0  0
 31 32  2  0  0  0
 31 33  2  0  0  0
 31 34  1  0  0  0
 34 35  1  0  0  0
 35 36  1  0  0  0
 36 37  1  0  0  0
 37 38  1  0  0  0
 38 39  1  0  0  0
 11 12  2  0  0  0
 18 19  2  0  0  0
 19 20  1  0  0  0
 20 16  1  0  0  0
 12  3  1  0  0  0
 10  5  1  0  0  0
 29 22  1  0  0  0
 39 34  1  0  0  0
 30 24  1  0  0  0
 13 14  1  0  0  0
  1  2  1  0  0  0
 20 21  1  0  0  0
M  END
> <minimizedAffinity>
10.05027

> <CNNscore>
0.4458807409

> <CNNaffinity>
7.2042288780

> <CNN_VS>
3.2122268677

> <CNNaffinity_variance>
0.6230789423

$$$$
[H]c1nc2c([H])c(N([H])c3nn([H])c(C([H])([H])[H])c3[H])nc(N([H])[C@@]3([H])C([H])([H])[C@@]4([H])N(S(=O)(=O)N5C([H])([H])C([H])([H])OC([H])([H])C5([H])[H])[C@]([H])(C([H])([H])C([H])([H])C4([H])[H])C3([H])[H])c2c([H])c1[H]


 39 44  0  0  0  0  0  0  0  0999 V2000
  -15.1775   -7.9163    7.5148 N   0  0  0  0  0  0  0  0  0  0  0  0
  -15.9715   -7.2034    7.3797 H   0  0  0  0  0  0  0  0  0  0  0  0
  -12.9092   -9.6934    5.2037 C   0  0  0  0  0  0  0  0  0  0  0  0
  -13.6233   -9.7036    4.0456 C   0  0  0  0  0  0  0  0  0  0  0  0
  -14.8955   -9.1054    4.0322 C   0  0  0  0  0  0  0  0  0  0  0  0
  -15.5825   -9.1323    2.8633 N   0  0  0  0  0  0  0  0  0  0  0  0
  -16.8015   -8.5965    2.7281 C   0  0  0  0  0  0  0  0  0  0  0  0
  -17.3312   -8.0088    3.8486 C   0  0  0  0  0  0  0  0  0  0  0  0
  -16.6616   -7.9591    5.0660 C   0  0  0  0  0  0  0  0  0  0  0  0
  -15.4128   -8.5202    5.1637 C   0  0  0  0  0  0  0  0  0  0  0  0
  -14.6669   -8.5170    6.3485 C   0  0  0  0  0  0  0  0  0  0  0  0
  -13.4789   -9.0926    6.3049 N   0  0  0  0  0  0  0  0  0  0  0  0
  -11.6341  -10.2631    5.3180 N   0  0  0  0  0  0  0  0  0  0  0  0
  -11.5403  -11.1529    4.6731 H   0  0  0  0  0  0  0  0  0  0  0  0
   -8.1100   -8.5056    8.4814 C   0  0  0  0  0  0  0  0  0  0  0  0
   -8.8157   -9.2316    7.4198 C   0  0  0  0  0  0  0  0  0  0  0  0
  -10.1838   -9.1216    7.0969 C   0  0  0  0  0  0  0  0  0  0  0  0
  -10.5068   -9.9364    6.0600 C   0  0  0  0  0  0  0  0  0  0  0  0
   -9.2958  -10.5485    5.7577 N   0  0  0  0  0  0  0  0  0  0  0  0
   -8.3627  -10.1297    6.5421 N   0  0  0  0  0  0  0  0  0  0  0  0
   -7.3605  -10.4341    6.5230 H   0  0  0  0  0  0  0  0  0  0  0  0
  -14.7491   -8.1536    8.8710 C   0  0  0  0  0  0  0  0  0  0  0  0
  -13.2645   -8.3120    8.9215 C   0  0  0  0  0  0  0  0  0  0  0  0
  -12.7488   -8.2890   10.3517 C   0  0  0  0  0  0  0  0  0  0  0  0
  -13.0412   -9.6680   10.9585 C   0  0  0  0  0  0  0  0  0  0  0  0
  -14.0753   -9.5701   12.0249 C   0  0  0  0  0  0  0  0  0  0  0  0
  -15.2269   -8.6406   11.7143 C   0  0  0  0  0  0  0  0  0  0  0  0
  -14.7568   -7.2893   11.1963 C   0  0  0  0  0  0  0  0  0  0  0  0
  -15.2865   -7.1145    9.7832 C   0  0  0  0  0  0  0  0  0  0  0  0
  -13.3487   -7.3182   11.1594 N   0  0  0  0  0  0  0  0  0  0  0  0
  -12.4754   -5.9988   11.6966 S   0  0  0  0  0  0  0  0  0  0  0  0
  -11.9980   -6.1595   13.1399 O   0  0  0  0  0  0  0  0  0  0  0  0
  -13.2739   -4.7049   11.6646 O   0  0  0  0  0  0  0  0  0  0  0  0
  -11.0767   -5.7398   10.7731 N   0  0  0  0  0  0  0  0  0  0  0  0
  -10.7584   -6.7014    9.7936 C   0  0  0  0  0  0  0  0  0  0  0  0
  -10.5529   -6.1374    8.4095 C   0  0  0  0  0  0  0  0  0  0  0  0
   -9.6767   -5.0618    8.5147 O   0  0  0  0  0  0  0  0  0  0  0  0
  -10.4047   -4.0285    9.1504 C   0  0  0  0  0  0  0  0  0  0  0  0
  -10.6446   -4.4181   10.5875 C   0  0  0  0  0  0  0  0  0  0  0  0
 15 16  1  0  0  0
 16 17  2  0  0  0
 17 18  1  0  0  0
 18 13  1  0  0  0
 13  3  1  0  0  0
  3  4  2  0  0  0
  4  5  1  0  0  0
  5  6  2  0  0  0
  6  7  1  0  0  0
  7  8  2  0  0  0
  8  9  1  0  0  0
  9 10  2  0  0  0
 10 11  1  0  0  0
 11  1  1  0  0  0
  1 22  1  0  0  0
 22 23  1  0  0  0
 23 24  1  0  0  0
 24 25  1  0  0  0
 25 26  1  0  0  0
 26 27  1  0  0  0
 27 28  1  0  0  0
 28 29  1  0  0  0
 28 30  1  0  0  0
 30 31  1  0  0  0
 31 32  2  0  0  0
 31 33  2  0  0  0
 31 34  1  0  0  0
 34 35  1  0  0  0
 35 36  1  0  0  0
 36 37  1  0  0  0
 37 38  1  0  0  0
 38 39  1  0  0  0
 11 12  2  0  0  0
 18 19  2  0  0  0
 19 20  1  0  0  0
 20 16  1  0  0  0
 12  3  1  0  0  0
 10  5  1  0  0  0
 29 22  1  0  0  0
 39 34  1  0  0  0
 30 24  1  0  0  0
 13 14  1  0  0  0
  1  2  1  0  0  0
 20 21  1  0  0  0
M  END
> <minimizedAffinity>
17.48382

> <CNNscore>
0.4010424614

> <CNNaffinity>
7.1355133057

> <CNN_VS>
2.8616437912

> <CNNaffinity_variance>
0.3711093366

$$$$
[H]c1nc2c([H])c(N([H])c3nn([H])c(C([H])([H])[H])c3[H])nc(N([H])[C@@]3([H])C([H])([H])[C@@]4([H])N(S(=O)(=O)N5C([H])([H])C([H])([H])OC([H])([H])C5([H])[H])[C@]([H])(C([H])([H])C([H])([H])C4([H])[H])C3([H])[H])c2c([H])c1[H]


 39 44  0  0  0  0  0  0  0  0999 V2000
  -12.6891   -8.6214    6.4981 N   0  0  0  0  0  0  0  0  0  0  0  0
  -13.1113   -9.6092    6.5529 H   0  0  0  0  0  0  0  0  0  0  0  0
  -10.1101   -7.1473    8.6935 C   0  0  0  0  0  0  0  0  0  0  0  0
   -9.0578   -7.9907    8.5133 C   0  0  0  0  0  0  0  0  0  0  0  0
   -9.2095   -9.0816    7.6396 C   0  0  0  0  0  0  0  0  0  0  0  0
   -8.1430   -9.9042    7.4814 N   0  0  0  0  0  0  0  0  0  0  0  0
   -8.1675  -10.9742    6.6778 C   0  0  0  0  0  0  0  0  0  0  0  0
   -9.3440  -11.2023    6.0105 C   0  0  0  0  0  0  0  0  0  0  0  0
  -10.4607  -10.3848    6.1435 C   0  0  0  0  0  0  0  0  0  0  0  0
  -10.3953   -9.2969    6.9777 C   0  0  0  0  0  0  0  0  0  0  0  0
  -11.4699   -8.4208    7.1727 C   0  0  0  0  0  0  0  0  0  0  0  0
  -11.2726   -7.4134    8.0038 N   0  0  0  0  0  0  0  0  0  0  0  0
  -10.0576   -6.0337    9.5425 N   0  0  0  0  0  0  0  0  0  0  0  0
   -9.3316   -5.2900    9.1733 H   0  0  0  0  0  0  0  0  0  0  0  0
  -11.6521   -4.4122   14.0529 C   0  0  0  0  0  0  0  0  0  0  0  0
  -11.5722   -5.0268   12.7232 C   0  0  0  0  0  0  0  0  0  0  0  0
  -10.4461   -5.0437   11.8749 C   0  0  0  0  0  0  0  0  0  0  0  0
  -10.7184   -5.6979   10.7167 C   0  0  0  0  0  0  0  0  0  0  0  0
  -12.0445   -6.0809   10.8812 N   0  0  0  0  0  0  0  0  0  0  0  0
  -12.4965   -5.6875   12.0224 N   0  0  0  0  0  0  0  0  0  0  0  0
  -13.4647   -5.8482   12.3890 H   0  0  0  0  0  0  0  0  0  0  0  0
  -13.4317   -7.6448    5.7407 C   0  0  0  0  0  0  0  0  0  0  0  0
  -13.7795   -8.1929    4.3951 C   0  0  0  0  0  0  0  0  0  0  0  0
  -14.7877   -7.3104    3.6763 C   0  0  0  0  0  0  0  0  0  0  0  0
  -14.0171   -6.1039    3.1232 C   0  0  0  0  0  0  0  0  0  0  0  0
  -14.4116   -4.8536    3.8284 C   0  0  0  0  0  0  0  0  0  0  0  0
  -14.5912   -4.9931    5.3234 C   0  0  0  0  0  0  0  0  0  0  0  0
  -15.4454   -6.1966    5.6941 C   0  0  0  0  0  0  0  0  0  0  0  0
  -14.5923   -7.1458    6.5183 C   0  0  0  0  0  0  0  0  0  0  0  0
  -15.8170   -6.8358    4.4947 N   0  0  0  0  0  0  0  0  0  0  0  0
  -17.3848   -7.3769    4.2919 S   0  0  0  0  0  0  0  0  0  0  0  0
  -17.6459   -8.7011    5.0098 O   0  0  0  0  0  0  0  0  0  0  0  0
  -17.7469   -7.6158    2.8343 O   0  0  0  0  0  0  0  0  0  0  0  0
  -18.5231   -6.2829    4.9114 N   0  0  0  0  0  0  0  0  0  0  0  0
  -18.0662   -5.3280    5.8414 C   0  0  0  0  0  0  0  0  0  0  0  0
  -18.3937   -3.9001    5.4811 C   0  0  0  0  0  0  0  0  0  0  0  0
  -19.7469   -3.8417    5.1629 O   0  0  0  0  0  0  0  0  0  0  0  0
  -19.8818   -4.4997    3.9176 C   0  0  0  0  0  0  0  0  0  0  0  0
  -19.6396   -5.9745    4.1201 C   0  0  0  0  0  0  0  0  0  0  0  0
 15 16  1  0  0  0
 16 17  2  0  0  0
 17 18  1  0  0  0
 18 13  1  0  0  0
 13  3  1  0  0  0
  3  4  2  0  0  0
  4  5  1  0  0  0
  5  6  2  0  0  0
  6  7  1  0  0  0
  7  8  2  0  0  0
  8  9  1  0  0  0
  9 10  2  0  0  0
 10 11  1  0  0  0
 11  1  1  0  0  0
  1 22  1  0  0  0
 22 23  1  0  0  0
 23 24  1  0  0  0
 24 25  1  0  0  0
 25 26  1  0  0  0
 26 27  1  0  0  0
 27 28  1  0  0  0
 28 29  1  0  0  0
 28 30  1  0  0  0
 30 31  1  0  0  0
 31 32  2  0  0  0
 31 33  2  0  0  0
 31 34  1  0  0  0
 34 35  1  0  0  0
 35 36  1  0  0  0
 36 37  1  0  0  0
 37 38  1  0  0  0
 38 39  1  0  0  0
 11 12  2  0  0  0
 18 19  2  0  0  0
 19 20  1  0  0  0
 20 16  1  0  0  0
 12  3  1  0  0  0
 10  5  1  0  0  0
 29 22  1  0  0  0
 39 34  1  0  0  0
 30 24  1  0  0  0
 13 14  1  0  0  0
  1  2  1  0  0  0
 20 21  1  0  0  0
M  END
> <minimizedAffinity>
11.46085

> <CNNscore>
0.3686409593

> <CNNaffinity>
7.5414743423

> <CNN_VS>
2.7800962925

> <CNNaffinity_variance>
1.0429052114

$$$$
[H]c1nc2c([H])c(N([H])c3nn([H])c(C([H])([H])[H])c3[H])nc(N([H])[C@@]3([H])C([H])([H])[C@@]4([H])N(S(=O)(=O)N5C([H])([H])C([H])([H])OC([H])([H])C5([H])[H])[C@]([H])(C([H])([H])C([H])([H])C4([H])[H])C3([H])[H])c2c([H])c1[H]


 39 44  0  0  0  0  0  0  0  0999 V2000
  -10.2784   -8.7878    7.5090 N   0  0  0  0  0  0  0  0  0  0  0  0
  -10.1034   -9.7186    8.0187 H   0  0  0  0  0  0  0  0  0  0  0  0
  -13.8422   -8.1393    6.7856 C   0  0  0  0  0  0  0  0  0  0  0  0
  -14.1683   -7.2179    7.7322 C   0  0  0  0  0  0  0  0  0  0  0  0
  -13.1771   -6.8017    8.6382 C   0  0  0  0  0  0  0  0  0  0  0  0
  -13.5332   -5.8829    9.5699 N   0  0  0  0  0  0  0  0  0  0  0  0
  -12.6777   -5.4113   10.4848 C   0  0  0  0  0  0  0  0  0  0  0  0
  -11.4014   -5.9112   10.4333 C   0  0  0  0  0  0  0  0  0  0  0  0
  -10.9945   -6.8534    9.4955 C   0  0  0  0  0  0  0  0  0  0  0  0
  -11.9021   -7.3121    8.5737 C   0  0  0  0  0  0  0  0  0  0  0  0
  -11.5805   -8.2596    7.5945 C   0  0  0  0  0  0  0  0  0  0  0  0
  -12.5493   -8.6148    6.7698 N   0  0  0  0  0  0  0  0  0  0  0  0
  -14.7587   -8.6171    5.8393 N   0  0  0  0  0  0  0  0  0  0  0  0
  -14.6144   -9.6958    5.6600 H   0  0  0  0  0  0  0  0  0  0  0  0
  -17.9521   -5.6547    3.2815 C   0  0  0  0  0  0  0  0  0  0  0  0
  -17.3055   -6.7990    3.9333 C   0  0  0  0  0  0  0  0  0  0  0  0
  -16.0809   -6.7828    4.6318 C   0  0  0  0  0  0  0  0  0  0  0  0
  -15.7759   -8.0167    5.1093 C   0  0  0  0  0  0  0  0  0  0  0  0
  -16.8501   -8.7887    4.6823 N   0  0  0  0  0  0  0  0  0  0  0  0
  -17.6948   -8.0729    4.0224 N   0  0  0  0  0  0  0  0  0  0  0  0
  -18.5877   -8.4142    3.5939 H   0  0  0  0  0  0  0  0  0  0  0  0
   -9.1541   -8.2139    6.8122 C   0  0  0  0  0  0  0  0  0  0  0  0
   -8.9394   -6.8034    7.2554 C   0  0  0  0  0  0  0  0  0  0  0  0
   -7.6115   -6.2570    6.7553 C   0  0  0  0  0  0  0  0  0  0  0  0
   -7.8016   -5.8945    5.2762 C   0  0  0  0  0  0  0  0  0  0  0  0
   -7.0090   -6.8016    4.4014 C   0  0  0  0  0  0  0  0  0  0  0  0
   -7.0210   -8.2567    4.8127 C   0  0  0  0  0  0  0  0  0  0  0  0
   -6.7382   -8.4413    6.2964 C   0  0  0  0  0  0  0  0  0  0  0  0
   -7.9585   -9.0837    6.9338 C   0  0  0  0  0  0  0  0  0  0  0  0
   -6.5492   -7.1607    6.8525 N   0  0  0  0  0  0  0  0  0  0  0  0
   -5.3065   -6.9008    7.9388 S   0  0  0  0  0  0  0  0  0  0  0  0
   -4.5936   -8.1938    8.3348 O   0  0  0  0  0  0  0  0  0  0  0  0
   -5.7772   -6.2704    9.2402 O   0  0  0  0  0  0  0  0  0  0  0  0
   -4.1050   -5.8861    7.3039 N   0  0  0  0  0  0  0  0  0  0  0  0
   -3.8655   -4.6680    7.9704 C   0  0  0  0  0  0  0  0  0  0  0  0
   -2.4255   -4.4427    8.3597 C   0  0  0  0  0  0  0  0  0  0  0  0
   -1.6387   -4.6888    7.2388 O   0  0  0  0  0  0  0  0  0  0  0  0
   -1.6757   -6.0889    7.0382 C   0  0  0  0  0  0  0  0  0  0  0  0
   -3.0590   -6.4763    6.5790 C   0  0  0  0  0  0  0  0  0  0  0  0
 15 16  1  0  0  0
 16 17  2  0  0  0
 17 18  1  0  0  0
 18 13  1  0  0  0
 13  3  1  0  0  0
  3  4  2  0  0  0
  4  5  1  0  0  0
  5  6  2  0  0  0
  6  7  1  0  0  0
  7  8  2  0  0  0
  8  9  1  0  0  0
  9 10  2  0  0  0
 10 11  1  0  0  0
 11  1  1  0  0  0
  1 22  1  0  0  0
 22 23  1  0  0  0
 23 24  1  0  0  0
 24 25  1  0  0  0
 25 26  1  0  0  0
 26 27  1  0  0  0
 27 28  1  0  0  0
 28 29  1  0  0  0
 28 30  1  0  0  0
 30 31  1  0  0  0
 31 32  2  0  0  0
 31 33  2  0  0  0
 31 34  1  0  0  0
 34 35  1  0  0  0
 35 36  1  0  0  0
 36 37  1  0  0  0
 37 38  1  0  0  0
 38 39  1  0  0  0
 11 12  2  0  0  0
 18 19  2  0  0  0
 19 20  1  0  0  0
 20 16  1  0  0  0
 12  3  1  0  0  0
 10  5  1  0  0  0
 29 22  1  0  0  0
 39 34  1  0  0  0
 30 24  1  0  0  0
 13 14  1  0  0  0
  1  2  1  0  0  0
 20 21  1  0  0  0
M  END
> <minimizedAffinity>
-6.49660

> <CNNscore>
0.3494684100

> <CNNaffinity>
7.6515073776

> <CNN_VS>
2.6739602089

> <CNNaffinity_variance>
0.2885277867

$$$$
[H]c1nc2c([H])c(N([H])c3nn([H])c(C([H])([H])[H])c3[H])nc(N([H])[C@@]3([H])C([H])([H])[C@@]4([H])N(S(=O)(=O)N5C([H])([H])C([H])([H])OC([H])([H])C5([H])[H])[C@]([H])(C([H])([H])C([H])([H])C4([H])[H])C3([H])[H])c2c([H])c1[H]


 39 44  0  0  0  0  0  0  0  0999 V2000
  -10.7106   -8.9904    6.6561 N   0  0  0  0  0  0  0  0  0  0  0  0
  -10.4006   -9.6323    5.8507 H   0  0  0  0  0  0  0  0  0  0  0  0
   -8.9710   -7.0357    9.2633 C   0  0  0  0  0  0  0  0  0  0  0  0
   -7.6749   -7.0927    8.8535 C   0  0  0  0  0  0  0  0  0  0  0  0
   -7.3692   -7.8025    7.6792 C   0  0  0  0  0  0  0  0  0  0  0  0
   -6.0685   -7.8414    7.2973 N   0  0  0  0  0  0  0  0  0  0  0  0
   -5.6559   -8.4856    6.1990 C   0  0  0  0  0  0  0  0  0  0  0  0
   -6.6294   -9.1153    5.4659 C   0  0  0  0  0  0  0  0  0  0  0  0
   -7.9734   -9.1006    5.8212 C   0  0  0  0  0  0  0  0  0  0  0  0
   -8.3563   -8.4286    6.9551 C   0  0  0  0  0  0  0  0  0  0  0  0
   -9.6858   -8.3616    7.3885 C   0  0  0  0  0  0  0  0  0  0  0  0
   -9.9163   -7.6821    8.4975 N   0  0  0  0  0  0  0  0  0  0  0  0
   -9.3759   -6.3543   10.4190 N   0  0  0  0  0  0  0  0  0  0  0  0
   -8.5172   -6.1593   11.0831 H   0  0  0  0  0  0  0  0  0  0  0  0
  -14.0532   -4.5994   11.1662 C   0  0  0  0  0  0  0  0  0  0  0  0
  -12.6923   -5.1125   11.3588 C   0  0  0  0  0  0  0  0  0  0  0  0
  -11.7736   -5.4509   10.3443 C   0  0  0  0  0  0  0  0  0  0  0  0
  -10.6047   -5.8945   10.8736 C   0  0  0  0  0  0  0  0  0  0  0  0
  -10.8351   -5.8176   12.2423 N   0  0  0  0  0  0  0  0  0  0  0  0
  -12.0209   -5.3732   12.4828 N   0  0  0  0  0  0  0  0  0  0  0  0
  -12.4405   -5.2220   13.4307 H   0  0  0  0  0  0  0  0  0  0  0  0
  -12.1310   -8.8651    6.8695 C   0  0  0  0  0  0  0  0  0  0  0  0
  -12.5911   -7.4978    6.4811 C   0  0  0  0  0  0  0  0  0  0  0  0
  -14.1084   -7.4127    6.4301 C   0  0  0  0  0  0  0  0  0  0  0  0
  -14.6026   -7.3029    7.8790 C   0  0  0  0  0  0  0  0  0  0  0  0
  -15.3403   -8.5313    8.2827 C   0  0  0  0  0  0  0  0  0  0  0  0
  -14.7270   -9.8294    7.8079 C   0  0  0  0  0  0  0  0  0  0  0  0
  -14.3674   -9.7934    6.3299 C   0  0  0  0  0  0  0  0  0  0  0  0
  -12.8637   -9.9705    6.2049 C   0  0  0  0  0  0  0  0  0  0  0  0
  -14.7229   -8.5212    5.8400 N   0  0  0  0  0  0  0  0  0  0  0  0
  -15.4887   -8.3836    4.3613 S   0  0  0  0  0  0  0  0  0  0  0  0
  -16.8419   -9.0942    4.3331 O   0  0  0  0  0  0  0  0  0  0  0  0
  -14.6828   -8.9789    3.2172 O   0  0  0  0  0  0  0  0  0  0  0  0
  -15.8063   -6.7681    3.9543 N   0  0  0  0  0  0  0  0  0  0  0  0
  -17.1454   -6.3341    4.0175 C   0  0  0  0  0  0  0  0  0  0  0  0
  -17.3631   -5.1043    4.8637 C   0  0  0  0  0  0  0  0  0  0  0  0
  -16.4308   -4.1486    4.4722 O   0  0  0  0  0  0  0  0  0  0  0  0
  -15.1789   -4.6125    4.9407 C   0  0  0  0  0  0  0  0  0  0  0  0
  -14.7821   -5.8277    4.1405 C   0  0  0  0  0  0  0  0  0  0  0  0
 15 16  1  0  0  0
 16 17  2  0  0  0
 17 18  1  0  0  0
 18 13  1  0  0  0
 13  3  1  0  0  0
  3  4  2  0  0  0
  4  5  1  0  0  0
  5  6  2  0  0  0
  6  7  1  0  0  0
  7  8  2  0  0  0
  8  9  1  0  0  0
  9 10  2  0  0  0
 10 11  1  0  0  0
 11  1  1  0  0  0
  1 22  1  0  0  0
 22 23  1  0  0  0
 23 24  1  0  0  0
 24 25  1  0  0  0
 25 26  1  0  0  0
 26 27  1  0  0  0
 27 28  1  0  0  0
 28 29  1  0  0  0
 28 30  1  0  0  0
 30 31  1  0  0  0
 31 32  2  0  0  0
 31 33  2  0  0  0
 31 34  1  0  0  0
 34 35  1  0  0  0
 35 36  1  0  0  0
 36 37  1  0  0  0
 37 38  1  0  0  0
 38 39  1  0  0  0
 11 12  2  0  0  0
 18 19  2  0  0  0
 19 20  1  0  0  0
 20 16  1  0  0  0
 12  3  1  0  0  0
 10  5  1  0  0  0
 29 22  1  0  0  0
 39 34  1  0  0  0
 30 24  1  0  0  0
 13 14  1  0  0  0
  1  2  1  0  0  0
 20 21  1  0  0  0
M  END
> <minimizedAffinity>
1.65062

> <CNNscore>
0.3262070715

> <CNNaffinity>
7.5485548973

> <CNN_VS>
2.4623920918

> <CNNaffinity_variance>
0.1450355053

$$$$
[H]c1nc2c([H])c(N([H])c3nn([H])c(C([H])([H])[H])c3[H])nc(N([H])[C@@]3([H])C([H])([H])[C@@]4([H])N(S(=O)(=O)N5C([H])([H])C([H])([H])OC([H])([H])C5([H])[H])[C@]([H])(C([H])([H])C([H])([H])C4([H])[H])C3([H])[H])c2c([H])c1[H]


 39 44  0  0  0  0  0  0  0  0999 V2000
  -13.2050   -9.5052    7.5596 N   0  0  0  0  0  0  0  0  0  0  0  0
  -13.3829  -10.4250    8.0880 H   0  0  0  0  0  0  0  0  0  0  0  0
   -9.6918   -8.3846    7.7743 C   0  0  0  0  0  0  0  0  0  0  0  0
   -9.7672   -7.3598    8.6661 C   0  0  0  0  0  0  0  0  0  0  0  0
  -11.0209   -7.0297    9.2100 C   0  0  0  0  0  0  0  0  0  0  0  0
  -11.0633   -6.0035   10.0956 N   0  0  0  0  0  0  0  0  0  0  0  0
  -12.1976   -5.5976   10.6787 C   0  0  0  0  0  0  0  0  0  0  0  0
  -13.3345   -6.2818   10.3312 C   0  0  0  0  0  0  0  0  0  0  0  0
  -13.3357   -7.3390    9.4283 C   0  0  0  0  0  0  0  0  0  0  0  0
  -12.1516   -7.7251    8.8517 C   0  0  0  0  0  0  0  0  0  0  0  0
  -12.0592   -8.7775    7.9329 C   0  0  0  0  0  0  0  0  0  0  0  0
  -10.8578   -9.0446    7.4535 N   0  0  0  0  0  0  0  0  0  0  0  0
   -8.4902   -8.7887    7.1773 N   0  0  0  0  0  0  0  0  0  0  0  0
   -8.5123   -9.8645    6.9351 H   0  0  0  0  0  0  0  0  0  0  0  0
   -3.8041   -7.0731    6.3944 C   0  0  0  0  0  0  0  0  0  0  0  0
   -5.2627   -7.2283    6.4203 C   0  0  0  0  0  0  0  0  0  0  0  0
   -5.9813   -8.2927    7.0021 C   0  0  0  0  0  0  0  0  0  0  0  0
   -7.3190   -8.1211    6.8446 C   0  0  0  0  0  0  0  0  0  0  0  0
   -7.3978   -6.9202    6.1491 N   0  0  0  0  0  0  0  0  0  0  0  0
   -6.2217   -6.4425    5.9253 N   0  0  0  0  0  0  0  0  0  0  0  0
   -6.0061   -5.5502    5.4206 H   0  0  0  0  0  0  0  0  0  0  0  0
  -14.1649   -9.1499    6.5440 C   0  0  0  0  0  0  0  0  0  0  0  0
  -15.2092   -8.2476    7.1160 C   0  0  0  0  0  0  0  0  0  0  0  0
  -16.0747   -7.6343    6.0265 C   0  0  0  0  0  0  0  0  0  0  0  0
  -17.0724   -8.7129    5.5830 C   0  0  0  0  0  0  0  0  0  0  0  0
  -16.7870   -9.1600    4.1920 C   0  0  0  0  0  0  0  0  0  0  0  0
  -15.3207   -9.3305    3.8642 C   0  0  0  0  0  0  0  0  0  0  0  0
  -14.4866   -8.1359    4.3029 C   0  0  0  0  0  0  0  0  0  0  0  0
  -13.4844   -8.6143    5.3396 C   0  0  0  0  0  0  0  0  0  0  0  0
  -15.3611   -7.2081    4.9025 N   0  0  0  0  0  0  0  0  0  0  0  0
  -15.2128   -5.5806    4.5544 S   0  0  0  0  0  0  0  0  0  0  0  0
  -14.2733   -5.3155    3.3779 O   0  0  0  0  0  0  0  0  0  0  0  0
  -14.6603   -4.7721    5.7179 O   0  0  0  0  0  0  0  0  0  0  0  0
  -16.6976   -4.8811    4.1270 N   0  0  0  0  0  0  0  0  0  0  0  0
  -17.5355   -5.6140    3.2632 C   0  0  0  0  0  0  0  0  0  0  0  0
  -18.9364   -5.8233    3.7824 C   0  0  0  0  0  0  0  0  0  0  0  0
  -19.4233   -4.5890    4.2013 O   0  0  0  0  0  0  0  0  0  0  0  0
  -18.7134   -4.2725    5.3836 C   0  0  0  0  0  0  0  0  0  0  0  0
  -17.2803   -3.9721    5.0227 C   0  0  0  0  0  0  0  0  0  0  0  0
 15 16  1  0  0  0
 16 17  2  0  0  0
 17 18  1  0  0  0
 18 13  1  0  0  0
 13  3  1  0  0  0
  3  4  2  0  0  0
  4  5  1  0  0  0
  5  6  2  0  0  0
  6  7  1  0  0  0
  7  8  2  0  0  0
  8  9  1  0  0  0
  9 10  2  0  0  0
 10 11  1  0  0  0
 11  1  1  0  0  0
  1 22  1  0  0  0
 22 23  1  0  0  0
 23 24  1  0  0  0
 24 25  1  0  0  0
 25 26  1  0  0  0
 26 27  1  0  0  0
 27 28  1  0  0  0
 28 29  1  0  0  0
 28 30  1  0  0  0
 30 31  1  0  0  0
 31 32  2  0  0  0
 31 33  2  0  0  0
 31 34  1  0  0  0
 34 35  1  0  0  0
 35 36  1  0  0  0
 36 37  1  0  0  0
 37 38  1  0  0  0
 38 39  1  0  0  0
 11 12  2  0  0  0
 18 19  2  0  0  0
 19 20  1  0  0  0
 20 16  1  0  0  0
 12  3  1  0  0  0
 10  5  1  0  0  0
 29 22  1  0  0  0
 39 34  1  0  0  0
 30 24  1  0  0  0
 13 14  1  0  0  0
  1  2  1  0  0  0
 20 21  1  0  0  0
M  END
> <minimizedAffinity>
-5.55037

> <CNNscore>
0.3165200055

> <CNNaffinity>
7.7989182472

> <CNN_VS>
2.4685137272

> <CNNaffinity_variance>
0.4072503448

$$$$
[H]c1nc2c([H])c(N([H])c3nn([H])c(C([H])([H])[H])c3[H])nc(N([H])[C@@]3([H])C([H])([H])[C@@]4([H])N(S(=O)(=O)N5C([H])([H])C([H])([H])OC([H])([H])C5([H])[H])[C@]([H])(C([H])([H])C([H])([H])C4([H])[H])C3([H])[H])c2c([H])c1[H]


 39 44  0  0  0  0  0  0  0  0999 V2000
   -9.2241   -6.0453    8.7780 N   0  0  0  0  0  0  0  0  0  0  0  0
   -8.5116   -5.2397    8.7870 H   0  0  0  0  0  0  0  0  0  0  0  0
   -9.3921   -9.3414    7.1192 C   0  0  0  0  0  0  0  0  0  0  0  0
   -8.0920   -9.5666    6.7870 C   0  0  0  0  0  0  0  0  0  0  0  0
   -7.1324   -8.5950    7.1211 C   0  0  0  0  0  0  0  0  0  0  0  0
   -5.8455   -8.8483    6.7761 N   0  0  0  0  0  0  0  0  0  0  0  0
   -4.8451   -7.9994    7.0404 C   0  0  0  0  0  0  0  0  0  0  0  0
   -5.1908   -6.8408    7.6883 C   0  0  0  0  0  0  0  0  0  0  0  0
   -6.4967   -6.5417    8.0598 C   0  0  0  0  0  0  0  0  0  0  0  0
   -7.4945   -7.4386    7.7707 C   0  0  0  0  0  0  0  0  0  0  0  0
   -8.8360   -7.2202    8.1066 C   0  0  0  0  0  0  0  0  0  0  0  0
   -9.6950   -8.1650    7.7690 N   0  0  0  0  0  0  0  0  0  0  0  0
  -10.4209  -10.2477    6.8294 N   0  0  0  0  0  0  0  0  0  0  0  0
  -10.0761  -11.2882    6.9521 H   0  0  0  0  0  0  0  0  0  0  0  0
  -14.8620   -9.2855    4.6237 C   0  0  0  0  0  0  0  0  0  0  0  0
  -13.8152   -9.7243    5.5531 C   0  0  0  0  0  0  0  0  0  0  0  0
  -12.4240   -9.5762    5.3778 C   0  0  0  0  0  0  0  0  0  0  0  0
  -11.7423  -10.0948    6.4313 C   0  0  0  0  0  0  0  0  0  0  0  0
  -12.7573  -10.5648    7.2565 N   0  0  0  0  0  0  0  0  0  0  0  0
  -13.9137  -10.3407    6.7331 N   0  0  0  0  0  0  0  0  0  0  0  0
  -14.8388  -10.5966    7.1529 H   0  0  0  0  0  0  0  0  0  0  0  0
  -10.4742   -5.8070    9.4559 C   0  0  0  0  0  0  0  0  0  0  0  0
  -11.5772   -5.6482    8.4609 C   0  0  0  0  0  0  0  0  0  0  0  0
  -12.9417   -5.6702    9.1315 C   0  0  0  0  0  0  0  0  0  0  0  0
  -13.1519   -4.2908    9.7707 C   0  0  0  0  0  0  0  0  0  0  0  0
  -13.1489   -4.3883   11.2562 C   0  0  0  0  0  0  0  0  0  0  0  0
  -12.1053   -5.3183   11.8330 C   0  0  0  0  0  0  0  0  0  0  0  0
  -12.0845   -6.6698   11.1342 C   0  0  0  0  0  0  0  0  0  0  0  0
  -10.7220   -6.8457   10.4857 C   0  0  0  0  0  0  0  0  0  0  0  0
  -13.0718   -6.6405   10.1295 N   0  0  0  0  0  0  0  0  0  0  0  0
  -14.0740   -7.9594    9.9097 S   0  0  0  0  0  0  0  0  0  0  0  0
  -15.2508   -7.9710   10.8853 O   0  0  0  0  0  0  0  0  0  0  0  0
  -13.3594   -9.2876   10.1046 O   0  0  0  0  0  0  0  0  0  0  0  0
  -14.7591   -7.9894    8.3585 N   0  0  0  0  0  0  0  0  0  0  0  0
  -16.0969   -8.4177    8.2481 C   0  0  0  0  0  0  0  0  0  0  0  0
  -17.0035   -7.4517    7.5263 C   0  0  0  0  0  0  0  0  0  0  0  0
  -16.3791   -7.0911    6.3364 O   0  0  0  0  0  0  0  0  0  0  0  0
  -15.2938   -6.2609    6.7034 C   0  0  0  0  0  0  0  0  0  0  0  0
  -14.2522   -7.1029    7.3966 C   0  0  0  0  0  0  0  0  0  0  0  0
 15 16  1  0  0  0
 16 17  2  0  0  0
 17 18  1  0  0  0
 18 13  1  0  0  0
 13  3  1  0  0  0
  3  4  2  0  0  0
  4  5  1  0  0  0
  5  6  2  0  0  0
  6  7  1  0  0  0
  7  8  2  0  0  0
  8  9  1  0  0  0
  9 10  2  0  0  0
 10 11  1  0  0  0
 11  1  1  0  0  0
  1 22  1  0  0  0
 22 23  1  0  0  0
 23 24  1  0  0  0
 24 25  1  0  0  0
 25 26  1  0  0  0
 26 27  1  0  0  0
 27 28  1  0  0  0
 28 29  1  0  0  0
 28 30  1  0  0  0
 30 31  1  0  0  0
 31 32  2  0  0  0
 31 33  2  0  0  0
 31 34  1  0  0  0
 34 35  1  0  0  0
 35 36  1  0  0  0
 36 37  1  0  0  0
 37 38  1  0  0  0
 38 39  1  0  0  0
 11 12  2  0  0  0
 18 19  2  0  0  0
 19 20  1  0  0  0
 20 16  1  0  0  0
 12  3  1  0  0  0
 10  5  1  0  0  0
 29 22  1  0  0  0
 39 34  1  0  0  0
 30 24  1  0  0  0
 13 14  1  0  0  0
  1  2  1  0  0  0
 20 21  1  0  0  0
M  END
> <minimizedAffinity>
0.34663

> <CNNscore>
0.3114826977

> <CNNaffinity>
7.3936147690

> <CNN_VS>
2.3029830456

> <CNNaffinity_variance>
0.6249932647

$$$$
[H]N=C(N([H])[H])N([H])C([H])([H])C([H])([H])C([H])([H])[C@@]([H])(C(=O)N([H])[C@]([H])(C(=O)N([H])[H])C([H])([H])c1c([H])n([H])c2c([H])c([H])c([H])c([H])c12)N([H])C(=O)[C@@]([H])(N([H])C(=O)C([H])([H])[H])C([H])([H])c1c([H])c([H])c([H])c([H])c1[H]


 50 52  0  0  0  0  0  0  0  0999 V2000
  -10.6724   -7.1704    8.0481 C   0  0  0  0  0  0  0  0  0  0  0  0
  -12.7059   -7.8974    6.7587 C   0  0  0  0  0  0  0  0  0  0  0  0
  -12.7982   -6.7029    6.3751 O   0  0  0  0  0  0  0  0  0  0  0  0
  -11.6086   -8.1678    7.6201 N   0  0  0  0  0  0  0  0  0  0  0  0
  -11.4811   -9.1377    7.9561 H   0  0  0  0  0  0  0  0  0  0  0  0
  -13.7033   -8.8975    6.3101 C   0  0  0  0  0  0  0  0  0  0  0  0
  -16.4404   -8.8266    9.0845 C   0  0  0  0  0  0  0  0  0  0  0  0
  -15.4286   -8.3381    8.0918 C   0  0  0  0  0  0  0  0  0  0  0  0
  -15.2258   -7.0977    7.9830 O   0  0  0  0  0  0  0  0  0  0  0  0
  -14.6952   -9.2214    7.2755 N   0  0  0  0  0  0  0  0  0  0  0  0
  -14.9470  -10.2499    7.4265 H   0  0  0  0  0  0  0  0  0  0  0  0
  -14.1324   -8.8360    4.8973 C   0  0  0  0  0  0  0  0  0  0  0  0
  -15.3389   -8.0964    4.5704 C   0  0  0  0  0  0  0  0  0  0  0  0
  -15.3010   -6.7306    4.4210 C   0  0  0  0  0  0  0  0  0  0  0  0
  -16.4403   -5.9913    4.1036 C   0  0  0  0  0  0  0  0  0  0  0  0
  -17.6511   -6.6288    3.9295 C   0  0  0  0  0  0  0  0  0  0  0  0
  -17.6970   -8.0117    4.0788 C   0  0  0  0  0  0  0  0  0  0  0  0
  -16.5680   -8.7226    4.3911 C   0  0  0  0  0  0  0  0  0  0  0  0
   -9.2922   -7.3424    7.6150 C   0  0  0  0  0  0  0  0  0  0  0  0
   -8.7840   -8.4567    7.4010 O   0  0  0  0  0  0  0  0  0  0  0  0
   -8.4843   -6.1802    7.4249 N   0  0  0  0  0  0  0  0  0  0  0  0
   -8.8443   -5.2160    7.5912 H   0  0  0  0  0  0  0  0  0  0  0  0
   -7.0830   -6.3169    6.9762 C   0  0  0  0  0  0  0  0  0  0  0  0
   -7.0578   -6.9543    5.6354 C   0  0  0  0  0  0  0  0  0  0  0  0
   -6.6916   -8.3007    5.4494 N   0  0  0  0  0  0  0  0  0  0  0  0
   -7.3682   -6.2953    4.6009 O   0  0  0  0  0  0  0  0  0  0  0  0
   -7.2538   -8.8673    4.7760 H   0  0  0  0  0  0  0  0  0  0  0  0
   -5.9040   -8.7858    5.9276 H   0  0  0  0  0  0  0  0  0  0  0  0
   -6.3517   -7.0976    8.0148 C   0  0  0  0  0  0  0  0  0  0  0  0
   -5.0009   -6.6713    8.3083 C   0  0  0  0  0  0  0  0  0  0  0  0
   -4.6158   -5.6363    9.1242 C   0  0  0  0  0  0  0  0  0  0  0  0
   -3.2678   -5.5445    9.1234 N   0  0  0  0  0  0  0  0  0  0  0  0
   -2.7754   -6.5037    8.3203 C   0  0  0  0  0  0  0  0  0  0  0  0
   -1.4848   -6.8434    7.9731 C   0  0  0  0  0  0  0  0  0  0  0  0
   -1.2819   -7.9099    7.0990 C   0  0  0  0  0  0  0  0  0  0  0  0
   -2.3352   -8.6091    6.5924 C   0  0  0  0  0  0  0  0  0  0  0  0
   -3.6367   -8.2930    6.9211 C   0  0  0  0  0  0  0  0  0  0  0  0
   -3.8324   -7.2270    7.7944 C   0  0  0  0  0  0  0  0  0  0  0  0
   -2.6828   -4.8552    9.6480 H   0  0  0  0  0  0  0  0  0  0  0  0
  -10.8123   -6.9876    9.5450 C   0  0  0  0  0  0  0  0  0  0  0  0
  -12.1078   -6.2987    9.9140 C   0  0  0  0  0  0  0  0  0  0  0  0
  -11.7651   -5.3301   11.0378 C   0  0  0  0  0  0  0  0  0  0  0  0
  -11.7395   -6.0242   12.3209 N   0  0  0  0  0  0  0  0  0  0  0  0
  -12.2723   -6.8953   12.4998 H   0  0  0  0  0  0  0  0  0  0  0  0
  -10.9523   -5.4769   13.3569 C   0  0  0  0  0  0  0  0  0  0  0  0
  -11.4764   -4.5198   14.2696 N   0  0  0  0  0  0  0  0  0  0  0  0
   -9.7125   -5.8206   13.5262 N   0  0  0  0  0  0  0  0  0  0  0  0
  -12.0272   -4.8040   15.1131 H   0  0  0  0  0  0  0  0  0  0  0  0
  -11.2986   -3.5153   14.0797 H   0  0  0  0  0  0  0  0  0  0  0  0
   -9.2212   -6.4990   12.9354 H   0  0  0  0  0  0  0  0  0  0  0  0
  7  8  1  0  0  0
  8  9  2  0  0  0
  8 10  1  0  0  0
 10  6  1  0  0  0
  6 12  1  0  0  0
 12 13  1  0  0  0
 13 14  2  0  0  0
 14 15  1  0  0  0
 15 16  2  0  0  0
 16 17  1  0  0  0
 17 18  2  0  0  0
  6  2  1  0  0  0
  2  3  2  0  0  0
  2  4  1  0  0  0
  4  1  1  0  0  0
  1 40  1  0  0  0
 40 41  1  0  0  0
 41 42  1  0  0  0
 42 43  1  0  0  0
 43 45  1  0  0  0
 45 46  1  0  0  0
 45 47  2  0  0  0
  1 19  1  0  0  0
 19 20  2  0  0  0
 19 21  1  0  0  0
 21 23  1  0  0  0
 23 29  1  0  0  0
 29 30  1  0  0  0
 30 31  2  0  0  0
 31 32  1  0  0  0
 32 33  1  0  0  0
 33 34  2  0  0  0
 34 35  1  0  0  0
 35 36  2  0  0  0
 36 37  1  0  0  0
 37 38  2  0  0  0
 23 24  1  0  0  0
 24 25  1  0  0  0
 24 26  2  0  0  0
 18 13  1  0  0  0
 38 30  1  0  0  0
 38 33  1  0  0  0
 10 11  1  0  0  0
  4  5  1  0  0  0
 43 44  1  0  0  0
 46 48  1  0  0  0
 46 49  1  0  0  0
 47 50  1  0  0  0
 21 22  1  0  0  0
 32 39  1  0  0  0
 25 27  1  0  0  0
 25 28  1  0  0  0
M  END
> <minimizedAffinity>
-5.12695

> <CNNscore>
0.4607374966

> <CNNaffinity>
7.1642751694

> <CNN_VS>
3.3008501530

> <CNNaffinity_variance>
0.1612067819

$$$$
[H]N=C(N([H])[H])N([H])C([H])([H])C([H])([H])C([H])([H])[C@@]([H])(C(=O)N([H])[C@]([H])(C(=O)N([H])[H])C([H])([H])c1c([H])n([H])c2c([H])c([H])c([H])c([H])c12)N([H])C(=O)[C@@]([H])(N([H])C(=O)C([H])([H])[H])C([H])([H])c1c([H])c([H])c([H])c([H])c1[H]


 50 52  0  0  0  0  0  0  0  0999 V2000
   -5.1166   -6.4394    7.5134 C   0  0  0  0  0  0  0  0  0  0  0  0
   -3.9629   -5.0902    5.7315 C   0  0  0  0  0  0  0  0  0  0  0  0
   -3.2421   -6.1026    5.5362 O   0  0  0  0  0  0  0  0  0  0  0  0
   -4.9470   -5.2411    6.7454 N   0  0  0  0  0  0  0  0  0  0  0  0
   -5.5734   -4.4409    6.9386 H   0  0  0  0  0  0  0  0  0  0  0  0
   -3.7463   -3.8623    4.9306 C   0  0  0  0  0  0  0  0  0  0  0  0
   -3.8724   -0.6985    7.2041 C   0  0  0  0  0  0  0  0  0  0  0  0
   -3.3683   -1.9655    6.5809 C   0  0  0  0  0  0  0  0  0  0  0  0
   -2.2573   -2.4324    6.9541 O   0  0  0  0  0  0  0  0  0  0  0  0
   -4.0970   -2.6531    5.5906 N   0  0  0  0  0  0  0  0  0  0  0  0
   -5.0162   -2.1736    5.3277 H   0  0  0  0  0  0  0  0  0  0  0  0
   -2.5587   -3.8305    4.0516 C   0  0  0  0  0  0  0  0  0  0  0  0
   -2.7496   -3.5614    2.6372 C   0  0  0  0  0  0  0  0  0  0  0  0
   -3.7165   -2.6784    2.2194 C   0  0  0  0  0  0  0  0  0  0  0  0
   -3.9229   -2.3949    0.8694 C   0  0  0  0  0  0  0  0  0  0  0  0
   -3.1454   -3.0068   -0.0917 C   0  0  0  0  0  0  0  0  0  0  0  0
   -2.1641   -3.9019    0.3241 C   0  0  0  0  0  0  0  0  0  0  0  0
   -1.9749   -4.1690    1.6546 C   0  0  0  0  0  0  0  0  0  0  0  0
   -6.3744   -7.1534    7.3395 C   0  0  0  0  0  0  0  0  0  0  0  0
   -6.7934   -7.5257    6.2297 O   0  0  0  0  0  0  0  0  0  0  0  0
   -7.1633   -7.4420    8.4944 N   0  0  0  0  0  0  0  0  0  0  0  0
   -6.8751   -7.1545    9.4542 H   0  0  0  0  0  0  0  0  0  0  0  0
   -8.4397   -8.1736    8.3562 C   0  0  0  0  0  0  0  0  0  0  0  0
   -8.1795   -9.5018    7.7456 C   0  0  0  0  0  0  0  0  0  0  0  0
   -8.5904   -9.8219    6.4378 N   0  0  0  0  0  0  0  0  0  0  0  0
   -7.5717  -10.4028    8.3934 O   0  0  0  0  0  0  0  0  0  0  0  0
   -7.9237  -10.3564    5.8375 H   0  0  0  0  0  0  0  0  0  0  0  0
   -9.5072   -9.5710    6.0124 H   0  0  0  0  0  0  0  0  0  0  0  0
   -9.3612   -7.3233    7.5495 C   0  0  0  0  0  0  0  0  0  0  0  0
  -10.7744   -7.4660    7.8234 C   0  0  0  0  0  0  0  0  0  0  0  0
  -11.6665   -8.2862    7.1779 C   0  0  0  0  0  0  0  0  0  0  0  0
  -12.8958   -8.1179    7.7124 N   0  0  0  0  0  0  0  0  0  0  0  0
  -12.8127   -7.2021    8.6933 C   0  0  0  0  0  0  0  0  0  0  0  0
  -13.7605   -6.6723    9.5434 C   0  0  0  0  0  0  0  0  0  0  0  0
  -13.3664   -5.7171   10.4787 C   0  0  0  0  0  0  0  0  0  0  0  0
  -12.0694   -5.3089   10.5575 C   0  0  0  0  0  0  0  0  0  0  0  0
  -11.0994   -5.8203    9.7211 C   0  0  0  0  0  0  0  0  0  0  0  0
  -11.4996   -6.7739    8.7895 C   0  0  0  0  0  0  0  0  0  0  0  0
  -13.7775   -8.6034    7.4305 H   0  0  0  0  0  0  0  0  0  0  0  0
   -4.7964   -6.1339    8.9618 C   0  0  0  0  0  0  0  0  0  0  0  0
   -3.9625   -4.8798    9.1063 C   0  0  0  0  0  0  0  0  0  0  0  0
   -4.1083   -4.4413   10.5571 C   0  0  0  0  0  0  0  0  0  0  0  0
   -5.1058   -5.2579   11.2403 N   0  0  0  0  0  0  0  0  0  0  0  0
   -5.7468   -5.8998   10.7383 H   0  0  0  0  0  0  0  0  0  0  0  0
   -5.1940   -5.1619   12.6458 C   0  0  0  0  0  0  0  0  0  0  0  0
   -5.6830   -6.2357   13.4404 N   0  0  0  0  0  0  0  0  0  0  0  0
   -4.8333   -4.0890   13.2804 N   0  0  0  0  0  0  0  0  0  0  0  0
   -5.0680   -7.0296   13.7359 H   0  0  0  0  0  0  0  0  0  0  0  0
   -6.6800   -6.2165   13.7273 H   0  0  0  0  0  0  0  0  0  0  0  0
   -4.4658   -3.2493   12.8216 H   0  0  0  0  0  0  0  0  0  0  0  0
  7  8  1  0  0  0
  8  9  2  0  0  0
  8 10  1  0  0  0
 10  6  1  0  0  0
  6 12  1  0  0  0
 12 13  1  0  0  0
 13 14  2  0  0  0
 14 15  1  0  0  0
 15 16  2  0  0  0
 16 17  1  0  0  0
 17 18  2  0  0  0
  6  2  1  0  0  0
  2  3  2  0  0  0
  2  4  1  0  0  0
  4  1  1  0  0  0
  1 40  1  0  0  0
 40 41  1  0  0  0
 41 42  1  0  0  0
 42 43  1  0  0  0
 43 45  1  0  0  0
 45 46  1  0  0  0
 45 47  2  0  0  0
  1 19  1  0  0  0
 19 20  2  0  0  0
 19 21  1  0  0  0
 21 23  1  0  0  0
 23 29  1  0  0  0
 29 30  1  0  0  0
 30 31  2  0  0  0
 31 32  1  0  0  0
 32 33  1  0  0  0
 33 34  2  0  0  0
 34 35  1  0  0  0
 35 36  2  0  0  0
 36 37  1  0  0  0
 37 38  2  0  0  0
 23 24  1  0  0  0
 24 25  1  0  0  0
 24 26  2  0  0  0
 18 13  1  0  0  0
 38 30  1  0  0  0
 38 33  1  0  0  0
 10 11  1  0  0  0
  4  5  1  0  0  0
 43 44  1  0  0  0
 46 48  1  0  0  0
 46 49  1  0  0  0
 47 50  1  0  0  0
 21 22  1  0  0  0
 32 39  1  0  0  0
 25 27  1  0  0  0
 25 28  1  0  0  0
M  END
> <minimizedAffinity>
-7.67329

> <CNNscore>
0.4539673924

> <CNNaffinity>
6.6405272484

> <CNN_VS>
3.0145828724

> <CNNaffinity_variance>
0.0989181474

$$$$
[H]N=C(N([H])[H])N([H])C([H])([H])C([H])([H])C([H])([H])[C@@]([H])(C(=O)N([H])[C@]([H])(C(=O)N([H])[H])C([H])([H])c1c([H])n([H])c2c([H])c([H])c([H])c([H])c12)N([H])C(=O)[C@@]([H])(N([H])C(=O)C([H])([H])[H])C([H])([H])c1c([H])c([H])c([H])c([H])c1[H]


 50 52  0  0  0  0  0  0  0  0999 V2000
  -10.9251   -6.8555    9.1838 C   0  0  0  0  0  0  0  0  0  0  0  0
   -8.6751   -7.6226    8.3623 C   0  0  0  0  0  0  0  0  0  0  0  0
   -9.0380   -8.7845    8.6800 O   0  0  0  0  0  0  0  0  0  0  0  0
   -9.6374   -6.6059    8.6060 N   0  0  0  0  0  0  0  0  0  0  0  0
   -9.3926   -5.6334    8.3528 H   0  0  0  0  0  0  0  0  0  0  0  0
   -7.3287   -7.4003    7.7843 C   0  0  0  0  0  0  0  0  0  0  0  0
   -7.0555   -6.1973    4.0867 C   0  0  0  0  0  0  0  0  0  0  0  0
   -7.0468   -7.1129    5.2739 C   0  0  0  0  0  0  0  0  0  0  0  0
   -6.7890   -8.3359    5.1030 O   0  0  0  0  0  0  0  0  0  0  0  0
   -7.3172   -6.6503    6.5767 N   0  0  0  0  0  0  0  0  0  0  0  0
   -7.5407   -5.6053    6.6203 H   0  0  0  0  0  0  0  0  0  0  0  0
   -6.2173   -7.1710    8.7309 C   0  0  0  0  0  0  0  0  0  0  0  0
   -4.9094   -6.8340    8.1966 C   0  0  0  0  0  0  0  0  0  0  0  0
   -4.3536   -5.6005    8.4389 C   0  0  0  0  0  0  0  0  0  0  0  0
   -3.0985   -5.2468    7.9439 C   0  0  0  0  0  0  0  0  0  0  0  0
   -2.3761   -6.1456    7.1870 C   0  0  0  0  0  0  0  0  0  0  0  0
   -2.9325   -7.3968    6.9378 C   0  0  0  0  0  0  0  0  0  0  0  0
   -4.1671   -7.7277    7.4317 C   0  0  0  0  0  0  0  0  0  0  0  0
  -11.9910   -7.2312    8.2646 C   0  0  0  0  0  0  0  0  0  0  0  0
  -11.7962   -7.9187    7.2472 O   0  0  0  0  0  0  0  0  0  0  0  0
  -13.3215   -6.7931    8.5431 N   0  0  0  0  0  0  0  0  0  0  0  0
  -13.5551   -6.2097    9.3750 H   0  0  0  0  0  0  0  0  0  0  0  0
  -14.4288   -7.1643    7.6378 C   0  0  0  0  0  0  0  0  0  0  0  0
  -15.0431   -8.4313    8.1089 C   0  0  0  0  0  0  0  0  0  0  0  0
  -16.3544   -8.4878    8.6177 N   0  0  0  0  0  0  0  0  0  0  0  0
  -14.3953   -9.5174    8.0684 O   0  0  0  0  0  0  0  0  0  0  0  0
  -16.9530   -9.2924    8.3263 H   0  0  0  0  0  0  0  0  0  0  0  0
  -16.7839   -7.7931    9.2636 H   0  0  0  0  0  0  0  0  0  0  0  0
  -13.8711   -7.2558    6.2581 C   0  0  0  0  0  0  0  0  0  0  0  0
  -14.7936   -7.6488    5.2155 C   0  0  0  0  0  0  0  0  0  0  0  0
  -14.6936   -8.7383    4.3859 C   0  0  0  0  0  0  0  0  0  0  0  0
  -15.7417   -8.7486    3.5334 N   0  0  0  0  0  0  0  0  0  0  0  0
  -16.5179   -7.6834    3.7989 C   0  0  0  0  0  0  0  0  0  0  0  0
  -17.6907   -7.2322    3.2310 C   0  0  0  0  0  0  0  0  0  0  0  0
  -18.2765   -6.0702    3.7303 C   0  0  0  0  0  0  0  0  0  0  0  0
  -17.7060   -5.3867    4.7611 C   0  0  0  0  0  0  0  0  0  0  0  0
  -16.5336   -5.8132    5.3491 C   0  0  0  0  0  0  0  0  0  0  0  0
  -15.9540   -6.9742    4.8458 C   0  0  0  0  0  0  0  0  0  0  0  0
  -15.9393   -9.4521    2.7860 H   0  0  0  0  0  0  0  0  0  0  0  0
  -11.2882   -5.6875   10.0769 C   0  0  0  0  0  0  0  0  0  0  0  0
  -12.5269   -5.9659   10.8997 C   0  0  0  0  0  0  0  0  0  0  0  0
  -12.1935   -5.5371   12.3222 C   0  0  0  0  0  0  0  0  0  0  0  0
  -10.7742   -5.7350   12.5964 N   0  0  0  0  0  0  0  0  0  0  0  0
  -10.1370   -6.2222   11.9395 H   0  0  0  0  0  0  0  0  0  0  0  0
  -10.2566   -5.2381   13.8119 C   0  0  0  0  0  0  0  0  0  0  0  0
   -8.9180   -5.4979   14.2176 N   0  0  0  0  0  0  0  0  0  0  0  0
  -10.9773   -4.5205   14.6180 N   0  0  0  0  0  0  0  0  0  0  0  0
   -8.1145   -4.9217   13.8742 H   0  0  0  0  0  0  0  0  0  0  0  0
   -8.7502   -6.2845   14.8732 H   0  0  0  0  0  0  0  0  0  0  0  0
  -11.9537   -4.2655   14.4388 H   0  0  0  0  0  0  0  0  0  0  0  0
  7  8  1  0  0  0
  8  9  2  0  0  0
  8 10  1  0  0  0
 10  6  1  0  0  0
  6 12  1  0  0  0
 12 13  1  0  0  0
 13 14  2  0  0  0
 14 15  1  0  0  0
 15 16  2  0  0  0
 16 17  1  0  0  0
 17 18  2  0  0  0
  6  2  1  0  0  0
  2  3  2  0  0  0
  2  4  1  0  0  0
  4  1  1  0  0  0
  1 40  1  0  0  0
 40 41  1  0  0  0
 41 42  1  0  0  0
 42 43  1  0  0  0
 43 45  1  0  0  0
 45 46  1  0  0  0
 45 47  2  0  0  0
  1 19  1  0  0  0
 19 20  2  0  0  0
 19 21  1  0  0  0
 21 23  1  0  0  0
 23 29  1  0  0  0
 29 30  1  0  0  0
 30 31  2  0  0  0
 31 32  1  0  0  0
 32 33  1  0  0  0
 33 34  2  0  0  0
 34 35  1  0  0  0
 35 36  2  0  0  0
 36 37  1  0  0  0
 37 38  2  0  0  0
 23 24  1  0  0  0
 24 25  1  0  0  0
 24 26  2  0  0  0
 18 13  1  0  0  0
 38 30  1  0  0  0
 38 33  1  0  0  0
 10 11  1  0  0  0
  4  5  1  0  0  0
 43 44  1  0  0  0
 46 48  1  0  0  0
 46 49  1  0  0  0
 47 50  1  0  0  0
 21 22  1  0  0  0
 32 39  1  0  0  0
 25 27  1  0  0  0
 25 28  1  0  0  0
M  END
> <minimizedAffinity>
-5.76408

> <CNNscore>
0.4513795376

> <CNNaffinity>
7.5616388321

> <CNN_VS>
3.4131691456

> <CNNaffinity_variance>
0.1357692927

$$$$
[H]N=C(N([H])[H])N([H])C([H])([H])C([H])([H])C([H])([H])[C@@]([H])(C(=O)N([H])[C@]([H])(C(=O)N([H])[H])C([H])([H])c1c([H])n([H])c2c([H])c([H])c([H])c([H])c12)N([H])C(=O)[C@@]([H])(N([H])C(=O)C([H])([H])[H])C([H])([H])c1c([H])c([H])c([H])c([H])c1[H]


 50 52  0  0  0  0  0  0  0  0999 V2000
  -10.5352   -6.7806    8.8327 C   0  0  0  0  0  0  0  0  0  0  0  0
   -8.2085   -7.0394    7.9131 C   0  0  0  0  0  0  0  0  0  0  0  0
   -8.2330   -8.2065    8.3822 O   0  0  0  0  0  0  0  0  0  0  0  0
   -9.3919   -6.2823    8.1262 N   0  0  0  0  0  0  0  0  0  0  0  0
   -9.4276   -5.3191    7.7510 H   0  0  0  0  0  0  0  0  0  0  0  0
   -7.0015   -6.5523    7.2045 C   0  0  0  0  0  0  0  0  0  0  0  0
   -4.5706   -5.0223    9.8397 C   0  0  0  0  0  0  0  0  0  0  0  0
   -5.4038   -6.0354    9.1135 C   0  0  0  0  0  0  0  0  0  0  0  0
   -5.4271   -7.2247    9.5337 O   0  0  0  0  0  0  0  0  0  0  0  0
   -6.1633   -5.7012    7.9751 N   0  0  0  0  0  0  0  0  0  0  0  0
   -6.0676   -4.6764    7.6846 H   0  0  0  0  0  0  0  0  0  0  0  0
   -6.3378   -7.4923    6.2772 C   0  0  0  0  0  0  0  0  0  0  0  0
   -4.8912   -7.4431    6.1574 C   0  0  0  0  0  0  0  0  0  0  0  0
   -4.1218   -8.5112    6.5528 C   0  0  0  0  0  0  0  0  0  0  0  0
   -2.7311   -8.4977    6.4474 C   0  0  0  0  0  0  0  0  0  0  0  0
   -2.0880   -7.3906    5.9340 C   0  0  0  0  0  0  0  0  0  0  0  0
   -2.8607   -6.3055    5.5311 C   0  0  0  0  0  0  0  0  0  0  0  0
   -4.2261   -6.3355    5.6419 C   0  0  0  0  0  0  0  0  0  0  0  0
  -11.5867   -7.3869    8.0272 C   0  0  0  0  0  0  0  0  0  0  0  0
  -11.3893   -8.3586    7.2770 O   0  0  0  0  0  0  0  0  0  0  0  0
  -12.9056   -6.8442    8.1019 N   0  0  0  0  0  0  0  0  0  0  0  0
  -13.1403   -6.0273    8.7056 H   0  0  0  0  0  0  0  0  0  0  0  0
  -13.9987   -7.4408    7.3065 C   0  0  0  0  0  0  0  0  0  0  0  0
  -14.0080   -8.9113    7.5118 C   0  0  0  0  0  0  0  0  0  0  0  0
  -13.7691   -9.8188    6.4625 N   0  0  0  0  0  0  0  0  0  0  0  0
  -14.2365   -9.4025    8.6552 O   0  0  0  0  0  0  0  0  0  0  0  0
  -13.1623  -10.6444    6.6646 H   0  0  0  0  0  0  0  0  0  0  0  0
  -14.1464   -9.7392    5.4952 H   0  0  0  0  0  0  0  0  0  0  0  0
  -13.7891   -7.0446    5.8845 C   0  0  0  0  0  0  0  0  0  0  0  0
  -14.8716   -6.3244    5.2505 C   0  0  0  0  0  0  0  0  0  0  0  0
  -14.8947   -4.9957    4.9051 C   0  0  0  0  0  0  0  0  0  0  0  0
  -16.0915   -4.6983    4.3531 N   0  0  0  0  0  0  0  0  0  0  0  0
  -16.8423   -5.8134    4.3359 C   0  0  0  0  0  0  0  0  0  0  0  0
  -18.1235   -6.0560    3.8874 C   0  0  0  0  0  0  0  0  0  0  0  0
  -18.6452   -7.3431    4.0053 C   0  0  0  0  0  0  0  0  0  0  0  0
  -17.9082   -8.3489    4.5531 C   0  0  0  0  0  0  0  0  0  0  0  0
  -16.6244   -8.1369    5.0104 C   0  0  0  0  0  0  0  0  0  0  0  0
  -16.1095   -6.8494    4.8896 C   0  0  0  0  0  0  0  0  0  0  0  0
  -16.4058   -3.7687    3.9930 H   0  0  0  0  0  0  0  0  0  0  0  0
  -11.0412   -5.6947    9.7592 C   0  0  0  0  0  0  0  0  0  0  0  0
  -12.0215   -6.2306   10.7794 C   0  0  0  0  0  0  0  0  0  0  0  0
  -11.8340   -5.3828   12.0303 C   0  0  0  0  0  0  0  0  0  0  0  0
  -10.9592   -6.0607   12.9810 N   0  0  0  0  0  0  0  0  0  0  0  0
  -10.8456   -7.0909   13.0051 H   0  0  0  0  0  0  0  0  0  0  0  0
  -10.2415   -5.2701   13.9042 C   0  0  0  0  0  0  0  0  0  0  0  0
  -10.8638   -4.2180   14.6318 N   0  0  0  0  0  0  0  0  0  0  0  0
   -8.9791   -5.4652   14.1332 N   0  0  0  0  0  0  0  0  0  0  0  0
  -11.4016   -4.3970   15.5118 H   0  0  0  0  0  0  0  0  0  0  0  0
  -10.7725   -3.2510   14.2666 H   0  0  0  0  0  0  0  0  0  0  0  0
   -8.4196   -6.1902   13.6728 H   0  0  0  0  0  0  0  0  0  0  0  0
  7  8  1  0  0  0
  8  9  2  0  0  0
  8 10  1  0  0  0
 10  6  1  0  0  0
  6 12  1  0  0  0
 12 13  1  0  0  0
 13 14  2  0  0  0
 14 15  1  0  0  0
 15 16  2  0  0  0
 16 17  1  0  0  0
 17 18  2  0  0  0
  6  2  1  0  0  0
  2  3  2  0  0  0
  2  4  1  0  0  0
  4  1  1  0  0  0
  1 40  1  0  0  0
 40 41  1  0  0  0
 41 42  1  0  0  0
 42 43  1  0  0  0
 43 45  1  0  0  0
 45 46  1  0  0  0
 45 47  2  0  0  0
  1 19  1  0  0  0
 19 20  2  0  0  0
 19 21  1  0  0  0
 21 23  1  0  0  0
 23 29  1  0  0  0
 29 30  1  0  0  0
 30 31  2  0  0  0
 31 32  1  0  0  0
 32 33  1  0  0  0
 33 34  2  0  0  0
 34 35  1  0  0  0
 35 36  2  0  0  0
 36 37  1  0  0  0
 37 38  2  0  0  0
 23 24  1  0  0  0
 24 25  1  0  0  0
 24 26  2  0  0  0
 18 13  1  0  0  0
 38 30  1  0  0  0
 38 33  1  0  0  0
 10 11  1  0  0  0
  4  5  1  0  0  0
 43 44  1  0  0  0
 46 48  1  0  0  0
 46 49  1  0  0  0
 47 50  1  0  0  0
 21 22  1  0  0  0
 32 39  1  0  0  0
 25 27  1  0  0  0
 25 28  1  0  0  0
M  END
> <minimizedAffinity>
-5.83169

> <CNNscore>
0.3850949109

> <CNNaffinity>
7.3551115990

> <CNN_VS>
2.8324160576

> <CNNaffinity_variance>
0.1627185792

$$$$
[H]N=C(N([H])[H])N([H])C([H])([H])C([H])([H])C([H])([H])[C@@]([H])(C(=O)N([H])[C@]([H])(C(=O)N([H])[H])C([H])([H])c1c([H])n([H])c2c([H])c([H])c([H])c([H])c12)N([H])C(=O)[C@@]([H])(N([H])C(=O)C([H])([H])[H])C([H])([H])c1c([H])c([H])c([H])c([H])c1[H]


 50 52  0  0  0  0  0  0  0  0999 V2000
   -8.9645   -7.1582    7.3190 C   0  0  0  0  0  0  0  0  0  0  0  0
   -6.6098   -7.0430    8.1955 C   0  0  0  0  0  0  0  0  0  0  0  0
   -6.8021   -8.1996    8.6515 O   0  0  0  0  0  0  0  0  0  0  0  0
   -7.7119   -6.4838    7.4942 N   0  0  0  0  0  0  0  0  0  0  0  0
   -7.6023   -5.5381    7.0899 H   0  0  0  0  0  0  0  0  0  0  0  0
   -5.3076   -6.3694    8.4123 C   0  0  0  0  0  0  0  0  0  0  0  0
   -4.1690   -4.3797   11.5649 C   0  0  0  0  0  0  0  0  0  0  0  0
   -4.2919   -4.7928   10.1288 C   0  0  0  0  0  0  0  0  0  0  0  0
   -3.6420   -4.1609    9.2514 O   0  0  0  0  0  0  0  0  0  0  0  0
   -5.1109   -5.8663    9.7272 N   0  0  0  0  0  0  0  0  0  0  0  0
   -5.6344   -6.3292   10.5368 H   0  0  0  0  0  0  0  0  0  0  0  0
   -4.1300   -6.9400    7.7256 C   0  0  0  0  0  0  0  0  0  0  0  0
   -3.6016   -6.2474    6.5634 C   0  0  0  0  0  0  0  0  0  0  0  0
   -4.2632   -5.1639    6.0366 C   0  0  0  0  0  0  0  0  0  0  0  0
   -3.7809   -4.4744    4.9242 C   0  0  0  0  0  0  0  0  0  0  0  0
   -2.6073   -4.8739    4.3194 C   0  0  0  0  0  0  0  0  0  0  0  0
   -1.9317   -5.9700    4.8477 C   0  0  0  0  0  0  0  0  0  0  0  0
   -2.4200   -6.6360    5.9411 C   0  0  0  0  0  0  0  0  0  0  0  0
   -9.9916   -6.8970    8.3184 C   0  0  0  0  0  0  0  0  0  0  0  0
   -9.7866   -6.9939    9.5409 O   0  0  0  0  0  0  0  0  0  0  0  0
  -11.2936   -6.5098    7.8773 N   0  0  0  0  0  0  0  0  0  0  0  0
  -11.5362   -6.4145    6.8678 H   0  0  0  0  0  0  0  0  0  0  0  0
  -12.3567   -6.2269    8.8638 C   0  0  0  0  0  0  0  0  0  0  0  0
  -11.7680   -5.5208   10.0298 C   0  0  0  0  0  0  0  0  0  0  0  0
  -11.7694   -6.0749   11.3238 N   0  0  0  0  0  0  0  0  0  0  0  0
  -11.2395   -4.3793    9.8942 O   0  0  0  0  0  0  0  0  0  0  0  0
  -10.9017   -5.9726   11.8957 H   0  0  0  0  0  0  0  0  0  0  0  0
  -12.5650   -6.5818   11.7648 H   0  0  0  0  0  0  0  0  0  0  0  0
  -12.9964   -7.5254    9.2213 C   0  0  0  0  0  0  0  0  0  0  0  0
  -14.3475   -7.7298    8.7465 C   0  0  0  0  0  0  0  0  0  0  0  0
  -15.3453   -8.4431    9.3636 C   0  0  0  0  0  0  0  0  0  0  0  0
  -16.4555   -8.4158    8.5942 N   0  0  0  0  0  0  0  0  0  0  0  0
  -16.1915   -7.6960    7.4897 C   0  0  0  0  0  0  0  0  0  0  0  0
  -16.9658   -7.3643    6.3979 C   0  0  0  0  0  0  0  0  0  0  0  0
  -16.4041   -6.5880    5.3858 C   0  0  0  0  0  0  0  0  0  0  0  0
  -15.1134   -6.1607    5.4667 C   0  0  0  0  0  0  0  0  0  0  0  0
  -14.3146   -6.4764    6.5458 C   0  0  0  0  0  0  0  0  0  0  0  0
  -14.8817   -7.2518    7.5530 C   0  0  0  0  0  0  0  0  0  0  0  0
  -17.3753   -8.8682    8.7987 H   0  0  0  0  0  0  0  0  0  0  0  0
   -8.6934   -8.6336    7.1101 C   0  0  0  0  0  0  0  0  0  0  0  0
   -9.6818   -9.5033    7.8555 C   0  0  0  0  0  0  0  0  0  0  0  0
  -10.4195  -10.3082    6.7942 C   0  0  0  0  0  0  0  0  0  0  0  0
  -11.6029   -9.5876    6.3369 N   0  0  0  0  0  0  0  0  0  0  0  0
  -11.5503   -8.7371    5.7463 H   0  0  0  0  0  0  0  0  0  0  0  0
  -12.8694  -10.0780    6.7214 C   0  0  0  0  0  0  0  0  0  0  0  0
  -13.0715  -10.7344    7.9672 N   0  0  0  0  0  0  0  0  0  0  0  0
  -13.9103   -9.9536    5.9565 N   0  0  0  0  0  0  0  0  0  0  0  0
  -13.2338  -10.2012    8.8532 H   0  0  0  0  0  0  0  0  0  0  0  0
  -13.0548  -11.7719    7.9811 H   0  0  0  0  0  0  0  0  0  0  0  0
  -13.8937   -9.5012    5.0369 H   0  0  0  0  0  0  0  0  0  0  0  0
  7  8  1  0  0  0
  8  9  2  0  0  0
  8 10  1  0  0  0
 10  6  1  0  0  0
  6 12  1  0  0  0
 12 13  1  0  0  0
 13 14  2  0  0  0
 14 15  1  0  0  0
 15 16  2  0  0  0
 16 17  1  0  0  0
 17 18  2  0  0  0
  6  2  1  0  0  0
  2  3  2  0  0  0
  2  4  1  0  0  0
  4  1  1  0  0  0
  1 40  1  0  0  0
 40 41  1  0  0  0
 41 42  1  0  0  0
 42 43  1  0  0  0
 43 45  1  0  0  0
 45 46  1  0  0  0
 45 47  2  0  0  0
  1 19  1  0  0  0
 19 20  2  0  0  0
 19 21  1  0  0  0
 21 23  1  0  0  0
 23 29  1  0  0  0
 29 30  1  0  0  0
 30 31  2  0  0  0
 31 32  1  0  0  0
 32 33  1  0  0  0
 33 34  2  0  0  0
 34 35  1  0  0  0
 35 36  2  0  0  0
 36 37  1  0  0  0
 37 38  2  0  0  0
 23 24  1  0  0  0
 24 25  1  0  0  0
 24 26  2  0  0  0
 18 13  1  0  0  0
 38 30  1  0  0  0
 38 33  1  0  0  0
 10 11  1  0  0  0
  4  5  1  0  0  0
 43 44  1  0  0  0
 46 48  1  0  0  0
 46 49  1  0  0  0
 47 50  1  0  0  0
 21 22  1  0  0  0
 32 39  1  0  0  0
 25 27  1  0  0  0
 25 28  1  0  0  0
M  END
> <minimizedAffinity>
-6.58160

> <CNNscore>
0.3351615965

> <CNNaffinity>
7.1508140564

> <CNN_VS>
2.3966782093

> <CNNaffinity_variance>
0.1466895491

$$$$
[H]N=C(N([H])[H])N([H])C([H])([H])C([H])([H])C([H])([H])[C@@]([H])(C(=O)N([H])[C@]([H])(C(=O)N([H])[H])C([H])([H])c1c([H])n([H])c2c([H])c([H])c([H])c([H])c12)N([H])C(=O)[C@@]([H])(N([H])C(=O)C([H])([H])[H])C([H])([H])c1c([H])c([H])c([H])c([H])c1[H]


 50 52  0  0  0  0  0  0  0  0999 V2000
  -10.7234   -7.4279    7.7066 C   0  0  0  0  0  0  0  0  0  0  0  0
  -12.9221   -7.8714    6.5686 C   0  0  0  0  0  0  0  0  0  0  0  0
  -13.1156   -6.6295    6.6221 O   0  0  0  0  0  0  0  0  0  0  0  0
  -11.6868   -8.3102    7.1167 N   0  0  0  0  0  0  0  0  0  0  0  0
  -11.4738   -9.3220    7.0884 H   0  0  0  0  0  0  0  0  0  0  0  0
  -13.9492   -8.7548    5.9678 C   0  0  0  0  0  0  0  0  0  0  0  0
  -16.8297   -8.8432    8.5926 C   0  0  0  0  0  0  0  0  0  0  0  0
  -15.7562   -8.3004    7.6977 C   0  0  0  0  0  0  0  0  0  0  0  0
  -15.5229   -7.0606    7.7026 O   0  0  0  0  0  0  0  0  0  0  0  0
  -14.9980   -9.1319    6.8503 N   0  0  0  0  0  0  0  0  0  0  0  0
  -15.2783  -10.1627    6.9023 H   0  0  0  0  0  0  0  0  0  0  0  0
  -14.3121   -8.5058    4.5570 C   0  0  0  0  0  0  0  0  0  0  0  0
  -15.5131   -7.7393    4.2746 C   0  0  0  0  0  0  0  0  0  0  0  0
  -15.4881   -6.3655    4.3095 C   0  0  0  0  0  0  0  0  0  0  0  0
  -16.6223   -5.6000    4.0396 C   0  0  0  0  0  0  0  0  0  0  0  0
  -17.8146   -6.2186    3.7258 C   0  0  0  0  0  0  0  0  0  0  0  0
  -17.8473   -7.6095    3.6883 C   0  0  0  0  0  0  0  0  0  0  0  0
  -16.7235   -8.3462    3.9564 C   0  0  0  0  0  0  0  0  0  0  0  0
   -9.3207   -7.7693    7.5119 C   0  0  0  0  0  0  0  0  0  0  0  0
   -8.8614   -8.9014    7.7429 O   0  0  0  0  0  0  0  0  0  0  0  0
   -8.4307   -6.7608    7.0321 N   0  0  0  0  0  0  0  0  0  0  0  0
   -8.7470   -5.7895    6.8234 H   0  0  0  0  0  0  0  0  0  0  0  0
   -7.0034   -7.0749    6.8132 C   0  0  0  0  0  0  0  0  0  0  0  0
   -6.8703   -8.5000    6.4182 C   0  0  0  0  0  0  0  0  0  0  0  0
   -7.1835   -8.9538    5.1230 N   0  0  0  0  0  0  0  0  0  0  0  0
   -6.4662   -9.3654    7.2480 O   0  0  0  0  0  0  0  0  0  0  0  0
   -6.5396   -9.6491    4.6842 H   0  0  0  0  0  0  0  0  0  0  0  0
   -8.0065   -8.6553    4.5591 H   0  0  0  0  0  0  0  0  0  0  0  0
   -6.2708   -6.7391    8.0676 C   0  0  0  0  0  0  0  0  0  0  0  0
   -5.0105   -6.0465    7.9115 C   0  0  0  0  0  0  0  0  0  0  0  0
   -4.2933   -5.8790    6.7528 C   0  0  0  0  0  0  0  0  0  0  0  0
   -3.1608   -5.1938    7.0233 N   0  0  0  0  0  0  0  0  0  0  0  0
   -3.1346   -4.9154    8.3384 C   0  0  0  0  0  0  0  0  0  0  0  0
   -2.2169   -4.2476    9.1218 C   0  0  0  0  0  0  0  0  0  0  0  0
   -2.4680   -4.1141   10.4863 C   0  0  0  0  0  0  0  0  0  0  0  0
   -3.5979   -4.6318   11.0434 C   0  0  0  0  0  0  0  0  0  0  0  0
   -4.5336   -5.3045   10.2858 C   0  0  0  0  0  0  0  0  0  0  0  0
   -4.2768   -5.4342    8.9239 C   0  0  0  0  0  0  0  0  0  0  0  0
   -2.4157   -4.9148    6.3454 H   0  0  0  0  0  0  0  0  0  0  0  0
  -11.0916   -7.2132    9.1599 C   0  0  0  0  0  0  0  0  0  0  0  0
  -12.0653   -8.2581    9.6590 C   0  0  0  0  0  0  0  0  0  0  0  0
  -13.2535   -7.4916   10.2240 C   0  0  0  0  0  0  0  0  0  0  0  0
  -13.2486   -6.1141    9.7432 N   0  0  0  0  0  0  0  0  0  0  0  0
  -13.5785   -5.8473    8.7973 H   0  0  0  0  0  0  0  0  0  0  0  0
  -12.7714   -5.1088   10.6116 C   0  0  0  0  0  0  0  0  0  0  0  0
  -12.1594   -5.4236   11.8567 N   0  0  0  0  0  0  0  0  0  0  0  0
  -12.8684   -3.8490   10.3158 N   0  0  0  0  0  0  0  0  0  0  0  0
  -11.1471   -5.6806   11.9259 H   0  0  0  0  0  0  0  0  0  0  0  0
  -12.7470   -5.3927   12.7114 H   0  0  0  0  0  0  0  0  0  0  0  0
  -13.2886   -3.4953    9.4504 H   0  0  0  0  0  0  0  0  0  0  0  0
  7  8  1  0  0  0
  8  9  2  0  0  0
  8 10  1  0  0  0
 10  6  1  0  0  0
  6 12  1  0  0  0
 12 13  1  0  0  0
 13 14  2  0  0  0
 14 15  1  0  0  0
 15 16  2  0  0  0
 16 17  1  0  0  0
 17 18  2  0  0  0
  6  2  1  0  0  0
  2  3  2  0  0  0
  2  4  1  0  0  0
  4  1  1  0  0  0
  1 40  1  0  0  0
 40 41  1  0  0  0
 41 42  1  0  0  0
 42 43  1  0  0  0
 43 45  1  0  0  0
 45 46  1  0  0  0
 45 47  2  0  0  0
  1 19  1  0  0  0
 19 20  2  0  0  0
 19 21  1  0  0  0
 21 23  1  0  0  0
 23 29  1  0  0  0
 29 30  1  0  0  0
 30 31  2  0  0  0
 31 32  1  0  0  0
 32 33  1  0  0  0
 33 34  2  0  0  0
 34 35  1  0  0  0
 35 36  2  0  0  0
 36 37  1  0  0  0
 37 38  2  0  0  0
 23 24  1  0  0  0
 24 25  1  0  0  0
 24 26  2  0  0  0
 18 13  1  0  0  0
 38 30  1  0  0  0
 38 33  1  0  0  0
 10 11  1  0  0  0
  4  5  1  0  0  0
 43 44  1  0  0  0
 46 48  1  0  0  0
 46 49  1  0  0  0
 47 50  1  0  0  0
 21 22  1  0  0  0
 32 39  1  0  0  0
 25 27  1  0  0  0
 25 28  1  0  0  0
M  END
> <minimizedAffinity>
-5.70390

> <CNNscore>
0.3113352060

> <CNNaffinity>
7.0760154724

> <CNN_VS>
2.2030127048

> <CNNaffinity_variance>
0.3268226981

$$$$
[H]N=C(N([H])[H])N([H])C([H])([H])C([H])([H])C([H])([H])[C@@]([H])(C(=O)N([H])[C@]([H])(C(=O)N([H])[H])C([H])([H])c1c([H])n([H])c2c([H])c([H])c([H])c([H])c12)N([H])C(=O)[C@@]([H])(N([H])C(=O)C([H])([H])[H])C([H])([H])c1c([H])c([H])c([H])c([H])c1[H]


 50 52  0  0  0  0  0  0  0  0999 V2000
   -9.0257   -7.0000    7.5319 C   0  0  0  0  0  0  0  0  0  0  0  0
   -6.5351   -6.8064    7.2394 C   0  0  0  0  0  0  0  0  0  0  0  0
   -6.7742   -6.5012    6.0426 O   0  0  0  0  0  0  0  0  0  0  0  0
   -7.6847   -7.0622    8.0344 N   0  0  0  0  0  0  0  0  0  0  0  0
   -7.5437   -7.3074    9.0294 H   0  0  0  0  0  0  0  0  0  0  0  0
   -5.1346   -6.8787    7.7188 C   0  0  0  0  0  0  0  0  0  0  0  0
   -2.1899   -8.9694    6.2517 C   0  0  0  0  0  0  0  0  0  0  0  0
   -3.0122   -8.1926    7.2357 C   0  0  0  0  0  0  0  0  0  0  0  0
   -2.5712   -8.0246    8.4057 O   0  0  0  0  0  0  0  0  0  0  0  0
   -4.2637   -7.6428    6.8950 N   0  0  0  0  0  0  0  0  0  0  0  0
   -4.5612   -7.8510    5.8891 H   0  0  0  0  0  0  0  0  0  0  0  0
   -4.5739   -5.6659    8.3502 C   0  0  0  0  0  0  0  0  0  0  0  0
   -3.6210   -4.8693    7.5972 C   0  0  0  0  0  0  0  0  0  0  0  0
   -3.9558   -4.3621    6.3645 C   0  0  0  0  0  0  0  0  0  0  0  0
   -3.0658   -3.5904    5.6177 C   0  0  0  0  0  0  0  0  0  0  0  0
   -1.8075   -3.3154    6.1115 C   0  0  0  0  0  0  0  0  0  0  0  0
   -1.4616   -3.8253    7.3594 C   0  0  0  0  0  0  0  0  0  0  0  0
   -2.3484   -4.5819    8.0796 C   0  0  0  0  0  0  0  0  0  0  0  0
  -10.0800   -6.7761    8.5119 C   0  0  0  0  0  0  0  0  0  0  0  0
   -9.8898   -6.8468    9.7386 O   0  0  0  0  0  0  0  0  0  0  0  0
  -11.3920   -6.4588    8.0458 N   0  0  0  0  0  0  0  0  0  0  0  0
  -11.6230   -6.3887    7.0315 H   0  0  0  0  0  0  0  0  0  0  0  0
  -12.4832   -6.2152    9.0120 C   0  0  0  0  0  0  0  0  0  0  0  0
  -11.9384   -5.5074   10.1982 C   0  0  0  0  0  0  0  0  0  0  0  0
  -11.2320   -4.2945   10.0915 N   0  0  0  0  0  0  0  0  0  0  0  0
  -12.0933   -5.9816   11.3609 O   0  0  0  0  0  0  0  0  0  0  0  0
  -11.4367   -3.5509   10.7956 H   0  0  0  0  0  0  0  0  0  0  0  0
  -10.5181   -4.0710    9.3671 H   0  0  0  0  0  0  0  0  0  0  0  0
  -13.0959   -7.5339    9.3413 C   0  0  0  0  0  0  0  0  0  0  0  0
  -14.4287   -7.7700    8.8310 C   0  0  0  0  0  0  0  0  0  0  0  0
  -15.4324   -8.4890    9.4318 C   0  0  0  0  0  0  0  0  0  0  0  0
  -16.5197   -8.4945    8.6298 N   0  0  0  0  0  0  0  0  0  0  0  0
  -16.2351   -7.7904    7.5204 C   0  0  0  0  0  0  0  0  0  0  0  0
  -16.9821   -7.4917    6.4005 C   0  0  0  0  0  0  0  0  0  0  0  0
  -16.4037   -6.7243    5.3910 C   0  0  0  0  0  0  0  0  0  0  0  0
  -15.1232   -6.2736    5.5017 C   0  0  0  0  0  0  0  0  0  0  0  0
  -14.3516   -6.5560    6.6094 C   0  0  0  0  0  0  0  0  0  0  0  0
  -14.9353   -7.3228    7.6138 C   0  0  0  0  0  0  0  0  0  0  0  0
  -17.4375   -8.9589    8.8157 H   0  0  0  0  0  0  0  0  0  0  0  0
   -9.2696   -8.2111    6.6558 C   0  0  0  0  0  0  0  0  0  0  0  0
   -8.9756   -9.5054    7.3821 C   0  0  0  0  0  0  0  0  0  0  0  0
  -10.1670  -10.4164    7.1193 C   0  0  0  0  0  0  0  0  0  0  0  0
  -11.3796   -9.8538    7.7038 N   0  0  0  0  0  0  0  0  0  0  0  0
  -11.3721   -9.2678    8.5591 H   0  0  0  0  0  0  0  0  0  0  0  0
  -12.6110  -10.1256    7.0698 C   0  0  0  0  0  0  0  0  0  0  0  0
  -12.9321   -9.5838    5.7942 N   0  0  0  0  0  0  0  0  0  0  0  0
  -13.5095  -10.8829    7.6204 N   0  0  0  0  0  0  0  0  0  0  0  0
  -12.6070  -10.0314    4.9056 H   0  0  0  0  0  0  0  0  0  0  0  0
  -13.5059   -8.7198    5.7609 H   0  0  0  0  0  0  0  0  0  0  0  0
  -13.3974  -11.3309    8.5355 H   0  0  0  0  0  0  0  0  0  0  0  0
  7  8  1  0  0  0
  8  9  2  0  0  0
  8 10  1  0  0  0
 10  6  1  0  0  0
  6 12  1  0  0  0
 12 13  1  0  0  0
 13 14  2  0  0  0
 14 15  1  0  0  0
 15 16  2  0  0  0
 16 17  1  0  0  0
 17 18  2  0  0  0
  6  2  1  0  0  0
  2  3  2  0  0  0
  2  4  1  0  0  0
  4  1  1  0  0  0
  1 40  1  0  0  0
 40 41  1  0  0  0
 41 42  1  0  0  0
 42 43  1  0  0  0
 43 45  1  0  0  0
 45 46  1  0  0  0
 45 47  2  0  0  0
  1 19  1  0  0  0
 19 20  2  0  0  0
 19 21  1  0  0  0
 21 23  1  0  0  0
 23 29  1  0  0  0
 29 30  1  0  0  0
 30 31  2  0  0  0
 31 32  1  0  0  0
 32 33  1  0  0  0
 33 34  2  0  0  0
 34 35  1  0  0  0
 35 36  2  0  0  0
 36 37  1  0  0  0
 37 38  2  0  0  0
 23 24  1  0  0  0
 24 25  1  0  0  0
 24 26  2  0  0  0
 18 13  1  0  0  0
 38 30  1  0  0  0
 38 33  1  0  0  0
 10 11  1  0  0  0
  4  5  1  0  0  0
 43 44  1  0  0  0
 46 48  1  0  0  0
 46 49  1  0  0  0
 47 50  1  0  0  0
 21 22  1  0  0  0
 32 39  1  0  0  0
 25 27  1  0  0  0
 25 28  1  0  0  0
M  END
> <minimizedAffinity>
-5.75636

> <CNNscore>
0.2980102599

> <CNNaffinity>
7.2162704468

> <CNN_VS>
2.1505227089

> <CNNaffinity_variance>
0.1381744593

$$$$
[H]N=C(N([H])[H])N([H])C([H])([H])C([H])([H])C([H])([H])[C@@]([H])(C(=O)N([H])[C@]([H])(C(=O)N([H])[H])C([H])([H])c1c([H])n([H])c2c([H])c([H])c([H])c([H])c12)N([H])C(=O)[C@@]([H])(N([H])C(=O)C([H])([H])[H])C([H])([H])c1c([H])c([H])c([H])c([H])c1[H]


 50 52  0  0  0  0  0  0  0  0999 V2000
  -11.9828   -8.1659    8.0480 C   0  0  0  0  0  0  0  0  0  0  0  0
  -13.8274   -9.0367    6.5766 C   0  0  0  0  0  0  0  0  0  0  0  0
  -13.6408  -10.1515    7.1290 O   0  0  0  0  0  0  0  0  0  0  0  0
  -12.9865   -7.9893    7.0401 N   0  0  0  0  0  0  0  0  0  0  0  0
  -13.1063   -7.0493    6.6254 H   0  0  0  0  0  0  0  0  0  0  0  0
  -14.8620   -8.8964    5.5249 C   0  0  0  0  0  0  0  0  0  0  0  0
  -18.1282   -7.9175    7.4140 C   0  0  0  0  0  0  0  0  0  0  0  0
  -16.6918   -7.9033    6.9843 C   0  0  0  0  0  0  0  0  0  0  0  0
  -15.9032   -7.0702    7.5092 O   0  0  0  0  0  0  0  0  0  0  0  0
  -16.1936   -8.7924    6.0118 N   0  0  0  0  0  0  0  0  0  0  0  0
  -16.9380   -9.4484    5.6126 H   0  0  0  0  0  0  0  0  0  0  0  0
  -14.5130   -8.0874    4.3384 C   0  0  0  0  0  0  0  0  0  0  0  0
  -15.1119   -6.7719    4.1953 C   0  0  0  0  0  0  0  0  0  0  0  0
  -16.3756   -6.6339    3.6724 C   0  0  0  0  0  0  0  0  0  0  0  0
  -16.9808   -5.3860    3.5252 C   0  0  0  0  0  0  0  0  0  0  0  0
  -16.3101   -4.2434    3.9094 C   0  0  0  0  0  0  0  0  0  0  0  0
  -15.0303   -4.3755    4.4400 C   0  0  0  0  0  0  0  0  0  0  0  0
  -14.4506   -5.6095    4.5774 C   0  0  0  0  0  0  0  0  0  0  0  0
  -10.6944   -8.6796    7.6029 C   0  0  0  0  0  0  0  0  0  0  0  0
  -10.5484   -9.8177    7.1241 O   0  0  0  0  0  0  0  0  0  0  0  0
   -9.5452   -7.8395    7.7185 N   0  0  0  0  0  0  0  0  0  0  0  0
   -9.5945   -6.8768    8.1156 H   0  0  0  0  0  0  0  0  0  0  0  0
   -8.2243   -8.3243    7.2673 C   0  0  0  0  0  0  0  0  0  0  0  0
   -7.6466   -9.2122    8.3077 C   0  0  0  0  0  0  0  0  0  0  0  0
   -7.5507  -10.6064    8.1380 N   0  0  0  0  0  0  0  0  0  0  0  0
   -7.2170   -8.7354    9.3980 O   0  0  0  0  0  0  0  0  0  0  0  0
   -6.6712  -11.0735    8.4523 H   0  0  0  0  0  0  0  0  0  0  0  0
   -8.2845  -11.2180    7.7235 H   0  0  0  0  0  0  0  0  0  0  0  0
   -7.3813   -7.1294    6.9764 C   0  0  0  0  0  0  0  0  0  0  0  0
   -5.9523   -7.3473    6.9223 C   0  0  0  0  0  0  0  0  0  0  0  0
   -5.2737   -8.2008    6.0879 C   0  0  0  0  0  0  0  0  0  0  0  0
   -3.9517   -8.1332    6.3585 N   0  0  0  0  0  0  0  0  0  0  0  0
   -3.7648   -7.2494    7.3543 C   0  0  0  0  0  0  0  0  0  0  0  0
   -2.6267   -6.8148    8.0004 C   0  0  0  0  0  0  0  0  0  0  0  0
   -2.7499   -5.8698    9.0175 C   0  0  0  0  0  0  0  0  0  0  0  0
   -3.9700   -5.3798    9.3728 C   0  0  0  0  0  0  0  0  0  0  0  0
   -5.1257   -5.7952    8.7452 C   0  0  0  0  0  0  0  0  0  0  0  0
   -4.9956   -6.7389    7.7304 C   0  0  0  0  0  0  0  0  0  0  0  0
   -3.1843   -8.6658    5.8894 H   0  0  0  0  0  0  0  0  0  0  0  0
  -12.5811   -8.9586    9.1915 C   0  0  0  0  0  0  0  0  0  0  0  0
  -12.9850   -8.0701   10.3476 C   0  0  0  0  0  0  0  0  0  0  0  0
  -13.7166   -6.8846    9.7328 C   0  0  0  0  0  0  0  0  0  0  0  0
  -13.1557   -5.6290   10.2201 N   0  0  0  0  0  0  0  0  0  0  0  0
  -13.7024   -4.7494   10.2669 H   0  0  0  0  0  0  0  0  0  0  0  0
  -11.8091   -5.6226   10.6433 C   0  0  0  0  0  0  0  0  0  0  0  0
  -11.4573   -5.6445   12.0215 N   0  0  0  0  0  0  0  0  0  0  0  0
  -10.8273   -5.5963    9.7951 N   0  0  0  0  0  0  0  0  0  0  0  0
  -11.4129   -6.5369   12.5668 H   0  0  0  0  0  0  0  0  0  0  0  0
  -11.2411   -4.7415   12.4848 H   0  0  0  0  0  0  0  0  0  0  0  0
  -10.9507   -5.5784    8.7777 H   0  0  0  0  0  0  0  0  0  0  0  0
  7  8  1  0  0  0
  8  9  2  0  0  0
  8 10  1  0  0  0
 10  6  1  0  0  0
  6 12  1  0  0  0
 12 13  1  0  0  0
 13 14  2  0  0  0
 14 15  1  0  0  0
 15 16  2  0  0  0
 16 17  1  0  0  0
 17 18  2  0  0  0
  6  2  1  0  0  0
  2  3  2  0  0  0
  2  4  1  0  0  0
  4  1  1  0  0  0
  1 40  1  0  0  0
 40 41  1  0  0  0
 41 42  1  0  0  0
 42 43  1  0  0  0
 43 45  1  0  0  0
 45 46  1  0  0  0
 45 47  2  0  0  0
  1 19  1  0  0  0
 19 20  2  0  0  0
 19 21  1  0  0  0
 21 23  1  0  0  0
 23 29  1  0  0  0
 29 30  1  0  0  0
 30 31  2  0  0  0
 31 32  1  0  0  0
 32 33  1  0  0  0
 33 34  2  0  0  0
 34 35  1  0  0  0
 35 36  2  0  0  0
 36 37  1  0  0  0
 37 38  2  0  0  0
 23 24  1  0  0  0
 24 25  1  0  0  0
 24 26  2  0  0  0
 18 13  1  0  0  0
 38 30  1  0  0  0
 38 33  1  0  0  0
 10 11  1  0  0  0
  4  5  1  0  0  0
 43 44  1  0  0  0
 46 48  1  0  0  0
 46 49  1  0  0  0
 47 50  1  0  0  0
 21 22  1  0  0  0
 32 39  1  0  0  0
 25 27  1  0  0  0
 25 28  1  0  0  0
M  END
> <minimizedAffinity>
-7.17040

> <CNNscore>
0.2731904089

> <CNNaffinity>
7.0607171059

> <CNN_VS>
1.9289201498

> <CNNaffinity_variance>
0.1444548070

$$$$
[H]N=C(N([H])[H])N([H])C([H])([H])C([H])([H])C([H])([H])[C@@]([H])(C(=O)N([H])[C@]([H])(C(=O)N([H])[H])C([H])([H])c1c([H])n([H])c2c([H])c([H])c([H])c([H])c12)N([H])C(=O)[C@@]([H])(N([H])C(=O)C([H])([H])[H])C([H])([H])c1c([H])c([H])c([H])c([H])c1[H]


 50 52  0  0  0  0  0  0  0  0999 V2000
  -11.7560   -8.4374    7.6767 C   0  0  0  0  0  0  0  0  0  0  0  0
   -9.2969   -8.2317    7.1904 C   0  0  0  0  0  0  0  0  0  0  0  0
   -9.2888   -9.4852    7.0841 O   0  0  0  0  0  0  0  0  0  0  0  0
  -10.5644   -7.6632    7.4894 N   0  0  0  0  0  0  0  0  0  0  0  0
  -10.6278   -6.6345    7.5773 H   0  0  0  0  0  0  0  0  0  0  0  0
   -8.0413   -7.4658    7.0082 C   0  0  0  0  0  0  0  0  0  0  0  0
   -6.4318   -6.9047   10.5138 C   0  0  0  0  0  0  0  0  0  0  0  0
   -6.9576   -7.6161    9.3033 C   0  0  0  0  0  0  0  0  0  0  0  0
   -6.9151   -8.8764    9.2661 O   0  0  0  0  0  0  0  0  0  0  0  0
   -7.4991   -6.9210    8.2041 N   0  0  0  0  0  0  0  0  0  0  0  0
   -7.4773   -5.8580    8.3192 H   0  0  0  0  0  0  0  0  0  0  0  0
   -7.0833   -7.9696    6.0020 C   0  0  0  0  0  0  0  0  0  0  0  0
   -5.7102   -7.4992    6.0551 C   0  0  0  0  0  0  0  0  0  0  0  0
   -4.7007   -8.3381    6.4630 C   0  0  0  0  0  0  0  0  0  0  0  0
   -3.3717   -7.9191    6.5215 C   0  0  0  0  0  0  0  0  0  0  0  0
   -3.0377   -6.6294    6.1637 C   0  0  0  0  0  0  0  0  0  0  0  0
   -4.0546   -5.7745    5.7491 C   0  0  0  0  0  0  0  0  0  0  0  0
   -5.3552   -6.2027    5.6979 C   0  0  0  0  0  0  0  0  0  0  0  0
  -13.0169   -7.7822    7.3558 C   0  0  0  0  0  0  0  0  0  0  0  0
  -13.1244   -6.5510    7.2198 O   0  0  0  0  0  0  0  0  0  0  0  0
  -14.1839   -8.5880    7.1873 N   0  0  0  0  0  0  0  0  0  0  0  0
  -14.1668   -9.6251    7.2923 H   0  0  0  0  0  0  0  0  0  0  0  0
  -15.4775   -7.9578    6.8512 C   0  0  0  0  0  0  0  0  0  0  0  0
  -16.4626   -8.2608    7.9201 C   0  0  0  0  0  0  0  0  0  0  0  0
  -16.1446   -9.0671    9.0294 N   0  0  0  0  0  0  0  0  0  0  0  0
  -17.6385   -7.7973    7.8651 O   0  0  0  0  0  0  0  0  0  0  0  0
  -16.4912   -8.7615    9.9658 H   0  0  0  0  0  0  0  0  0  0  0  0
  -15.5899   -9.9479    8.9988 H   0  0  0  0  0  0  0  0  0  0  0  0
  -15.8887   -8.4614    5.5095 C   0  0  0  0  0  0  0  0  0  0  0  0
  -16.5546   -7.5141    4.6425 C   0  0  0  0  0  0  0  0  0  0  0  0
  -17.6940   -7.7220    3.9052 C   0  0  0  0  0  0  0  0  0  0  0  0
  -17.9871   -6.6014    3.2098 N   0  0  0  0  0  0  0  0  0  0  0  0
  -17.0554   -5.6722    3.4859 C   0  0  0  0  0  0  0  0  0  0  0  0
  -16.8880   -4.3753    3.0481 C   0  0  0  0  0  0  0  0  0  0  0  0
  -15.8014   -3.6409    3.5201 C   0  0  0  0  0  0  0  0  0  0  0  0
  -14.9161   -4.1882    4.3987 C   0  0  0  0  0  0  0  0  0  0  0  0
  -15.0573   -5.4822    4.8542 C   0  0  0  0  0  0  0  0  0  0  0  0
  -16.1444   -6.2100    4.3790 C   0  0  0  0  0  0  0  0  0  0  0  0
  -18.7935   -6.4550    2.5611 H   0  0  0  0  0  0  0  0  0  0  0  0
  -11.7290   -9.0363    9.0675 C   0  0  0  0  0  0  0  0  0  0  0  0
  -13.1074   -9.0900    9.6890 C   0  0  0  0  0  0  0  0  0  0  0  0
  -13.2857   -7.7739   10.4337 C   0  0  0  0  0  0  0  0  0  0  0  0
  -11.9957   -7.1240   10.6394 N   0  0  0  0  0  0  0  0  0  0  0  0
  -11.1889   -7.6025   11.0811 H   0  0  0  0  0  0  0  0  0  0  0  0
  -11.8508   -5.7854   10.2156 C   0  0  0  0  0  0  0  0  0  0  0  0
  -12.8123   -4.7888   10.5411 N   0  0  0  0  0  0  0  0  0  0  0  0
  -10.8333   -5.3999    9.5084 N   0  0  0  0  0  0  0  0  0  0  0  0
  -12.7990   -4.2867   11.4594 H   0  0  0  0  0  0  0  0  0  0  0  0
  -13.5409   -4.5646    9.8371 H   0  0  0  0  0  0  0  0  0  0  0  0
  -10.0753   -6.0220    9.2102 H   0  0  0  0  0  0  0  0  0  0  0  0
  7  8  1  0  0  0
  8  9  2  0  0  0
  8 10  1  0  0  0
 10  6  1  0  0  0
  6 12  1  0  0  0
 12 13  1  0  0  0
 13 14  2  0  0  0
 14 15  1  0  0  0
 15 16  2  0  0  0
 16 17  1  0  0  0
 17 18  2  0  0  0
  6  2  1  0  0  0
  2  3  2  0  0  0
  2  4  1  0  0  0
  4  1  1  0  0  0
  1 40  1  0  0  0
 40 41  1  0  0  0
 41 42  1  0  0  0
 42 43  1  0  0  0
 43 45  1  0  0  0
 45 46  1  0  0  0
 45 47  2  0  0  0
  1 19  1  0  0  0
 19 20  2  0  0  0
 19 21  1  0  0  0
 21 23  1  0  0  0
 23 29  1  0  0  0
 29 30  1  0  0  0
 30 31  2  0  0  0
 31 32  1  0  0  0
 32 33  1  0  0  0
 33 34  2  0  0  0
 34 35  1  0  0  0
 35 36  2  0  0  0
 36 37  1  0  0  0
 37 38  2  0  0  0
 23 24  1  0  0  0
 24 25  1  0  0  0
 24 26  2  0  0  0
 18 13  1  0  0  0
 38 30  1  0  0  0
 38 33  1  0  0  0
 10 11  1  0  0  0
  4  5  1  0  0  0
 43 44  1  0  0  0
 46 48  1  0  0  0
 46 49  1  0  0  0
 47 50  1  0  0  0
 21 22  1  0  0  0
 32 39  1  0  0  0
 25 27  1  0  0  0
 25 28  1  0  0  0
M  END
> <minimizedAffinity>
-5.52255

> <CNNscore>
0.2641229331

> <CNNaffinity>
7.2688016891

> <CNN_VS>
1.9198572636

> <CNNaffinity_variance>
0.1059046984

$$$$
[H]c1c([H])c([H])c(N2C(=O)C([H])([H])C([H])(C(=O)N([H])C([H])([H])C(=O)N3C([H])([H])C([H])([H])C([H])(OC(=O)C([H])([H])[H])C([H])([H])C3([H])[H])C2([H])[H])c([H])c1[H]


 29 31  0  0  0  0  0  0  0  0999 V2000
  -13.7027   -8.2798    9.0900 N   0  0  0  0  0  0  0  0  0  0  0  0
  -12.9516   -7.2932    8.4061 C   0  0  0  0  0  0  0  0  0  0  0  0
  -12.5529   -7.5538    7.2437 O   0  0  0  0  0  0  0  0  0  0  0  0
  -14.0161   -8.0136   10.0723 H   0  0  0  0  0  0  0  0  0  0  0  0
  -12.6175   -5.9811    8.9921 C   0  0  0  0  0  0  0  0  0  0  0  0
  -12.7088   -5.9521   10.4791 C   0  0  0  0  0  0  0  0  0  0  0  0
  -11.3452   -5.7976   10.9670 N   0  0  0  0  0  0  0  0  0  0  0  0
  -10.4486   -5.9886    9.8776 C   0  0  0  0  0  0  0  0  0  0  0  0
   -9.2759   -6.4075    9.9831 O   0  0  0  0  0  0  0  0  0  0  0  0
  -11.2162   -5.5887    8.6696 C   0  0  0  0  0  0  0  0  0  0  0  0
  -11.0117   -5.5014   12.3240 C   0  0  0  0  0  0  0  0  0  0  0  0
   -9.7440   -5.8023   12.8075 C   0  0  0  0  0  0  0  0  0  0  0  0
   -9.3695   -5.5390   14.1115 C   0  0  0  0  0  0  0  0  0  0  0  0
  -10.2627   -4.9581   14.9876 C   0  0  0  0  0  0  0  0  0  0  0  0
  -11.5234   -4.6547   14.5206 C   0  0  0  0  0  0  0  0  0  0  0  0
  -11.8922   -4.9214   13.2113 C   0  0  0  0  0  0  0  0  0  0  0  0
  -14.0480   -9.5592    8.5525 C   0  0  0  0  0  0  0  0  0  0  0  0
  -15.8505   -6.5336    5.2337 C   0  0  0  0  0  0  0  0  0  0  0  0
  -14.9766   -7.5318    4.5217 C   0  0  0  0  0  0  0  0  0  0  0  0
  -15.3591   -8.9468    4.9752 C   0  0  0  0  0  0  0  0  0  0  0  0
  -15.2157   -8.9069    6.4375 N   0  0  0  0  0  0  0  0  0  0  0  0
  -16.2090   -8.1035    7.1266 C   0  0  0  0  0  0  0  0  0  0  0  0
  -16.8755   -7.1935    6.1374 C   0  0  0  0  0  0  0  0  0  0  0  0
  -14.1748   -9.6104    7.0884 C   0  0  0  0  0  0  0  0  0  0  0  0
  -13.3763  -10.2675    6.4000 O   0  0  0  0  0  0  0  0  0  0  0  0
  -16.4387   -5.6055    4.3668 O   0  0  0  0  0  0  0  0  0  0  0  0
  -18.8036   -4.7191    4.3771 C   0  0  0  0  0  0  0  0  0  0  0  0
  -17.7406   -5.6489    3.9110 C   0  0  0  0  0  0  0  0  0  0  0  0
  -18.0313   -6.5168    3.0643 O   0  0  0  0  0  0  0  0  0  0  0  0
 27 28  1  0  0  0
 28 29  2  0  0  0
 28 26  1  0  0  0
 26 18  1  0  0  0
 18 19  1  0  0  0
 19 20  1  0  0  0
 20 21  1  0  0  0
 21 22  1  0  0  0
 22 23  1  0  0  0
 21 24  1  0  0  0
 24 25  2  0  0  0
 24 17  1  0  0  0
 17  1  1  0  0  0
  1  2  1  0  0  0
  2  3  2  0  0  0
  2  5  1  0  0  0
  5  6  1  0  0  0
  6  7  1  0  0  0
  7  8  1  0  0  0
  8  9  2  0  0  0
  8 10  1  0  0  0
  7 11  1  0  0  0
 11 12  2  0  0  0
 12 13  1  0  0  0
 13 14  2  0  0  0
 14 15  1  0  0  0
 15 16  2  0  0  0
 23 18  1  0  0  0
 10  5  1  0  0  0
 16 11  1  0  0  0
  1  4  1  0  0  0
M  END
> <minimizedAffinity>
3.87773

> <CNNscore>
0.5449330807

> <CNNaffinity>
6.4209685326

> <CNN_VS>
3.4989981651

> <CNNaffinity_variance>
0.3061288595

$$$$
[H]c1c([H])c([H])c(N2C(=O)C([H])([H])C([H])(C(=O)N([H])C([H])([H])C(=O)N3C([H])([H])C([H])([H])C([H])(OC(=O)C([H])([H])[H])C([H])([H])C3([H])[H])C2([H])[H])c([H])c1[H]


 29 31  0  0  0  0  0  0  0  0999 V2000
  -13.4917   -7.7180    6.7794 N   0  0  0  0  0  0  0  0  0  0  0  0
  -13.8295   -8.8544    6.0051 C   0  0  0  0  0  0  0  0  0  0  0  0
  -13.1947   -9.9190    6.2093 O   0  0  0  0  0  0  0  0  0  0  0  0
  -14.0554   -6.8395    6.5685 H   0  0  0  0  0  0  0  0  0  0  0  0
  -14.8863   -8.8462    4.9756 C   0  0  0  0  0  0  0  0  0  0  0  0
  -16.1254   -8.1354    5.3995 C   0  0  0  0  0  0  0  0  0  0  0  0
  -16.2078   -6.9365    4.5765 N   0  0  0  0  0  0  0  0  0  0  0  0
  -14.9742   -6.7752    3.8840 C   0  0  0  0  0  0  0  0  0  0  0  0
  -14.5060   -5.6802    3.5053 O   0  0  0  0  0  0  0  0  0  0  0  0
  -14.4285   -8.1499    3.7398 C   0  0  0  0  0  0  0  0  0  0  0  0
  -17.3590   -6.0938    4.5067 C   0  0  0  0  0  0  0  0  0  0  0  0
  -18.3100   -6.3006    3.5147 C   0  0  0  0  0  0  0  0  0  0  0  0
  -19.4407   -5.5140    3.4003 C   0  0  0  0  0  0  0  0  0  0  0  0
  -19.6607   -4.4799    4.2863 C   0  0  0  0  0  0  0  0  0  0  0  0
  -18.7250   -4.2642    5.2749 C   0  0  0  0  0  0  0  0  0  0  0  0
  -17.5934   -5.0571    5.3838 C   0  0  0  0  0  0  0  0  0  0  0  0
  -12.4772   -7.6906    7.7869 C   0  0  0  0  0  0  0  0  0  0  0  0
  -11.2176   -5.1583   11.7135 C   0  0  0  0  0  0  0  0  0  0  0  0
  -12.5895   -5.7301   11.9538 C   0  0  0  0  0  0  0  0  0  0  0  0
  -12.5753   -7.2268   11.6165 C   0  0  0  0  0  0  0  0  0  0  0  0
  -12.1011   -7.2776   10.2261 N   0  0  0  0  0  0  0  0  0  0  0  0
  -10.7045   -6.9266   10.0443 C   0  0  0  0  0  0  0  0  0  0  0  0
  -10.2165   -6.2079   11.2676 C   0  0  0  0  0  0  0  0  0  0  0  0
  -12.9700   -7.6445    9.1715 C   0  0  0  0  0  0  0  0  0  0  0  0
  -14.1503   -7.9246    9.4398 O   0  0  0  0  0  0  0  0  0  0  0  0
  -10.7410   -4.4077   12.7944 O   0  0  0  0  0  0  0  0  0  0  0  0
  -11.5245   -3.9867   15.1582 C   0  0  0  0  0  0  0  0  0  0  0  0
  -10.8123   -4.7800   14.1213 C   0  0  0  0  0  0  0  0  0  0  0  0
  -10.2463   -5.8385   14.4591 O   0  0  0  0  0  0  0  0  0  0  0  0
 27 28  1  0  0  0
 28 29  2  0  0  0
 28 26  1  0  0  0
 26 18  1  0  0  0
 18 19  1  0  0  0
 19 20  1  0  0  0
 20 21  1  0  0  0
 21 22  1  0  0  0
 22 23  1  0  0  0
 21 24  1  0  0  0
 24 25  2  0  0  0
 24 17  1  0  0  0
 17  1  1  0  0  0
  1  2  1  0  0  0
  2  3  2  0  0  0
  2  5  1  0  0  0
  5  6  1  0  0  0
  6  7  1  0  0  0
  7  8  1  0  0  0
  8  9  2  0  0  0
  8 10  1  0  0  0
  7 11  1  0  0  0
 11 12  2  0  0  0
 12 13  1  0  0  0
 13 14  2  0  0  0
 14 15  1  0  0  0
 15 16  2  0  0  0
 23 18  1  0  0  0
 10  5  1  0  0  0
 16 11  1  0  0  0
  1  4  1  0  0  0
M  END
> <minimizedAffinity>
8.84489

> <CNNscore>
0.5254800320

> <CNNaffinity>
6.4693894386

> <CNN_VS>
3.3995349407

> <CNNaffinity_variance>
1.0016241074

$$$$
[H]c1c([H])c([H])c(N2C(=O)C([H])([H])C([H])(C(=O)N([H])C([H])([H])C(=O)N3C([H])([H])C([H])([H])C([H])(OC(=O)C([H])([H])[H])C([H])([H])C3([H])[H])C2([H])[H])c([H])c1[H]


 29 31  0  0  0  0  0  0  0  0999 V2000
  -14.5101   -7.5459    5.2943 N   0  0  0  0  0  0  0  0  0  0  0  0
  -15.2002   -7.2472    4.0944 C   0  0  0  0  0  0  0  0  0  0  0  0
  -14.8475   -6.2300    3.4471 O   0  0  0  0  0  0  0  0  0  0  0  0
  -14.8464   -8.4158    5.8084 H   0  0  0  0  0  0  0  0  0  0  0  0
  -16.3078   -8.0701    3.5724 C   0  0  0  0  0  0  0  0  0  0  0  0
  -16.9554   -8.9233    4.6083 C   0  0  0  0  0  0  0  0  0  0  0  0
  -18.2960   -8.3861    4.7970 N   0  0  0  0  0  0  0  0  0  0  0  0
  -18.3810   -7.1318    4.1288 C   0  0  0  0  0  0  0  0  0  0  0  0
  -19.1434   -6.1978    4.4577 O   0  0  0  0  0  0  0  0  0  0  0  0
  -17.3973   -7.2173    3.0182 C   0  0  0  0  0  0  0  0  0  0  0  0
  -19.3237   -9.0466    5.5374 C   0  0  0  0  0  0  0  0  0  0  0  0
  -19.0301   -9.6234    6.7672 C   0  0  0  0  0  0  0  0  0  0  0  0
  -19.9853  -10.2759    7.5235 C   0  0  0  0  0  0  0  0  0  0  0  0
  -21.2838  -10.3746    7.0688 C   0  0  0  0  0  0  0  0  0  0  0  0
  -21.5882   -9.8067    5.8505 C   0  0  0  0  0  0  0  0  0  0  0  0
  -20.6251   -9.1537    5.0972 C   0  0  0  0  0  0  0  0  0  0  0  0
  -13.4310   -6.7739    5.8277 C   0  0  0  0  0  0  0  0  0  0  0  0
  -12.7290   -6.5535   10.6106 C   0  0  0  0  0  0  0  0  0  0  0  0
  -12.1443   -7.8504   10.1178 C   0  0  0  0  0  0  0  0  0  0  0  0
  -11.2451   -7.5673    8.9072 C   0  0  0  0  0  0  0  0  0  0  0  0
  -12.1259   -6.8680    7.9607 N   0  0  0  0  0  0  0  0  0  0  0  0
  -12.5064   -5.5251    8.3591 C   0  0  0  0  0  0  0  0  0  0  0  0
  -12.2349   -5.3531    9.8246 C   0  0  0  0  0  0  0  0  0  0  0  0
  -12.5505   -7.4898    6.7628 C   0  0  0  0  0  0  0  0  0  0  0  0
  -12.1655   -8.6459    6.5207 O   0  0  0  0  0  0  0  0  0  0  0  0
  -12.5757   -6.3737   11.9901 O   0  0  0  0  0  0  0  0  0  0  0  0
  -11.6411   -4.8878   13.8059 C   0  0  0  0  0  0  0  0  0  0  0  0
  -11.5070   -5.7515   12.6027 C   0  0  0  0  0  0  0  0  0  0  0  0
  -10.3735   -5.9284   12.1142 O   0  0  0  0  0  0  0  0  0  0  0  0
 27 28  1  0  0  0
 28 29  2  0  0  0
 28 26  1  0  0  0
 26 18  1  0  0  0
 18 19  1  0  0  0
 19 20  1  0  0  0
 20 21  1  0  0  0
 21 22  1  0  0  0
 22 23  1  0  0  0
 21 24  1  0  0  0
 24 25  2  0  0  0
 24 17  1  0  0  0
 17  1  1  0  0  0
  1  2  1  0  0  0
  2  3  2  0  0  0
  2  5  1  0  0  0
  5  6  1  0  0  0
  6  7  1  0  0  0
  7  8  1  0  0  0
  8  9  2  0  0  0
  8 10  1  0  0  0
  7 11  1  0  0  0
 11 12  2  0  0  0
 12 13  1  0  0  0
 13 14  2  0  0  0
 14 15  1  0  0  0
 15 16  2  0  0  0
 23 18  1  0  0  0
 10  5  1  0  0  0
 16 11  1  0  0  0
  1  4  1  0  0  0
M  END
> <minimizedAffinity>
7.26187

> <CNNscore>
0.5090398192

> <CNNaffinity>
6.4790358543

> <CNN_VS>
3.2980873585

> <CNNaffinity_variance>
1.6313909292

$$$$
[H]c1c([H])c([H])c(N2C(=O)C([H])([H])C([H])(C(=O)N([H])C([H])([H])C(=O)N3C([H])([H])C([H])([H])C([H])(OC(=O)C([H])([H])[H])C([H])([H])C3([H])[H])C2([H])[H])c([H])c1[H]


 29 31  0  0  0  0  0  0  0  0999 V2000
  -11.1843   -8.1576    7.9884 N   0  0  0  0  0  0  0  0  0  0  0  0
  -12.3519   -7.5111    8.4617 C   0  0  0  0  0  0  0  0  0  0  0  0
  -12.2259   -6.3843    9.0025 O   0  0  0  0  0  0  0  0  0  0  0  0
  -11.3416   -9.1107    7.5403 H   0  0  0  0  0  0  0  0  0  0  0  0
  -13.7016   -8.0962    8.3498 C   0  0  0  0  0  0  0  0  0  0  0  0
  -14.6959   -7.1836    7.7181 C   0  0  0  0  0  0  0  0  0  0  0  0
  -15.0316   -7.7770    6.4310 N   0  0  0  0  0  0  0  0  0  0  0  0
  -14.1150   -8.8335    6.1649 C   0  0  0  0  0  0  0  0  0  0  0  0
  -13.7821   -9.2194    5.0239 O   0  0  0  0  0  0  0  0  0  0  0  0
  -13.6884   -9.3220    7.5020 C   0  0  0  0  0  0  0  0  0  0  0  0
  -16.1132   -7.3382    5.6075 C   0  0  0  0  0  0  0  0  0  0  0  0
  -16.2280   -5.9944    5.2724 C   0  0  0  0  0  0  0  0  0  0  0  0
  -17.2552   -5.5160    4.4811 C   0  0  0  0  0  0  0  0  0  0  0  0
  -18.2151   -6.3774    3.9920 C   0  0  0  0  0  0  0  0  0  0  0  0
  -18.1127   -7.7129    4.3170 C   0  0  0  0  0  0  0  0  0  0  0  0
  -17.0797   -8.1858    5.1111 C   0  0  0  0  0  0  0  0  0  0  0  0
   -9.8623   -7.6195    8.0766 C   0  0  0  0  0  0  0  0  0  0  0  0
   -5.3640   -6.7891    6.4974 C   0  0  0  0  0  0  0  0  0  0  0  0
   -5.4961   -8.2661    6.7581 C   0  0  0  0  0  0  0  0  0  0  0  0
   -6.7718   -8.7831    6.0801 C   0  0  0  0  0  0  0  0  0  0  0  0
   -7.8411   -7.9421    6.6369 N   0  0  0  0  0  0  0  0  0  0  0  0
   -7.8204   -6.5585    6.1985 C   0  0  0  0  0  0  0  0  0  0  0  0
   -6.4736   -6.2497    5.6139 C   0  0  0  0  0  0  0  0  0  0  0  0
   -8.7992   -8.4762    7.5305 C   0  0  0  0  0  0  0  0  0  0  0  0
   -8.7225   -9.6766    7.8413 O   0  0  0  0  0  0  0  0  0  0  0  0
   -4.0973   -6.4285    6.0240 O   0  0  0  0  0  0  0  0  0  0  0  0
   -2.9658   -4.6690    4.6089 C   0  0  0  0  0  0  0  0  0  0  0  0
   -3.6470   -5.1362    5.8455 C   0  0  0  0  0  0  0  0  0  0  0  0
   -3.8249   -4.3252    6.7757 O   0  0  0  0  0  0  0  0  0  0  0  0
 27 28  1  0  0  0
 28 29  2  0  0  0
 28 26  1  0  0  0
 26 18  1  0  0  0
 18 19  1  0  0  0
 19 20  1  0  0  0
 20 21  1  0  0  0
 21 22  1  0  0  0
 22 23  1  0  0  0
 21 24  1  0  0  0
 24 25  2  0  0  0
 24 17  1  0  0  0
 17  1  1  0  0  0
  1  2  1  0  0  0
  2  3  2  0  0  0
  2  5  1  0  0  0
  5  6  1  0  0  0
  6  7  1  0  0  0
  7  8  1  0  0  0
  8  9  2  0  0  0
  8 10  1  0  0  0
  7 11  1  0  0  0
 11 12  2  0  0  0
 12 13  1  0  0  0
 13 14  2  0  0  0
 14 15  1  0  0  0
 15 16  2  0  0  0
 23 18  1  0  0  0
 10  5  1  0  0  0
 16 11  1  0  0  0
  1  4  1  0  0  0
M  END
> <minimizedAffinity>
-8.58160

> <CNNscore>
0.5031741858

> <CNNaffinity>
6.4227852821

> <CNN_VS>
3.2317798138

> <CNNaffinity_variance>
0.0589869246

$$$$
[H]c1c([H])c([H])c(N2C(=O)C([H])([H])C([H])(C(=O)N([H])C([H])([H])C(=O)N3C([H])([H])C([H])([H])C([H])(OC(=O)C([H])([H])[H])C([H])([H])C3([H])[H])C2([H])[H])c([H])c1[H]


 29 31  0  0  0  0  0  0  0  0999 V2000
  -11.2052   -5.2679    4.6182 N   0  0  0  0  0  0  0  0  0  0  0  0
  -11.8381   -4.3057    3.7944 C   0  0  0  0  0  0  0  0  0  0  0  0
  -11.1201   -3.4326    3.2464 O   0  0  0  0  0  0  0  0  0  0  0  0
  -11.8552   -5.9852    5.0622 H   0  0  0  0  0  0  0  0  0  0  0  0
  -13.2930   -4.2811    3.5513 C   0  0  0  0  0  0  0  0  0  0  0  0
  -13.8611   -5.6135    3.2013 C   0  0  0  0  0  0  0  0  0  0  0  0
  -14.7042   -6.0030    4.3233 N   0  0  0  0  0  0  0  0  0  0  0  0
  -14.4645   -5.1076    5.4040 C   0  0  0  0  0  0  0  0  0  0  0  0
  -14.6054   -5.3932    6.6124 O   0  0  0  0  0  0  0  0  0  0  0  0
  -14.0342   -3.8366    4.7656 C   0  0  0  0  0  0  0  0  0  0  0  0
  -15.6086   -7.1083    4.2961 C   0  0  0  0  0  0  0  0  0  0  0  0
  -15.1911   -8.3330    3.7890 C   0  0  0  0  0  0  0  0  0  0  0  0
  -16.0252   -9.4338    3.7372 C   0  0  0  0  0  0  0  0  0  0  0  0
  -17.3227   -9.3451    4.1971 C   0  0  0  0  0  0  0  0  0  0  0  0
  -17.7493   -8.1360    4.7027 C   0  0  0  0  0  0  0  0  0  0  0  0
  -16.9072   -7.0361    4.7516 C   0  0  0  0  0  0  0  0  0  0  0  0
   -9.7992   -5.3243    4.8731 C   0  0  0  0  0  0  0  0  0  0  0  0
  -11.3944   -9.2260    7.2499 C   0  0  0  0  0  0  0  0  0  0  0  0
  -10.0380   -8.8733    7.8000 C   0  0  0  0  0  0  0  0  0  0  0  0
  -10.0061   -7.3762    8.1346 C   0  0  0  0  0  0  0  0  0  0  0  0
  -10.3697   -6.7177    6.8718 N   0  0  0  0  0  0  0  0  0  0  0  0
  -11.7525   -6.8946    6.4672 C   0  0  0  0  0  0  0  0  0  0  0  0
  -12.3438   -8.0423    7.2314 C   0  0  0  0  0  0  0  0  0  0  0  0
   -9.4165   -5.9769    6.1340 C   0  0  0  0  0  0  0  0  0  0  0  0
   -8.2571   -5.8911    6.5722 O   0  0  0  0  0  0  0  0  0  0  0  0
  -11.9637  -10.3426    7.8728 O   0  0  0  0  0  0  0  0  0  0  0  0
  -13.2948   -9.6167    9.8927 C   0  0  0  0  0  0  0  0  0  0  0  0
  -13.1340  -10.3417    8.6042 C   0  0  0  0  0  0  0  0  0  0  0  0
  -14.1017  -10.9858    8.1532 O   0  0  0  0  0  0  0  0  0  0  0  0
 27 28  1  0  0  0
 28 29  2  0  0  0
 28 26  1  0  0  0
 26 18  1  0  0  0
 18 19  1  0  0  0
 19 20  1  0  0  0
 20 21  1  0  0  0
 21 22  1  0  0  0
 22 23  1  0  0  0
 21 24  1  0  0  0
 24 25  2  0  0  0
 24 17  1  0  0  0
 17  1  1  0  0  0
  1  2  1  0  0  0
  2  3  2  0  0  0
  2  5  1  0  0  0
  5  6  1  0  0  0
  6  7  1  0  0  0
  7  8  1  0  0  0
  8  9  2  0  0  0
  8 10  1  0  0  0
  7 11  1  0  0  0
 11 12  2  0  0  0
 12 13  1  0  0  0
 13 14  2  0  0  0
 14 15  1  0  0  0
 15 16  2  0  0  0
 23 18  1  0  0  0
 10  5  1  0  0  0
 16 11  1  0  0  0
  1  4  1  0  0  0
M  END
> <minimizedAffinity>
18.51964

> <CNNscore>
0.4634058475

> <CNNaffinity>
6.1185688972

> <CNN_VS>
2.8353805542

> <CNNaffinity_variance>
0.3943670988

$$$$
[H]c1c([H])c([H])c(N2C(=O)C([H])([H])C([H])(C(=O)N([H])C([H])([H])C(=O)N3C([H])([H])C([H])([H])C([H])(OC(=O)C([H])([H])[H])C([H])([H])C3([H])[H])C2([H])[H])c([H])c1[H]


 29 31  0  0  0  0  0  0  0  0999 V2000
   -9.9550   -8.6913    7.4350 N   0  0  0  0  0  0  0  0  0  0  0  0
   -8.9769   -7.6748    7.3123 C   0  0  0  0  0  0  0  0  0  0  0  0
   -8.2101   -7.7089    6.3178 O   0  0  0  0  0  0  0  0  0  0  0  0
  -10.5791   -8.6211    8.2950 H   0  0  0  0  0  0  0  0  0  0  0  0
   -8.8174   -6.5838    8.2925 C   0  0  0  0  0  0  0  0  0  0  0  0
   -9.8972   -5.5591    8.2243 C   0  0  0  0  0  0  0  0  0  0  0  0
  -10.6603   -5.6904    9.4579 N   0  0  0  0  0  0  0  0  0  0  0  0
  -10.2534   -6.8840   10.1190 C   0  0  0  0  0  0  0  0  0  0  0  0
  -10.9747   -7.5563   10.8868 O   0  0  0  0  0  0  0  0  0  0  0  0
   -8.8484   -7.1054    9.6883 C   0  0  0  0  0  0  0  0  0  0  0  0
  -11.6435   -4.7497    9.8923 C   0  0  0  0  0  0  0  0  0  0  0  0
  -11.4174   -3.3878    9.7332 C   0  0  0  0  0  0  0  0  0  0  0  0
  -12.3334   -2.4350   10.1373 C   0  0  0  0  0  0  0  0  0  0  0  0
  -13.5225   -2.8180   10.7222 C   0  0  0  0  0  0  0  0  0  0  0  0
  -13.7592   -4.1658   10.8857 C   0  0  0  0  0  0  0  0  0  0  0  0
  -12.8359   -5.1159   10.4780 C   0  0  0  0  0  0  0  0  0  0  0  0
  -10.1404   -9.7606    6.5036 C   0  0  0  0  0  0  0  0  0  0  0  0
  -14.0460   -6.9171    6.2219 C   0  0  0  0  0  0  0  0  0  0  0  0
  -14.2953   -8.1297    5.3650 C   0  0  0  0  0  0  0  0  0  0  0  0
  -13.9674   -9.3917    6.1738 C   0  0  0  0  0  0  0  0  0  0  0  0
  -12.5755   -9.1926    6.6022 N   0  0  0  0  0  0  0  0  0  0  0  0
  -12.3859   -8.1533    7.5976 C   0  0  0  0  0  0  0  0  0  0  0  0
  -13.6026   -7.2760    7.6282 C   0  0  0  0  0  0  0  0  0  0  0  0
  -11.5267   -9.9736    6.0620 C   0  0  0  0  0  0  0  0  0  0  0  0
  -11.8014  -10.8370    5.2120 O   0  0  0  0  0  0  0  0  0  0  0  0
  -15.1201   -6.0200    6.2257 O   0  0  0  0  0  0  0  0  0  0  0  0
  -14.5648   -4.5263    4.2663 C   0  0  0  0  0  0  0  0  0  0  0  0
  -15.5168   -5.2411    5.1578 C   0  0  0  0  0  0  0  0  0  0  0  0
  -16.7395   -5.1368    4.9369 O   0  0  0  0  0  0  0  0  0  0  0  0
 27 28  1  0  0  0
 28 29  2  0  0  0
 28 26  1  0  0  0
 26 18  1  0  0  0
 18 19  1  0  0  0
 19 20  1  0  0  0
 20 21  1  0  0  0
 21 22  1  0  0  0
 22 23  1  0  0  0
 21 24  1  0  0  0
 24 25  2  0  0  0
 24 17  1  0  0  0
 17  1  1  0  0  0
  1  2  1  0  0  0
  2  3  2  0  0  0
  2  5  1  0  0  0
  5  6  1  0  0  0
  6  7  1  0  0  0
  7  8  1  0  0  0
  8  9  2  0  0  0
  8 10  1  0  0  0
  7 11  1  0  0  0
 11 12  2  0  0  0
 12 13  1  0  0  0
 13 14  2  0  0  0
 14 15  1  0  0  0
 15 16  2  0  0  0
 23 18  1  0  0  0
 10  5  1  0  0  0
 16 11  1  0  0  0
  1  4  1  0  0  0
M  END
> <minimizedAffinity>
11.36587

> <CNNscore>
0.4511870146

> <CNNaffinity>
6.1289930344

> <CNN_VS>
2.7653219700

> <CNNaffinity_variance>
0.3598085344

$$$$
[H]c1c([H])c([H])c(N2C(=O)C([H])([H])C([H])(C(=O)N([H])C([H])([H])C(=O)N3C([H])([H])C([H])([H])C([H])(OC(=O)C([H])([H])[H])C([H])([H])C3([H])[H])C2([H])[H])c([H])c1[H]


 29 31  0  0  0  0  0  0  0  0999 V2000
  -14.8884   -8.1584    5.3967 N   0  0  0  0  0  0  0  0  0  0  0  0
  -15.4868   -7.8617    4.1482 C   0  0  0  0  0  0  0  0  0  0  0  0
  -14.9749   -6.9527    3.4483 O   0  0  0  0  0  0  0  0  0  0  0  0
  -15.3591   -8.9341    5.9543 H   0  0  0  0  0  0  0  0  0  0  0  0
  -16.6768   -8.5662    3.6342 C   0  0  0  0  0  0  0  0  0  0  0  0
  -17.3067   -9.4770    4.6313 C   0  0  0  0  0  0  0  0  0  0  0  0
  -18.5950   -8.8850    4.9653 N   0  0  0  0  0  0  0  0  0  0  0  0
  -18.6446   -7.5694    4.4233 C   0  0  0  0  0  0  0  0  0  0  0  0
  -19.3225   -6.6296    4.8912 O   0  0  0  0  0  0  0  0  0  0  0  0
  -17.7446   -7.6033    3.2413 C   0  0  0  0  0  0  0  0  0  0  0  0
  -19.6108   -9.5542    5.7142 C   0  0  0  0  0  0  0  0  0  0  0  0
  -19.5000   -9.6552    7.0958 C   0  0  0  0  0  0  0  0  0  0  0  0
  -20.4521  -10.2932    7.8681 C   0  0  0  0  0  0  0  0  0  0  0  0
  -21.5620  -10.8593    7.2762 C   0  0  0  0  0  0  0  0  0  0  0  0
  -21.6840  -10.7660    5.9066 C   0  0  0  0  0  0  0  0  0  0  0  0
  -20.7251  -10.1246    5.1382 C   0  0  0  0  0  0  0  0  0  0  0  0
  -13.7341   -7.4995    5.9243 C   0  0  0  0  0  0  0  0  0  0  0  0
  -11.3411   -6.2701    9.9468 C   0  0  0  0  0  0  0  0  0  0  0  0
  -12.3617   -5.1980    9.6713 C   0  0  0  0  0  0  0  0  0  0  0  0
  -13.7240   -5.8561    9.4158 C   0  0  0  0  0  0  0  0  0  0  0  0
  -13.4703   -6.7902    8.3096 N   0  0  0  0  0  0  0  0  0  0  0  0
  -12.6540   -7.9394    8.6561 C   0  0  0  0  0  0  0  0  0  0  0  0
  -11.9422   -7.6634    9.9476 C   0  0  0  0  0  0  0  0  0  0  0  0
  -13.9979   -6.5531    7.0183 C   0  0  0  0  0  0  0  0  0  0  0  0
  -14.6839   -5.5344    6.8311 O   0  0  0  0  0  0  0  0  0  0  0  0
  -10.5886   -6.0250   11.1011 O   0  0  0  0  0  0  0  0  0  0  0  0
  -12.4557   -5.0731   12.5104 C   0  0  0  0  0  0  0  0  0  0  0  0
  -11.1019   -5.6613   12.3294 C   0  0  0  0  0  0  0  0  0  0  0  0
  -10.3853   -5.8387   13.3343 O   0  0  0  0  0  0  0  0  0  0  0  0
 27 28  1  0  0  0
 28 29  2  0  0  0
 28 26  1  0  0  0
 26 18  1  0  0  0
 18 19  1  0  0  0
 19 20  1  0  0  0
 20 21  1  0  0  0
 21 22  1  0  0  0
 22 23  1  0  0  0
 21 24  1  0  0  0
 24 25  2  0  0  0
 24 17  1  0  0  0
 17  1  1  0  0  0
  1  2  1  0  0  0
  2  3  2  0  0  0
  2  5  1  0  0  0
  5  6  1  0  0  0
  6  7  1  0  0  0
  7  8  1  0  0  0
  8  9  2  0  0  0
  8 10  1  0  0  0
  7 11  1  0  0  0
 11 12  2  0  0  0
 12 13  1  0  0  0
 13 14  2  0  0  0
 14 15  1  0  0  0
 15 16  2  0  0  0
 23 18  1  0  0  0
 10  5  1  0  0  0
 16 11  1  0  0  0
  1  4  1  0  0  0
M  END
> <minimizedAffinity>
4.54796

> <CNNscore>
0.4505179524

> <CNNaffinity>
6.2503862381

> <CNN_VS>
2.8159112930

> <CNNaffinity_variance>
0.4269525111

$$$$
[H]c1c([H])c([H])c(N2C(=O)C([H])([H])C([H])(C(=O)N([H])C([H])([H])C(=O)N3C([H])([H])C([H])([H])C([H])(OC(=O)C([H])([H])[H])C([H])([H])C3([H])[H])C2([H])[H])c([H])c1[H]


 29 31  0  0  0  0  0  0  0  0999 V2000
  -14.2583   -6.5246    5.3929 N   0  0  0  0  0  0  0  0  0  0  0  0
  -14.7518   -5.9301    4.2062 C   0  0  0  0  0  0  0  0  0  0  0  0
  -14.0462   -5.0547    3.6458 O   0  0  0  0  0  0  0  0  0  0  0  0
  -14.8926   -7.2587    5.8320 H   0  0  0  0  0  0  0  0  0  0  0  0
  -16.0485   -6.2889    3.6009 C   0  0  0  0  0  0  0  0  0  0  0  0
  -16.6276   -7.5522    4.1385 C   0  0  0  0  0  0  0  0  0  0  0  0
  -17.8136   -7.1674    4.8913 N   0  0  0  0  0  0  0  0  0  0  0  0
  -17.8192   -5.7512    5.0375 C   0  0  0  0  0  0  0  0  0  0  0  0
  -18.3568   -5.1330    5.9812 O   0  0  0  0  0  0  0  0  0  0  0  0
  -17.0727   -5.2374    3.8597 C   0  0  0  0  0  0  0  0  0  0  0  0
  -18.7843   -8.0944    5.3803 C   0  0  0  0  0  0  0  0  0  0  0  0
  -18.4548   -8.9611    6.4154 C   0  0  0  0  0  0  0  0  0  0  0  0
  -19.3543   -9.8784    6.9249 C   0  0  0  0  0  0  0  0  0  0  0  0
  -20.6308   -9.9608    6.4087 C   0  0  0  0  0  0  0  0  0  0  0  0
  -20.9703   -9.1067    5.3817 C   0  0  0  0  0  0  0  0  0  0  0  0
  -20.0631   -8.1890    4.8757 C   0  0  0  0  0  0  0  0  0  0  0  0
  -13.0062   -6.2045    6.0051 C   0  0  0  0  0  0  0  0  0  0  0  0
  -14.5655   -7.8398   10.2843 C   0  0  0  0  0  0  0  0  0  0  0  0
  -13.5610   -8.8267    9.7515 C   0  0  0  0  0  0  0  0  0  0  0  0
  -12.3015   -8.0707    9.3083 C   0  0  0  0  0  0  0  0  0  0  0  0
  -12.7972   -7.0835    8.3386 N   0  0  0  0  0  0  0  0  0  0  0  0
  -13.5918   -6.0119    8.9106 C   0  0  0  0  0  0  0  0  0  0  0  0
  -14.0428   -6.4151   10.2836 C   0  0  0  0  0  0  0  0  0  0  0  0
  -12.5022   -7.2026    6.9600 C   0  0  0  0  0  0  0  0  0  0  0  0
  -11.8129   -8.1627    6.5773 O   0  0  0  0  0  0  0  0  0  0  0  0
  -15.0828   -8.2058   11.5322 O   0  0  0  0  0  0  0  0  0  0  0  0
  -15.0687   -9.7493   13.5312 C   0  0  0  0  0  0  0  0  0  0  0  0
  -14.3997   -8.9002   12.5098 C   0  0  0  0  0  0  0  0  0  0  0  0
  -13.1567   -8.8042   12.5299 O   0  0  0  0  0  0  0  0  0  0  0  0
 27 28  1  0  0  0
 28 29  2  0  0  0
 28 26  1  0  0  0
 26 18  1  0  0  0
 18 19  1  0  0  0
 19 20  1  0  0  0
 20 21  1  0  0  0
 21 22  1  0  0  0
 22 23  1  0  0  0
 21 24  1  0  0  0
 24 25  2  0  0  0
 24 17  1  0  0  0
 17  1  1  0  0  0
  1  2  1  0  0  0
  2  3  2  0  0  0
  2  5  1  0  0  0
  5  6  1  0  0  0
  6  7  1  0  0  0
  7  8  1  0  0  0
  8  9  2  0  0  0
  8 10  1  0  0  0
  7 11  1  0  0  0
 11 12  2  0  0  0
 12 13  1  0  0  0
 13 14  2  0  0  0
 14 15  1  0  0  0
 15 16  2  0  0  0
 23 18  1  0  0  0
 10  5  1  0  0  0
 16 11  1  0  0  0
  1  4  1  0  0  0
M  END
> <minimizedAffinity>
13.81909

> <CNNscore>
0.4492931068

> <CNNaffinity>
6.3577537537

> <CNN_VS>
2.8564949036

> <CNNaffinity_variance>
1.1555725336

$$$$
[H]c1c([H])c([H])c(N2C(=O)C([H])([H])C([H])(C(=O)N([H])C([H])([H])C(=O)N3C([H])([H])C([H])([H])C([H])(OC(=O)C([H])([H])[H])C([H])([H])C3([H])[H])C2([H])[H])c([H])c1[H]


 29 31  0  0  0  0  0  0  0  0999 V2000
  -13.4642   -7.2184    9.6272 N   0  0  0  0  0  0  0  0  0  0  0  0
  -14.2304   -7.0149    8.4539 C   0  0  0  0  0  0  0  0  0  0  0  0
  -14.7597   -5.8888    8.2812 O   0  0  0  0  0  0  0  0  0  0  0  0
  -13.0380   -8.1888    9.7300 H   0  0  0  0  0  0  0  0  0  0  0  0
  -14.4348   -8.0581    7.4308 C   0  0  0  0  0  0  0  0  0  0  0  0
  -15.7670   -7.9881    6.7668 C   0  0  0  0  0  0  0  0  0  0  0  0
  -15.5134   -7.5913    5.3885 N   0  0  0  0  0  0  0  0  0  0  0  0
  -14.1542   -7.1825    5.2761 C   0  0  0  0  0  0  0  0  0  0  0  0
  -13.7235   -6.3573    4.4423 O   0  0  0  0  0  0  0  0  0  0  0  0
  -13.4338   -7.9390    6.3331 C   0  0  0  0  0  0  0  0  0  0  0  0
  -16.4979   -7.6255    4.3540 C   0  0  0  0  0  0  0  0  0  0  0  0
  -17.7302   -7.0137    4.5497 C   0  0  0  0  0  0  0  0  0  0  0  0
  -18.7187   -7.0186    3.5838 C   0  0  0  0  0  0  0  0  0  0  0  0
  -18.5046   -7.6443    2.3732 C   0  0  0  0  0  0  0  0  0  0  0  0
  -17.2865   -8.2549    2.1664 C   0  0  0  0  0  0  0  0  0  0  0  0
  -16.2996   -8.2460    3.1396 C   0  0  0  0  0  0  0  0  0  0  0  0
  -13.2421   -6.2304   10.6370 C   0  0  0  0  0  0  0  0  0  0  0  0
   -9.0937   -6.7670    8.2039 C   0  0  0  0  0  0  0  0  0  0  0  0
   -8.8326   -5.8418    9.3626 C   0  0  0  0  0  0  0  0  0  0  0  0
   -9.3909   -6.4734   10.6446 C   0  0  0  0  0  0  0  0  0  0  0  0
  -10.8067   -6.7207   10.3365 N   0  0  0  0  0  0  0  0  0  0  0  0
  -11.0454   -7.7743    9.3670 C   0  0  0  0  0  0  0  0  0  0  0  0
   -9.7713   -8.0573    8.6270 C   0  0  0  0  0  0  0  0  0  0  0  0
  -11.8312   -5.9679   10.9574 C   0  0  0  0  0  0  0  0  0  0  0  0
  -11.5141   -5.0862   11.7732 O   0  0  0  0  0  0  0  0  0  0  0  0
   -7.9542   -7.0057    7.4271 O   0  0  0  0  0  0  0  0  0  0  0  0
   -8.5046   -8.8756    5.8211 C   0  0  0  0  0  0  0  0  0  0  0  0
   -7.9502   -7.5361    6.1531 C   0  0  0  0  0  0  0  0  0  0  0  0
   -7.4531   -6.8490    5.2390 O   0  0  0  0  0  0  0  0  0  0  0  0
 27 28  1  0  0  0
 28 29  2  0  0  0
 28 26  1  0  0  0
 26 18  1  0  0  0
 18 19  1  0  0  0
 19 20  1  0  0  0
 20 21  1  0  0  0
 21 22  1  0  0  0
 22 23  1  0  0  0
 21 24  1  0  0  0
 24 25  2  0  0  0
 24 17  1  0  0  0
 17  1  1  0  0  0
  1  2  1  0  0  0
  2  3  2  0  0  0
  2  5  1  0  0  0
  5  6  1  0  0  0
  6  7  1  0  0  0
  7  8  1  0  0  0
  8  9  2  0  0  0
  8 10  1  0  0  0
  7 11  1  0  0  0
 11 12  2  0  0  0
 12 13  1  0  0  0
 13 14  2  0  0  0
 14 15  1  0  0  0
 15 16  2  0  0  0
 23 18  1  0  0  0
 10  5  1  0  0  0
 16 11  1  0  0  0
  1  4  1  0  0  0
M  END
> <minimizedAffinity>
7.89803

> <CNNscore>
0.4343087077

> <CNNaffinity>
6.6241593361

> <CNN_VS>
2.8769299984

> <CNNaffinity_variance>
1.6246030331

$$$$
[H]OC(=O)[C@@]1([H])N(C(=O)[C@@]([H])(N2C([H])([H])C([H])([H])C([H])([H])C2([H])[H])C([H])([H])c2c([H])c([H])c(O[H])c([H])c2[H])C([H])([H])C([H])([H])C1([H])[H]


 26 28  0  0  0  0  0  0  0  0999 V2000
   -4.1118   -5.0862    9.1132 C   0  0  0  0  0  0  0  0  0  0  0  0
   -6.3082   -6.9327    7.6118 C   0  0  0  0  0  0  0  0  0  0  0  0
   -7.5651   -6.8819    6.7268 C   0  0  0  0  0  0  0  0  0  0  0  0
   -6.9281   -6.7027    5.3682 C   0  0  0  0  0  0  0  0  0  0  0  0
   -5.7498   -5.8504    5.6182 C   0  0  0  0  0  0  0  0  0  0  0  0
   -5.4424   -5.9421    7.0583 N   0  0  0  0  0  0  0  0  0  0  0  0
   -4.4677   -5.1524    7.6882 C   0  0  0  0  0  0  0  0  0  0  0  0
   -3.8064   -4.3875    6.8527 O   0  0  0  0  0  0  0  0  0  0  0  0
   -6.5769   -9.4114    7.4684 O   0  0  0  0  0  0  0  0  0  0  0  0
   -5.7415   -8.3144    7.3970 C   0  0  0  0  0  0  0  0  0  0  0  0
   -4.5357   -8.4356    7.1604 O   0  0  0  0  0  0  0  0  0  0  0  0
   -6.2746  -10.2673    7.0275 H   0  0  0  0  0  0  0  0  0  0  0  0
   -4.7582   -6.0809    9.8772 N   0  0  0  0  0  0  0  0  0  0  0  0
   -6.1150   -5.7135   10.2645 C   0  0  0  0  0  0  0  0  0  0  0  0
   -6.1042   -5.7113   11.7994 C   0  0  0  0  0  0  0  0  0  0  0  0
   -5.1474   -6.8922   12.0208 C   0  0  0  0  0  0  0  0  0  0  0  0
   -4.0620   -6.5435   11.0254 C   0  0  0  0  0  0  0  0  0  0  0  0
   -2.6151   -5.0202    9.3234 C   0  0  0  0  0  0  0  0  0  0  0  0
   -2.2383   -3.9784   10.3063 C   0  0  0  0  0  0  0  0  0  0  0  0
   -2.6588   -2.6760   10.1966 C   0  0  0  0  0  0  0  0  0  0  0  0
   -2.2893   -1.7087   11.1401 C   0  0  0  0  0  0  0  0  0  0  0  0
   -1.4883   -2.0423   12.2107 C   0  0  0  0  0  0  0  0  0  0  0  0
   -1.0940   -1.1207   13.1735 O   0  0  0  0  0  0  0  0  0  0  0  0
   -1.0645   -3.3496   12.3236 C   0  0  0  0  0  0  0  0  0  0  0  0
   -1.4290   -4.3136   11.3887 C   0  0  0  0  0  0  0  0  0  0  0  0
   -1.3671   -0.1557   13.1500 H   0  0  0  0  0  0  0  0  0  0  0  0
  9 10  1  0  0  0
 10 11  2  0  0  0
 10  2  1  0  0  0
  2  3  1  0  0  0
  3  4  1  0  0  0
  4  5  1  0  0  0
  5  6  1  0  0  0
  6  7  1  0  0  0
  7  8  2  0  0  0
  7  1  1  0  0  0
  1 18  1  0  0  0
 18 19  1  0  0  0
 19 20  2  0  0  0
 20 21  1  0  0  0
 21 22  2  0  0  0
 22 23  1  0  0  0
 22 24  1  0  0  0
 24 25  2  0  0  0
  1 13  1  0  0  0
 13 14  1  0  0  0
 14 15  1  0  0  0
 15 16  1  0  0  0
 16 17  1  0  0  0
  6  2  1  0  0  0
 25 19  1  0  0  0
 17 13  1  0  0  0
  9 12  1  0  0  0
 23 26  1  0  0  0
M  END
> <minimizedAffinity>
2.93973

> <CNNscore>
0.4123890102

> <CNNaffinity>
4.2051033974

> <CNN_VS>
1.7341383696

> <CNNaffinity_variance>
0.5809221268

$$$$
[H]OC(=O)[C@@]1([H])N(C(=O)[C@@]([H])(N2C([H])([H])C([H])([H])C([H])([H])C2([H])[H])C([H])([H])c2c([H])c([H])c(O[H])c([H])c2[H])C([H])([H])C([H])([H])C1([H])[H]


 26 28  0  0  0  0  0  0  0  0999 V2000
   -6.7063   -7.6659    8.3560 C   0  0  0  0  0  0  0  0  0  0  0  0
   -4.0340   -5.8410    8.4827 C   0  0  0  0  0  0  0  0  0  0  0  0
   -2.8753   -5.2895    7.6348 C   0  0  0  0  0  0  0  0  0  0  0  0
   -3.5490   -4.0898    7.0099 C   0  0  0  0  0  0  0  0  0  0  0  0
   -4.9420   -4.5204    6.7828 C   0  0  0  0  0  0  0  0  0  0  0  0
   -5.1867   -5.6847    7.6555 N   0  0  0  0  0  0  0  0  0  0  0  0
   -6.3630   -6.4490    7.6059 C   0  0  0  0  0  0  0  0  0  0  0  0
   -7.2503   -5.9738    6.7648 O   0  0  0  0  0  0  0  0  0  0  0  0
   -5.2283   -4.9446   10.4844 O   0  0  0  0  0  0  0  0  0  0  0  0
   -4.1081   -4.9227    9.6774 C   0  0  0  0  0  0  0  0  0  0  0  0
   -3.1599   -4.1667    9.9097 O   0  0  0  0  0  0  0  0  0  0  0  0
   -5.1448   -4.5797   11.4215 H   0  0  0  0  0  0  0  0  0  0  0  0
   -8.0482   -7.6702    8.7921 N   0  0  0  0  0  0  0  0  0  0  0  0
   -8.8617   -8.6834    8.1306 C   0  0  0  0  0  0  0  0  0  0  0  0
   -9.9658   -7.8987    7.4088 C   0  0  0  0  0  0  0  0  0  0  0  0
  -10.1717   -6.7880    8.4496 C   0  0  0  0  0  0  0  0  0  0  0  0
   -8.7308   -6.4259    8.7386 C   0  0  0  0  0  0  0  0  0  0  0  0
   -6.2902   -8.9224    7.6233 C   0  0  0  0  0  0  0  0  0  0  0  0
   -4.9241   -8.8108    7.0623 C   0  0  0  0  0  0  0  0  0  0  0  0
   -3.8100   -8.6887    7.8554 C   0  0  0  0  0  0  0  0  0  0  0  0
   -2.5280   -8.5854    7.3007 C   0  0  0  0  0  0  0  0  0  0  0  0
   -2.3507   -8.6039    5.9342 C   0  0  0  0  0  0  0  0  0  0  0  0
   -1.1008   -8.5049    5.3344 O   0  0  0  0  0  0  0  0  0  0  0  0
   -3.4678   -8.7265    5.1350 C   0  0  0  0  0  0  0  0  0  0  0  0
   -4.7432   -8.8293    5.6818 C   0  0  0  0  0  0  0  0  0  0  0  0
   -0.2498   -8.4136    5.8575 H   0  0  0  0  0  0  0  0  0  0  0  0
  9 10  1  0  0  0
 10 11  2  0  0  0
 10  2  1  0  0  0
  2  3  1  0  0  0
  3  4  1  0  0  0
  4  5  1  0  0  0
  5  6  1  0  0  0
  6  7  1  0  0  0
  7  8  2  0  0  0
  7  1  1  0  0  0
  1 18  1  0  0  0
 18 19  1  0  0  0
 19 20  2  0  0  0
 20 21  1  0  0  0
 21 22  2  0  0  0
 22 23  1  0  0  0
 22 24  1  0  0  0
 24 25  2  0  0  0
  1 13  1  0  0  0
 13 14  1  0  0  0
 14 15  1  0  0  0
 15 16  1  0  0  0
 16 17  1  0  0  0
  6  2  1  0  0  0
 25 19  1  0  0  0
 17 13  1  0  0  0
  9 12  1  0  0  0
 23 26  1  0  0  0
M  END
> <minimizedAffinity>
1.12775

> <CNNscore>
0.3046759963

> <CNNaffinity>
4.7102069855

> <CNN_VS>
1.4350869656

> <CNNaffinity_variance>
1.1099072695

$$$$
[H]OC(=O)[C@@]1([H])N(C(=O)[C@@]([H])(N2C([H])([H])C([H])([H])C([H])([H])C2([H])[H])C([H])([H])c2c([H])c([H])c(O[H])c([H])c2[H])C([H])([H])C([H])([H])C1([H])[H]


 26 28  0  0  0  0  0  0  0  0999 V2000
   -5.0005   -5.9123    9.5636 C   0  0  0  0  0  0  0  0  0  0  0  0
   -7.1980   -8.0136    8.4487 C   0  0  0  0  0  0  0  0  0  0  0  0
   -7.5294   -9.5117    8.3418 C   0  0  0  0  0  0  0  0  0  0  0  0
   -8.1354   -9.7492    9.7057 C   0  0  0  0  0  0  0  0  0  0  0  0
   -7.3651   -8.8769   10.6130 C   0  0  0  0  0  0  0  0  0  0  0  0
   -6.7095   -7.8508    9.7799 N   0  0  0  0  0  0  0  0  0  0  0  0
   -5.7786   -6.9297   10.2854 C   0  0  0  0  0  0  0  0  0  0  0  0
   -5.6151   -7.0232   11.5834 O   0  0  0  0  0  0  0  0  0  0  0  0
   -8.9270   -6.3835    9.2168 O   0  0  0  0  0  0  0  0  0  0  0  0
   -8.5233   -7.3129    8.2789 C   0  0  0  0  0  0  0  0  0  0  0  0
   -9.2229   -7.5869    7.2990 O   0  0  0  0  0  0  0  0  0  0  0  0
   -9.6305   -5.7123    8.9470 H   0  0  0  0  0  0  0  0  0  0  0  0
   -4.2863   -5.0617   10.4339 N   0  0  0  0  0  0  0  0  0  0  0  0
   -2.8666   -5.3847   10.5123 C   0  0  0  0  0  0  0  0  0  0  0  0
   -2.6185   -5.7333   11.9863 C   0  0  0  0  0  0  0  0  0  0  0  0
   -3.5833   -4.7225   12.6237 C   0  0  0  0  0  0  0  0  0  0  0  0
   -4.8018   -4.9333   11.7510 C   0  0  0  0  0  0  0  0  0  0  0  0
   -4.1593   -6.5159    8.4606 C   0  0  0  0  0  0  0  0  0  0  0  0
   -4.8556   -6.4891    7.1538 C   0  0  0  0  0  0  0  0  0  0  0  0
   -4.2653   -6.9311    5.9956 C   0  0  0  0  0  0  0  0  0  0  0  0
   -4.9452   -6.8961    4.7715 C   0  0  0  0  0  0  0  0  0  0  0  0
   -6.2339   -6.4134    4.6978 C   0  0  0  0  0  0  0  0  0  0  0  0
   -6.9514   -6.3575    3.5087 O   0  0  0  0  0  0  0  0  0  0  0  0
   -6.8294   -5.9687    5.8593 C   0  0  0  0  0  0  0  0  0  0  0  0
   -6.1577   -6.0016    7.0774 C   0  0  0  0  0  0  0  0  0  0  0  0
   -6.5771   -6.6645    2.6301 H   0  0  0  0  0  0  0  0  0  0  0  0
  9 10  1  0  0  0
 10 11  2  0  0  0
 10  2  1  0  0  0
  2  3  1  0  0  0
  3  4  1  0  0  0
  4  5  1  0  0  0
  5  6  1  0  0  0
  6  7  1  0  0  0
  7  8  2  0  0  0
  7  1  1  0  0  0
  1 18  1  0  0  0
 18 19  1  0  0  0
 19 20  2  0  0  0
 20 21  1  0  0  0
 21 22  2  0  0  0
 22 23  1  0  0  0
 22 24  1  0  0  0
 24 25  2  0  0  0
  1 13  1  0  0  0
 13 14  1  0  0  0
 14 15  1  0  0  0
 15 16  1  0  0  0
 16 17  1  0  0  0
  6  2  1  0  0  0
 25 19  1  0  0  0
 17 13  1  0  0  0
  9 12  1  0  0  0
 23 26  1  0  0  0
M  END
> <minimizedAffinity>
11.22421

> <CNNscore>
0.2922367752

> <CNNaffinity>
4.4009871483

> <CNN_VS>
1.2861303091

> <CNNaffinity_variance>
0.4353562891

$$$$
[H]OC(=O)[C@@]1([H])N(C(=O)[C@@]([H])(N2C([H])([H])C([H])([H])C([H])([H])C2([H])[H])C([H])([H])c2c([H])c([H])c(O[H])c([H])c2[H])C([H])([H])C([H])([H])C1([H])[H]


 26 28  0  0  0  0  0  0  0  0999 V2000
   -6.2790   -7.7665    8.4981 C   0  0  0  0  0  0  0  0  0  0  0  0
   -3.8662   -6.0104    9.7558 C   0  0  0  0  0  0  0  0  0  0  0  0
   -2.5901   -5.2309    9.3959 C   0  0  0  0  0  0  0  0  0  0  0  0
   -3.1941   -3.9148    8.9635 C   0  0  0  0  0  0  0  0  0  0  0  0
   -4.4563   -4.2854    8.2949 C   0  0  0  0  0  0  0  0  0  0  0  0
   -4.8029   -5.6482    8.7416 N   0  0  0  0  0  0  0  0  0  0  0  0
   -5.8696   -6.3855    8.2039 C   0  0  0  0  0  0  0  0  0  0  0  0
   -6.5717   -5.7093    7.3262 O   0  0  0  0  0  0  0  0  0  0  0  0
   -5.5044   -5.8360   11.6325 O   0  0  0  0  0  0  0  0  0  0  0  0
   -4.2907   -5.4578   11.0939 C   0  0  0  0  0  0  0  0  0  0  0  0
   -3.5393   -4.6744   11.6825 O   0  0  0  0  0  0  0  0  0  0  0  0
   -5.6377   -5.7241   12.6265 H   0  0  0  0  0  0  0  0  0  0  0  0
   -7.6716   -7.8867    8.6914 N   0  0  0  0  0  0  0  0  0  0  0  0
   -8.1783   -9.2200    8.3889 C   0  0  0  0  0  0  0  0  0  0  0  0
   -9.1895   -9.0133    7.2528 C   0  0  0  0  0  0  0  0  0  0  0  0
   -9.7643   -7.6624    7.7042 C   0  0  0  0  0  0  0  0  0  0  0  0
   -8.4833   -6.9260    8.0318 C   0  0  0  0  0  0  0  0  0  0  0  0
   -5.7050   -8.7538    7.5058 C   0  0  0  0  0  0  0  0  0  0  0  0
   -4.5077   -8.2173    6.8188 C   0  0  0  0  0  0  0  0  0  0  0  0
   -3.2303   -8.5397    7.2057 C   0  0  0  0  0  0  0  0  0  0  0  0
   -2.1135   -8.0196    6.5391 C   0  0  0  0  0  0  0  0  0  0  0  0
   -2.2695   -7.1645    5.4697 C   0  0  0  0  0  0  0  0  0  0  0  0
   -1.1948   -6.6218    4.7752 O   0  0  0  0  0  0  0  0  0  0  0  0
   -3.5511   -6.8388    5.0789 C   0  0  0  0  0  0  0  0  0  0  0  0
   -4.6634   -7.3530    5.7382 C   0  0  0  0  0  0  0  0  0  0  0  0
   -0.2390   -6.8178    5.0080 H   0  0  0  0  0  0  0  0  0  0  0  0
  9 10  1  0  0  0
 10 11  2  0  0  0
 10  2  1  0  0  0
  2  3  1  0  0  0
  3  4  1  0  0  0
  4  5  1  0  0  0
  5  6  1  0  0  0
  6  7  1  0  0  0
  7  8  2  0  0  0
  7  1  1  0  0  0
  1 18  1  0  0  0
 18 19  1  0  0  0
 19 20  2  0  0  0
 20 21  1  0  0  0
 21 22  2  0  0  0
 22 23  1  0  0  0
 22 24  1  0  0  0
 24 25  2  0  0  0
  1 13  1  0  0  0
 13 14  1  0  0  0
 14 15  1  0  0  0
 15 16  1  0  0  0
 16 17  1  0  0  0
  6  2  1  0  0  0
 25 19  1  0  0  0
 17 13  1  0  0  0
  9 12  1  0  0  0
 23 26  1  0  0  0
M  END
> <minimizedAffinity>
-1.37015

> <CNNscore>
0.2553136647

> <CNNaffinity>
4.6054635048

> <CNN_VS>
1.1758377552

> <CNNaffinity_variance>
0.6736088991

$$$$
[H]OC(=O)[C@@]1([H])N(C(=O)[C@@]([H])(N2C([H])([H])C([H])([H])C([H])([H])C2([H])[H])C([H])([H])c2c([H])c([H])c(O[H])c([H])c2[H])C([H])([H])C([H])([H])C1([H])[H]


 26 28  0  0  0  0  0  0  0  0999 V2000
  -14.1651   -6.4674    8.2265 C   0  0  0  0  0  0  0  0  0  0  0  0
  -12.6926   -9.3431    8.0034 C   0  0  0  0  0  0  0  0  0  0  0  0
  -12.5902  -10.7309    8.6585 C   0  0  0  0  0  0  0  0  0  0  0  0
  -13.7930  -11.4067    8.0418 C   0  0  0  0  0  0  0  0  0  0  0  0
  -14.8049  -10.3385    7.9306 C   0  0  0  0  0  0  0  0  0  0  0  0
  -14.0896   -9.0503    8.0056 N   0  0  0  0  0  0  0  0  0  0  0  0
  -14.7440   -7.8103    8.0747 C   0  0  0  0  0  0  0  0  0  0  0  0
  -16.0486   -7.9114    7.9838 O   0  0  0  0  0  0  0  0  0  0  0  0
  -13.0513   -9.3381    5.5320 O   0  0  0  0  0  0  0  0  0  0  0  0
  -12.1935   -9.5447    6.5940 C   0  0  0  0  0  0  0  0  0  0  0  0
  -11.0216   -9.8922    6.4191 O   0  0  0  0  0  0  0  0  0  0  0  0
  -12.6480   -9.1681    4.6228 H   0  0  0  0  0  0  0  0  0  0  0  0
  -13.2177   -6.4034    9.2701 N   0  0  0  0  0  0  0  0  0  0  0  0
  -13.5250   -5.3777   10.2598 C   0  0  0  0  0  0  0  0  0  0  0  0
  -12.3254   -4.4206   10.2269 C   0  0  0  0  0  0  0  0  0  0  0  0
  -11.2172   -5.4549    9.9795 C   0  0  0  0  0  0  0  0  0  0  0  0
  -11.8589   -6.2718    8.8787 C   0  0  0  0  0  0  0  0  0  0  0  0
  -13.6736   -5.9076    6.9098 C   0  0  0  0  0  0  0  0  0  0  0  0
  -14.6738   -6.0705    5.8297 C   0  0  0  0  0  0  0  0  0  0  0  0
  -14.6998   -7.1718    5.0103 C   0  0  0  0  0  0  0  0  0  0  0  0
  -15.6567   -7.3031    3.9957 C   0  0  0  0  0  0  0  0  0  0  0  0
  -16.6036   -6.3227    3.7926 C   0  0  0  0  0  0  0  0  0  0  0  0
  -17.5737   -6.4052    2.8007 O   0  0  0  0  0  0  0  0  0  0  0  0
  -16.5800   -5.2154    4.6140 C   0  0  0  0  0  0  0  0  0  0  0  0
  -15.6312   -5.0808    5.6230 C   0  0  0  0  0  0  0  0  0  0  0  0
  -17.6459   -7.1825    2.1707 H   0  0  0  0  0  0  0  0  0  0  0  0
  9 10  1  0  0  0
 10 11  2  0  0  0
 10  2  1  0  0  0
  2  3  1  0  0  0
  3  4  1  0  0  0
  4  5  1  0  0  0
  5  6  1  0  0  0
  6  7  1  0  0  0
  7  8  2  0  0  0
  7  1  1  0  0  0
  1 18  1  0  0  0
 18 19  1  0  0  0
 19 20  2  0  0  0
 20 21  1  0  0  0
 21 22  2  0  0  0
 22 23  1  0  0  0
 22 24  1  0  0  0
 24 25  2  0  0  0
  1 13  1  0  0  0
 13 14  1  0  0  0
 14 15  1  0  0  0
 15 16  1  0  0  0
 16 17  1  0  0  0
  6  2  1  0  0  0
 25 19  1  0  0  0
 17 13  1  0  0  0
  9 12  1  0  0  0
 23 26  1  0  0  0
M  END
> <minimizedAffinity>
-0.27808

> <CNNscore>
0.2396701276

> <CNNaffinity>
5.7387151718

> <CNN_VS>
1.3753986359

> <CNNaffinity_variance>
0.0809833929

$$$$
[H]OC(=O)[C@@]1([H])N(C(=O)[C@@]([H])(N2C([H])([H])C([H])([H])C([H])([H])C2([H])[H])C([H])([H])c2c([H])c([H])c(O[H])c([H])c2[H])C([H])([H])C([H])([H])C1([H])[H]


 26 28  0  0  0  0  0  0  0  0999 V2000
  -12.1747   -7.2126    6.9254 C   0  0  0  0  0  0  0  0  0  0  0  0
  -14.7433   -7.7569    8.8212 C   0  0  0  0  0  0  0  0  0  0  0  0
  -16.1589   -8.3580    8.8381 C   0  0  0  0  0  0  0  0  0  0  0  0
  -15.8262   -9.8192    9.0330 C   0  0  0  0  0  0  0  0  0  0  0  0
  -14.5773  -10.0219    8.2736 C   0  0  0  0  0  0  0  0  0  0  0  0
  -13.9674   -8.6933    8.0740 N   0  0  0  0  0  0  0  0  0  0  0  0
  -12.8370   -8.4792    7.2697 C   0  0  0  0  0  0  0  0  0  0  0  0
  -12.3344   -9.5887    6.7829 O   0  0  0  0  0  0  0  0  0  0  0  0
  -12.9705   -7.8243   10.5788 O   0  0  0  0  0  0  0  0  0  0  0  0
  -14.3132   -7.7434   10.2672 C   0  0  0  0  0  0  0  0  0  0  0  0
  -15.1760   -7.6597   11.1465 O   0  0  0  0  0  0  0  0  0  0  0  0
  -12.6751   -7.5059   11.4897 H   0  0  0  0  0  0  0  0  0  0  0  0
  -10.7733   -7.2784    7.0763 N   0  0  0  0  0  0  0  0  0  0  0  0
  -10.2609   -8.6435    7.0740 C   0  0  0  0  0  0  0  0  0  0  0  0
   -9.5861   -8.8177    8.4415 C   0  0  0  0  0  0  0  0  0  0  0  0
   -9.0185   -7.3989    8.5964 C   0  0  0  0  0  0  0  0  0  0  0  0
  -10.2273   -6.5845    8.1887 C   0  0  0  0  0  0  0  0  0  0  0  0
  -12.6279   -6.6798    5.5840 C   0  0  0  0  0  0  0  0  0  0  0  0
  -14.0803   -6.8761    5.3710 C   0  0  0  0  0  0  0  0  0  0  0  0
  -15.0162   -5.9633    5.7910 C   0  0  0  0  0  0  0  0  0  0  0  0
  -16.3847   -6.1715    5.5771 C   0  0  0  0  0  0  0  0  0  0  0  0
  -16.8303   -7.3063    4.9347 C   0  0  0  0  0  0  0  0  0  0  0  0
  -18.1762   -7.5597    4.6981 O   0  0  0  0  0  0  0  0  0  0  0  0
  -15.8928   -8.2249    4.5118 C   0  0  0  0  0  0  0  0  0  0  0  0
  -14.5323   -8.0222    4.7223 C   0  0  0  0  0  0  0  0  0  0  0  0
  -18.9075   -6.9335    4.9796 H   0  0  0  0  0  0  0  0  0  0  0  0
  9 10  1  0  0  0
 10 11  2  0  0  0
 10  2  1  0  0  0
  2  3  1  0  0  0
  3  4  1  0  0  0
  4  5  1  0  0  0
  5  6  1  0  0  0
  6  7  1  0  0  0
  7  8  2  0  0  0
  7  1  1  0  0  0
  1 18  1  0  0  0
 18 19  1  0  0  0
 19 20  2  0  0  0
 20 21  1  0  0  0
 21 22  2  0  0  0
 22 23  1  0  0  0
 22 24  1  0  0  0
 24 25  2  0  0  0
  1 13  1  0  0  0
 13 14  1  0  0  0
 14 15  1  0  0  0
 15 16  1  0  0  0
 16 17  1  0  0  0
  6  2  1  0  0  0
 25 19  1  0  0  0
 17 13  1  0  0  0
  9 12  1  0  0  0
 23 26  1  0  0  0
M  END
> <minimizedAffinity>
1.99277

> <CNNscore>
0.2231431007

> <CNNaffinity>
5.8501143456

> <CNN_VS>
1.3054126501

> <CNNaffinity_variance>
0.3931430578

$$$$
[H]OC(=O)[C@@]1([H])N(C(=O)[C@@]([H])(N2C([H])([H])C([H])([H])C([H])([H])C2([H])[H])C([H])([H])c2c([H])c([H])c(O[H])c([H])c2[H])C([H])([H])C([H])([H])C1([H])[H]


 26 28  0  0  0  0  0  0  0  0999 V2000
  -13.2805   -7.4261    6.8248 C   0  0  0  0  0  0  0  0  0  0  0  0
  -12.8571   -6.5819    9.9225 C   0  0  0  0  0  0  0  0  0  0  0  0
  -12.0377   -6.8955   11.1858 C   0  0  0  0  0  0  0  0  0  0  0  0
  -10.7870   -6.0978   10.8976 C   0  0  0  0  0  0  0  0  0  0  0  0
  -10.6028   -6.2074    9.4376 C   0  0  0  0  0  0  0  0  0  0  0  0
  -11.9015   -6.6067    8.8626 N   0  0  0  0  0  0  0  0  0  0  0  0
  -12.0729   -6.9438    7.5107 C   0  0  0  0  0  0  0  0  0  0  0  0
  -10.9817   -6.7886    6.7996 O   0  0  0  0  0  0  0  0  0  0  0  0
  -13.7534   -4.7831   11.4049 O   0  0  0  0  0  0  0  0  0  0  0  0
  -13.3765   -5.1819   10.1379 C   0  0  0  0  0  0  0  0  0  0  0  0
  -13.4539   -4.4179    9.1710 O   0  0  0  0  0  0  0  0  0  0  0  0
  -13.7947   -3.7935   11.5979 H   0  0  0  0  0  0  0  0  0  0  0  0
  -13.5235   -8.7960    7.0598 N   0  0  0  0  0  0  0  0  0  0  0  0
  -14.1356   -9.0542    8.3577 C   0  0  0  0  0  0  0  0  0  0  0  0
  -13.1360   -9.9540    9.0973 C   0  0  0  0  0  0  0  0  0  0  0  0
  -12.6417  -10.7769    7.8983 C   0  0  0  0  0  0  0  0  0  0  0  0
  -12.4158   -9.6689    6.8922 C   0  0  0  0  0  0  0  0  0  0  0  0
  -14.4749   -6.5334    7.0805 C   0  0  0  0  0  0  0  0  0  0  0  0
  -15.5308   -6.7129    6.0576 C   0  0  0  0  0  0  0  0  0  0  0  0
  -16.5647   -7.6026    6.2148 C   0  0  0  0  0  0  0  0  0  0  0  0
  -17.5520   -7.7538    5.2329 C   0  0  0  0  0  0  0  0  0  0  0  0
  -17.5107   -7.0076    4.0750 C   0  0  0  0  0  0  0  0  0  0  0  0
  -18.4652   -7.1199    3.0710 O   0  0  0  0  0  0  0  0  0  0  0  0
  -16.4735   -6.1132    3.9142 C   0  0  0  0  0  0  0  0  0  0  0  0
  -15.4905   -5.9599    4.8871 C   0  0  0  0  0  0  0  0  0  0  0  0
  -19.2436   -7.7503    3.1255 H   0  0  0  0  0  0  0  0  0  0  0  0
  9 10  1  0  0  0
 10 11  2  0  0  0
 10  2  1  0  0  0
  2  3  1  0  0  0
  3  4  1  0  0  0
  4  5  1  0  0  0
  5  6  1  0  0  0
  6  7  1  0  0  0
  7  8  2  0  0  0
  7  1  1  0  0  0
  1 18  1  0  0  0
 18 19  1  0  0  0
 19 20  2  0  0  0
 20 21  1  0  0  0
 21 22  2  0  0  0
 22 23  1  0  0  0
 22 24  1  0  0  0
 24 25  2  0  0  0
  1 13  1  0  0  0
 13 14  1  0  0  0
 14 15  1  0  0  0
 15 16  1  0  0  0
 16 17  1  0  0  0
  6  2  1  0  0  0
 25 19  1  0  0  0
 17 13  1  0  0  0
  9 12  1  0  0  0
 23 26  1  0  0  0
M  END
> <minimizedAffinity>
-1.54145

> <CNNscore>
0.2138726115

> <CNNaffinity>
5.9916715622

> <CNN_VS>
1.2814544439

> <CNNaffinity_variance>
0.2451550514

$$$$
[H]OC(=O)[C@@]1([H])N(C(=O)[C@@]([H])(N2C([H])([H])C([H])([H])C([H])([H])C2([H])[H])C([H])([H])c2c([H])c([H])c(O[H])c([H])c2[H])C([H])([H])C([H])([H])C1([H])[H]


 26 28  0  0  0  0  0  0  0  0999 V2000
   -3.9578   -5.1761    7.7368 C   0  0  0  0  0  0  0  0  0  0  0  0
   -6.1911   -7.1728    6.5066 C   0  0  0  0  0  0  0  0  0  0  0  0
   -6.6431   -8.6424    6.4645 C   0  0  0  0  0  0  0  0  0  0  0  0
   -7.4250   -8.7184    7.7555 C   0  0  0  0  0  0  0  0  0  0  0  0
   -6.6908   -7.8420    8.6884 C   0  0  0  0  0  0  0  0  0  0  0  0
   -5.8504   -6.9438    7.8736 N   0  0  0  0  0  0  0  0  0  0  0  0
   -4.9054   -6.0645    8.4254 C   0  0  0  0  0  0  0  0  0  0  0  0
   -4.9055   -6.0661    9.7370 O   0  0  0  0  0  0  0  0  0  0  0  0
   -8.2980   -5.9738    7.1064 O   0  0  0  0  0  0  0  0  0  0  0  0
   -7.4174   -6.3816    6.1243 C   0  0  0  0  0  0  0  0  0  0  0  0
   -7.6087   -6.1137    4.9342 O   0  0  0  0  0  0  0  0  0  0  0  0
   -8.9188   -5.2061    6.8978 H   0  0  0  0  0  0  0  0  0  0  0  0
   -3.1380   -4.4613    8.6356 N   0  0  0  0  0  0  0  0  0  0  0  0
   -3.8389   -3.3743    9.3087 C   0  0  0  0  0  0  0  0  0  0  0  0
   -3.0836   -2.1015    8.9021 C   0  0  0  0  0  0  0  0  0  0  0  0
   -1.6616   -2.6813    8.8733 C   0  0  0  0  0  0  0  0  0  0  0  0
   -1.9147   -3.9648    8.1122 C   0  0  0  0  0  0  0  0  0  0  0  0
   -3.1976   -5.8933    6.6429 C   0  0  0  0  0  0  0  0  0  0  0  0
   -2.6268   -7.1763    7.1134 C   0  0  0  0  0  0  0  0  0  0  0  0
   -1.9152   -7.2808    8.2830 C   0  0  0  0  0  0  0  0  0  0  0  0
   -1.3857   -8.5063    8.7072 C   0  0  0  0  0  0  0  0  0  0  0  0
   -1.5669   -9.6471    7.9557 C   0  0  0  0  0  0  0  0  0  0  0  0
   -1.0624  -10.8862    8.3323 O   0  0  0  0  0  0  0  0  0  0  0  0
   -2.2811   -9.5453    6.7805 C   0  0  0  0  0  0  0  0  0  0  0  0
   -2.8088   -8.3300    6.3553 C   0  0  0  0  0  0  0  0  0  0  0  0
   -0.5351  -11.0284    9.1737 H   0  0  0  0  0  0  0  0  0  0  0  0
  9 10  1  0  0  0
 10 11  2  0  0  0
 10  2  1  0  0  0
  2  3  1  0  0  0
  3  4  1  0  0  0
  4  5  1  0  0  0
  5  6  1  0  0  0
  6  7  1  0  0  0
  7  8  2  0  0  0
  7  1  1  0  0  0
  1 18  1  0  0  0
 18 19  1  0  0  0
 19 20  2  0  0  0
 20 21  1  0  0  0
 21 22  2  0  0  0
 22 23  1  0  0  0
 22 24  1  0  0  0
 24 25  2  0  0  0
  1 13  1  0  0  0
 13 14  1  0  0  0
 14 15  1  0  0  0
 15 16  1  0  0  0
 16 17  1  0  0  0
  6  2  1  0  0  0
 25 19  1  0  0  0
 17 13  1  0  0  0
  9 12  1  0  0  0
 23 26  1  0  0  0
M  END
> <minimizedAffinity>
-4.59445

> <CNNscore>
0.2097830474

> <CNNaffinity>
4.1991219521

> <CNN_VS>
0.8809046149

> <CNNaffinity_variance>
0.0676909089

$$$$
[H]OC(=O)[C@@]1([H])N(C(=O)[C@@]([H])(N2C([H])([H])C([H])([H])C([H])([H])C2([H])[H])C([H])([H])c2c([H])c([H])c(O[H])c([H])c2[H])C([H])([H])C([H])([H])C1([H])[H]


 26 28  0  0  0  0  0  0  0  0999 V2000
  -11.4972   -7.1717    8.2531 C   0  0  0  0  0  0  0  0  0  0  0  0
  -14.2822   -8.8242    8.2230 C   0  0  0  0  0  0  0  0  0  0  0  0
  -15.8079   -8.6730    8.3454 C   0  0  0  0  0  0  0  0  0  0  0  0
  -16.1494   -8.2592    6.9327 C   0  0  0  0  0  0  0  0  0  0  0  0
  -15.0133   -7.4205    6.5046 C   0  0  0  0  0  0  0  0  0  0  0  0
  -13.8808   -7.7309    7.3979 N   0  0  0  0  0  0  0  0  0  0  0  0
  -12.6698   -7.0211    7.3792 C   0  0  0  0  0  0  0  0  0  0  0  0
  -12.6208   -6.1120    6.4349 O   0  0  0  0  0  0  0  0  0  0  0  0
  -14.6288  -11.2896    8.0274 O   0  0  0  0  0  0  0  0  0  0  0  0
  -14.0815  -10.1351    7.5037 C   0  0  0  0  0  0  0  0  0  0  0  0
  -13.4284  -10.1480    6.4559 O   0  0  0  0  0  0  0  0  0  0  0  0
  -14.7616  -12.0749    7.4077 H   0  0  0  0  0  0  0  0  0  0  0  0
  -11.8096   -6.9705    9.6143 N   0  0  0  0  0  0  0  0  0  0  0  0
  -13.1705   -6.4913    9.8244 C   0  0  0  0  0  0  0  0  0  0  0  0
  -13.0110   -5.1296   10.5145 C   0  0  0  0  0  0  0  0  0  0  0  0
  -11.7828   -5.4555   11.3774 C   0  0  0  0  0  0  0  0  0  0  0  0
  -10.9145   -6.1494   10.3502 C   0  0  0  0  0  0  0  0  0  0  0  0
  -10.7410   -8.4521    7.9748 C   0  0  0  0  0  0  0  0  0  0  0  0
   -9.3409   -8.1924    7.5677 C   0  0  0  0  0  0  0  0  0  0  0  0
   -8.3973   -9.1874    7.4990 C   0  0  0  0  0  0  0  0  0  0  0  0
   -7.0791   -8.9165    7.1103 C   0  0  0  0  0  0  0  0  0  0  0  0
   -6.6927   -7.6344    6.7845 C   0  0  0  0  0  0  0  0  0  0  0  0
   -5.3983   -7.3135    6.3930 O   0  0  0  0  0  0  0  0  0  0  0  0
   -7.6382   -6.6329    6.8526 C   0  0  0  0  0  0  0  0  0  0  0  0
   -8.9487   -6.8976    7.2382 C   0  0  0  0  0  0  0  0  0  0  0  0
   -4.6644   -7.9937    6.3230 H   0  0  0  0  0  0  0  0  0  0  0  0
  9 10  1  0  0  0
 10 11  2  0  0  0
 10  2  1  0  0  0
  2  3  1  0  0  0
  3  4  1  0  0  0
  4  5  1  0  0  0
  5  6  1  0  0  0
  6  7  1  0  0  0
  7  8  2  0  0  0
  7  1  1  0  0  0
  1 18  1  0  0  0
 18 19  1  0  0  0
 19 20  2  0  0  0
 20 21  1  0  0  0
 21 22  2  0  0  0
 22 23  1  0  0  0
 22 24  1  0  0  0
 24 25  2  0  0  0
  1 13  1  0  0  0
 13 14  1  0  0  0
 14 15  1  0  0  0
 15 16  1  0  0  0
 16 17  1  0  0  0
  6  2  1  0  0  0
 25 19  1  0  0  0
 17 13  1  0  0  0
  9 12  1  0  0  0
 23 26  1  0  0  0
M  END
> <minimizedAffinity>
-4.65779

> <CNNscore>
0.2075438648

> <CNNaffinity>
5.8599901199

> <CNN_VS>
1.2162050009

> <CNNaffinity_variance>
0.0688566715

$$$$
[H]OC(C([H])([H])[H])(C([H])([H])[H])[C@@]1([H])[C@]2([H])C([H])([H])C([H])([H])[C@]([H])(O[H])[C@@]12[H]


 13 14  0  0  0  0  0  0  0  0999 V2000
  -13.4580   -7.4062    6.9223 C   0  0  0  0  0  0  0  0  0  0  0  0
  -14.9567   -7.4647    6.9408 C   0  0  0  0  0  0  0  0  0  0  0  0
  -16.4315   -7.3869    6.6780 C   0  0  0  0  0  0  0  0  0  0  0  0
  -16.5463   -8.0388    8.0240 O   0  0  0  0  0  0  0  0  0  0  0  0
  -16.6300   -6.7472    5.3358 C   0  0  0  0  0  0  0  0  0  0  0  0
  -15.2779   -6.4297    4.7692 C   0  0  0  0  0  0  0  0  0  0  0  0
  -14.2438   -6.8731    5.7611 C   0  0  0  0  0  0  0  0  0  0  0  0
  -17.8984   -8.3563    8.5907 H   0  0  0  0  0  0  0  0  0  0  0  0
  -12.9811   -9.3659    7.5796 C   0  0  0  0  0  0  0  0  0  0  0  0
  -13.1563   -8.0356    8.2501 C   0  0  0  0  0  0  0  0  0  0  0  0
  -13.3316   -6.7052    8.9205 C   0  0  0  0  0  0  0  0  0  0  0  0
  -12.8547   -8.6648    9.5778 O   0  0  0  0  0  0  0  0  0  0  0  0
  -12.8131   -7.9812   10.9123 H   0  0  0  0  0  0  0  0  0  0  0  0
  9 10  1  0  0  0
 10 11  1  0  0  0
 10 12  1  0  0  0
 10  1  1  0  0  0
  1  2  1  0  0  0
  2  3  1  0  0  0
  3  4  1  0  0  0
  3  5  1  0  0  0
  5  6  1  0  0  0
  6  7  1  0  0  0
  7  1  1  0  0  0
  7  2  1  0  0  0
 12 13  1  0  0  0
  4  8  1  0  0  0
M  END
> <minimizedAffinity>
-5.33134

> <CNNscore>
0.5098123550

> <CNNaffinity>
4.4577040672

> <CNN_VS>
2.2725925446

> <CNNaffinity_variance>
0.0075417683

$$$$
[H]OC(C([H])([H])[H])(C([H])([H])[H])[C@@]1([H])[C@]2([H])C([H])([H])C([H])([H])[C@]([H])(O[H])[C@@]12[H]


 13 14  0  0  0  0  0  0  0  0999 V2000
  -16.2784   -8.1750    5.5214 C   0  0  0  0  0  0  0  0  0  0  0  0
  -16.1644   -6.7264    5.1492 C   0  0  0  0  0  0  0  0  0  0  0  0
  -16.3307   -5.3238    4.6441 C   0  0  0  0  0  0  0  0  0  0  0  0
  -14.9899   -5.1037    5.2796 O   0  0  0  0  0  0  0  0  0  0  0  0
  -17.6476   -5.2411    3.9308 C   0  0  0  0  0  0  0  0  0  0  0  0
  -18.2952   -6.5925    3.9950 C   0  0  0  0  0  0  0  0  0  0  0  0
  -17.3785   -7.5105    4.7480 C   0  0  0  0  0  0  0  0  0  0  0  0
  -14.3422   -3.7522    5.2154 H   0  0  0  0  0  0  0  0  0  0  0  0
  -15.6409   -7.9213    7.5286 C   0  0  0  0  0  0  0  0  0  0  0  0
  -14.9823   -8.3585    6.2539 C   0  0  0  0  0  0  0  0  0  0  0  0
  -14.3237   -8.7957    4.9790 C   0  0  0  0  0  0  0  0  0  0  0  0
  -13.6862   -8.5420    6.9862 O   0  0  0  0  0  0  0  0  0  0  0  0
  -12.3803   -9.0016    6.4090 H   0  0  0  0  0  0  0  0  0  0  0  0
  9 10  1  0  0  0
 10 11  1  0  0  0
 10 12  1  0  0  0
 10  1  1  0  0  0
  1  2  1  0  0  0
  2  3  1  0  0  0
  3  4  1  0  0  0
  3  5  1  0  0  0
  5  6  1  0  0  0
  6  7  1  0  0  0
  7  1  1  0  0  0
  7  2  1  0  0  0
 12 13  1  0  0  0
  4  8  1  0  0  0
M  END
> <minimizedAffinity>
-5.52741

> <CNNscore>
0.4900188446

> <CNNaffinity>
4.5173387527

> <CNN_VS>
2.2135810852

> <CNNaffinity_variance>
0.1560652703

$$$$
[H]OC(C([H])([H])[H])(C([H])([H])[H])[C@@]1([H])[C@]2([H])C([H])([H])C([H])([H])[C@]([H])(O[H])[C@@]12[H]


 13 14  0  0  0  0  0  0  0  0999 V2000
  -14.9516   -7.9157    5.2123 C   0  0  0  0  0  0  0  0  0  0  0  0
  -14.9266   -8.3563    6.6458 C   0  0  0  0  0  0  0  0  0  0  0  0
  -14.6505   -8.9621    7.9900 C   0  0  0  0  0  0  0  0  0  0  0  0
  -15.8516   -8.1722    8.4178 O   0  0  0  0  0  0  0  0  0  0  0  0
  -13.4440   -9.8443    7.8619 C   0  0  0  0  0  0  0  0  0  0  0  0
  -12.9746   -9.7836    6.4385 C   0  0  0  0  0  0  0  0  0  0  0  0
  -13.8909   -8.8640    5.6870 C   0  0  0  0  0  0  0  0  0  0  0  0
  -16.3211   -8.2328    9.8412 H   0  0  0  0  0  0  0  0  0  0  0  0
  -15.2486   -5.8273    5.4366 C   0  0  0  0  0  0  0  0  0  0  0  0
  -16.1481   -7.0113    5.2386 C   0  0  0  0  0  0  0  0  0  0  0  0
  -17.0475   -8.1953    5.0406 C   0  0  0  0  0  0  0  0  0  0  0  0
  -17.3445   -6.1069    5.2650 O   0  0  0  0  0  0  0  0  0  0  0  0
  -18.7828   -6.5082    5.1227 H   0  0  0  0  0  0  0  0  0  0  0  0
  9 10  1  0  0  0
 10 11  1  0  0  0
 10 12  1  0  0  0
 10  1  1  0  0  0
  1  2  1  0  0  0
  2  3  1  0  0  0
  3  4  1  0  0  0
  3  5  1  0  0  0
  5  6  1  0  0  0
  6  7  1  0  0  0
  7  1  1  0  0  0
  7  2  1  0  0  0
 12 13  1  0  0  0
  4  8  1  0  0  0
M  END
> <minimizedAffinity>
-5.62770

> <CNNscore>
0.4803145230

> <CNNaffinity>
4.4791460037

> <CNN_VS>
2.1513988972

> <CNNaffinity_variance>
0.0058510890

$$$$
[H]OC(C([H])([H])[H])(C([H])([H])[H])[C@@]1([H])[C@]2([H])C([H])([H])C([H])([H])[C@]([H])(O[H])[C@@]12[H]


 13 14  0  0  0  0  0  0  0  0999 V2000
  -16.8787   -7.4950    5.9483 C   0  0  0  0  0  0  0  0  0  0  0  0
  -15.6877   -8.1512    5.3153 C   0  0  0  0  0  0  0  0  0  0  0  0
  -14.3877   -8.8185    4.9763 C   0  0  0  0  0  0  0  0  0  0  0  0
  -14.9081   -8.7656    3.5705 O   0  0  0  0  0  0  0  0  0  0  0  0
  -13.6183   -9.0087    6.2498 C   0  0  0  0  0  0  0  0  0  0  0  0
  -14.4427   -8.4589    7.3759 C   0  0  0  0  0  0  0  0  0  0  0  0
  -15.7216   -7.9289    6.7984 C   0  0  0  0  0  0  0  0  0  0  0  0
  -14.0837   -9.3154    2.4443 H   0  0  0  0  0  0  0  0  0  0  0  0
  -17.2243   -5.8484    4.6563 C   0  0  0  0  0  0  0  0  0  0  0  0
  -17.7242   -7.2606    4.7315 C   0  0  0  0  0  0  0  0  0  0  0  0
  -18.2241   -8.6729    4.8069 C   0  0  0  0  0  0  0  0  0  0  0  0
  -18.5696   -7.0264    3.5149 O   0  0  0  0  0  0  0  0  0  0  0  0
  -19.4776   -8.0131    2.8428 H   0  0  0  0  0  0  0  0  0  0  0  0
  9 10  1  0  0  0
 10 11  1  0  0  0
 10 12  1  0  0  0
 10  1  1  0  0  0
  1  2  1  0  0  0
  2  3  1  0  0  0
  3  4  1  0  0  0
  3  5  1  0  0  0
  5  6  1  0  0  0
  6  7  1  0  0  0
  7  1  1  0  0  0
  7  2  1  0  0  0
 12 13  1  0  0  0
  4  8  1  0  0  0
M  END
> <minimizedAffinity>
-5.74240

> <CNNscore>
0.4744750857

> <CNNaffinity>
4.5275974274

> <CNN_VS>
2.1482322216

> <CNNaffinity_variance>
0.0723174810

$$$$
[H]OC(C([H])([H])[H])(C([H])([H])[H])[C@@]1([H])[C@]2([H])C([H])([H])C([H])([H])[C@]([H])(O[H])[C@@]12[H]


 13 14  0  0  0  0  0  0  0  0999 V2000
   -7.3263   -7.8347    8.4087 C   0  0  0  0  0  0  0  0  0  0  0  0
   -6.7283   -7.3055    7.1389 C   0  0  0  0  0  0  0  0  0  0  0  0
   -5.9079   -6.6637    6.0595 C   0  0  0  0  0  0  0  0  0  0  0  0
   -6.9716   -7.2019    5.1490 O   0  0  0  0  0  0  0  0  0  0  0  0
   -4.7192   -6.0149    6.7045 C   0  0  0  0  0  0  0  0  0  0  0  0
   -4.8050   -6.2557    8.1825 C   0  0  0  0  0  0  0  0  0  0  0  0
   -6.0467   -7.0533    8.4511 C   0  0  0  0  0  0  0  0  0  0  0  0
   -6.8859   -6.9612    3.6709 H   0  0  0  0  0  0  0  0  0  0  0  0
   -9.2725   -7.2024    7.8497 C   0  0  0  0  0  0  0  0  0  0  0  0
   -8.5454   -8.5143    7.8590 C   0  0  0  0  0  0  0  0  0  0  0  0
   -7.8182   -9.8263    7.8683 C   0  0  0  0  0  0  0  0  0  0  0  0
   -9.7643   -9.1939    7.3093 O   0  0  0  0  0  0  0  0  0  0  0  0
   -9.9173  -10.6506    6.9859 H   0  0  0  0  0  0  0  0  0  0  0  0
  9 10  1  0  0  0
 10 11  1  0  0  0
 10 12  1  0  0  0
 10  1  1  0  0  0
  1  2  1  0  0  0
  2  3  1  0  0  0
  3  4  1  0  0  0
  3  5  1  0  0  0
  5  6  1  0  0  0
  6  7  1  0  0  0
  7  1  1  0  0  0
  7  2  1  0  0  0
 12 13  1  0  0  0
  4  8  1  0  0  0
M  END
> <minimizedAffinity>
-4.65081

> <CNNscore>
0.4510364830

> <CNNaffinity>
3.5680680275

> <CNN_VS>
1.6093288660

> <CNNaffinity_variance>
0.0679515451

$$$$
[H]OC(C([H])([H])[H])(C([H])([H])[H])[C@@]1([H])[C@]2([H])C([H])([H])C([H])([H])[C@]([H])(O[H])[C@@]12[H]


 13 14  0  0  0  0  0  0  0  0999 V2000
  -14.2380   -6.7935    5.8425 C   0  0  0  0  0  0  0  0  0  0  0  0
  -15.7135   -6.7159    5.5840 C   0  0  0  0  0  0  0  0  0  0  0  0
  -17.1150   -6.3751    5.1719 C   0  0  0  0  0  0  0  0  0  0  0  0
  -17.4692   -7.6343    5.9060 O   0  0  0  0  0  0  0  0  0  0  0  0
  -17.0692   -5.0997    4.3838 C   0  0  0  0  0  0  0  0  0  0  0  0
  -15.6394   -4.6523    4.3087 C   0  0  0  0  0  0  0  0  0  0  0  0
  -14.8016   -5.6512    5.0505 C   0  0  0  0  0  0  0  0  0  0  0  0
  -18.8990   -8.0817    5.9811 H   0  0  0  0  0  0  0  0  0  0  0  0
  -14.0910   -8.8568    5.3722 C   0  0  0  0  0  0  0  0  0  0  0  0
  -14.1799   -8.0620    6.6412 C   0  0  0  0  0  0  0  0  0  0  0  0
  -14.2688   -7.2671    7.9102 C   0  0  0  0  0  0  0  0  0  0  0  0
  -14.1218   -9.3303    7.4398 O   0  0  0  0  0  0  0  0  0  0  0  0
  -14.1578   -9.4589    8.9338 H   0  0  0  0  0  0  0  0  0  0  0  0
  9 10  1  0  0  0
 10 11  1  0  0  0
 10 12  1  0  0  0
 10  1  1  0  0  0
  1  2  1  0  0  0
  2  3  1  0  0  0
  3  4  1  0  0  0
  3  5  1  0  0  0
  5  6  1  0  0  0
  6  7  1  0  0  0
  7  1  1  0  0  0
  7  2  1  0  0  0
 12 13  1  0  0  0
  4  8  1  0  0  0
M  END
> <minimizedAffinity>
-6.08254

> <CNNscore>
0.4299649000

> <CNNaffinity>
4.5894126892

> <CNN_VS>
1.9732863903

> <CNNaffinity_variance>
0.0487213396

$$$$
[H]OC(C([H])([H])[H])(C([H])([H])[H])[C@@]1([H])[C@]2([H])C([H])([H])C([H])([H])[C@]([H])(O[H])[C@@]12[H]


 13 14  0  0  0  0  0  0  0  0999 V2000
  -14.2400   -6.7934    5.8424 C   0  0  0  0  0  0  0  0  0  0  0  0
  -15.7150   -6.7196    5.5801 C   0  0  0  0  0  0  0  0  0  0  0  0
  -17.1163   -6.3822    5.1646 C   0  0  0  0  0  0  0  0  0  0  0  0
  -17.4691   -7.6426    5.8972 O   0  0  0  0  0  0  0  0  0  0  0  0
  -17.0718   -5.1062    4.3772 C   0  0  0  0  0  0  0  0  0  0  0  0
  -15.6431   -4.6551    4.3060 C   0  0  0  0  0  0  0  0  0  0  0  0
  -14.8045   -5.6522    5.0494 C   0  0  0  0  0  0  0  0  0  0  0  0
  -18.8979   -8.0938    5.9685 H   0  0  0  0  0  0  0  0  0  0  0  0
  -14.2706   -7.2677    7.9097 C   0  0  0  0  0  0  0  0  0  0  0  0
  -14.1806   -8.0621    6.6405 C   0  0  0  0  0  0  0  0  0  0  0  0
  -14.0905   -8.8564    5.3713 C   0  0  0  0  0  0  0  0  0  0  0  0
  -14.1211   -9.3307    7.4386 O   0  0  0  0  0  0  0  0  0  0  0  0
  -14.0135  -10.7285    6.9054 H   0  0  0  0  0  0  0  0  0  0  0  0
  9 10  1  0  0  0
 10 11  1  0  0  0
 10 12  1  0  0  0
 10  1  1  0  0  0
  1  2  1  0  0  0
  2  3  1  0  0  0
  3  4  1  0  0  0
  3  5  1  0  0  0
  5  6  1  0  0  0
  6  7  1  0  0  0
  7  1  1  0  0  0
  7  2  1  0  0  0
 12 13  1  0  0  0
  4  8  1  0  0  0
M  END
> <minimizedAffinity>
-6.07492

> <CNNscore>
0.4227941632

> <CNNaffinity>
4.5694565773

> <CNN_VS>
1.9319396019

> <CNNaffinity_variance>
0.0512013435

$$$$
[H]OC(C([H])([H])[H])(C([H])([H])[H])[C@@]1([H])[C@]2([H])C([H])([H])C([H])([H])[C@]([H])(O[H])[C@@]12[H]


 13 14  0  0  0  0  0  0  0  0999 V2000
   -9.9019  -12.8939    0.6459 C   0  0  0  0  0  0  0  0  0  0  0  0
   -8.5498  -12.2731    0.4553 C   0  0  0  0  0  0  0  0  0  0  0  0
   -7.0928  -11.9239    0.3813 C   0  0  0  0  0  0  0  0  0  0  0  0
   -7.5940  -10.6249   -0.1767 O   0  0  0  0  0  0  0  0  0  0  0  0
   -6.3090  -13.0932    0.8994 C   0  0  0  0  0  0  0  0  0  0  0  0
   -7.2815  -14.1650    1.2936 C   0  0  0  0  0  0  0  0  0  0  0  0
   -8.6664  -13.6582    1.0191 C   0  0  0  0  0  0  0  0  0  0  0  0
   -6.6215   -9.5530   -0.5710 H   0  0  0  0  0  0  0  0  0  0  0  0
   -9.7765  -10.7763    0.6469 C   0  0  0  0  0  0  0  0  0  0  0  0
  -10.7729  -11.7795    0.1462 C   0  0  0  0  0  0  0  0  0  0  0  0
  -11.7693  -12.7829   -0.3544 C   0  0  0  0  0  0  0  0  0  0  0  0
  -11.6439  -10.6653   -0.3535 O   0  0  0  0  0  0  0  0  0  0  0  0
  -12.9638  -10.7959   -1.0540 H   0  0  0  0  0  0  0  0  0  0  0  0
  9 10  1  0  0  0
 10 11  1  0  0  0
 10 12  1  0  0  0
 10  1  1  0  0  0
  1  2  1  0  0  0
  2  3  1  0  0  0
  3  4  1  0  0  0
  3  5  1  0  0  0
  5  6  1  0  0  0
  6  7  1  0  0  0
  7  1  1  0  0  0
  7  2  1  0  0  0
 12 13  1  0  0  0
  4  8  1  0  0  0
M  END
> <minimizedAffinity>
24.75989

> <CNNscore>
0.4143646061

> <CNNaffinity>
3.5124392509

> <CNN_VS>
1.4554305077

> <CNNaffinity_variance>
0.2239002436

$$$$
[H]OC(C([H])([H])[H])(C([H])([H])[H])[C@@]1([H])[C@]2([H])C([H])([H])C([H])([H])[C@]([H])(O[H])[C@@]12[H]


 13 14  0  0  0  0  0  0  0  0999 V2000
  -16.2123   -7.0482    3.9645 C   0  0  0  0  0  0  0  0  0  0  0  0
  -16.0810   -7.5183    5.3828 C   0  0  0  0  0  0  0  0  0  0  0  0
  -15.6968   -8.1394    6.6930 C   0  0  0  0  0  0  0  0  0  0  0  0
  -16.9057   -7.4175    7.2101 O   0  0  0  0  0  0  0  0  0  0  0  0
  -14.4605   -8.9596    6.4725 C   0  0  0  0  0  0  0  0  0  0  0  0
  -14.0805   -8.8454    5.0260 C   0  0  0  0  0  0  0  0  0  0  0  0
  -15.0820   -7.9547    4.3525 C   0  0  0  0  0  0  0  0  0  0  0  0
  -17.2858   -7.5317    8.6567 H   0  0  0  0  0  0  0  0  0  0  0  0
  -16.5927   -4.9885    4.3001 C   0  0  0  0  0  0  0  0  0  0  0  0
  -17.4459   -6.2030    4.0834 C   0  0  0  0  0  0  0  0  0  0  0  0
  -18.2990   -7.4177    3.8667 C   0  0  0  0  0  0  0  0  0  0  0  0
  -18.6794   -5.3580    4.2023 O   0  0  0  0  0  0  0  0  0  0  0  0
  -20.1030   -5.8193    4.1008 H   0  0  0  0  0  0  0  0  0  0  0  0
  9 10  1  0  0  0
 10 11  1  0  0  0
 10 12  1  0  0  0
 10  1  1  0  0  0
  1  2  1  0  0  0
  2  3  1  0  0  0
  3  4  1  0  0  0
  3  5  1  0  0  0
  5  6  1  0  0  0
  6  7  1  0  0  0
  7  1  1  0  0  0
  7  2  1  0  0  0
 12 13  1  0  0  0
  4  8  1  0  0  0
M  END
> <minimizedAffinity>
-5.54864

> <CNNscore>
0.4003517032

> <CNNaffinity>
4.3804984093

> <CNN_VS>
1.7537399530

> <CNNaffinity_variance>
0.1593740284

$$$$
[H]c1c(-c2c([H])c([H])c([H])c(S(=O)(=O)N([H])C(=O)[C@@]([H])(N([H])[H])C([H])([H])C([H])(C([H])([H])[H])C([H])([H])[H])c2[H])nc(C([H])([H])[H])nc1N([H])[H]


 31 32  0  0  0  0  0  0  0  0999 V2000
  -12.2532   -8.2440    8.3870 C   0  0  0  0  0  0  0  0  0  0  0  0
  -12.4167   -9.4932    7.8382 C   0  0  0  0  0  0  0  0  0  0  0  0
  -11.3713  -10.1745    7.1979 C   0  0  0  0  0  0  0  0  0  0  0  0
  -10.1598   -9.5177    7.1487 C   0  0  0  0  0  0  0  0  0  0  0  0
   -9.9679   -8.2606    7.6930 C   0  0  0  0  0  0  0  0  0  0  0  0
  -11.0213   -7.6033    8.3229 C   0  0  0  0  0  0  0  0  0  0  0  0
   -8.6454   -7.6593    7.6471 C   0  0  0  0  0  0  0  0  0  0  0  0
   -7.8450   -7.4758    8.7505 C   0  0  0  0  0  0  0  0  0  0  0  0
   -6.5667   -6.9293    8.6806 C   0  0  0  0  0  0  0  0  0  0  0  0
   -5.8010   -6.7794    9.8664 N   0  0  0  0  0  0  0  0  0  0  0  0
   -6.1315   -6.5751    7.4473 N   0  0  0  0  0  0  0  0  0  0  0  0
   -6.9110   -6.7532    6.3682 C   0  0  0  0  0  0  0  0  0  0  0  0
   -6.4599   -6.3840    4.9867 C   0  0  0  0  0  0  0  0  0  0  0  0
   -8.1516   -7.2863    6.4560 N   0  0  0  0  0  0  0  0  0  0  0  0
   -6.2343   -6.3556   10.7321 H   0  0  0  0  0  0  0  0  0  0  0  0
   -4.7961   -7.0769    9.9254 H   0  0  0  0  0  0  0  0  0  0  0  0
  -13.5758   -7.5109    9.2502 S   0  0  0  0  0  0  0  0  0  0  0  0
  -13.2572   -6.0152    9.3331 O   0  0  0  0  0  0  0  0  0  0  0  0
  -13.6632   -7.9762   10.6727 O   0  0  0  0  0  0  0  0  0  0  0  0
  -15.3007   -7.4408    7.0576 C   0  0  0  0  0  0  0  0  0  0  0  0
  -14.4387   -6.9470    6.3207 O   0  0  0  0  0  0  0  0  0  0  0  0
  -15.0541   -7.7454    8.3940 N   0  0  0  0  0  0  0  0  0  0  0  0
  -15.8304   -8.1590    9.0094 H   0  0  0  0  0  0  0  0  0  0  0  0
  -16.6599   -7.7092    6.4769 C   0  0  0  0  0  0  0  0  0  0  0  0
  -17.5576   -8.0119    7.5722 N   0  0  0  0  0  0  0  0  0  0  0  0
  -18.3090   -8.6676    7.2246 H   0  0  0  0  0  0  0  0  0  0  0  0
  -17.0489   -8.6043    8.3049 H   0  0  0  0  0  0  0  0  0  0  0  0
  -17.0022   -6.4425    5.7376 C   0  0  0  0  0  0  0  0  0  0  0  0
  -18.3881   -7.1451    3.8118 C   0  0  0  0  0  0  0  0  0  0  0  0
  -17.1239   -6.4982    4.2747 C   0  0  0  0  0  0  0  0  0  0  0  0
  -17.0909   -5.0452    3.7633 C   0  0  0  0  0  0  0  0  0  0  0  0
 29 30  1  0  0  0
 30 31  1  0  0  0
 30 28  1  0  0  0
 28 24  1  0  0  0
 24 25  1  0  0  0
 24 20  1  0  0  0
 20 21  2  0  0  0
 20 22  1  0  0  0
 22 17  1  0  0  0
 17 18  2  0  0  0
 17 19  2  0  0  0
 17  1  1  0  0  0
  1  2  2  0  0  0
  2  3  1  0  0  0
  3  4  2  0  0  0
  4  5  1  0  0  0
  5  6  2  0  0  0
  5  7  1  0  0  0
  7  8  2  0  0  0
  8  9  1  0  0  0
  9 10  1  0  0  0
  9 11  2  0  0  0
 11 12  1  0  0  0
 12 13  1  0  0  0
 12 14  2  0  0  0
  6  1  1  0  0  0
 14  7  1  0  0  0
 25 26  1  0  0  0
 25 27  1  0  0  0
 22 23  1  0  0  0
 10 15  1  0  0  0
 10 16  1  0  0  0
M  END
> <minimizedAffinity>
-7.89150

> <CNNscore>
0.5224546790

> <CNNaffinity>
6.8086371422

> <CNN_VS>
3.5572042465

> <CNNaffinity_variance>
0.1448170096

$$$$
[H]c1c(-c2c([H])c([H])c([H])c(S(=O)(=O)N([H])C(=O)[C@@]([H])(N([H])[H])C([H])([H])C([H])(C([H])([H])[H])C([H])([H])[H])c2[H])nc(C([H])([H])[H])nc1N([H])[H]


 31 32  0  0  0  0  0  0  0  0999 V2000
  -16.4203   -6.3069    4.9410 C   0  0  0  0  0  0  0  0  0  0  0  0
  -15.7425   -5.3832    4.1824 C   0  0  0  0  0  0  0  0  0  0  0  0
  -14.4251   -4.9971    4.4698 C   0  0  0  0  0  0  0  0  0  0  0  0
  -13.8415   -5.5999    5.5641 C   0  0  0  0  0  0  0  0  0  0  0  0
  -14.5009   -6.5326    6.3444 C   0  0  0  0  0  0  0  0  0  0  0  0
  -15.8090   -6.8993    6.0400 C   0  0  0  0  0  0  0  0  0  0  0  0
  -13.7965   -7.1622    7.4490 C   0  0  0  0  0  0  0  0  0  0  0  0
  -13.5748   -8.5160    7.5483 C   0  0  0  0  0  0  0  0  0  0  0  0
  -12.8675   -9.0962    8.5974 C   0  0  0  0  0  0  0  0  0  0  0  0
  -12.6762  -10.5024    8.6230 N   0  0  0  0  0  0  0  0  0  0  0  0
  -12.3939   -8.2494    9.5433 N   0  0  0  0  0  0  0  0  0  0  0  0
  -12.6089   -6.9269    9.4487 C   0  0  0  0  0  0  0  0  0  0  0  0
  -12.0913   -5.9581   10.4694 C   0  0  0  0  0  0  0  0  0  0  0  0
  -13.2993   -6.3813    8.4208 N   0  0  0  0  0  0  0  0  0  0  0  0
  -13.4877  -11.1552    8.4443 H   0  0  0  0  0  0  0  0  0  0  0  0
  -11.7407  -10.9368    8.8175 H   0  0  0  0  0  0  0  0  0  0  0  0
  -18.0176   -6.8028    4.4566 S   0  0  0  0  0  0  0  0  0  0  0  0
  -17.8343   -7.6981    3.2276 O   0  0  0  0  0  0  0  0  0  0  0  0
  -18.8594   -5.6543    3.9875 O   0  0  0  0  0  0  0  0  0  0  0  0
  -19.6734   -8.7523    5.5727 C   0  0  0  0  0  0  0  0  0  0  0  0
  -20.0279   -9.1698    4.4637 O   0  0  0  0  0  0  0  0  0  0  0  0
  -18.7774   -7.6963    5.7206 N   0  0  0  0  0  0  0  0  0  0  0  0
  -18.5032   -7.3491    6.6986 H   0  0  0  0  0  0  0  0  0  0  0  0
  -20.2442   -9.4139    6.7945 C   0  0  0  0  0  0  0  0  0  0  0  0
  -21.6797   -9.2249    6.7708 N   0  0  0  0  0  0  0  0  0  0  0  0
  -22.0353   -9.1969    7.7649 H   0  0  0  0  0  0  0  0  0  0  0  0
  -21.9103   -8.2432    6.4108 H   0  0  0  0  0  0  0  0  0  0  0  0
  -19.8145  -10.8521    6.6703 C   0  0  0  0  0  0  0  0  0  0  0  0
  -20.5915  -11.2387    8.9876 C   0  0  0  0  0  0  0  0  0  0  0  0
  -20.3412  -11.8250    7.6368 C   0  0  0  0  0  0  0  0  0  0  0  0
  -21.6722  -12.3519    7.0673 C   0  0  0  0  0  0  0  0  0  0  0  0
 29 30  1  0  0  0
 30 31  1  0  0  0
 30 28  1  0  0  0
 28 24  1  0  0  0
 24 25  1  0  0  0
 24 20  1  0  0  0
 20 21  2  0  0  0
 20 22  1  0  0  0
 22 17  1  0  0  0
 17 18  2  0  0  0
 17 19  2  0  0  0
 17  1  1  0  0  0
  1  2  2  0  0  0
  2  3  1  0  0  0
  3  4  2  0  0  0
  4  5  1  0  0  0
  5  6  2  0  0  0
  5  7  1  0  0  0
  7  8  2  0  0  0
  8  9  1  0  0  0
  9 10  1  0  0  0
  9 11  2  0  0  0
 11 12  1  0  0  0
 12 13  1  0  0  0
 12 14  2  0  0  0
  6  1  1  0  0  0
 14  7  1  0  0  0
 25 26  1  0  0  0
 25 27  1  0  0  0
 22 23  1  0  0  0
 10 15  1  0  0  0
 10 16  1  0  0  0
M  END
> <minimizedAffinity>
0.61629

> <CNNscore>
0.5199826956

> <CNNaffinity>
6.8639168739

> <CNN_VS>
3.5691180229

> <CNNaffinity_variance>
0.7845756412

$$$$
[H]c1c(-c2c([H])c([H])c([H])c(S(=O)(=O)N([H])C(=O)[C@@]([H])(N([H])[H])C([H])([H])C([H])(C([H])([H])[H])C([H])([H])[H])c2[H])nc(C([H])([H])[H])nc1N([H])[H]


 31 32  0  0  0  0  0  0  0  0999 V2000
   -5.5779   -7.1080    7.3123 C   0  0  0  0  0  0  0  0  0  0  0  0
   -5.2880   -7.9718    6.2837 C   0  0  0  0  0  0  0  0  0  0  0  0
   -6.2449   -8.8427    5.7425 C   0  0  0  0  0  0  0  0  0  0  0  0
   -7.5035   -8.7847    6.3030 C   0  0  0  0  0  0  0  0  0  0  0  0
   -7.8222   -7.9248    7.3386 C   0  0  0  0  0  0  0  0  0  0  0  0
   -6.8549   -7.0700    7.8602 C   0  0  0  0  0  0  0  0  0  0  0  0
   -9.1868   -7.8862    7.8375 C   0  0  0  0  0  0  0  0  0  0  0  0
  -10.1007   -8.8982    7.6572 C   0  0  0  0  0  0  0  0  0  0  0  0
  -11.3930   -8.8571    8.1729 C   0  0  0  0  0  0  0  0  0  0  0  0
  -12.2743   -9.9468    7.9478 N   0  0  0  0  0  0  0  0  0  0  0  0
  -11.7230   -7.7485    8.8786 N   0  0  0  0  0  0  0  0  0  0  0  0
  -10.8325   -6.7588    9.0561 C   0  0  0  0  0  0  0  0  0  0  0  0
  -11.1574   -5.5225    9.8399 C   0  0  0  0  0  0  0  0  0  0  0  0
   -9.5803   -6.8169    8.5468 N   0  0  0  0  0  0  0  0  0  0  0  0
  -12.3772  -10.3595    6.9805 H   0  0  0  0  0  0  0  0  0  0  0  0
  -12.8454  -10.3735    8.7182 H   0  0  0  0  0  0  0  0  0  0  0  0
   -4.3588   -5.9911    7.8586 S   0  0  0  0  0  0  0  0  0  0  0  0
   -4.5977   -4.6870    7.0919 O   0  0  0  0  0  0  0  0  0  0  0  0
   -2.9730   -6.4227    7.4832 O   0  0  0  0  0  0  0  0  0  0  0  0
   -3.6811   -4.9359   10.3516 C   0  0  0  0  0  0  0  0  0  0  0  0
   -2.6909   -4.3486    9.8993 O   0  0  0  0  0  0  0  0  0  0  0  0
   -4.5192   -5.7094    9.5522 N   0  0  0  0  0  0  0  0  0  0  0  0
   -5.3615   -6.2183    9.9808 H   0  0  0  0  0  0  0  0  0  0  0  0
   -3.9727   -4.8061   11.8195 C   0  0  0  0  0  0  0  0  0  0  0  0
   -3.8213   -3.4117   12.1796 N   0  0  0  0  0  0  0  0  0  0  0  0
   -3.5145   -3.3525   13.1884 H   0  0  0  0  0  0  0  0  0  0  0  0
   -2.9883   -2.9902   11.6553 H   0  0  0  0  0  0  0  0  0  0  0  0
   -5.3788   -5.3260   11.9639 C   0  0  0  0  0  0  0  0  0  0  0  0
   -4.6045   -6.4351   14.0359 C   0  0  0  0  0  0  0  0  0  0  0  0
   -5.7681   -5.9442   13.2384 C   0  0  0  0  0  0  0  0  0  0  0  0
   -6.5130   -4.8692   14.0528 C   0  0  0  0  0  0  0  0  0  0  0  0
 29 30  1  0  0  0
 30 31  1  0  0  0
 30 28  1  0  0  0
 28 24  1  0  0  0
 24 25  1  0  0  0
 24 20  1  0  0  0
 20 21  2  0  0  0
 20 22  1  0  0  0
 22 17  1  0  0  0
 17 18  2  0  0  0
 17 19  2  0  0  0
 17  1  1  0  0  0
  1  2  2  0  0  0
  2  3  1  0  0  0
  3  4  2  0  0  0
  4  5  1  0  0  0
  5  6  2  0  0  0
  5  7  1  0  0  0
  7  8  2  0  0  0
  8  9  1  0  0  0
  9 10  1  0  0  0
  9 11  2  0  0  0
 11 12  1  0  0  0
 12 13  1  0  0  0
 12 14  2  0  0  0
  6  1  1  0  0  0
 14  7  1  0  0  0
 25 26  1  0  0  0
 25 27  1  0  0  0
 22 23  1  0  0  0
 10 15  1  0  0  0
 10 16  1  0  0  0
M  END
> <minimizedAffinity>
-6.59291

> <CNNscore>
0.3369914293

> <CNNaffinity>
6.0240602493

> <CNN_VS>
2.0300567150

> <CNNaffinity_variance>
0.0407676771

$$$$
[H]c1c(-c2c([H])c([H])c([H])c(S(=O)(=O)N([H])C(=O)[C@@]([H])(N([H])[H])C([H])([H])C([H])(C([H])([H])[H])C([H])([H])[H])c2[H])nc(C([H])([H])[H])nc1N([H])[H]


 31 32  0  0  0  0  0  0  0  0999 V2000
  -10.3881   -8.1733    7.9406 C   0  0  0  0  0  0  0  0  0  0  0  0
  -10.5140   -9.4457    7.4373 C   0  0  0  0  0  0  0  0  0  0  0  0
   -9.4088  -10.1982    7.0136 C   0  0  0  0  0  0  0  0  0  0  0  0
   -8.1782   -9.5870    7.1307 C   0  0  0  0  0  0  0  0  0  0  0  0
   -8.0233   -8.3078    7.6338 C   0  0  0  0  0  0  0  0  0  0  0  0
   -9.1356   -7.5798    8.0472 C   0  0  0  0  0  0  0  0  0  0  0  0
   -6.6862   -7.7556    7.7753 C   0  0  0  0  0  0  0  0  0  0  0  0
   -6.3488   -6.7807    8.6849 C   0  0  0  0  0  0  0  0  0  0  0  0
   -5.0543   -6.2894    8.8285 C   0  0  0  0  0  0  0  0  0  0  0  0
   -4.7869   -5.2864    9.7967 N   0  0  0  0  0  0  0  0  0  0  0  0
   -4.1146   -6.8251    8.0126 N   0  0  0  0  0  0  0  0  0  0  0  0
   -4.4414   -7.7774    7.1234 C   0  0  0  0  0  0  0  0  0  0  0  0
   -3.4276   -8.4015    6.2119 C   0  0  0  0  0  0  0  0  0  0  0  0
   -5.7059   -8.2424    6.9984 N   0  0  0  0  0  0  0  0  0  0  0  0
   -5.4130   -4.4387    9.8747 H   0  0  0  0  0  0  0  0  0  0  0  0
   -3.9731   -5.3482   10.4568 H   0  0  0  0  0  0  0  0  0  0  0  0
  -11.8005   -7.3469    8.5356 S   0  0  0  0  0  0  0  0  0  0  0  0
  -11.3256   -5.9673    9.0015 O   0  0  0  0  0  0  0  0  0  0  0  0
  -12.3779   -7.9993    9.7557 O   0  0  0  0  0  0  0  0  0  0  0  0
  -13.9174   -8.1050    6.8829 C   0  0  0  0  0  0  0  0  0  0  0  0
  -14.0220   -9.2116    7.4256 O   0  0  0  0  0  0  0  0  0  0  0  0
  -12.9654   -7.1679    7.2770 N   0  0  0  0  0  0  0  0  0  0  0  0
  -12.8923   -6.2227    6.7735 H   0  0  0  0  0  0  0  0  0  0  0  0
  -14.8538   -7.7778    5.7548 C   0  0  0  0  0  0  0  0  0  0  0  0
  -16.1045   -8.4639    6.0040 N   0  0  0  0  0  0  0  0  0  0  0  0
  -16.5605   -8.6865    5.0779 H   0  0  0  0  0  0  0  0  0  0  0  0
  -15.9105   -9.4354    6.4103 H   0  0  0  0  0  0  0  0  0  0  0  0
  -14.9624   -6.2761    5.7889 C   0  0  0  0  0  0  0  0  0  0  0  0
  -16.9964   -5.2229    4.8525 C   0  0  0  0  0  0  0  0  0  0  0  0
  -15.5653   -5.5925    4.6368 C   0  0  0  0  0  0  0  0  0  0  0  0
  -14.7492   -4.3080    4.3962 C   0  0  0  0  0  0  0  0  0  0  0  0
 29 30  1  0  0  0
 30 31  1  0  0  0
 30 28  1  0  0  0
 28 24  1  0  0  0
 24 25  1  0  0  0
 24 20  1  0  0  0
 20 21  2  0  0  0
 20 22  1  0  0  0
 22 17  1  0  0  0
 17 18  2  0  0  0
 17 19  2  0  0  0
 17  1  1  0  0  0
  1  2  2  0  0  0
  2  3  1  0  0  0
  3  4  2  0  0  0
  4  5  1  0  0  0
  5  6  2  0  0  0
  5  7  1  0  0  0
  7  8  2  0  0  0
  8  9  1  0  0  0
  9 10  1  0  0  0
  9 11  2  0  0  0
 11 12  1  0  0  0
 12 13  1  0  0  0
 12 14  2  0  0  0
  6  1  1  0  0  0
 14  7  1  0  0  0
 25 26  1  0  0  0
 25 27  1  0  0  0
 22 23  1  0  0  0
 10 15  1  0  0  0
 10 16  1  0  0  0
M  END
> <minimizedAffinity>
-8.84306

> <CNNscore>
0.3359530866

> <CNNaffinity>
6.3536596298

> <CNN_VS>
2.1345314980

> <CNNaffinity_variance>
0.0095202401

$$$$
[H]c1c(-c2c([H])c([H])c([H])c(S(=O)(=O)N([H])C(=O)[C@@]([H])(N([H])[H])C([H])([H])C([H])(C([H])([H])[H])C([H])([H])[H])c2[H])nc(C([H])([H])[H])nc1N([H])[H]


 31 32  0  0  0  0  0  0  0  0999 V2000
   -6.8154   -7.4889    6.8035 C   0  0  0  0  0  0  0  0  0  0  0  0
   -6.8772   -6.4903    5.8615 C   0  0  0  0  0  0  0  0  0  0  0  0
   -8.0597   -5.7866    5.5900 C   0  0  0  0  0  0  0  0  0  0  0  0
   -9.1665   -6.1538    6.3260 C   0  0  0  0  0  0  0  0  0  0  0  0
   -9.1318   -7.1549    7.2800 C   0  0  0  0  0  0  0  0  0  0  0  0
   -7.9464   -7.8403    7.5313 C   0  0  0  0  0  0  0  0  0  0  0  0
  -10.3291   -7.4448    8.0515 C   0  0  0  0  0  0  0  0  0  0  0  0
  -11.0144   -8.6358    7.9898 C   0  0  0  0  0  0  0  0  0  0  0  0
  -12.1398   -8.9069    8.7629 C   0  0  0  0  0  0  0  0  0  0  0  0
  -12.7867  -10.1648    8.6450 N   0  0  0  0  0  0  0  0  0  0  0  0
  -12.5440   -7.9221    9.6012 N   0  0  0  0  0  0  0  0  0  0  0  0
  -11.8767   -6.7582    9.6634 C   0  0  0  0  0  0  0  0  0  0  0  0
  -12.2871   -5.6499   10.5862 C   0  0  0  0  0  0  0  0  0  0  0  0
  -10.7842   -6.5130    8.9036 N   0  0  0  0  0  0  0  0  0  0  0  0
  -13.0044  -10.5663    7.6921 H   0  0  0  0  0  0  0  0  0  0  0  0
  -13.0679  -10.7306    9.4832 H   0  0  0  0  0  0  0  0  0  0  0  0
   -5.2847   -8.2441    7.1479 S   0  0  0  0  0  0  0  0  0  0  0  0
   -4.6006   -8.4627    5.7952 O   0  0  0  0  0  0  0  0  0  0  0  0
   -5.4384   -9.6131    7.7393 O   0  0  0  0  0  0  0  0  0  0  0  0
   -3.5695   -6.1150    7.7071 C   0  0  0  0  0  0  0  0  0  0  0  0
   -3.5300   -5.7592    6.5232 O   0  0  0  0  0  0  0  0  0  0  0  0
   -4.3148   -7.2123    8.1317 N   0  0  0  0  0  0  0  0  0  0  0  0
   -4.3141   -7.5028    9.1651 H   0  0  0  0  0  0  0  0  0  0  0  0
   -2.7738   -5.3293    8.7101 C   0  0  0  0  0  0  0  0  0  0  0  0
   -1.3940   -5.7586    8.6152 N   0  0  0  0  0  0  0  0  0  0  0  0
   -0.9376   -5.6477    9.5611 H   0  0  0  0  0  0  0  0  0  0  0  0
   -1.3536   -6.8169    8.4572 H   0  0  0  0  0  0  0  0  0  0  0  0
   -2.9962   -3.8932    8.3143 C   0  0  0  0  0  0  0  0  0  0  0  0
   -3.8240   -3.4963   10.6122 C   0  0  0  0  0  0  0  0  0  0  0  0
   -3.2327   -2.9045    9.3748 C   0  0  0  0  0  0  0  0  0  0  0  0
   -1.8676   -2.2809    9.7232 C   0  0  0  0  0  0  0  0  0  0  0  0
 29 30  1  0  0  0
 30 31  1  0  0  0
 30 28  1  0  0  0
 28 24  1  0  0  0
 24 25  1  0  0  0
 24 20  1  0  0  0
 20 21  2  0  0  0
 20 22  1  0  0  0
 22 17  1  0  0  0
 17 18  2  0  0  0
 17 19  2  0  0  0
 17  1  1  0  0  0
  1  2  2  0  0  0
  2  3  1  0  0  0
  3  4  2  0  0  0
  4  5  1  0  0  0
  5  6  2  0  0  0
  5  7  1  0  0  0
  7  8  2  0  0  0
  8  9  1  0  0  0
  9 10  1  0  0  0
  9 11  2  0  0  0
 11 12  1  0  0  0
 12 13  1  0  0  0
 12 14  2  0  0  0
  6  1  1  0  0  0
 14  7  1  0  0  0
 25 26  1  0  0  0
 25 27  1  0  0  0
 22 23  1  0  0  0
 10 15  1  0  0  0
 10 16  1  0  0  0
M  END
> <minimizedAffinity>
-3.46477

> <CNNscore>
0.3313265741

> <CNNaffinity>
6.0115470886

> <CNN_VS>
1.9917852879

> <CNNaffinity_variance>
0.4485558569

$$$$
[H]c1c(-c2c([H])c([H])c([H])c(S(=O)(=O)N([H])C(=O)[C@@]([H])(N([H])[H])C([H])([H])C([H])(C([H])([H])[H])C([H])([H])[H])c2[H])nc(C([H])([H])[H])nc1N([H])[H]


 31 32  0  0  0  0  0  0  0  0999 V2000
  -12.2593   -8.4196    7.9476 C   0  0  0  0  0  0  0  0  0  0  0  0
  -12.7355   -7.4657    8.8145 C   0  0  0  0  0  0  0  0  0  0  0  0
  -11.9033   -6.4990    9.3977 C   0  0  0  0  0  0  0  0  0  0  0  0
  -10.5699   -6.5577    9.0509 C   0  0  0  0  0  0  0  0  0  0  0  0
  -10.0645   -7.5070    8.1809 C   0  0  0  0  0  0  0  0  0  0  0  0
  -10.9101   -8.4573    7.6152 C   0  0  0  0  0  0  0  0  0  0  0  0
   -8.6560   -7.4674    7.8242 C   0  0  0  0  0  0  0  0  0  0  0  0
   -7.6889   -6.8439    8.5776 C   0  0  0  0  0  0  0  0  0  0  0  0
   -6.3393   -6.8469    8.2364 C   0  0  0  0  0  0  0  0  0  0  0  0
   -5.4020   -6.1848    9.0718 N   0  0  0  0  0  0  0  0  0  0  0  0
   -6.0085   -7.5067    7.1002 N   0  0  0  0  0  0  0  0  0  0  0  0
   -6.9510   -8.1165    6.3626 C   0  0  0  0  0  0  0  0  0  0  0  0
   -6.6220   -8.8654    5.1060 C   0  0  0  0  0  0  0  0  0  0  0  0
   -8.2585   -8.1027    6.7107 N   0  0  0  0  0  0  0  0  0  0  0  0
   -5.5953   -5.2062    9.4208 H   0  0  0  0  0  0  0  0  0  0  0  0
   -4.5001   -6.6334    9.3669 H   0  0  0  0  0  0  0  0  0  0  0  0
  -13.3769   -9.5205    7.1918 S   0  0  0  0  0  0  0  0  0  0  0  0
  -13.3761  -10.7887    8.0504 O   0  0  0  0  0  0  0  0  0  0  0  0
  -12.9206   -9.9618    5.8337 O   0  0  0  0  0  0  0  0  0  0  0  0
  -15.5858   -8.2339    6.0723 C   0  0  0  0  0  0  0  0  0  0  0  0
  -15.0354   -8.1209    4.9704 O   0  0  0  0  0  0  0  0  0  0  0  0
  -14.9606   -8.8393    7.1597 N   0  0  0  0  0  0  0  0  0  0  0  0
  -15.4619   -8.9066    8.1065 H   0  0  0  0  0  0  0  0  0  0  0  0
  -16.9760   -7.6872    6.2293 C   0  0  0  0  0  0  0  0  0  0  0  0
  -17.3954   -7.9283    7.5942 N   0  0  0  0  0  0  0  0  0  0  0  0
  -18.4450   -8.0436    7.6120 H   0  0  0  0  0  0  0  0  0  0  0  0
  -17.0478   -8.8886    7.9161 H   0  0  0  0  0  0  0  0  0  0  0  0
  -16.8407   -6.2285    5.8796 C   0  0  0  0  0  0  0  0  0  0  0  0
  -18.4883   -5.1838    4.3574 C   0  0  0  0  0  0  0  0  0  0  0  0
  -17.1396   -5.8088    4.5039 C   0  0  0  0  0  0  0  0  0  0  0  0
  -16.0662   -4.7788    4.1027 C   0  0  0  0  0  0  0  0  0  0  0  0
 29 30  1  0  0  0
 30 31  1  0  0  0
 30 28  1  0  0  0
 28 24  1  0  0  0
 24 25  1  0  0  0
 24 20  1  0  0  0
 20 21  2  0  0  0
 20 22  1  0  0  0
 22 17  1  0  0  0
 17 18  2  0  0  0
 17 19  2  0  0  0
 17  1  1  0  0  0
  1  2  2  0  0  0
  2  3  1  0  0  0
  3  4  2  0  0  0
  4  5  1  0  0  0
  5  6  2  0  0  0
  5  7  1  0  0  0
  7  8  2  0  0  0
  8  9  1  0  0  0
  9 10  1  0  0  0
  9 11  2  0  0  0
 11 12  1  0  0  0
 12 13  1  0  0  0
 12 14  2  0  0  0
  6  1  1  0  0  0
 14  7  1  0  0  0
 25 26  1  0  0  0
 25 27  1  0  0  0
 22 23  1  0  0  0
 10 15  1  0  0  0
 10 16  1  0  0  0
M  END
> <minimizedAffinity>
-8.90763

> <CNNscore>
0.3253070414

> <CNNaffinity>
6.5820450783

> <CNN_VS>
2.1411855221

> <CNNaffinity_variance>
0.1711554378

$$$$
[H]c1c(-c2c([H])c([H])c([H])c(S(=O)(=O)N([H])C(=O)[C@@]([H])(N([H])[H])C([H])([H])C([H])(C([H])([H])[H])C([H])([H])[H])c2[H])nc(C([H])([H])[H])nc1N([H])[H]


 31 32  0  0  0  0  0  0  0  0999 V2000
  -10.5408   -8.0827    7.9078 C   0  0  0  0  0  0  0  0  0  0  0  0
  -10.4836   -9.4090    7.5530 C   0  0  0  0  0  0  0  0  0  0  0  0
   -9.2961  -10.0216    7.1270 C   0  0  0  0  0  0  0  0  0  0  0  0
   -8.1790   -9.2141    7.0832 C   0  0  0  0  0  0  0  0  0  0  0  0
   -8.2088   -7.8766    7.4348 C   0  0  0  0  0  0  0  0  0  0  0  0
   -9.4000   -7.2903    7.8538 C   0  0  0  0  0  0  0  0  0  0  0  0
   -6.9758   -7.1073    7.4132 C   0  0  0  0  0  0  0  0  0  0  0  0
   -6.4180   -6.5798    6.2720 C   0  0  0  0  0  0  0  0  0  0  0  0
   -5.2542   -5.8160    6.2768 C   0  0  0  0  0  0  0  0  0  0  0  0
   -4.7464   -5.3016    5.0552 N   0  0  0  0  0  0  0  0  0  0  0  0
   -4.6771   -5.6085    7.4850 N   0  0  0  0  0  0  0  0  0  0  0  0
   -5.2197   -6.1224    8.6011 C   0  0  0  0  0  0  0  0  0  0  0  0
   -4.6163   -5.9050    9.9564 C   0  0  0  0  0  0  0  0  0  0  0  0
   -6.3521   -6.8627    8.5763 N   0  0  0  0  0  0  0  0  0  0  0  0
   -4.6622   -5.9258    4.2067 H   0  0  0  0  0  0  0  0  0  0  0  0
   -4.4410   -4.3027    4.9522 H   0  0  0  0  0  0  0  0  0  0  0  0
  -12.0330   -7.4261    8.5197 S   0  0  0  0  0  0  0  0  0  0  0  0
  -11.6820   -6.0716    9.1423 O   0  0  0  0  0  0  0  0  0  0  0  0
  -12.6034   -8.2412    9.6412 O   0  0  0  0  0  0  0  0  0  0  0  0
  -13.9898   -8.1716    6.6750 C   0  0  0  0  0  0  0  0  0  0  0  0
  -13.9942   -9.3452    7.0654 O   0  0  0  0  0  0  0  0  0  0  0  0
  -13.1612   -7.2023    7.2350 N   0  0  0  0  0  0  0  0  0  0  0  0
  -13.1719   -6.1962    6.8611 H   0  0  0  0  0  0  0  0  0  0  0  0
  -14.9120   -7.7955    5.5505 C   0  0  0  0  0  0  0  0  0  0  0  0
  -16.1505   -8.5241    5.7307 N   0  0  0  0  0  0  0  0  0  0  0  0
  -16.5833   -8.6984    4.7833 H   0  0  0  0  0  0  0  0  0  0  0  0
  -15.9410   -9.5146    6.0794 H   0  0  0  0  0  0  0  0  0  0  0  0
  -15.0574   -6.3017    5.6761 C   0  0  0  0  0  0  0  0  0  0  0  0
  -17.0603   -5.1529    4.7864 C   0  0  0  0  0  0  0  0  0  0  0  0
  -15.6423   -5.5592    4.5515 C   0  0  0  0  0  0  0  0  0  0  0  0
  -14.7870   -4.2932    4.3527 C   0  0  0  0  0  0  0  0  0  0  0  0
 29 30  1  0  0  0
 30 31  1  0  0  0
 30 28  1  0  0  0
 28 24  1  0  0  0
 24 25  1  0  0  0
 24 20  1  0  0  0
 20 21  2  0  0  0
 20 22  1  0  0  0
 22 17  1  0  0  0
 17 18  2  0  0  0
 17 19  2  0  0  0
 17  1  1  0  0  0
  1  2  2  0  0  0
  2  3  1  0  0  0
  3  4  2  0  0  0
  4  5  1  0  0  0
  5  6  2  0  0  0
  5  7  1  0  0  0
  7  8  2  0  0  0
  8  9  1  0  0  0
  9 10  1  0  0  0
  9 11  2  0  0  0
 11 12  1  0  0  0
 12 13  1  0  0  0
 12 14  2  0  0  0
  6  1  1  0  0  0
 14  7  1  0  0  0
 25 26  1  0  0  0
 25 27  1  0  0  0
 22 23  1  0  0  0
 10 15  1  0  0  0
 10 16  1  0  0  0
M  END
> <minimizedAffinity>
-8.67664

> <CNNscore>
0.3144663870

> <CNNaffinity>
6.4946775436

> <CNN_VS>
2.0423576832

> <CNNaffinity_variance>
0.0067052976

$$$$
[H]c1c(-c2c([H])c([H])c([H])c(S(=O)(=O)N([H])C(=O)[C@@]([H])(N([H])[H])C([H])([H])C([H])(C([H])([H])[H])C([H])([H])[H])c2[H])nc(C([H])([H])[H])nc1N([H])[H]


 31 32  0  0  0  0  0  0  0  0999 V2000
  -16.5575   -6.6843    4.8287 C   0  0  0  0  0  0  0  0  0  0  0  0
  -16.2469   -5.4411    4.3325 C   0  0  0  0  0  0  0  0  0  0  0  0
  -15.2189   -4.6533    4.8710 C   0  0  0  0  0  0  0  0  0  0  0  0
  -14.5306   -5.1986    5.9342 C   0  0  0  0  0  0  0  0  0  0  0  0
  -14.8226   -6.4473    6.4529 C   0  0  0  0  0  0  0  0  0  0  0  0
  -15.8484   -7.2106    5.9022 C   0  0  0  0  0  0  0  0  0  0  0  0
  -14.0140   -6.9732    7.5402 C   0  0  0  0  0  0  0  0  0  0  0  0
  -13.4775   -6.2004    8.5435 C   0  0  0  0  0  0  0  0  0  0  0  0
  -12.7344   -6.7281    9.5957 C   0  0  0  0  0  0  0  0  0  0  0  0
  -12.2204   -5.8624   10.5963 N   0  0  0  0  0  0  0  0  0  0  0  0
  -12.5557   -8.0712    9.5904 N   0  0  0  0  0  0  0  0  0  0  0  0
  -13.0785   -8.8283    8.6118 C   0  0  0  0  0  0  0  0  0  0  0  0
  -12.9114  -10.3180    8.5782 C   0  0  0  0  0  0  0  0  0  0  0  0
  -13.7984   -8.2968    7.5969 N   0  0  0  0  0  0  0  0  0  0  0  0
  -11.7207   -4.9713   10.3265 H   0  0  0  0  0  0  0  0  0  0  0  0
  -12.3150   -6.0720   11.6204 H   0  0  0  0  0  0  0  0  0  0  0  0
  -17.7823   -7.6372    4.0388 S   0  0  0  0  0  0  0  0  0  0  0  0
  -17.0854   -8.9094    3.5476 O   0  0  0  0  0  0  0  0  0  0  0  0
  -18.3176   -6.9772    2.8036 O   0  0  0  0  0  0  0  0  0  0  0  0
  -19.4315   -9.3331    5.5192 C   0  0  0  0  0  0  0  0  0  0  0  0
  -18.9011  -10.3498    5.0557 O   0  0  0  0  0  0  0  0  0  0  0  0
  -19.0321   -8.0502    5.1527 N   0  0  0  0  0  0  0  0  0  0  0  0
  -19.5250   -7.1895    5.5631 H   0  0  0  0  0  0  0  0  0  0  0  0
  -20.5504   -9.5051    6.5067 C   0  0  0  0  0  0  0  0  0  0  0  0
  -21.6741  -10.0904    5.8054 N   0  0  0  0  0  0  0  0  0  0  0  0
  -22.5679   -9.7670    6.2658 H   0  0  0  0  0  0  0  0  0  0  0  0
  -21.7489   -9.6682    4.8242 H   0  0  0  0  0  0  0  0  0  0  0  0
  -19.9668  -10.3920    7.5750 C   0  0  0  0  0  0  0  0  0  0  0  0
  -21.1192  -12.5727    7.7736 C   0  0  0  0  0  0  0  0  0  0  0  0
  -20.8809  -11.2238    8.3691 C   0  0  0  0  0  0  0  0  0  0  0  0
  -20.2398  -11.3985    9.7592 C   0  0  0  0  0  0  0  0  0  0  0  0
 29 30  1  0  0  0
 30 31  1  0  0  0
 30 28  1  0  0  0
 28 24  1  0  0  0
 24 25  1  0  0  0
 24 20  1  0  0  0
 20 21  2  0  0  0
 20 22  1  0  0  0
 22 17  1  0  0  0
 17 18  2  0  0  0
 17 19  2  0  0  0
 17  1  1  0  0  0
  1  2  2  0  0  0
  2  3  1  0  0  0
  3  4  2  0  0  0
  4  5  1  0  0  0
  5  6  2  0  0  0
  5  7  1  0  0  0
  7  8  2  0  0  0
  8  9  1  0  0  0
  9 10  1  0  0  0
  9 11  2  0  0  0
 11 12  1  0  0  0
 12 13  1  0  0  0
 12 14  2  0  0  0
  6  1  1  0  0  0
 14  7  1  0  0  0
 25 26  1  0  0  0
 25 27  1  0  0  0
 22 23  1  0  0  0
 10 15  1  0  0  0
 10 16  1  0  0  0
M  END
> <minimizedAffinity>
-2.81555

> <CNNscore>
0.2949896753

> <CNNaffinity>
6.4796814919

> <CNN_VS>
1.9114391804

> <CNNaffinity_variance>
0.3236467242

$$$$
[H]c1c(-c2c([H])c([H])c([H])c(S(=O)(=O)N([H])C(=O)[C@@]([H])(N([H])[H])C([H])([H])C([H])(C([H])([H])[H])C([H])([H])[H])c2[H])nc(C([H])([H])[H])nc1N([H])[H]


 31 32  0  0  0  0  0  0  0  0999 V2000
   -6.6590   -6.7894    7.0960 C   0  0  0  0  0  0  0  0  0  0  0  0
   -6.7995   -6.2281    5.8496 C   0  0  0  0  0  0  0  0  0  0  0  0
   -8.0522   -6.0428    5.2465 C   0  0  0  0  0  0  0  0  0  0  0  0
   -9.1448   -6.4577    5.9784 C   0  0  0  0  0  0  0  0  0  0  0  0
   -9.0317   -7.0253    7.2348 C   0  0  0  0  0  0  0  0  0  0  0  0
   -7.7771   -7.2000    7.8126 C   0  0  0  0  0  0  0  0  0  0  0  0
  -10.2361   -7.3863    7.9639 C   0  0  0  0  0  0  0  0  0  0  0  0
  -10.8515   -8.6131    7.8735 C   0  0  0  0  0  0  0  0  0  0  0  0
  -11.9853   -8.9514    8.6068 C   0  0  0  0  0  0  0  0  0  0  0  0
  -12.5568  -10.2425    8.4612 N   0  0  0  0  0  0  0  0  0  0  0  0
  -12.4717   -7.9961    9.4355 N   0  0  0  0  0  0  0  0  0  0  0  0
  -11.8727   -6.7973    9.5257 C   0  0  0  0  0  0  0  0  0  0  0  0
  -12.3750   -5.7196   10.4392 C   0  0  0  0  0  0  0  0  0  0  0  0
  -10.7708   -6.4868    8.8045 N   0  0  0  0  0  0  0  0  0  0  0  0
  -12.7198  -10.6492    7.4996 H   0  0  0  0  0  0  0  0  0  0  0  0
  -12.8340  -10.8285    9.2867 H   0  0  0  0  0  0  0  0  0  0  0  0
   -5.0753   -6.8922    7.8124 S   0  0  0  0  0  0  0  0  0  0  0  0
   -4.4474   -8.1840    7.2809 O   0  0  0  0  0  0  0  0  0  0  0  0
   -5.1269   -7.0608    9.3012 O   0  0  0  0  0  0  0  0  0  0  0  0
   -2.9442   -5.0959    7.9509 C   0  0  0  0  0  0  0  0  0  0  0  0
   -2.4585   -5.6575    8.9402 O   0  0  0  0  0  0  0  0  0  0  0  0
   -4.1147   -5.5401    7.3408 N   0  0  0  0  0  0  0  0  0  0  0  0
   -4.5170   -5.0194    6.4927 H   0  0  0  0  0  0  0  0  0  0  0  0
   -2.2379   -3.8882    7.4039 C   0  0  0  0  0  0  0  0  0  0  0  0
   -1.8301   -3.0677    8.5253 N   0  0  0  0  0  0  0  0  0  0  0  0
   -1.8145   -2.0571    8.2191 H   0  0  0  0  0  0  0  0  0  0  0  0
   -2.5937   -3.0743    9.2760 H   0  0  0  0  0  0  0  0  0  0  0  0
   -1.0896   -4.4585    6.6137 C   0  0  0  0  0  0  0  0  0  0  0  0
   -1.7191   -5.5380    4.4779 C   0  0  0  0  0  0  0  0  0  0  0  0
   -1.1235   -4.3441    5.1495 C   0  0  0  0  0  0  0  0  0  0  0  0
   -1.9759   -3.1056    4.8130 C   0  0  0  0  0  0  0  0  0  0  0  0
 29 30  1  0  0  0
 30 31  1  0  0  0
 30 28  1  0  0  0
 28 24  1  0  0  0
 24 25  1  0  0  0
 24 20  1  0  0  0
 20 21  2  0  0  0
 20 22  1  0  0  0
 22 17  1  0  0  0
 17 18  2  0  0  0
 17 19  2  0  0  0
 17  1  1  0  0  0
  1  2  2  0  0  0
  2  3  1  0  0  0
  3  4  2  0  0  0
  4  5  1  0  0  0
  5  6  2  0  0  0
  5  7  1  0  0  0
  7  8  2  0  0  0
  8  9  1  0  0  0
  9 10  1  0  0  0
  9 11  2  0  0  0
 11 12  1  0  0  0
 12 13  1  0  0  0
 12 14  2  0  0  0
  6  1  1  0  0  0
 14  7  1  0  0  0
 25 26  1  0  0  0
 25 27  1  0  0  0
 22 23  1  0  0  0
 10 15  1  0  0  0
 10 16  1  0  0  0
M  END
> <minimizedAffinity>
-4.12314

> <CNNscore>
0.2723200321

> <CNNaffinity>
5.7912421227

> <CNN_VS>
1.5770711899

> <CNNaffinity_variance>
0.3283669353

$$$$
[H]c1nc([H])c(-c2c([H])c([H])c([H])c3c2nc(-c2nn([H])c4nc([H])c(-c5c([H])nc([H])c(N(C([H])([H])[H])C([H])([H])[H])c5[H])c([H])c24)n3[H])c([H])c1[H]


 35 40  0  0  0  0  0  0  0  0999 V2000
  -13.4772   -7.9107    7.2245 C   0  0  0  0  0  0  0  0  0  0  0  0
  -12.7729   -8.5079    6.2047 C   0  0  0  0  0  0  0  0  0  0  0  0
  -11.4263   -8.6257    6.2580 N   0  0  0  0  0  0  0  0  0  0  0  0
  -10.6904   -8.1808    7.2833 C   0  0  0  0  0  0  0  0  0  0  0  0
   -9.3942   -8.1595    7.5986 N   0  0  0  0  0  0  0  0  0  0  0  0
   -9.2258   -7.5828    8.7622 N   0  0  0  0  0  0  0  0  0  0  0  0
  -10.4322   -7.1849    9.2861 C   0  0  0  0  0  0  0  0  0  0  0  0
  -11.3527   -7.5621    8.3539 C   0  0  0  0  0  0  0  0  0  0  0  0
  -12.7265   -7.4400    8.3033 C   0  0  0  0  0  0  0  0  0  0  0  0
   -8.6729   -8.5694    6.9486 H   0  0  0  0  0  0  0  0  0  0  0  0
  -10.5942   -6.5128   10.5666 C   0  0  0  0  0  0  0  0  0  0  0  0
   -9.5217   -6.2034   11.3739 N   0  0  0  0  0  0  0  0  0  0  0  0
   -9.9247   -5.5920   12.4905 C   0  0  0  0  0  0  0  0  0  0  0  0
   -9.3043   -5.0753   13.6161 C   0  0  0  0  0  0  0  0  0  0  0  0
   -9.9885   -4.4775   14.6527 C   0  0  0  0  0  0  0  0  0  0  0  0
  -11.3612   -4.4019   14.5399 C   0  0  0  0  0  0  0  0  0  0  0  0
  -12.0227   -4.9021   13.4386 C   0  0  0  0  0  0  0  0  0  0  0  0
  -11.2902   -5.4914   12.4277 C   0  0  0  0  0  0  0  0  0  0  0  0
  -11.6473   -6.0669   11.2369 N   0  0  0  0  0  0  0  0  0  0  0  0
  -12.6279   -6.1105   10.9659 H   0  0  0  0  0  0  0  0  0  0  0  0
   -7.8628   -5.1696   13.7075 C   0  0  0  0  0  0  0  0  0  0  0  0
   -7.1379   -6.0618   12.9246 C   0  0  0  0  0  0  0  0  0  0  0  0
   -5.7542   -6.1127   13.0509 C   0  0  0  0  0  0  0  0  0  0  0  0
   -5.0695   -5.3014   13.9338 C   0  0  0  0  0  0  0  0  0  0  0  0
   -5.8028   -4.4475   14.6780 N   0  0  0  0  0  0  0  0  0  0  0  0
   -7.1353   -4.3831   14.5714 C   0  0  0  0  0  0  0  0  0  0  0  0
  -16.9794   -7.1079    6.0752 C   0  0  0  0  0  0  0  0  0  0  0  0
  -17.6737   -7.5612    7.1928 C   0  0  0  0  0  0  0  0  0  0  0  0
  -17.0266   -8.0928    8.2463 N   0  0  0  0  0  0  0  0  0  0  0  0
  -15.6831   -8.2126    8.2735 C   0  0  0  0  0  0  0  0  0  0  0  0
  -14.9250   -7.7763    7.1820 C   0  0  0  0  0  0  0  0  0  0  0  0
  -15.6069   -7.2385    6.1209 C   0  0  0  0  0  0  0  0  0  0  0  0
  -18.1119   -7.3250    3.8300 C   0  0  0  0  0  0  0  0  0  0  0  0
  -17.6809   -6.5487    4.9723 N   0  0  0  0  0  0  0  0  0  0  0  0
  -17.9890   -5.1323    4.9728 C   0  0  0  0  0  0  0  0  0  0  0  0
 33 34  1  0  0  0
 34 35  1  0  0  0
 34 27  1  0  0  0
 27 28  2  0  0  0
 28 29  1  0  0  0
 29 30  2  0  0  0
 30 31  1  0  0  0
 31 32  2  0  0  0
 31  1  1  0  0  0
  1  2  2  0  0  0
  2  3  1  0  0  0
  3  4  2  0  0  0
  4  5  1  0  0  0
  5  6  1  0  0  0
  6  7  2  0  0  0
  7 11  1  0  0  0
 11 12  2  0  0  0
 12 13  1  0  0  0
 13 14  2  0  0  0
 14 15  1  0  0  0
 15 16  2  0  0  0
 16 17  1  0  0  0
 17 18  2  0  0  0
 18 19  1  0  0  0
 14 21  1  0  0  0
 21 22  2  0  0  0
 22 23  1  0  0  0
 23 24  2  0  0  0
 24 25  1  0  0  0
 25 26  2  0  0  0
  7  8  1  0  0  0
  8  9  2  0  0  0
 32 27  1  0  0  0
  9  1  1  0  0  0
  8  4  1  0  0  0
 19 11  1  0  0  0
 26 21  1  0  0  0
 18 13  1  0  0  0
  5 10  1  0  0  0
 19 20  1  0  0  0
M  END
> <minimizedAffinity>
7.56582

> <CNNscore>
0.4923315346

> <CNNaffinity>
7.3819451332

> <CNN_VS>
3.6343643665

> <CNNaffinity_variance>
0.9754267931

$$$$
[H]c1nc([H])c(-c2c([H])c([H])c([H])c3c2nc(-c2nn([H])c4nc([H])c(-c5c([H])nc([H])c(N(C([H])([H])[H])C([H])([H])[H])c5[H])c([H])c24)n3[H])c([H])c1[H]


 35 40  0  0  0  0  0  0  0  0999 V2000
  -11.8291   -7.7178    8.9600 C   0  0  0  0  0  0  0  0  0  0  0  0
  -11.8348   -8.2948   10.2089 C   0  0  0  0  0  0  0  0  0  0  0  0
  -12.9936   -8.6332   10.8194 N   0  0  0  0  0  0  0  0  0  0  0  0
  -14.1977   -8.4377   10.2693 C   0  0  0  0  0  0  0  0  0  0  0  0
  -15.4643   -8.6628   10.6229 N   0  0  0  0  0  0  0  0  0  0  0  0
  -16.2722   -8.2634    9.6729 N   0  0  0  0  0  0  0  0  0  0  0  0
  -15.5616   -7.7417    8.6186 C   0  0  0  0  0  0  0  0  0  0  0  0
  -14.2563   -7.8524    8.9959 C   0  0  0  0  0  0  0  0  0  0  0  0
  -13.0763   -7.5057    8.3697 C   0  0  0  0  0  0  0  0  0  0  0  0
  -15.6961   -9.1032   11.5519 H   0  0  0  0  0  0  0  0  0  0  0  0
  -16.1597   -7.2095    7.4034 C   0  0  0  0  0  0  0  0  0  0  0  0
  -15.8309   -7.6866    6.1537 N   0  0  0  0  0  0  0  0  0  0  0  0
  -16.5097   -7.0414    5.2019 C   0  0  0  0  0  0  0  0  0  0  0  0
  -16.5771   -7.1013    3.8196 C   0  0  0  0  0  0  0  0  0  0  0  0
  -17.3937   -6.2878    3.0637 C   0  0  0  0  0  0  0  0  0  0  0  0
  -18.1744   -5.3751    3.7419 C   0  0  0  0  0  0  0  0  0  0  0  0
  -18.1413   -5.2788    5.1167 C   0  0  0  0  0  0  0  0  0  0  0  0
  -17.3057   -6.1173    5.8271 C   0  0  0  0  0  0  0  0  0  0  0  0
  -17.0547   -6.2610    7.1661 N   0  0  0  0  0  0  0  0  0  0  0  0
  -17.5381   -5.6714    7.8413 H   0  0  0  0  0  0  0  0  0  0  0  0
  -15.7457   -8.0683    3.1348 C   0  0  0  0  0  0  0  0  0  0  0  0
  -16.0898   -9.4146    3.0740 C   0  0  0  0  0  0  0  0  0  0  0  0
  -15.2562  -10.3026    2.4032 C   0  0  0  0  0  0  0  0  0  0  0  0
  -14.0895   -9.8906    1.7905 C   0  0  0  0  0  0  0  0  0  0  0  0
  -13.7853   -8.5783    1.8684 N   0  0  0  0  0  0  0  0  0  0  0  0
  -14.5742   -7.7076    2.5091 C   0  0  0  0  0  0  0  0  0  0  0  0
   -8.4678   -7.9103    7.2583 C   0  0  0  0  0  0  0  0  0  0  0  0
   -8.2740   -6.5518    7.0274 C   0  0  0  0  0  0  0  0  0  0  0  0
   -9.1906   -5.6429    7.4081 N   0  0  0  0  0  0  0  0  0  0  0  0
  -10.3348   -5.9985    8.0281 C   0  0  0  0  0  0  0  0  0  0  0  0
  -10.5918   -7.3481    8.2904 C   0  0  0  0  0  0  0  0  0  0  0  0
   -9.6431   -8.2550    7.8930 C   0  0  0  0  0  0  0  0  0  0  0  0
   -6.6395   -8.6683    5.6919 C   0  0  0  0  0  0  0  0  0  0  0  0
   -7.4875   -8.8552    6.8492 N   0  0  0  0  0  0  0  0  0  0  0  0
   -7.3134  -10.0729    7.6160 C   0  0  0  0  0  0  0  0  0  0  0  0
 33 34  1  0  0  0
 34 35  1  0  0  0
 34 27  1  0  0  0
 27 28  2  0  0  0
 28 29  1  0  0  0
 29 30  2  0  0  0
 30 31  1  0  0  0
 31 32  2  0  0  0
 31  1  1  0  0  0
  1  2  2  0  0  0
  2  3  1  0  0  0
  3  4  2  0  0  0
  4  5  1  0  0  0
  5  6  1  0  0  0
  6  7  2  0  0  0
  7 11  1  0  0  0
 11 12  2  0  0  0
 12 13  1  0  0  0
 13 14  2  0  0  0
 14 15  1  0  0  0
 15 16  2  0  0  0
 16 17  1  0  0  0
 17 18  2  0  0  0
 18 19  1  0  0  0
 14 21  1  0  0  0
 21 22  2  0  0  0
 22 23  1  0  0  0
 23 24  2  0  0  0
 24 25  1  0  0  0
 25 26  2  0  0  0
  7  8  1  0  0  0
  8  9  2  0  0  0
 32 27  1  0  0  0
  9  1  1  0  0  0
  8  4  1  0  0  0
 19 11  1  0  0  0
 26 21  1  0  0  0
 18 13  1  0  0  0
  5 10  1  0  0  0
 19 20  1  0  0  0
M  END
> <minimizedAffinity>
10.19975

> <CNNscore>
0.3976715803

> <CNNaffinity>
7.7651214600

> <CNN_VS>
3.0879681110

> <CNNaffinity_variance>
0.9354732633

$$$$
[H]c1nc([H])c(-c2c([H])c([H])c([H])c3c2nc(-c2nn([H])c4nc([H])c(-c5c([H])nc([H])c(N(C([H])([H])[H])C([H])([H])[H])c5[H])c([H])c24)n3[H])c([H])c1[H]


 35 40  0  0  0  0  0  0  0  0999 V2000
   -4.4905   -5.4841    5.7466 C   0  0  0  0  0  0  0  0  0  0  0  0
   -3.3800   -6.1633    6.1918 C   0  0  0  0  0  0  0  0  0  0  0  0
   -3.4968   -7.2691    6.9623 N   0  0  0  0  0  0  0  0  0  0  0  0
   -4.6745   -7.7775    7.3432 C   0  0  0  0  0  0  0  0  0  0  0  0
   -5.0819   -8.8166    8.0741 N   0  0  0  0  0  0  0  0  0  0  0  0
   -6.3902   -8.8436    8.1238 N   0  0  0  0  0  0  0  0  0  0  0  0
   -6.9250   -7.7978    7.4106 C   0  0  0  0  0  0  0  0  0  0  0  0
   -5.8436   -7.1280    6.9201 C   0  0  0  0  0  0  0  0  0  0  0  0
   -5.7287   -5.9995    6.1339 C   0  0  0  0  0  0  0  0  0  0  0  0
   -4.3857   -9.4742    8.5141 H   0  0  0  0  0  0  0  0  0  0  0  0
   -8.3501   -7.5409    7.2661 C   0  0  0  0  0  0  0  0  0  0  0  0
   -9.1380   -7.1567    8.3287 N   0  0  0  0  0  0  0  0  0  0  0  0
  -10.4052   -6.9824    7.9456 C   0  0  0  0  0  0  0  0  0  0  0  0
  -11.5862   -6.6122    8.5678 C   0  0  0  0  0  0  0  0  0  0  0  0
  -12.7918   -6.5091    7.9075 C   0  0  0  0  0  0  0  0  0  0  0  0
  -12.7967   -6.7944    6.5581 C   0  0  0  0  0  0  0  0  0  0  0  0
  -11.6463   -7.1669    5.8958 C   0  0  0  0  0  0  0  0  0  0  0  0
  -10.4644   -7.2551    6.6037 C   0  0  0  0  0  0  0  0  0  0  0  0
   -9.1871   -7.5899    6.2394 N   0  0  0  0  0  0  0  0  0  0  0  0
   -8.9808   -7.8365    5.2731 H   0  0  0  0  0  0  0  0  0  0  0  0
  -11.5510   -6.3196    9.9850 C   0  0  0  0  0  0  0  0  0  0  0  0
  -11.9951   -7.2369   10.9315 C   0  0  0  0  0  0  0  0  0  0  0  0
  -11.9396   -6.9063   12.2810 C   0  0  0  0  0  0  0  0  0  0  0  0
  -11.4549   -5.6892   12.7170 C   0  0  0  0  0  0  0  0  0  0  0  0
  -11.0323   -4.8227   11.7730 N   0  0  0  0  0  0  0  0  0  0  0  0
  -11.0773   -5.1217   10.4693 C   0  0  0  0  0  0  0  0  0  0  0  0
   -3.3203   -3.0032    3.1569 C   0  0  0  0  0  0  0  0  0  0  0  0
   -4.2528   -1.9983    3.3959 C   0  0  0  0  0  0  0  0  0  0  0  0
   -5.1974   -2.1360    4.3446 N   0  0  0  0  0  0  0  0  0  0  0  0
   -5.2883   -3.2456    5.1066 C   0  0  0  0  0  0  0  0  0  0  0  0
   -4.3816   -4.2936    4.9177 C   0  0  0  0  0  0  0  0  0  0  0  0
   -3.4287   -4.1299    3.9454 C   0  0  0  0  0  0  0  0  0  0  0  0
   -1.0601   -3.5327    2.1659 C   0  0  0  0  0  0  0  0  0  0  0  0
   -2.3296   -2.8387    2.1506 N   0  0  0  0  0  0  0  0  0  0  0  0
   -2.5843   -1.9353    1.0461 C   0  0  0  0  0  0  0  0  0  0  0  0
 33 34  1  0  0  0
 34 35  1  0  0  0
 34 27  1  0  0  0
 27 28  2  0  0  0
 28 29  1  0  0  0
 29 30  2  0  0  0
 30 31  1  0  0  0
 31 32  2  0  0  0
 31  1  1  0  0  0
  1  2  2  0  0  0
  2  3  1  0  0  0
  3  4  2  0  0  0
  4  5  1  0  0  0
  5  6  1  0  0  0
  6  7  2  0  0  0
  7 11  1  0  0  0
 11 12  2  0  0  0
 12 13  1  0  0  0
 13 14  2  0  0  0
 14 15  1  0  0  0
 15 16  2  0  0  0
 16 17  1  0  0  0
 17 18  2  0  0  0
 18 19  1  0  0  0
 14 21  1  0  0  0
 21 22  2  0  0  0
 22 23  1  0  0  0
 23 24  2  0  0  0
 24 25  1  0  0  0
 25 26  2  0  0  0
  7  8  1  0  0  0
  8  9  2  0  0  0
 32 27  1  0  0  0
  9  1  1  0  0  0
  8  4  1  0  0  0
 19 11  1  0  0  0
 26 21  1  0  0  0
 18 13  1  0  0  0
  5 10  1  0  0  0
 19 20  1  0  0  0
M  END
> <minimizedAffinity>
12.66615

> <CNNscore>
0.3563754857

> <CNNaffinity>
6.3780002594

> <CNN_VS>
2.2729630470

> <CNNaffinity_variance>
1.2419700623

$$$$
[H]c1nc([H])c(-c2c([H])c([H])c([H])c3c2nc(-c2nn([H])c4nc([H])c(-c5c([H])nc([H])c(N(C([H])([H])[H])C([H])([H])[H])c5[H])c([H])c24)n3[H])c([H])c1[H]


 35 40  0  0  0  0  0  0  0  0999 V2000
  -14.8962   -8.6961    4.7716 C   0  0  0  0  0  0  0  0  0  0  0  0
  -14.4072   -9.6047    3.8617 C   0  0  0  0  0  0  0  0  0  0  0  0
  -13.1682  -10.1316    3.9938 N   0  0  0  0  0  0  0  0  0  0  0  0
  -12.3399   -9.8175    4.9968 C   0  0  0  0  0  0  0  0  0  0  0  0
  -11.1074  -10.1654    5.3706 N   0  0  0  0  0  0  0  0  0  0  0  0
  -10.7768   -9.5322    6.4681 N   0  0  0  0  0  0  0  0  0  0  0  0
  -11.8000   -8.7145    6.8839 C   0  0  0  0  0  0  0  0  0  0  0  0
  -12.7828   -8.8955    5.9567 C   0  0  0  0  0  0  0  0  0  0  0  0
  -14.0462   -8.3557    5.8255 C   0  0  0  0  0  0  0  0  0  0  0  0
  -10.5467  -10.8576    4.8073 H   0  0  0  0  0  0  0  0  0  0  0  0
  -11.7536   -7.8734    8.0706 C   0  0  0  0  0  0  0  0  0  0  0  0
  -12.5527   -8.1077    9.1680 N   0  0  0  0  0  0  0  0  0  0  0  0
  -12.3277   -7.2039   10.1247 C   0  0  0  0  0  0  0  0  0  0  0  0
  -12.8248   -6.9611   11.3947 C   0  0  0  0  0  0  0  0  0  0  0  0
  -12.3972   -5.9201   12.1907 C   0  0  0  0  0  0  0  0  0  0  0  0
  -11.4234   -5.0914   11.6737 C   0  0  0  0  0  0  0  0  0  0  0  0
  -10.8986   -5.2935   10.4150 C   0  0  0  0  0  0  0  0  0  0  0  0
  -11.3615   -6.3511    9.6580 C   0  0  0  0  0  0  0  0  0  0  0  0
  -11.0466   -6.8028    8.4037 N   0  0  0  0  0  0  0  0  0  0  0  0
  -10.3407   -6.3201    7.8506 H   0  0  0  0  0  0  0  0  0  0  0  0
  -13.8467   -7.8467   11.9110 C   0  0  0  0  0  0  0  0  0  0  0  0
  -13.5612   -8.8086   12.8742 C   0  0  0  0  0  0  0  0  0  0  0  0
  -14.5795   -9.6345   13.3370 C   0  0  0  0  0  0  0  0  0  0  0  0
  -15.8746   -9.5317   12.8696 C   0  0  0  0  0  0  0  0  0  0  0  0
  -16.1174   -8.5886   11.9357 N   0  0  0  0  0  0  0  0  0  0  0  0
  -15.1513   -7.7838   11.4773 C   0  0  0  0  0  0  0  0  0  0  0  0
  -17.7365   -6.2218    4.5682 C   0  0  0  0  0  0  0  0  0  0  0  0
  -18.7834   -7.1216    4.3922 C   0  0  0  0  0  0  0  0  0  0  0  0
  -18.5611   -8.4480    4.3446 N   0  0  0  0  0  0  0  0  0  0  0  0
  -17.3227   -8.9698    4.4642 C   0  0  0  0  0  0  0  0  0  0  0  0
  -16.2260   -8.1204    4.6434 C   0  0  0  0  0  0  0  0  0  0  0  0
  -16.4778   -6.7733    4.6886 C   0  0  0  0  0  0  0  0  0  0  0  0
  -19.2869   -4.2436    4.3360 C   0  0  0  0  0  0  0  0  0  0  0  0
  -17.9916   -4.8240    4.6165 N   0  0  0  0  0  0  0  0  0  0  0  0
  -16.9137   -3.9184    4.9616 C   0  0  0  0  0  0  0  0  0  0  0  0
 33 34  1  0  0  0
 34 35  1  0  0  0
 34 27  1  0  0  0
 27 28  2  0  0  0
 28 29  1  0  0  0
 29 30  2  0  0  0
 30 31  1  0  0  0
 31 32  2  0  0  0
 31  1  1  0  0  0
  1  2  2  0  0  0
  2  3  1  0  0  0
  3  4  2  0  0  0
  4  5  1  0  0  0
  5  6  1  0  0  0
  6  7  2  0  0  0
  7 11  1  0  0  0
 11 12  2  0  0  0
 12 13  1  0  0  0
 13 14  2  0  0  0
 14 15  1  0  0  0
 15 16  2  0  0  0
 16 17  1  0  0  0
 17 18  2  0  0  0
 18 19  1  0  0  0
 14 21  1  0  0  0
 21 22  2  0  0  0
 22 23  1  0  0  0
 23 24  2  0  0  0
 24 25  1  0  0  0
 25 26  2  0  0  0
  7  8  1  0  0  0
  8  9  2  0  0  0
 32 27  1  0  0  0
  9  1  1  0  0  0
  8  4  1  0  0  0
 19 11  1  0  0  0
 26 21  1  0  0  0
 18 13  1  0  0  0
  5 10  1  0  0  0
 19 20  1  0  0  0
M  END
> <minimizedAffinity>
19.54622

> <CNNscore>
0.3460831642

> <CNNaffinity>
7.2777061462

> <CNN_VS>
2.5186915398

> <CNNaffinity_variance>
0.6462551355

$$$$
[H]c1nc([H])c(-c2c([H])c([H])c([H])c3c2nc(-c2nn([H])c4nc([H])c(-c5c([H])nc([H])c(N(C([H])([H])[H])C([H])([H])[H])c5[H])c([H])c24)n3[H])c([H])c1[H]


 35 40  0  0  0  0  0  0  0  0999 V2000
   -9.1753  -10.9020    5.9833 C   0  0  0  0  0  0  0  0  0  0  0  0
  -10.4229  -10.6097    6.4840 C   0  0  0  0  0  0  0  0  0  0  0  0
  -10.6279   -9.5251    7.2661 N   0  0  0  0  0  0  0  0  0  0  0  0
   -9.6557   -8.6709    7.6064 C   0  0  0  0  0  0  0  0  0  0  0  0
   -9.5659   -7.5576    8.3360 N   0  0  0  0  0  0  0  0  0  0  0  0
   -8.3323   -7.1183    8.3327 N   0  0  0  0  0  0  0  0  0  0  0  0
   -7.5262   -7.9400    7.5821 C   0  0  0  0  0  0  0  0  0  0  0  0
   -8.3609   -8.9165    7.1259 C   0  0  0  0  0  0  0  0  0  0  0  0
   -8.1476  -10.0220    6.3277 C   0  0  0  0  0  0  0  0  0  0  0  0
  -10.4143   -7.1547    8.8143 H   0  0  0  0  0  0  0  0  0  0  0  0
   -6.1007   -7.7326    7.3755 C   0  0  0  0  0  0  0  0  0  0  0  0
   -5.3314   -6.9986    8.2512 N   0  0  0  0  0  0  0  0  0  0  0  0
   -4.0597   -6.9522    7.8469 C   0  0  0  0  0  0  0  0  0  0  0  0
   -2.8905   -6.3782    8.3186 C   0  0  0  0  0  0  0  0  0  0  0  0
   -1.6757   -6.4944    7.6776 C   0  0  0  0  0  0  0  0  0  0  0  0
   -1.6487   -7.2249    6.5079 C   0  0  0  0  0  0  0  0  0  0  0  0
   -2.7865   -7.8146    5.9997 C   0  0  0  0  0  0  0  0  0  0  0  0
   -3.9784   -7.6677    6.6807 C   0  0  0  0  0  0  0  0  0  0  0  0
   -5.2480   -8.1214    6.4380 N   0  0  0  0  0  0  0  0  0  0  0  0
   -5.4381   -8.6866    5.6125 H   0  0  0  0  0  0  0  0  0  0  0  0
   -2.9492   -5.6164    9.5480 C   0  0  0  0  0  0  0  0  0  0  0  0
   -3.8678   -4.5874    9.7266 C   0  0  0  0  0  0  0  0  0  0  0  0
   -3.8827   -3.8865   10.9274 C   0  0  0  0  0  0  0  0  0  0  0  0
   -3.0102   -4.1793   11.9567 C   0  0  0  0  0  0  0  0  0  0  0  0
   -2.1323   -5.1830   11.7507 N   0  0  0  0  0  0  0  0  0  0  0  0
   -2.1018   -5.8697   10.6024 C   0  0  0  0  0  0  0  0  0  0  0  0
   -8.3324  -13.0830    3.0230 C   0  0  0  0  0  0  0  0  0  0  0  0
   -8.5139  -14.3257    3.6224 C   0  0  0  0  0  0  0  0  0  0  0  0
   -8.8873  -14.4294    4.9112 N   0  0  0  0  0  0  0  0  0  0  0  0
   -9.1034  -13.3436    5.6822 C   0  0  0  0  0  0  0  0  0  0  0  0
   -8.9385  -12.0643    5.1413 C   0  0  0  0  0  0  0  0  0  0  0  0
   -8.5577  -11.9845    3.8264 C   0  0  0  0  0  0  0  0  0  0  0  0
   -8.0084  -11.7700    0.8919 C   0  0  0  0  0  0  0  0  0  0  0  0
   -7.9382  -12.9941    1.6600 N   0  0  0  0  0  0  0  0  0  0  0  0
   -7.4388  -14.1773    0.9879 C   0  0  0  0  0  0  0  0  0  0  0  0
 33 34  1  0  0  0
 34 35  1  0  0  0
 34 27  1  0  0  0
 27 28  2  0  0  0
 28 29  1  0  0  0
 29 30  2  0  0  0
 30 31  1  0  0  0
 31 32  2  0  0  0
 31  1  1  0  0  0
  1  2  2  0  0  0
  2  3  1  0  0  0
  3  4  2  0  0  0
  4  5  1  0  0  0
  5  6  1  0  0  0
  6  7  2  0  0  0
  7 11  1  0  0  0
 11 12  2  0  0  0
 12 13  1  0  0  0
 13 14  2  0  0  0
 14 15  1  0  0  0
 15 16  2  0  0  0
 16 17  1  0  0  0
 17 18  2  0  0  0
 18 19  1  0  0  0
 14 21  1  0  0  0
 21 22  2  0  0  0
 22 23  1  0  0  0
 23 24  2  0  0  0
 24 25  1  0  0  0
 25 26  2  0  0  0
  7  8  1  0  0  0
  8  9  2  0  0  0
 32 27  1  0  0  0
  9  1  1  0  0  0
  8  4  1  0  0  0
 19 11  1  0  0  0
 26 21  1  0  0  0
 18 13  1  0  0  0
  5 10  1  0  0  0
 19 20  1  0  0  0
M  END
> <minimizedAffinity>
5.73087

> <CNNscore>
0.2721074522

> <CNNaffinity>
6.8903517723

> <CNN_VS>
1.8749160767

> <CNNaffinity_variance>
0.4997206628

$$$$
[H]c1nc([H])c(-c2c([H])c([H])c([H])c3c2nc(-c2nn([H])c4nc([H])c(-c5c([H])nc([H])c(N(C([H])([H])[H])C([H])([H])[H])c5[H])c([H])c24)n3[H])c([H])c1[H]


 35 40  0  0  0  0  0  0  0  0999 V2000
  -13.6251   -8.9727    5.9575 C   0  0  0  0  0  0  0  0  0  0  0  0
  -13.5980   -9.8504    4.8985 C   0  0  0  0  0  0  0  0  0  0  0  0
  -12.4541  -10.4736    4.5337 N   0  0  0  0  0  0  0  0  0  0  0  0
  -11.2858  -10.2895    5.1598 C   0  0  0  0  0  0  0  0  0  0  0  0
  -10.0409  -10.7505    5.0274 N   0  0  0  0  0  0  0  0  0  0  0  0
   -9.2671  -10.2191    5.9404 N   0  0  0  0  0  0  0  0  0  0  0  0
   -9.9802   -9.3595    6.7410 C   0  0  0  0  0  0  0  0  0  0  0  0
  -11.2505   -9.4052    6.2481 C   0  0  0  0  0  0  0  0  0  0  0  0
  -12.4155   -8.7674    6.6234 C   0  0  0  0  0  0  0  0  0  0  0  0
   -9.7981  -11.4417    4.2697 H   0  0  0  0  0  0  0  0  0  0  0  0
   -9.4161   -8.6067    7.8513 C   0  0  0  0  0  0  0  0  0  0  0  0
  -10.1655   -7.7198    8.5926 N   0  0  0  0  0  0  0  0  0  0  0  0
   -9.4273   -7.1552    9.5514 C   0  0  0  0  0  0  0  0  0  0  0  0
   -9.6490   -6.2257   10.5543 C   0  0  0  0  0  0  0  0  0  0  0  0
   -8.6720   -5.8104   11.4335 C   0  0  0  0  0  0  0  0  0  0  0  0
   -7.4170   -6.3635   11.2867 C   0  0  0  0  0  0  0  0  0  0  0  0
   -7.1488   -7.2920   10.3036 C   0  0  0  0  0  0  0  0  0  0  0  0
   -8.1629   -7.6741    9.4484 C   0  0  0  0  0  0  0  0  0  0  0  0
   -8.2099   -8.5524    8.3982 N   0  0  0  0  0  0  0  0  0  0  0  0
   -7.3745   -9.0680    8.1274 H   0  0  0  0  0  0  0  0  0  0  0  0
  -10.9758   -5.6616   10.6840 C   0  0  0  0  0  0  0  0  0  0  0  0
  -12.0202   -6.3763   11.2609 C   0  0  0  0  0  0  0  0  0  0  0  0
  -13.2761   -5.7881   11.3617 C   0  0  0  0  0  0  0  0  0  0  0  0
  -13.5239   -4.5088   10.9052 C   0  0  0  0  0  0  0  0  0  0  0  0
  -12.4891   -3.8434   10.3510 N   0  0  0  0  0  0  0  0  0  0  0  0
  -11.2729   -4.3917   10.2448 C   0  0  0  0  0  0  0  0  0  0  0  0
  -16.8356   -6.9939    5.8665 C   0  0  0  0  0  0  0  0  0  0  0  0
  -17.1435   -7.0355    7.2230 C   0  0  0  0  0  0  0  0  0  0  0  0
  -16.3451   -7.6726    8.0992 N   0  0  0  0  0  0  0  0  0  0  0  0
  -15.2146   -8.2984    7.7115 C   0  0  0  0  0  0  0  0  0  0  0  0
  -14.8469   -8.2946    6.3620 C   0  0  0  0  0  0  0  0  0  0  0  0
  -15.6763   -7.6391    5.4888 C   0  0  0  0  0  0  0  0  0  0  0  0
  -18.4028   -6.9827    3.8880 C   0  0  0  0  0  0  0  0  0  0  0  0
  -17.6914   -6.3153    4.9565 N   0  0  0  0  0  0  0  0  0  0  0  0
  -17.8735   -4.8833    5.0884 C   0  0  0  0  0  0  0  0  0  0  0  0
 33 34  1  0  0  0
 34 35  1  0  0  0
 34 27  1  0  0  0
 27 28  2  0  0  0
 28 29  1  0  0  0
 29 30  2  0  0  0
 30 31  1  0  0  0
 31 32  2  0  0  0
 31  1  1  0  0  0
  1  2  2  0  0  0
  2  3  1  0  0  0
  3  4  2  0  0  0
  4  5  1  0  0  0
  5  6  1  0  0  0
  6  7  2  0  0  0
  7 11  1  0  0  0
 11 12  2  0  0  0
 12 13  1  0  0  0
 13 14  2  0  0  0
 14 15  1  0  0  0
 15 16  2  0  0  0
 16 17  1  0  0  0
 17 18  2  0  0  0
 18 19  1  0  0  0
 14 21  1  0  0  0
 21 22  2  0  0  0
 22 23  1  0  0  0
 23 24  2  0  0  0
 24 25  1  0  0  0
 25 26  2  0  0  0
  7  8  1  0  0  0
  8  9  2  0  0  0
 32 27  1  0  0  0
  9  1  1  0  0  0
  8  4  1  0  0  0
 19 11  1  0  0  0
 26 21  1  0  0  0
 18 13  1  0  0  0
  5 10  1  0  0  0
 19 20  1  0  0  0
M  END
> <minimizedAffinity>
21.47495

> <CNNscore>
0.2650542259

> <CNNaffinity>
7.1406326294

> <CNN_VS>
1.8926548958

> <CNNaffinity_variance>
0.8046342134

$$$$
[H]c1nc([H])c(-c2c([H])c([H])c([H])c3c2nc(-c2nn([H])c4nc([H])c(-c5c([H])nc([H])c(N(C([H])([H])[H])C([H])([H])[H])c5[H])c([H])c24)n3[H])c([H])c1[H]


 35 40  0  0  0  0  0  0  0  0999 V2000
   -9.2650  -10.8580    5.9842 C   0  0  0  0  0  0  0  0  0  0  0  0
  -10.5201  -10.5674    6.4668 C   0  0  0  0  0  0  0  0  0  0  0  0
  -10.7348   -9.4924    7.2594 N   0  0  0  0  0  0  0  0  0  0  0  0
   -9.7655   -8.6466    7.6280 C   0  0  0  0  0  0  0  0  0  0  0  0
   -9.6844   -7.5433    8.3737 N   0  0  0  0  0  0  0  0  0  0  0  0
   -8.4493   -7.1088    8.3978 N   0  0  0  0  0  0  0  0  0  0  0  0
   -7.6332   -7.9239    7.6506 C   0  0  0  0  0  0  0  0  0  0  0  0
   -8.4634   -8.8910    7.1670 C   0  0  0  0  0  0  0  0  0  0  0  0
   -8.2403   -9.9867    6.3581 C   0  0  0  0  0  0  0  0  0  0  0  0
  -10.5396   -7.1434    8.8422 H   0  0  0  0  0  0  0  0  0  0  0  0
   -6.2035   -7.7195    7.4718 C   0  0  0  0  0  0  0  0  0  0  0  0
   -5.4560   -6.9597    8.3445 N   0  0  0  0  0  0  0  0  0  0  0  0
   -4.1752   -6.9221    7.9690 C   0  0  0  0  0  0  0  0  0  0  0  0
   -3.0182   -6.3328    8.4517 C   0  0  0  0  0  0  0  0  0  0  0  0
   -1.7885   -6.4644    7.8429 C   0  0  0  0  0  0  0  0  0  0  0  0
   -1.7330   -7.2272    6.6951 C   0  0  0  0  0  0  0  0  0  0  0  0
   -2.8578   -7.8331    6.1770 C   0  0  0  0  0  0  0  0  0  0  0  0
   -4.0656   -7.6697    6.8254 C   0  0  0  0  0  0  0  0  0  0  0  0
   -5.3285   -8.1325    6.5658 N   0  0  0  0  0  0  0  0  0  0  0  0
   -5.4984   -8.7209    5.7521 H   0  0  0  0  0  0  0  0  0  0  0  0
   -3.1069   -5.5371    9.6577 C   0  0  0  0  0  0  0  0  0  0  0  0
   -2.0266   -5.3991   10.5229 C   0  0  0  0  0  0  0  0  0  0  0  0
   -2.1642   -4.6231   11.6683 C   0  0  0  0  0  0  0  0  0  0  0  0
   -3.3456   -3.9795   11.9788 C   0  0  0  0  0  0  0  0  0  0  0  0
   -4.3736   -4.1343   11.1186 N   0  0  0  0  0  0  0  0  0  0  0  0
   -4.2615   -4.8768   10.0108 C   0  0  0  0  0  0  0  0  0  0  0  0
   -8.4148  -13.0032    2.9999 C   0  0  0  0  0  0  0  0  0  0  0  0
   -8.5719  -14.2531    3.5913 C   0  0  0  0  0  0  0  0  0  0  0  0
   -8.9323  -14.3723    4.8824 N   0  0  0  0  0  0  0  0  0  0  0  0
   -9.1582  -13.2958    5.6636 C   0  0  0  0  0  0  0  0  0  0  0  0
   -9.0178  -12.0101    5.1312 C   0  0  0  0  0  0  0  0  0  0  0  0
   -8.6499  -11.9145    3.8137 C   0  0  0  0  0  0  0  0  0  0  0  0
   -7.7484  -14.0444    0.7993 C   0  0  0  0  0  0  0  0  0  0  0  0
   -8.0341  -12.8978    1.6342 N   0  0  0  0  0  0  0  0  0  0  0  0
   -7.9205  -11.5854    1.0294 C   0  0  0  0  0  0  0  0  0  0  0  0
 33 34  1  0  0  0
 34 35  1  0  0  0
 34 27  1  0  0  0
 27 28  2  0  0  0
 28 29  1  0  0  0
 29 30  2  0  0  0
 30 31  1  0  0  0
 31 32  2  0  0  0
 31  1  1  0  0  0
  1  2  2  0  0  0
  2  3  1  0  0  0
  3  4  2  0  0  0
  4  5  1  0  0  0
  5  6  1  0  0  0
  6  7  2  0  0  0
  7 11  1  0  0  0
 11 12  2  0  0  0
 12 13  1  0  0  0
 13 14  2  0  0  0
 14 15  1  0  0  0
 15 16  2  0  0  0
 16 17  1  0  0  0
 17 18  2  0  0  0
 18 19  1  0  0  0
 14 21  1  0  0  0
 21 22  2  0  0  0
 22 23  1  0  0  0
 23 24  2  0  0  0
 24 25  1  0  0  0
 25 26  2  0  0  0
  7  8  1  0  0  0
  8  9  2  0  0  0
 32 27  1  0  0  0
  9  1  1  0  0  0
  8  4  1  0  0  0
 19 11  1  0  0  0
 26 21  1  0  0  0
 18 13  1  0  0  0
  5 10  1  0  0  0
 19 20  1  0  0  0
M  END
> <minimizedAffinity>
5.30273

> <CNNscore>
0.2386903316

> <CNNaffinity>
6.8247833252

> <CNN_VS>
1.6290098429

> <CNNaffinity_variance>
0.4173378944

$$$$
[H]c1nc([H])c(-c2c([H])c([H])c([H])c3c2nc(-c2nn([H])c4nc([H])c(-c5c([H])nc([H])c(N(C([H])([H])[H])C([H])([H])[H])c5[H])c([H])c24)n3[H])c([H])c1[H]


 35 40  0  0  0  0  0  0  0  0999 V2000
   -9.9404   -7.2850    8.2367 C   0  0  0  0  0  0  0  0  0  0  0  0
   -9.8831   -7.4150    9.6050 C   0  0  0  0  0  0  0  0  0  0  0  0
  -10.9818   -7.2333   10.3731 N   0  0  0  0  0  0  0  0  0  0  0  0
  -12.1831   -6.9201    9.8737 C   0  0  0  0  0  0  0  0  0  0  0  0
  -13.3999   -6.6888   10.3695 N   0  0  0  0  0  0  0  0  0  0  0  0
  -14.2352   -6.4176    9.3982 N   0  0  0  0  0  0  0  0  0  0  0  0
  -13.5957   -6.4574    8.1825 C   0  0  0  0  0  0  0  0  0  0  0  0
  -12.3043   -6.7738    8.4839 C   0  0  0  0  0  0  0  0  0  0  0  0
  -11.1857   -6.9584    7.6968 C   0  0  0  0  0  0  0  0  0  0  0  0
  -13.5791   -6.7372   11.4070 H   0  0  0  0  0  0  0  0  0  0  0  0
  -14.2399   -6.2029    6.9027 C   0  0  0  0  0  0  0  0  0  0  0  0
  -15.3697   -6.8814    6.5019 N   0  0  0  0  0  0  0  0  0  0  0  0
  -15.7700   -6.4725    5.2955 C   0  0  0  0  0  0  0  0  0  0  0  0
  -16.8063   -6.7935    4.4341 C   0  0  0  0  0  0  0  0  0  0  0  0
  -16.9869   -6.1924    3.2069 C   0  0  0  0  0  0  0  0  0  0  0  0
  -16.0754   -5.2242    2.8402 C   0  0  0  0  0  0  0  0  0  0  0  0
  -15.0280   -4.8712    3.6640 C   0  0  0  0  0  0  0  0  0  0  0  0
  -14.8920   -5.5040    4.8834 C   0  0  0  0  0  0  0  0  0  0  0  0
  -13.9803   -5.3780    5.8980 N   0  0  0  0  0  0  0  0  0  0  0  0
  -13.2184   -4.7070    5.8181 H   0  0  0  0  0  0  0  0  0  0  0  0
  -17.7471   -7.8139    4.8451 C   0  0  0  0  0  0  0  0  0  0  0  0
  -17.5684   -9.1512    4.5069 C   0  0  0  0  0  0  0  0  0  0  0  0
  -18.5019  -10.0921    4.9270 C   0  0  0  0  0  0  0  0  0  0  0  0
  -19.6088   -9.7419    5.6744 C   0  0  0  0  0  0  0  0  0  0  0  0
  -19.7520   -8.4367    5.9851 N   0  0  0  0  0  0  0  0  0  0  0  0
  -18.8649   -7.5156    5.5905 C   0  0  0  0  0  0  0  0  0  0  0  0
   -6.5803   -6.8007    6.5916 C   0  0  0  0  0  0  0  0  0  0  0  0
   -6.5885   -7.9229    5.7687 C   0  0  0  0  0  0  0  0  0  0  0  0
   -7.6307   -8.7743    5.7622 N   0  0  0  0  0  0  0  0  0  0  0  0
   -8.7124   -8.5856    6.5462 C   0  0  0  0  0  0  0  0  0  0  0  0
   -8.7681   -7.4770    7.3971 C   0  0  0  0  0  0  0  0  0  0  0  0
   -7.6943   -6.6242    7.3859 C   0  0  0  0  0  0  0  0  0  0  0  0
   -4.8050   -5.4632    7.7874 C   0  0  0  0  0  0  0  0  0  0  0  0
   -5.4702   -5.9127    6.5837 N   0  0  0  0  0  0  0  0  0  0  0  0
   -4.9645   -5.4213    5.3172 C   0  0  0  0  0  0  0  0  0  0  0  0
 33 34  1  0  0  0
 34 35  1  0  0  0
 34 27  1  0  0  0
 27 28  2  0  0  0
 28 29  1  0  0  0
 29 30  2  0  0  0
 30 31  1  0  0  0
 31 32  2  0  0  0
 31  1  1  0  0  0
  1  2  2  0  0  0
  2  3  1  0  0  0
  3  4  2  0  0  0
  4  5  1  0  0  0
  5  6  1  0  0  0
  6  7  2  0  0  0
  7 11  1  0  0  0
 11 12  2  0  0  0
 12 13  1  0  0  0
 13 14  2  0  0  0
 14 15  1  0  0  0
 15 16  2  0  0  0
 16 17  1  0  0  0
 17 18  2  0  0  0
 18 19  1  0  0  0
 14 21  1  0  0  0
 21 22  2  0  0  0
 22 23  1  0  0  0
 23 24  2  0  0  0
 24 25  1  0  0  0
 25 26  2  0  0  0
  7  8  1  0  0  0
  8  9  2  0  0  0
 32 27  1  0  0  0
  9  1  1  0  0  0
  8  4  1  0  0  0
 19 11  1  0  0  0
 26 21  1  0  0  0
 18 13  1  0  0  0
  5 10  1  0  0  0
 19 20  1  0  0  0
M  END
> <minimizedAffinity>
5.03703

> <CNNscore>
0.2371438593

> <CNNaffinity>
7.2860946655

> <CNN_VS>
1.7278525829

> <CNNaffinity_variance>
0.3889729381

$$$$
[H]c1nc([H])c(-c2c([H])c([H])c([H])c3c2nc(-c2nn([H])c4nc([H])c(-c5c([H])nc([H])c(N(C([H])([H])[H])C([H])([H])[H])c5[H])c([H])c24)n3[H])c([H])c1[H]


 35 40  0  0  0  0  0  0  0  0999 V2000
  -14.0453   -8.6540    5.5535 C   0  0  0  0  0  0  0  0  0  0  0  0
  -13.3034   -9.5995    4.8839 C   0  0  0  0  0  0  0  0  0  0  0  0
  -12.1138  -10.0271    5.3657 N   0  0  0  0  0  0  0  0  0  0  0  0
  -11.5777   -9.5746    6.5052 C   0  0  0  0  0  0  0  0  0  0  0  0
  -10.4629   -9.8047    7.2011 N   0  0  0  0  0  0  0  0  0  0  0  0
  -10.4464   -9.0612    8.2790 N   0  0  0  0  0  0  0  0  0  0  0  0
  -11.5774   -8.2840    8.3502 C   0  0  0  0  0  0  0  0  0  0  0  0
  -12.2881   -8.6086    7.2330 C   0  0  0  0  0  0  0  0  0  0  0  0
  -13.5021   -8.1696    6.7448 C   0  0  0  0  0  0  0  0  0  0  0  0
   -9.7482  -10.5013    6.8624 H   0  0  0  0  0  0  0  0  0  0  0  0
  -11.8676   -7.3460    9.4242 C   0  0  0  0  0  0  0  0  0  0  0  0
  -10.9174   -6.9722   10.3489 N   0  0  0  0  0  0  0  0  0  0  0  0
  -11.4230   -6.1058   11.2302 C   0  0  0  0  0  0  0  0  0  0  0  0
  -10.9422   -5.4225   12.3350 C   0  0  0  0  0  0  0  0  0  0  0  0
  -11.7107   -4.5607   13.0879 C   0  0  0  0  0  0  0  0  0  0  0  0
  -13.0232   -4.3866   12.7011 C   0  0  0  0  0  0  0  0  0  0  0  0
  -13.5462   -5.0451   11.6086 C   0  0  0  0  0  0  0  0  0  0  0  0
  -12.7338   -5.8976   10.8881 C   0  0  0  0  0  0  0  0  0  0  0  0
  -12.9537   -6.6757    9.7824 N   0  0  0  0  0  0  0  0  0  0  0  0
  -13.8715   -6.6864    9.3411 H   0  0  0  0  0  0  0  0  0  0  0  0
   -9.5611   -5.6254   12.7181 C   0  0  0  0  0  0  0  0  0  0  0  0
   -8.6356   -6.1866   11.8445 C   0  0  0  0  0  0  0  0  0  0  0  0
   -7.3207   -6.3598   12.2620 C   0  0  0  0  0  0  0  0  0  0  0  0
   -6.8988   -5.9909   13.5238 C   0  0  0  0  0  0  0  0  0  0  0  0
   -7.8217   -5.4498   14.3461 N   0  0  0  0  0  0  0  0  0  0  0  0
   -9.0921   -5.2746   13.9634 C   0  0  0  0  0  0  0  0  0  0  0  0
  -16.8658   -6.4059    4.4480 C   0  0  0  0  0  0  0  0  0  0  0  0
  -17.7817   -7.3872    4.0811 C   0  0  0  0  0  0  0  0  0  0  0  0
  -17.4837   -8.6948    4.1928 N   0  0  0  0  0  0  0  0  0  0  0  0
  -16.2919   -9.1185    4.6621 C   0  0  0  0  0  0  0  0  0  0  0  0
  -15.3259   -8.1837    5.0485 C   0  0  0  0  0  0  0  0  0  0  0  0
  -15.6530   -6.8578    4.9255 C   0  0  0  0  0  0  0  0  0  0  0  0
  -16.2460   -4.0141    3.9325 C   0  0  0  0  0  0  0  0  0  0  0  0
  -17.1995   -5.0296    4.3233 N   0  0  0  0  0  0  0  0  0  0  0  0
  -18.5571   -4.6019    4.5972 C   0  0  0  0  0  0  0  0  0  0  0  0
 33 34  1  0  0  0
 34 35  1  0  0  0
 34 27  1  0  0  0
 27 28  2  0  0  0
 28 29  1  0  0  0
 29 30  2  0  0  0
 30 31  1  0  0  0
 31 32  2  0  0  0
 31  1  1  0  0  0
  1  2  2  0  0  0
  2  3  1  0  0  0
  3  4  2  0  0  0
  4  5  1  0  0  0
  5  6  1  0  0  0
  6  7  2  0  0  0
  7 11  1  0  0  0
 11 12  2  0  0  0
 12 13  1  0  0  0
 13 14  2  0  0  0
 14 15  1  0  0  0
 15 16  2  0  0  0
 16 17  1  0  0  0
 17 18  2  0  0  0
 18 19  1  0  0  0
 14 21  1  0  0  0
 21 22  2  0  0  0
 22 23  1  0  0  0
 23 24  2  0  0  0
 24 25  1  0  0  0
 25 26  2  0  0  0
  7  8  1  0  0  0
  8  9  2  0  0  0
 32 27  1  0  0  0
  9  1  1  0  0  0
  8  4  1  0  0  0
 19 11  1  0  0  0
 26 21  1  0  0  0
 18 13  1  0  0  0
  5 10  1  0  0  0
 19 20  1  0  0  0
M  END
> <minimizedAffinity>
12.07642

> <CNNscore>
0.2352364063

> <CNNaffinity>
7.1125702858

> <CNN_VS>
1.6731355190

> <CNNaffinity_variance>
0.5436026454

$$$$
[H]c1nc([H])n(C([H])([H])[C@@]2(c3c([H])c([H])c(Cl)c([H])c3Cl)OC([H])([H])[C@@]([H])(C([H])([H])Oc3c([H])c([H])c(N4C([H])([H])C([H])([H])N(S(=O)(=O)C([H])([H])[H])C([H])([H])C4([H])[H])c([H])c3[H])O2)c1[H]


 37 41  0  0  0  0  0  0  0  0999 V2000
   -4.8969   -6.5582    6.8204 C   0  0  0  0  0  0  0  0  0  0  0  0
   -3.8985   -7.6645    6.9219 C   0  0  0  0  0  0  0  0  0  0  0  0
   -2.6817   -7.0422    7.0494 O   0  0  0  0  0  0  0  0  0  0  0  0
   -2.8704   -5.6721    6.7930 C   0  0  0  0  0  0  0  0  0  0  0  0
   -4.1876   -5.3741    7.0174 O   0  0  0  0  0  0  0  0  0  0  0  0
   -2.5160   -5.4128    5.3945 C   0  0  0  0  0  0  0  0  0  0  0  0
   -1.7846   -6.3433    4.6707 C   0  0  0  0  0  0  0  0  0  0  0  0
   -1.4061   -6.1563    3.3609 C   0  0  0  0  0  0  0  0  0  0  0  0
   -1.7591   -4.9961    2.7155 C   0  0  0  0  0  0  0  0  0  0  0  0
   -1.2785   -4.7492    1.0399 Cl  0  0  0  0  0  0  0  0  0  0  0  0
   -2.4858   -4.0517    3.4055 C   0  0  0  0  0  0  0  0  0  0  0  0
   -2.8604   -4.2583    4.7314 C   0  0  0  0  0  0  0  0  0  0  0  0
   -3.8079   -2.9935    5.5144 Cl  0  0  0  0  0  0  0  0  0  0  0  0
   -6.0169   -6.6614    7.8028 C   0  0  0  0  0  0  0  0  0  0  0  0
   -6.6214   -7.9130    7.6677 O   0  0  0  0  0  0  0  0  0  0  0  0
  -10.8141   -8.4323    7.7028 C   0  0  0  0  0  0  0  0  0  0  0  0
   -9.9489   -9.4693    7.3418 C   0  0  0  0  0  0  0  0  0  0  0  0
   -8.5805   -9.3140    7.3259 C   0  0  0  0  0  0  0  0  0  0  0  0
   -7.9942   -8.1141    7.6695 C   0  0  0  0  0  0  0  0  0  0  0  0
   -8.8367   -7.0850    8.0270 C   0  0  0  0  0  0  0  0  0  0  0  0
  -10.2291   -7.2370    8.0452 C   0  0  0  0  0  0  0  0  0  0  0  0
  -14.7801   -8.5695    6.6612 N   0  0  0  0  0  0  0  0  0  0  0  0
  -13.7749   -9.3528    6.0378 C   0  0  0  0  0  0  0  0  0  0  0  0
  -12.8024   -9.8608    7.1096 C   0  0  0  0  0  0  0  0  0  0  0  0
  -12.2062   -8.6834    7.6909 N   0  0  0  0  0  0  0  0  0  0  0  0
  -13.1328   -7.7355    8.2827 C   0  0  0  0  0  0  0  0  0  0  0  0
  -14.5446   -8.1896    8.0065 C   0  0  0  0  0  0  0  0  0  0  0  0
  -15.3666   -7.6996    3.9602 C   0  0  0  0  0  0  0  0  0  0  0  0
  -15.4230   -7.3263    5.6778 S   0  0  0  0  0  0  0  0  0  0  0  0
  -14.6111   -6.0817    5.9078 O   0  0  0  0  0  0  0  0  0  0  0  0
  -16.8337   -6.9994    6.1157 O   0  0  0  0  0  0  0  0  0  0  0  0
   -2.0088   -4.9462    7.8079 C   0  0  0  0  0  0  0  0  0  0  0  0
   -2.7516   -4.4628    8.9460 N   0  0  0  0  0  0  0  0  0  0  0  0
   -3.2029   -5.2215    9.9506 C   0  0  0  0  0  0  0  0  0  0  0  0
   -3.8605   -4.4122   10.8371 C   0  0  0  0  0  0  0  0  0  0  0  0
   -3.7958   -3.1641   10.3497 N   0  0  0  0  0  0  0  0  0  0  0  0
   -3.1187   -3.1975    9.1958 C   0  0  0  0  0  0  0  0  0  0  0  0
 28 29  1  0  0  0
 29 30  2  0  0  0
 29 31  2  0  0  0
 29 22  1  0  0  0
 22 23  1  0  0  0
 23 24  1  0  0  0
 24 25  1  0  0  0
 25 26  1  0  0  0
 26 27  1  0  0  0
 25 16  1  0  0  0
 16 17  2  0  0  0
 17 18  1  0  0  0
 18 19  2  0  0  0
 19 15  1  0  0  0
 15 14  1  0  0  0
 14  1  1  0  0  0
  1  2  1  0  0  0
  2  3  1  0  0  0
  3  4  1  0  0  0
  4 32  1  0  0  0
 32 33  1  0  0  0
 33 34  1  0  0  0
 34 35  2  0  0  0
 35 36  1  0  0  0
 36 37  2  0  0  0
  4  5  1  0  0  0
  4  6  1  0  0  0
  6  7  2  0  0  0
  7  8  1  0  0  0
  8  9  2  0  0  0
  9 10  1  0  0  0
  9 11  1  0  0  0
 11 12  2  0  0  0
 12 13  1  0  0  0
 19 20  1  0  0  0
 20 21  2  0  0  0
 27 22  1  0  0  0
 21 16  1  0  0  0
  5  1  1  0  0  0
 12  6  1  0  0  0
 37 33  1  0  0  0
M  END
> <minimizedAffinity>
-7.94196

> <CNNscore>
0.4782997966

> <CNNaffinity>
6.8893675804

> <CNN_VS>
3.2951831818

> <CNNaffinity_variance>
0.0958523676

$$$$
[H]c1nc([H])n(C([H])([H])[C@@]2(c3c([H])c([H])c(Cl)c([H])c3Cl)OC([H])([H])[C@@]([H])(C([H])([H])Oc3c([H])c([H])c(N4C([H])([H])C([H])([H])N(S(=O)(=O)C([H])([H])[H])C([H])([H])C4([H])[H])c([H])c3[H])O2)c1[H]


 37 41  0  0  0  0  0  0  0  0999 V2000
   -5.5089   -6.0847    7.4273 C   0  0  0  0  0  0  0  0  0  0  0  0
   -5.3696   -6.6170    6.0386 C   0  0  0  0  0  0  0  0  0  0  0  0
   -4.0753   -6.3411    5.6744 O   0  0  0  0  0  0  0  0  0  0  0  0
   -3.5277   -5.4854    6.6472 C   0  0  0  0  0  0  0  0  0  0  0  0
   -4.2407   -5.6451    7.8049 O   0  0  0  0  0  0  0  0  0  0  0  0
   -3.6380   -4.1068    6.1618 C   0  0  0  0  0  0  0  0  0  0  0  0
   -3.9730   -3.8519    4.8398 C   0  0  0  0  0  0  0  0  0  0  0  0
   -4.0786   -2.5836    4.3162 C   0  0  0  0  0  0  0  0  0  0  0  0
   -3.8447   -1.4980    5.1249 C   0  0  0  0  0  0  0  0  0  0  0  0
   -3.9774    0.1278    4.4624 Cl  0  0  0  0  0  0  0  0  0  0  0  0
   -3.5102   -1.7163    6.4427 C   0  0  0  0  0  0  0  0  0  0  0  0
   -3.4082   -3.0077    6.9556 C   0  0  0  0  0  0  0  0  0  0  0  0
   -2.9946   -3.1736    8.6620 Cl  0  0  0  0  0  0  0  0  0  0  0  0
   -6.0252   -7.0839    8.4097 C   0  0  0  0  0  0  0  0  0  0  0  0
   -6.6917   -8.0959    7.7156 O   0  0  0  0  0  0  0  0  0  0  0  0
  -10.8787   -8.6580    7.6560 C   0  0  0  0  0  0  0  0  0  0  0  0
  -10.3063   -7.4457    8.0522 C   0  0  0  0  0  0  0  0  0  0  0  0
   -8.9433   -7.2487    8.0764 C   0  0  0  0  0  0  0  0  0  0  0  0
   -8.0706   -8.2501    7.7066 C   0  0  0  0  0  0  0  0  0  0  0  0
   -8.6231   -9.4491    7.3143 C   0  0  0  0  0  0  0  0  0  0  0  0
  -10.0083   -9.6554    7.2875 C   0  0  0  0  0  0  0  0  0  0  0  0
  -14.8495   -8.4228    6.6512 N   0  0  0  0  0  0  0  0  0  0  0  0
  -13.9339   -9.3164    6.0383 C   0  0  0  0  0  0  0  0  0  0  0  0
  -13.0054   -9.8942    7.1136 C   0  0  0  0  0  0  0  0  0  0  0  0
  -12.2889   -8.7692    7.6618 N   0  0  0  0  0  0  0  0  0  0  0  0
  -13.1102   -7.7204    8.2386 C   0  0  0  0  0  0  0  0  0  0  0  0
  -14.5630   -8.0376    7.9850 C   0  0  0  0  0  0  0  0  0  0  0  0
  -17.1252   -6.9669    5.6035 C   0  0  0  0  0  0  0  0  0  0  0  0
  -15.3760   -7.1445    5.6439 S   0  0  0  0  0  0  0  0  0  0  0  0
  -14.9073   -7.4294    4.2438 O   0  0  0  0  0  0  0  0  0  0  0  0
  -14.7091   -5.8518    6.0597 O   0  0  0  0  0  0  0  0  0  0  0  0
   -2.1061   -5.9685    6.8596 C   0  0  0  0  0  0  0  0  0  0  0  0
   -1.9653   -7.3990    6.7411 N   0  0  0  0  0  0  0  0  0  0  0  0
   -1.5022   -8.0413    5.6634 C   0  0  0  0  0  0  0  0  0  0  0  0
   -1.5193   -9.3847    5.9246 C   0  0  0  0  0  0  0  0  0  0  0  0
   -1.9974   -9.5352    7.1689 N   0  0  0  0  0  0  0  0  0  0  0  0
   -2.2687   -8.3223    7.6651 C   0  0  0  0  0  0  0  0  0  0  0  0
 28 29  1  0  0  0
 29 30  2  0  0  0
 29 31  2  0  0  0
 29 22  1  0  0  0
 22 23  1  0  0  0
 23 24  1  0  0  0
 24 25  1  0  0  0
 25 26  1  0  0  0
 26 27  1  0  0  0
 25 16  1  0  0  0
 16 17  2  0  0  0
 17 18  1  0  0  0
 18 19  2  0  0  0
 19 15  1  0  0  0
 15 14  1  0  0  0
 14  1  1  0  0  0
  1  2  1  0  0  0
  2  3  1  0  0  0
  3  4  1  0  0  0
  4 32  1  0  0  0
 32 33  1  0  0  0
 33 34  1  0  0  0
 34 35  2  0  0  0
 35 36  1  0  0  0
 36 37  2  0  0  0
  4  5  1  0  0  0
  4  6  1  0  0  0
  6  7  2  0  0  0
  7  8  1  0  0  0
  8  9  2  0  0  0
  9 10  1  0  0  0
  9 11  1  0  0  0
 11 12  2  0  0  0
 12 13  1  0  0  0
 19 20  1  0  0  0
 20 21  2  0  0  0
 27 22  1  0  0  0
 21 16  1  0  0  0
  5  1  1  0  0  0
 12  6  1  0  0  0
 37 33  1  0  0  0
M  END
> <minimizedAffinity>
-7.94978

> <CNNscore>
0.4089765549

> <CNNaffinity>
6.9028992653

> <CNN_VS>
2.8231239319

> <CNNaffinity_variance>
0.0705511346

$$$$
[H]c1nc([H])n(C([H])([H])[C@@]2(c3c([H])c([H])c(Cl)c([H])c3Cl)OC([H])([H])[C@@]([H])(C([H])([H])Oc3c([H])c([H])c(N4C([H])([H])C([H])([H])N(S(=O)(=O)C([H])([H])[H])C([H])([H])C4([H])[H])c([H])c3[H])O2)c1[H]


 37 41  0  0  0  0  0  0  0  0999 V2000
   -5.1479   -6.2527    7.4331 C   0  0  0  0  0  0  0  0  0  0  0  0
   -5.3621   -6.0427    5.9698 C   0  0  0  0  0  0  0  0  0  0  0  0
   -4.1342   -5.6822    5.4733 O   0  0  0  0  0  0  0  0  0  0  0  0
   -3.2832   -5.4377    6.5663 C   0  0  0  0  0  0  0  0  0  0  0  0
   -3.7779   -6.1114    7.6505 O   0  0  0  0  0  0  0  0  0  0  0  0
   -3.2661   -3.9945    6.8221 C   0  0  0  0  0  0  0  0  0  0  0  0
   -3.1005   -3.5114    8.1121 C   0  0  0  0  0  0  0  0  0  0  0  0
   -3.0900   -2.1709    8.4234 C   0  0  0  0  0  0  0  0  0  0  0  0
   -3.2498   -1.2443    7.4218 C   0  0  0  0  0  0  0  0  0  0  0  0
   -3.2379    0.4725    7.8119 Cl  0  0  0  0  0  0  0  0  0  0  0  0
   -3.4162   -1.6906    6.1299 C   0  0  0  0  0  0  0  0  0  0  0  0
   -3.4240   -3.0519    5.8334 C   0  0  0  0  0  0  0  0  0  0  0  0
   -3.6229   -3.5140    4.1430 Cl  0  0  0  0  0  0  0  0  0  0  0  0
   -5.6176   -7.5805    7.9293 C   0  0  0  0  0  0  0  0  0  0  0  0
   -6.5722   -8.0817    7.0418 O   0  0  0  0  0  0  0  0  0  0  0  0
  -10.7107   -8.3373    7.8525 C   0  0  0  0  0  0  0  0  0  0  0  0
  -10.0137   -7.1307    7.9649 C   0  0  0  0  0  0  0  0  0  0  0  0
   -8.6649   -7.0330    7.7038 C   0  0  0  0  0  0  0  0  0  0  0  0
   -7.9315   -8.1340    7.3150 C   0  0  0  0  0  0  0  0  0  0  0  0
   -8.6076   -9.3284    7.2008 C   0  0  0  0  0  0  0  0  0  0  0  0
   -9.9791   -9.4340    7.4648 C   0  0  0  0  0  0  0  0  0  0  0  0
  -14.7994   -8.4032    7.5198 N   0  0  0  0  0  0  0  0  0  0  0  0
  -13.9744   -9.5388    7.3145 C   0  0  0  0  0  0  0  0  0  0  0  0
  -12.8609   -9.5436    8.3692 C   0  0  0  0  0  0  0  0  0  0  0  0
  -12.0958   -8.3429    8.1401 N   0  0  0  0  0  0  0  0  0  0  0  0
  -12.8386   -7.0983    8.2203 C   0  0  0  0  0  0  0  0  0  0  0  0
  -14.3033   -7.4102    8.4016 C   0  0  0  0  0  0  0  0  0  0  0  0
  -14.9321   -8.5481    4.6290 C   0  0  0  0  0  0  0  0  0  0  0  0
  -15.5261   -7.7874    6.0991 S   0  0  0  0  0  0  0  0  0  0  0  0
  -15.2189   -6.3177    6.0163 O   0  0  0  0  0  0  0  0  0  0  0  0
  -17.0314   -7.9011    6.1984 O   0  0  0  0  0  0  0  0  0  0  0  0
   -1.9412   -6.0260    6.1761 C   0  0  0  0  0  0  0  0  0  0  0  0
   -1.7625   -7.3861    6.6218 N   0  0  0  0  0  0  0  0  0  0  0  0
   -1.1278   -7.7537    7.7399 C   0  0  0  0  0  0  0  0  0  0  0  0
   -1.1592   -9.1196    7.8215 C   0  0  0  0  0  0  0  0  0  0  0  0
   -1.8192   -9.5610    6.7402 N   0  0  0  0  0  0  0  0  0  0  0  0
   -2.1864   -8.5015    6.0097 C   0  0  0  0  0  0  0  0  0  0  0  0
 28 29  1  0  0  0
 29 30  2  0  0  0
 29 31  2  0  0  0
 29 22  1  0  0  0
 22 23  1  0  0  0
 23 24  1  0  0  0
 24 25  1  0  0  0
 25 26  1  0  0  0
 26 27  1  0  0  0
 25 16  1  0  0  0
 16 17  2  0  0  0
 17 18  1  0  0  0
 18 19  2  0  0  0
 19 15  1  0  0  0
 15 14  1  0  0  0
 14  1  1  0  0  0
  1  2  1  0  0  0
  2  3  1  0  0  0
  3  4  1  0  0  0
  4 32  1  0  0  0
 32 33  1  0  0  0
 33 34  1  0  0  0
 34 35  2  0  0  0
 35 36  1  0  0  0
 36 37  2  0  0  0
  4  5  1  0  0  0
  4  6  1  0  0  0
  6  7  2  0  0  0
  7  8  1  0  0  0
  8  9  2  0  0  0
  9 10  1  0  0  0
  9 11  1  0  0  0
 11 12  2  0  0  0
 12 13  1  0  0  0
 19 20  1  0  0  0
 20 21  2  0  0  0
 27 22  1  0  0  0
 21 16  1  0  0  0
  5  1  1  0  0  0
 12  6  1  0  0  0
 37 33  1  0  0  0
M  END
> <minimizedAffinity>
-7.75507

> <CNNscore>
0.4062919617

> <CNNaffinity>
6.7892775536

> <CNN_VS>
2.7584288120

> <CNNaffinity_variance>
0.1802548468

$$$$
[H]c1nc([H])n(C([H])([H])[C@@]2(c3c([H])c([H])c(Cl)c([H])c3Cl)OC([H])([H])[C@@]([H])(C([H])([H])Oc3c([H])c([H])c(N4C([H])([H])C([H])([H])N(S(=O)(=O)C([H])([H])[H])C([H])([H])C4([H])[H])c([H])c3[H])O2)c1[H]


 37 41  0  0  0  0  0  0  0  0999 V2000
   -4.9824   -5.9009    6.7044 C   0  0  0  0  0  0  0  0  0  0  0  0
   -4.3208   -5.2230    5.5494 C   0  0  0  0  0  0  0  0  0  0  0  0
   -3.0311   -4.9907    5.9575 O   0  0  0  0  0  0  0  0  0  0  0  0
   -2.9599   -5.2651    7.3353 C   0  0  0  0  0  0  0  0  0  0  0  0
   -3.9840   -6.1159    7.6537 O   0  0  0  0  0  0  0  0  0  0  0  0
   -3.0970   -4.0007    8.0639 C   0  0  0  0  0  0  0  0  0  0  0  0
   -3.0214   -2.7899    7.3907 C   0  0  0  0  0  0  0  0  0  0  0  0
   -3.1265   -1.5681    8.0153 C   0  0  0  0  0  0  0  0  0  0  0  0
   -3.3165   -1.5195    9.3750 C   0  0  0  0  0  0  0  0  0  0  0  0
   -3.4517    0.0397   10.1815 Cl  0  0  0  0  0  0  0  0  0  0  0  0
   -3.3963   -2.7036   10.0732 C   0  0  0  0  0  0  0  0  0  0  0  0
   -3.2879   -3.9315    9.4239 C   0  0  0  0  0  0  0  0  0  0  0  0
   -3.4256   -5.3870   10.4104 Cl  0  0  0  0  0  0  0  0  0  0  0  0
   -5.6472   -7.1902    6.3498 C   0  0  0  0  0  0  0  0  0  0  0  0
   -6.2908   -7.6923    7.4828 O   0  0  0  0  0  0  0  0  0  0  0  0
  -10.4436   -8.4420    7.6878 C   0  0  0  0  0  0  0  0  0  0  0  0
   -9.5284   -9.4559    7.3901 C   0  0  0  0  0  0  0  0  0  0  0  0
   -8.1722   -9.2257    7.3200 C   0  0  0  0  0  0  0  0  0  0  0  0
   -7.6490   -7.9696    7.5429 C   0  0  0  0  0  0  0  0  0  0  0  0
   -8.5412   -6.9625    7.8371 C   0  0  0  0  0  0  0  0  0  0  0  0
   -9.9213   -7.1905    7.9099 C   0  0  0  0  0  0  0  0  0  0  0  0
  -14.4491   -8.7567    6.8573 N   0  0  0  0  0  0  0  0  0  0  0  0
  -13.4399   -9.4518    6.1426 C   0  0  0  0  0  0  0  0  0  0  0  0
  -12.3819   -9.9525    7.1337 C   0  0  0  0  0  0  0  0  0  0  0  0
  -11.8184   -8.7712    7.7391 N   0  0  0  0  0  0  0  0  0  0  0  0
  -12.7600   -7.9059    8.4262 C   0  0  0  0  0  0  0  0  0  0  0  0
  -14.1584   -8.4264    8.2050 C   0  0  0  0  0  0  0  0  0  0  0  0
  -16.9638   -7.5073    6.1427 C   0  0  0  0  0  0  0  0  0  0  0  0
  -15.2135   -7.5081    5.9727 S   0  0  0  0  0  0  0  0  0  0  0  0
  -14.8899   -7.7012    4.5170 O   0  0  0  0  0  0  0  0  0  0  0  0
  -14.6302   -6.1678    6.3627 O   0  0  0  0  0  0  0  0  0  0  0  0
   -1.6343   -5.9721    7.5410 C   0  0  0  0  0  0  0  0  0  0  0  0
   -1.6804   -7.3772    7.2187 N   0  0  0  0  0  0  0  0  0  0  0  0
   -1.7532   -8.3707    8.1110 C   0  0  0  0  0  0  0  0  0  0  0  0
   -1.7738   -9.5578    7.4302 C   0  0  0  0  0  0  0  0  0  0  0  0
   -1.7124   -9.2606    6.1235 N   0  0  0  0  0  0  0  0  0  0  0  0
   -1.6556   -7.9295    5.9970 C   0  0  0  0  0  0  0  0  0  0  0  0
 28 29  1  0  0  0
 29 30  2  0  0  0
 29 31  2  0  0  0
 29 22  1  0  0  0
 22 23  1  0  0  0
 23 24  1  0  0  0
 24 25  1  0  0  0
 25 26  1  0  0  0
 26 27  1  0  0  0
 25 16  1  0  0  0
 16 17  2  0  0  0
 17 18  1  0  0  0
 18 19  2  0  0  0
 19 15  1  0  0  0
 15 14  1  0  0  0
 14  1  1  0  0  0
  1  2  1  0  0  0
  2  3  1  0  0  0
  3  4  1  0  0  0
  4 32  1  0  0  0
 32 33  1  0  0  0
 33 34  1  0  0  0
 34 35  2  0  0  0
 35 36  1  0  0  0
 36 37  2  0  0  0
  4  5  1  0  0  0
  4  6  1  0  0  0
  6  7  2  0  0  0
  7  8  1  0  0  0
  8  9  2  0  0  0
  9 10  1  0  0  0
  9 11  1  0  0  0
 11 12  2  0  0  0
 12 13  1  0  0  0
 19 20  1  0  0  0
 20 21  2  0  0  0
 27 22  1  0  0  0
 21 16  1  0  0  0
  5  1  1  0  0  0
 12  6  1  0  0  0
 37 33  1  0  0  0
M  END
> <minimizedAffinity>
-7.48778

> <CNNscore>
0.3983873129

> <CNNaffinity>
6.7429900169

> <CNN_VS>
2.6863217354

> <CNNaffinity_variance>
0.0573087558

$$$$
[H]c1nc([H])n(C([H])([H])[C@@]2(c3c([H])c([H])c(Cl)c([H])c3Cl)OC([H])([H])[C@@]([H])(C([H])([H])Oc3c([H])c([H])c(N4C([H])([H])C([H])([H])N(S(=O)(=O)C([H])([H])[H])C([H])([H])C4([H])[H])c([H])c3[H])O2)c1[H]


 37 41  0  0  0  0  0  0  0  0999 V2000
  -13.5458   -7.3963    9.9326 C   0  0  0  0  0  0  0  0  0  0  0  0
  -13.0047   -8.7678    9.6931 C   0  0  0  0  0  0  0  0  0  0  0  0
  -12.1886   -8.6475    8.5961 O   0  0  0  0  0  0  0  0  0  0  0  0
  -12.3986   -7.3720    8.0415 C   0  0  0  0  0  0  0  0  0  0  0  0
  -12.9033   -6.5594    9.0209 O   0  0  0  0  0  0  0  0  0  0  0  0
  -13.3547   -7.5018    6.9382 C   0  0  0  0  0  0  0  0  0  0  0  0
  -14.2019   -6.4517    6.6151 C   0  0  0  0  0  0  0  0  0  0  0  0
  -15.1318   -6.5126    5.6025 C   0  0  0  0  0  0  0  0  0  0  0  0
  -15.2457   -7.6623    4.8592 C   0  0  0  0  0  0  0  0  0  0  0  0
  -16.4331   -7.7483    3.5622 Cl  0  0  0  0  0  0  0  0  0  0  0  0
  -14.4193   -8.7236    5.1539 C   0  0  0  0  0  0  0  0  0  0  0  0
  -13.4833   -8.6437    6.1828 C   0  0  0  0  0  0  0  0  0  0  0  0
  -12.4606  -10.0532    6.4619 Cl  0  0  0  0  0  0  0  0  0  0  0  0
  -13.3412   -6.8995   11.3259 C   0  0  0  0  0  0  0  0  0  0  0  0
  -12.4929   -5.7908   11.2895 O   0  0  0  0  0  0  0  0  0  0  0  0
   -8.7004   -5.6710   13.1477 C   0  0  0  0  0  0  0  0  0  0  0  0
   -8.8452   -5.9920   11.7948 C   0  0  0  0  0  0  0  0  0  0  0  0
  -10.0752   -6.0348   11.1763 C   0  0  0  0  0  0  0  0  0  0  0  0
  -11.2337   -5.7598   11.8716 C   0  0  0  0  0  0  0  0  0  0  0  0
  -11.1034   -5.4422   13.2053 C   0  0  0  0  0  0  0  0  0  0  0  0
   -9.8554   -5.3970   13.8398 C   0  0  0  0  0  0  0  0  0  0  0  0
   -4.7339   -4.8876   13.8446 N   0  0  0  0  0  0  0  0  0  0  0  0
   -5.7772   -3.9633   14.1087 C   0  0  0  0  0  0  0  0  0  0  0  0
   -6.9703   -4.7164   14.7100 C   0  0  0  0  0  0  0  0  0  0  0  0
   -7.3974   -5.6508   13.6980 N   0  0  0  0  0  0  0  0  0  0  0  0
   -6.3935   -6.6011   13.2549 C   0  0  0  0  0  0  0  0  0  0  0  0
   -5.0747   -6.2623   13.9041 C   0  0  0  0  0  0  0  0  0  0  0  0
   -2.8418   -2.9676   12.7819 C   0  0  0  0  0  0  0  0  0  0  0  0
   -3.7279   -4.4652   12.5273 S   0  0  0  0  0  0  0  0  0  0  0  0
   -4.5974   -4.2878   11.3134 O   0  0  0  0  0  0  0  0  0  0  0  0
   -2.7856   -5.6057   12.2111 O   0  0  0  0  0  0  0  0  0  0  0  0
  -11.0254   -6.8756    7.6322 C   0  0  0  0  0  0  0  0  0  0  0  0
   -9.9934   -7.8741    7.7678 N   0  0  0  0  0  0  0  0  0  0  0  0
  -10.1174   -9.1617    7.4288 C   0  0  0  0  0  0  0  0  0  0  0  0
   -8.9353   -9.7937    7.7053 C   0  0  0  0  0  0  0  0  0  0  0  0
   -8.1065   -8.8687    8.2124 N   0  0  0  0  0  0  0  0  0  0  0  0
   -8.7543   -7.6983    8.2494 C   0  0  0  0  0  0  0  0  0  0  0  0
 28 29  1  0  0  0
 29 30  2  0  0  0
 29 31  2  0  0  0
 29 22  1  0  0  0
 22 23  1  0  0  0
 23 24  1  0  0  0
 24 25  1  0  0  0
 25 26  1  0  0  0
 26 27  1  0  0  0
 25 16  1  0  0  0
 16 17  2  0  0  0
 17 18  1  0  0  0
 18 19  2  0  0  0
 19 15  1  0  0  0
 15 14  1  0  0  0
 14  1  1  0  0  0
  1  2  1  0  0  0
  2  3  1  0  0  0
  3  4  1  0  0  0
  4 32  1  0  0  0
 32 33  1  0  0  0
 33 34  1  0  0  0
 34 35  2  0  0  0
 35 36  1  0  0  0
 36 37  2  0  0  0
  4  5  1  0  0  0
  4  6  1  0  0  0
  6  7  2  0  0  0
  7  8  1  0  0  0
  8  9  2  0  0  0
  9 10  1  0  0  0
  9 11  1  0  0  0
 11 12  2  0  0  0
 12 13  1  0  0  0
 19 20  1  0  0  0
 20 21  2  0  0  0
 27 22  1  0  0  0
 21 16  1  0  0  0
  5  1  1  0  0  0
 12  6  1  0  0  0
 37 33  1  0  0  0
M  END
> <minimizedAffinity>
2.44884

> <CNNscore>
0.3458773196

> <CNNaffinity>
6.6225142479

> <CNN_VS>
2.2905774117

> <CNNaffinity_variance>
0.2959397733

$$$$
[H]c1nc([H])n(C([H])([H])[C@@]2(c3c([H])c([H])c(Cl)c([H])c3Cl)OC([H])([H])[C@@]([H])(C([H])([H])Oc3c([H])c([H])c(N4C([H])([H])C([H])([H])N(S(=O)(=O)C([H])([H])[H])C([H])([H])C4([H])[H])c([H])c3[H])O2)c1[H]


 37 41  0  0  0  0  0  0  0  0999 V2000
   -5.3445   -6.8095    7.1817 C   0  0  0  0  0  0  0  0  0  0  0  0
   -4.4128   -7.8744    6.7030 C   0  0  0  0  0  0  0  0  0  0  0  0
   -3.1554   -7.3399    6.8347 O   0  0  0  0  0  0  0  0  0  0  0  0
   -3.2982   -5.9714    7.1268 C   0  0  0  0  0  0  0  0  0  0  0  0
   -4.5411   -5.7786    7.6674 O   0  0  0  0  0  0  0  0  0  0  0  0
   -3.1584   -5.2173    5.8778 C   0  0  0  0  0  0  0  0  0  0  0  0
   -4.0016   -4.1504    5.6029 C   0  0  0  0  0  0  0  0  0  0  0  0
   -3.9345   -3.4108    4.4443 C   0  0  0  0  0  0  0  0  0  0  0  0
   -2.9919   -3.7263    3.4960 C   0  0  0  0  0  0  0  0  0  0  0  0
   -2.8998   -2.7851    2.0109 Cl  0  0  0  0  0  0  0  0  0  0  0  0
   -2.1389   -4.7798    3.7379 C   0  0  0  0  0  0  0  0  0  0  0  0
   -2.2215   -5.5174    4.9170 C   0  0  0  0  0  0  0  0  0  0  0  0
   -1.0668   -6.8326    5.1350 Cl  0  0  0  0  0  0  0  0  0  0  0  0
   -6.2957   -7.2673    8.2379 C   0  0  0  0  0  0  0  0  0  0  0  0
   -7.0037   -8.3717    7.7592 O   0  0  0  0  0  0  0  0  0  0  0  0
  -11.2129   -8.6594    7.5341 C   0  0  0  0  0  0  0  0  0  0  0  0
  -10.5775   -7.4755    7.9200 C   0  0  0  0  0  0  0  0  0  0  0  0
   -9.2066   -7.3677    7.9977 C   0  0  0  0  0  0  0  0  0  0  0  0
   -8.3883   -8.4353    7.6948 C   0  0  0  0  0  0  0  0  0  0  0  0
   -9.0030   -9.6072    7.3133 C   0  0  0  0  0  0  0  0  0  0  0  0
  -10.3966   -9.7229    7.2323 C   0  0  0  0  0  0  0  0  0  0  0  0
  -15.1142   -8.1918    6.3536 N   0  0  0  0  0  0  0  0  0  0  0  0
  -14.2357   -9.1601    5.8030 C   0  0  0  0  0  0  0  0  0  0  0  0
  -13.3931   -9.7678    6.9313 C   0  0  0  0  0  0  0  0  0  0  0  0
  -12.6264   -8.6776    7.4819 N   0  0  0  0  0  0  0  0  0  0  0  0
  -13.3990   -7.5617    7.9966 C   0  0  0  0  0  0  0  0  0  0  0  0
  -14.8580   -7.7898    7.6886 C   0  0  0  0  0  0  0  0  0  0  0  0
  -17.1843   -6.3843    5.4354 C   0  0  0  0  0  0  0  0  0  0  0  0
  -15.5121   -6.9099    5.2934 S   0  0  0  0  0  0  0  0  0  0  0  0
  -15.2943   -7.3849    3.8834 O   0  0  0  0  0  0  0  0  0  0  0  0
  -14.5603   -5.7527    5.5028 O   0  0  0  0  0  0  0  0  0  0  0  0
   -2.2413   -5.6661    8.1705 C   0  0  0  0  0  0  0  0  0  0  0  0
   -2.7167   -4.8136    9.2324 N   0  0  0  0  0  0  0  0  0  0  0  0
   -2.7945   -5.1590   10.5219 C   0  0  0  0  0  0  0  0  0  0  0  0
   -3.2939   -4.0940   11.2218 C   0  0  0  0  0  0  0  0  0  0  0  0
   -3.5124   -3.1112   10.3353 N   0  0  0  0  0  0  0  0  0  0  0  0
   -3.1595   -3.5525    9.1222 C   0  0  0  0  0  0  0  0  0  0  0  0
 28 29  1  0  0  0
 29 30  2  0  0  0
 29 31  2  0  0  0
 29 22  1  0  0  0
 22 23  1  0  0  0
 23 24  1  0  0  0
 24 25  1  0  0  0
 25 26  1  0  0  0
 26 27  1  0  0  0
 25 16  1  0  0  0
 16 17  2  0  0  0
 17 18  1  0  0  0
 18 19  2  0  0  0
 19 15  1  0  0  0
 15 14  1  0  0  0
 14  1  1  0  0  0
  1  2  1  0  0  0
  2  3  1  0  0  0
  3  4  1  0  0  0
  4 32  1  0  0  0
 32 33  1  0  0  0
 33 34  1  0  0  0
 34 35  2  0  0  0
 35 36  1  0  0  0
 36 37  2  0  0  0
  4  5  1  0  0  0
  4  6  1  0  0  0
  6  7  2  0  0  0
  7  8  1  0  0  0
  8  9  2  0  0  0
  9 10  1  0  0  0
  9 11  1  0  0  0
 11 12  2  0  0  0
 12 13  1  0  0  0
 19 20  1  0  0  0
 20 21  2  0  0  0
 27 22  1  0  0  0
 21 16  1  0  0  0
  5  1  1  0  0  0
 12  6  1  0  0  0
 37 33  1  0  0  0
M  END
> <minimizedAffinity>
-7.84124

> <CNNscore>
0.3411679566

> <CNNaffinity>
6.7141294479

> <CNN_VS>
2.2906458378

> <CNNaffinity_variance>
0.0844359770

$$$$
[H]c1nc([H])n(C([H])([H])[C@@]2(c3c([H])c([H])c(Cl)c([H])c3Cl)OC([H])([H])[C@@]([H])(C([H])([H])Oc3c([H])c([H])c(N4C([H])([H])C([H])([H])N(S(=O)(=O)C([H])([H])[H])C([H])([H])C4([H])[H])c([H])c3[H])O2)c1[H]


 37 41  0  0  0  0  0  0  0  0999 V2000
  -12.7254   -9.1051    6.3374 C   0  0  0  0  0  0  0  0  0  0  0  0
  -12.3010   -7.6746    6.2686 C   0  0  0  0  0  0  0  0  0  0  0  0
  -13.2915   -6.9730    6.9097 O   0  0  0  0  0  0  0  0  0  0  0  0
  -14.3653   -7.8531    7.1347 C   0  0  0  0  0  0  0  0  0  0  0  0
  -13.8778   -9.1323    7.1219 O   0  0  0  0  0  0  0  0  0  0  0  0
  -15.3460   -7.6663    6.0615 C   0  0  0  0  0  0  0  0  0  0  0  0
  -16.1147   -8.7328    5.6183 C   0  0  0  0  0  0  0  0  0  0  0  0
  -17.0413   -8.6298    4.6060 C   0  0  0  0  0  0  0  0  0  0  0  0
  -17.2327   -7.4183    3.9873 C   0  0  0  0  0  0  0  0  0  0  0  0
  -18.4161   -7.2783    2.6912 Cl  0  0  0  0  0  0  0  0  0  0  0  0
  -16.4858   -6.3390    4.4035 C   0  0  0  0  0  0  0  0  0  0  0  0
  -15.5522   -6.4620    5.4304 C   0  0  0  0  0  0  0  0  0  0  0  0
  -14.6648   -5.0119    5.8995 Cl  0  0  0  0  0  0  0  0  0  0  0  0
  -11.6890  -10.0174    6.9064 C   0  0  0  0  0  0  0  0  0  0  0  0
  -11.0319   -9.3594    7.9481 O   0  0  0  0  0  0  0  0  0  0  0  0
   -7.4088   -7.2299    7.5134 C   0  0  0  0  0  0  0  0  0  0  0  0
   -7.4515   -8.6259    7.4541 C   0  0  0  0  0  0  0  0  0  0  0  0
   -8.6253   -9.3328    7.5942 C   0  0  0  0  0  0  0  0  0  0  0  0
   -9.8264   -8.6881    7.8018 C   0  0  0  0  0  0  0  0  0  0  0  0
   -9.7967   -7.3126    7.8620 C   0  0  0  0  0  0  0  0  0  0  0  0
   -8.6062   -6.5882    7.7201 C   0  0  0  0  0  0  0  0  0  0  0  0
   -3.4369   -6.4632    6.8288 N   0  0  0  0  0  0  0  0  0  0  0  0
   -4.3712   -6.7531    5.8015 C   0  0  0  0  0  0  0  0  0  0  0  0
   -5.6910   -6.0355    6.1106 C   0  0  0  0  0  0  0  0  0  0  0  0
   -6.1577   -6.5884    7.3580 N   0  0  0  0  0  0  0  0  0  0  0  0
   -5.2525   -6.4521    8.4847 C   0  0  0  0  0  0  0  0  0  0  0  0
   -3.9526   -5.8578    8.0024 C   0  0  0  0  0  0  0  0  0  0  0  0
   -1.0668   -7.8197    5.8603 C   0  0  0  0  0  0  0  0  0  0  0  0
   -2.2916   -7.7006    7.1167 S   0  0  0  0  0  0  0  0  0  0  0  0
   -3.0250   -9.0121    7.1739 O   0  0  0  0  0  0  0  0  0  0  0  0
   -1.6567   -7.5100    8.4766 O   0  0  0  0  0  0  0  0  0  0  0  0
  -14.8778   -7.5225    8.5231 C   0  0  0  0  0  0  0  0  0  0  0  0
  -13.8570   -7.0035    9.4000 N   0  0  0  0  0  0  0  0  0  0  0  0
  -13.6216   -5.7066    9.6263 C   0  0  0  0  0  0  0  0  0  0  0  0
  -12.5794   -5.6075   10.5079 C   0  0  0  0  0  0  0  0  0  0  0  0
  -12.1971   -6.8588   10.8040 N   0  0  0  0  0  0  0  0  0  0  0  0
  -12.9780   -7.7088   10.1269 C   0  0  0  0  0  0  0  0  0  0  0  0
 28 29  1  0  0  0
 29 30  2  0  0  0
 29 31  2  0  0  0
 29 22  1  0  0  0
 22 23  1  0  0  0
 23 24  1  0  0  0
 24 25  1  0  0  0
 25 26  1  0  0  0
 26 27  1  0  0  0
 25 16  1  0  0  0
 16 17  2  0  0  0
 17 18  1  0  0  0
 18 19  2  0  0  0
 19 15  1  0  0  0
 15 14  1  0  0  0
 14  1  1  0  0  0
  1  2  1  0  0  0
  2  3  1  0  0  0
  3  4  1  0  0  0
  4 32  1  0  0  0
 32 33  1  0  0  0
 33 34  1  0  0  0
 34 35  2  0  0  0
 35 36  1  0  0  0
 36 37  2  0  0  0
  4  5  1  0  0  0
  4  6  1  0  0  0
  6  7  2  0  0  0
  7  8  1  0  0  0
  8  9  2  0  0  0
  9 10  1  0  0  0
  9 11  1  0  0  0
 11 12  2  0  0  0
 12 13  1  0  0  0
 19 20  1  0  0  0
 20 21  2  0  0  0
 27 22  1  0  0  0
 21 16  1  0  0  0
  5  1  1  0  0  0
 12  6  1  0  0  0
 37 33  1  0  0  0
M  END
> <minimizedAffinity>
-5.79245

> <CNNscore>
0.3366577029

> <CNNaffinity>
7.3697113991

> <CNN_VS>
2.4810700417

> <CNNaffinity_variance>
0.0733806640

$$$$
[H]c1nc([H])n(C([H])([H])[C@@]2(c3c([H])c([H])c(Cl)c([H])c3Cl)OC([H])([H])[C@@]([H])(C([H])([H])Oc3c([H])c([H])c(N4C([H])([H])C([H])([H])N(S(=O)(=O)C([H])([H])[H])C([H])([H])C4([H])[H])c([H])c3[H])O2)c1[H]


 37 41  0  0  0  0  0  0  0  0999 V2000
   -8.4818   -7.7221    8.5958 C   0  0  0  0  0  0  0  0  0  0  0  0
   -8.8869   -7.2076    7.2533 C   0  0  0  0  0  0  0  0  0  0  0  0
   -7.8873   -7.6015    6.3990 O   0  0  0  0  0  0  0  0  0  0  0  0
   -6.8254   -8.0953    7.1781 C   0  0  0  0  0  0  0  0  0  0  0  0
   -7.3302   -8.4810    8.3909 O   0  0  0  0  0  0  0  0  0  0  0  0
   -5.8421   -7.0219    7.3487 C   0  0  0  0  0  0  0  0  0  0  0  0
   -4.8878   -6.7811    6.3708 C   0  0  0  0  0  0  0  0  0  0  0  0
   -3.9277   -5.8006    6.4745 C   0  0  0  0  0  0  0  0  0  0  0  0
   -3.8923   -5.0065    7.5950 C   0  0  0  0  0  0  0  0  0  0  0  0
   -2.6669   -3.7502    7.7352 Cl  0  0  0  0  0  0  0  0  0  0  0  0
   -4.8258   -5.2192    8.5846 C   0  0  0  0  0  0  0  0  0  0  0  0
   -5.7909   -6.2167    8.4623 C   0  0  0  0  0  0  0  0  0  0  0  0
   -6.9517   -6.3897    9.7788 Cl  0  0  0  0  0  0  0  0  0  0  0  0
   -9.5305   -8.5431    9.2711 C   0  0  0  0  0  0  0  0  0  0  0  0
  -10.5593   -7.6998    9.6961 O   0  0  0  0  0  0  0  0  0  0  0  0
  -14.4465   -7.8040    8.0440 C   0  0  0  0  0  0  0  0  0  0  0  0
  -13.7936   -6.5966    8.3093 C   0  0  0  0  0  0  0  0  0  0  0  0
  -12.5267   -6.5480    8.8476 C   0  0  0  0  0  0  0  0  0  0  0  0
  -11.8362   -7.7017    9.1532 C   0  0  0  0  0  0  0  0  0  0  0  0
  -12.4694   -8.8974    8.8961 C   0  0  0  0  0  0  0  0  0  0  0  0
  -13.7576   -8.9533    8.3487 C   0  0  0  0  0  0  0  0  0  0  0  0
  -17.7328   -6.8197    5.7937 N   0  0  0  0  0  0  0  0  0  0  0  0
  -16.6265   -7.5528    5.2927 C   0  0  0  0  0  0  0  0  0  0  0  0
  -16.1652   -8.5519    6.3611 C   0  0  0  0  0  0  0  0  0  0  0  0
  -15.7471   -7.7573    7.4896 N   0  0  0  0  0  0  0  0  0  0  0  0
  -16.7571   -6.8769    8.0483 C   0  0  0  0  0  0  0  0  0  0  0  0
  -17.9914   -6.9326    7.1830 C   0  0  0  0  0  0  0  0  0  0  0  0
  -19.5201   -4.6236    5.1788 C   0  0  0  0  0  0  0  0  0  0  0  0
  -17.8695   -5.2304    5.1762 S   0  0  0  0  0  0  0  0  0  0  0  0
  -17.3815   -5.2382    3.7539 O   0  0  0  0  0  0  0  0  0  0  0  0
  -16.9488   -4.3008    5.9355 O   0  0  0  0  0  0  0  0  0  0  0  0
   -6.3090   -9.3130    6.4364 C   0  0  0  0  0  0  0  0  0  0  0  0
   -4.8943   -9.2564    6.1610 N   0  0  0  0  0  0  0  0  0  0  0  0
   -3.9433   -9.8550    6.8861 C   0  0  0  0  0  0  0  0  0  0  0  0
   -2.7300   -9.5712    6.3199 C   0  0  0  0  0  0  0  0  0  0  0  0
   -2.9688   -8.7975    5.2504 N   0  0  0  0  0  0  0  0  0  0  0  0
   -4.2900   -8.6069    5.1554 C   0  0  0  0  0  0  0  0  0  0  0  0
 28 29  1  0  0  0
 29 30  2  0  0  0
 29 31  2  0  0  0
 29 22  1  0  0  0
 22 23  1  0  0  0
 23 24  1  0  0  0
 24 25  1  0  0  0
 25 26  1  0  0  0
 26 27  1  0  0  0
 25 16  1  0  0  0
 16 17  2  0  0  0
 17 18  1  0  0  0
 18 19  2  0  0  0
 19 15  1  0  0  0
 15 14  1  0  0  0
 14  1  1  0  0  0
  1  2  1  0  0  0
  2  3  1  0  0  0
  3  4  1  0  0  0
  4 32  1  0  0  0
 32 33  1  0  0  0
 33 34  1  0  0  0
 34 35  2  0  0  0
 35 36  1  0  0  0
 36 37  2  0  0  0
  4  5  1  0  0  0
  4  6  1  0  0  0
  6  7  2  0  0  0
  7  8  1  0  0  0
  8  9  2  0  0  0
  9 10  1  0  0  0
  9 11  1  0  0  0
 11 12  2  0  0  0
 12 13  1  0  0  0
 19 20  1  0  0  0
 20 21  2  0  0  0
 27 22  1  0  0  0
 21 16  1  0  0  0
  5  1  1  0  0  0
 12  6  1  0  0  0
 37 33  1  0  0  0
M  END
> <minimizedAffinity>
9.32998

> <CNNscore>
0.3304752111

> <CNNaffinity>
6.6295928955

> <CNN_VS>
2.1909160614

> <CNNaffinity_variance>
1.0712234974

$$$$
[H]c1nc([H])n(C([H])([H])[C@@]2(c3c([H])c([H])c(Cl)c([H])c3Cl)OC([H])([H])[C@@]([H])(C([H])([H])Oc3c([H])c([H])c(N4C([H])([H])C([H])([H])N(S(=O)(=O)C([H])([H])[H])C([H])([H])C4([H])[H])c([H])c3[H])O2)c1[H]


 37 41  0  0  0  0  0  0  0  0999 V2000
   -7.2766   -9.7278    7.5101 C   0  0  0  0  0  0  0  0  0  0  0  0
   -7.2559   -8.4814    6.6871 C   0  0  0  0  0  0  0  0  0  0  0  0
   -8.4469   -8.4794    6.0049 O   0  0  0  0  0  0  0  0  0  0  0  0
   -9.0487   -9.7377    6.1863 C   0  0  0  0  0  0  0  0  0  0  0  0
   -8.5380  -10.2935    7.3285 O   0  0  0  0  0  0  0  0  0  0  0  0
   -8.7317  -10.5713    5.0231 C   0  0  0  0  0  0  0  0  0  0  0  0
   -8.1397  -10.0135    3.8991 C   0  0  0  0  0  0  0  0  0  0  0  0
   -7.8300  -10.7352    2.7690 C   0  0  0  0  0  0  0  0  0  0  0  0
   -8.1121  -12.0790    2.7282 C   0  0  0  0  0  0  0  0  0  0  0  0
   -7.7191  -13.0092    1.2860 Cl  0  0  0  0  0  0  0  0  0  0  0  0
   -8.6995  -12.6640    3.8276 C   0  0  0  0  0  0  0  0  0  0  0  0
   -9.0058  -11.9175    4.9634 C   0  0  0  0  0  0  0  0  0  0  0  0
   -9.7372  -12.7701    6.3231 Cl  0  0  0  0  0  0  0  0  0  0  0  0
   -7.0152   -9.4987    8.9624 C   0  0  0  0  0  0  0  0  0  0  0  0
   -7.1328   -8.1336    9.2320 O   0  0  0  0  0  0  0  0  0  0  0  0
   -3.8759   -5.4555    8.9666 C   0  0  0  0  0  0  0  0  0  0  0  0
   -4.8523   -5.3279    9.9588 C   0  0  0  0  0  0  0  0  0  0  0  0
   -5.9191   -6.1935   10.0570 C   0  0  0  0  0  0  0  0  0  0  0  0
   -6.0747   -7.2381    9.1706 C   0  0  0  0  0  0  0  0  0  0  0  0
   -5.1188   -7.3739    8.1885 C   0  0  0  0  0  0  0  0  0  0  0  0
   -4.0316   -6.4969    8.0836 C   0  0  0  0  0  0  0  0  0  0  0  0
   -1.4739   -2.2094    9.6917 N   0  0  0  0  0  0  0  0  0  0  0  0
   -1.6237   -3.2948   10.5927 C   0  0  0  0  0  0  0  0  0  0  0  0
   -1.6545   -4.6045    9.7950 C   0  0  0  0  0  0  0  0  0  0  0  0
   -2.8150   -4.5202    8.9431 N   0  0  0  0  0  0  0  0  0  0  0  0
   -2.8449   -3.3919    8.0302 C   0  0  0  0  0  0  0  0  0  0  0  0
   -1.6657   -2.4958    8.3166 C   0  0  0  0  0  0  0  0  0  0  0  0
   -3.4070   -0.1325    9.1044 C   0  0  0  0  0  0  0  0  0  0  0  0
   -2.1909   -0.7475   10.2158 S   0  0  0  0  0  0  0  0  0  0  0  0
   -1.1070    0.2879   10.3352 O   0  0  0  0  0  0  0  0  0  0  0  0
   -2.7646   -0.9231   11.6046 O   0  0  0  0  0  0  0  0  0  0  0  0
  -10.5265   -9.4577    6.3787 C   0  0  0  0  0  0  0  0  0  0  0  0
  -10.8043   -8.6097    7.5120 N   0  0  0  0  0  0  0  0  0  0  0  0
  -11.5976   -8.9316    8.5394 C   0  0  0  0  0  0  0  0  0  0  0  0
  -11.6173   -7.8777    9.4124 C   0  0  0  0  0  0  0  0  0  0  0  0
  -10.8275   -6.9253    8.8939 N   0  0  0  0  0  0  0  0  0  0  0  0
  -10.3325   -7.3743    7.7344 C   0  0  0  0  0  0  0  0  0  0  0  0
 28 29  1  0  0  0
 29 30  2  0  0  0
 29 31  2  0  0  0
 29 22  1  0  0  0
 22 23  1  0  0  0
 23 24  1  0  0  0
 24 25  1  0  0  0
 25 26  1  0  0  0
 26 27  1  0  0  0
 25 16  1  0  0  0
 16 17  2  0  0  0
 17 18  1  0  0  0
 18 19  2  0  0  0
 19 15  1  0  0  0
 15 14  1  0  0  0
 14  1  1  0  0  0
  1  2  1  0  0  0
  2  3  1  0  0  0
  3  4  1  0  0  0
  4 32  1  0  0  0
 32 33  1  0  0  0
 33 34  1  0  0  0
 34 35  2  0  0  0
 35 36  1  0  0  0
 36 37  2  0  0  0
  4  5  1  0  0  0
  4  6  1  0  0  0
  6  7  2  0  0  0
  7  8  1  0  0  0
  8  9  2  0  0  0
  9 10  1  0  0  0
  9 11  1  0  0  0
 11 12  2  0  0  0
 12 13  1  0  0  0
 19 20  1  0  0  0
 20 21  2  0  0  0
 27 22  1  0  0  0
 21 16  1  0  0  0
  5  1  1  0  0  0
 12  6  1  0  0  0
 37 33  1  0  0  0
M  END
> <minimizedAffinity>
11.82101

> <CNNscore>
0.3234059513

> <CNNaffinity>
6.0853586197

> <CNN_VS>
1.9680411816

> <CNNaffinity_variance>
1.2521725893

$$$$
[H]c1c([H])c([H])c(C([H])([H])OC(=O)N([H])[C@@]([H])(C(=O)N([H])[C@]([H])(C(=O)N([H])[C@]([H])(C(=O)N([H])[C@]([H])(C(=O)N([H])[H])C([H])([H])c2c([H])c([H])c([H])c([H])c2[H])C([H])([H])c2c([H])n([H])c3c([H])c([H])c([H])c([H])c23)C([H])(C([H])([H])[H])C([H])([H])[H])C([H])([H])c2c([H])c([H])c([H])c([H])c2[H])c([H])c1[H]


 61 65  0  0  0  0  0  0  0  0999 V2000
   -8.4429   -8.0934    7.3997 C   0  0  0  0  0  0  0  0  0  0  0  0
   -8.1364   -9.0463    8.2000 O   0  0  0  0  0  0  0  0  0  0  0  0
   -9.8001   -8.1298    6.9824 N   0  0  0  0  0  0  0  0  0  0  0  0
  -10.1370   -7.3852    6.3404 H   0  0  0  0  0  0  0  0  0  0  0  0
  -10.7682   -9.1150    7.3757 C   0  0  0  0  0  0  0  0  0  0  0  0
  -12.1366   -8.7763    6.8404 C   0  0  0  0  0  0  0  0  0  0  0  0
  -12.7990   -9.6822    6.2889 O   0  0  0  0  0  0  0  0  0  0  0  0
  -12.6572   -7.4879    6.9537 N   0  0  0  0  0  0  0  0  0  0  0  0
  -12.0826   -6.7498    7.4285 H   0  0  0  0  0  0  0  0  0  0  0  0
  -13.9527   -7.0925    6.4564 C   0  0  0  0  0  0  0  0  0  0  0  0
  -15.0609   -7.7391    7.1445 C   0  0  0  0  0  0  0  0  0  0  0  0
  -15.4939   -9.0713    6.9030 N   0  0  0  0  0  0  0  0  0  0  0  0
  -15.7430   -7.1289    8.0414 O   0  0  0  0  0  0  0  0  0  0  0  0
  -15.3913   -9.8092    7.6142 H   0  0  0  0  0  0  0  0  0  0  0  0
  -15.9313   -9.3350    5.9840 H   0  0  0  0  0  0  0  0  0  0  0  0
  -14.0207   -7.1422    4.9454 C   0  0  0  0  0  0  0  0  0  0  0  0
  -15.2718   -6.6057    4.3755 C   0  0  0  0  0  0  0  0  0  0  0  0
  -16.2130   -7.4116    3.7557 C   0  0  0  0  0  0  0  0  0  0  0  0
  -17.3941   -6.9190    3.2255 C   0  0  0  0  0  0  0  0  0  0  0  0
  -17.6797   -5.5727    3.2989 C   0  0  0  0  0  0  0  0  0  0  0  0
  -16.7565   -4.7364    3.9139 C   0  0  0  0  0  0  0  0  0  0  0  0
  -15.5843   -5.2558    4.4354 C   0  0  0  0  0  0  0  0  0  0  0  0
  -10.9164   -9.1863    8.8546 C   0  0  0  0  0  0  0  0  0  0  0  0
  -12.0055   -8.4130    9.4575 C   0  0  0  0  0  0  0  0  0  0  0  0
  -13.2396   -8.8994    9.8761 C   0  0  0  0  0  0  0  0  0  0  0  0
  -13.9029   -7.8869   10.4091 N   0  0  0  0  0  0  0  0  0  0  0  0
  -13.1853   -6.7570   10.3700 C   0  0  0  0  0  0  0  0  0  0  0  0
  -13.4217   -5.4733   10.7694 C   0  0  0  0  0  0  0  0  0  0  0  0
  -12.4780   -4.5075   10.5767 C   0  0  0  0  0  0  0  0  0  0  0  0
  -11.2664   -4.7713    9.9825 C   0  0  0  0  0  0  0  0  0  0  0  0
  -11.0286   -6.0590    9.5819 C   0  0  0  0  0  0  0  0  0  0  0  0
  -11.9648   -7.0650    9.7644 C   0  0  0  0  0  0  0  0  0  0  0  0
  -14.8812   -7.9655   10.8161 H   0  0  0  0  0  0  0  0  0  0  0  0
   -7.4212   -7.1477    7.0435 C   0  0  0  0  0  0  0  0  0  0  0  0
   -6.3503   -7.0430    8.0227 N   0  0  0  0  0  0  0  0  0  0  0  0
   -5.2793   -6.1388    7.9830 C   0  0  0  0  0  0  0  0  0  0  0  0
   -5.1432   -5.3239    7.0663 O   0  0  0  0  0  0  0  0  0  0  0  0
   -6.3781   -7.7100    8.8476 H   0  0  0  0  0  0  0  0  0  0  0  0
   -4.2452   -6.1274    9.0691 C   0  0  0  0  0  0  0  0  0  0  0  0
   -4.5141   -5.1079   10.0478 N   0  0  0  0  0  0  0  0  0  0  0  0
   -3.6808   -4.9509   11.1764 C   0  0  0  0  0  0  0  0  0  0  0  0
   -2.6976   -5.7430   11.3024 O   0  0  0  0  0  0  0  0  0  0  0  0
   -5.3357   -4.4571    9.9460 H   0  0  0  0  0  0  0  0  0  0  0  0
   -3.9414   -3.9693   12.0957 O   0  0  0  0  0  0  0  0  0  0  0  0
   -3.2143   -3.8440   13.2715 C   0  0  0  0  0  0  0  0  0  0  0  0
   -3.7512   -4.6215   14.3945 C   0  0  0  0  0  0  0  0  0  0  0  0
   -4.9133   -4.2793   15.0110 C   0  0  0  0  0  0  0  0  0  0  0  0
   -5.3849   -5.0339   16.0669 C   0  0  0  0  0  0  0  0  0  0  0  0
   -4.6677   -6.1297   16.4840 C   0  0  0  0  0  0  0  0  0  0  0  0
   -3.4845   -6.4776   15.8554 C   0  0  0  0  0  0  0  0  0  0  0  0
   -3.0053   -5.7403   14.8091 C   0  0  0  0  0  0  0  0  0  0  0  0
   -2.8724   -5.9807    8.4692 C   0  0  0  0  0  0  0  0  0  0  0  0
   -2.3559   -7.3258    8.0616 C   0  0  0  0  0  0  0  0  0  0  0  0
   -1.5474   -8.0289    8.9240 C   0  0  0  0  0  0  0  0  0  0  0  0
   -1.0604   -9.2832    8.5495 C   0  0  0  0  0  0  0  0  0  0  0  0
   -1.4048   -9.7895    7.3145 C   0  0  0  0  0  0  0  0  0  0  0  0
   -2.2210   -9.0651    6.4590 C   0  0  0  0  0  0  0  0  0  0  0  0
   -2.7043   -7.8227    6.8286 C   0  0  0  0  0  0  0  0  0  0  0  0
   -7.4702   -6.3585    4.6839 C   0  0  0  0  0  0  0  0  0  0  0  0
   -6.7544   -7.2788    5.7035 C   0  0  0  0  0  0  0  0  0  0  0  0
   -6.6216   -8.6453    5.1479 C   0  0  0  0  0  0  0  0  0  0  0  0
 59 60  1  0  0  0
 60 61  1  0  0  0
 60 34  1  0  0  0
 34 35  1  0  0  0
 35 36  1  0  0  0
 36 37  2  0  0  0
 36 39  1  0  0  0
 39 52  1  0  0  0
 52 53  1  0  0  0
 53 54  2  0  0  0
 54 55  1  0  0  0
 55 56  2  0  0  0
 56 57  1  0  0  0
 57 58  2  0  0  0
 39 40  1  0  0  0
 40 41  1  0  0  0
 41 42  2  0  0  0
 41 44  1  0  0  0
 44 45  1  0  0  0
 45 46  1  0  0  0
 46 47  2  0  0  0
 47 48  1  0  0  0
 48 49  2  0  0  0
 49 50  1  0  0  0
 50 51  2  0  0  0
 34  1  1  0  0  0
  1  2  2  0  0  0
  1  3  1  0  0  0
  3  5  1  0  0  0
  5 23  1  0  0  0
 23 24  1  0  0  0
 24 25  2  0  0  0
 25 26  1  0  0  0
 26 27  1  0  0  0
 27 28  2  0  0  0
 28 29  1  0  0  0
 29 30  2  0  0  0
 30 31  1  0  0  0
 31 32  2  0  0  0
  5  6  1  0  0  0
  6  7  2  0  0  0
  6  8  1  0  0  0
  8 10  1  0  0  0
 10 16  1  0  0  0
 16 17  1  0  0  0
 17 18  2  0  0  0
 18 19  1  0  0  0
 19 20  2  0  0  0
 20 21  1  0  0  0
 21 22  2  0  0  0
 10 11  1  0  0  0
 11 12  1  0  0  0
 11 13  2  0  0  0
 58 53  1  0  0  0
 51 46  1  0  0  0
 32 24  1  0  0  0
 22 17  1  0  0  0
 32 27  1  0  0  0
 35 38  1  0  0  0
 40 43  1  0  0  0
  3  4  1  0  0  0
 26 33  1  0  0  0
  8  9  1  0  0  0
 12 14  1  0  0  0
 12 15  1  0  0  0
M  END
> <minimizedAffinity>
-7.03893

> <CNNscore>
0.2396643013

> <CNNaffinity>
7.7190208435

> <CNN_VS>
1.8499736786

> <CNNaffinity_variance>
0.1951010972

$$$$
[H]c1c([H])c([H])c(C([H])([H])OC(=O)N([H])[C@@]([H])(C(=O)N([H])[C@]([H])(C(=O)N([H])[C@]([H])(C(=O)N([H])[C@]([H])(C(=O)N([H])[H])C([H])([H])c2c([H])c([H])c([H])c([H])c2[H])C([H])([H])c2c([H])n([H])c3c([H])c([H])c([H])c([H])c23)C([H])(C([H])([H])[H])C([H])([H])[H])C([H])([H])c2c([H])c([H])c([H])c([H])c2[H])c([H])c1[H]


 61 65  0  0  0  0  0  0  0  0999 V2000
   -5.1431   -6.9639    8.4771 C   0  0  0  0  0  0  0  0  0  0  0  0
   -3.8924   -6.9402    8.1988 O   0  0  0  0  0  0  0  0  0  0  0  0
   -5.4718   -6.2089    9.6345 N   0  0  0  0  0  0  0  0  0  0  0  0
   -6.4684   -6.1644    9.9256 H   0  0  0  0  0  0  0  0  0  0  0  0
   -4.5386   -5.4847   10.4515 C   0  0  0  0  0  0  0  0  0  0  0  0
   -4.9178   -5.5626   11.9089 C   0  0  0  0  0  0  0  0  0  0  0  0
   -5.6692   -6.4916   12.2777 O   0  0  0  0  0  0  0  0  0  0  0  0
   -4.4466   -4.6264   12.8281 N   0  0  0  0  0  0  0  0  0  0  0  0
   -3.8111   -3.8625   12.4920 H   0  0  0  0  0  0  0  0  0  0  0  0
   -4.7765   -4.6353   14.2329 C   0  0  0  0  0  0  0  0  0  0  0  0
   -6.1548   -4.2556   14.5079 C   0  0  0  0  0  0  0  0  0  0  0  0
   -7.2944   -4.9959   14.0911 N   0  0  0  0  0  0  0  0  0  0  0  0
   -6.4410   -3.1925   15.1637 O   0  0  0  0  0  0  0  0  0  0  0  0
   -7.9081   -5.4691   14.7696 H   0  0  0  0  0  0  0  0  0  0  0  0
   -7.5372   -5.0783   13.0715 H   0  0  0  0  0  0  0  0  0  0  0  0
   -3.7363   -3.9178   15.0654 C   0  0  0  0  0  0  0  0  0  0  0  0
   -3.0037   -2.8599   14.3430 C   0  0  0  0  0  0  0  0  0  0  0  0
   -3.4300   -1.5419   14.3203 C   0  0  0  0  0  0  0  0  0  0  0  0
   -2.7447   -0.5401   13.6525 C   0  0  0  0  0  0  0  0  0  0  0  0
   -1.5835   -0.8302   12.9691 C   0  0  0  0  0  0  0  0  0  0  0  0
   -1.1284   -2.1427   12.9715 C   0  0  0  0  0  0  0  0  0  0  0  0
   -1.8331   -3.1236   13.6475 C   0  0  0  0  0  0  0  0  0  0  0  0
   -4.5155   -4.0356   10.1143 C   0  0  0  0  0  0  0  0  0  0  0  0
   -3.2114   -3.4370    9.8167 C   0  0  0  0  0  0  0  0  0  0  0  0
   -2.0347   -4.1133    9.5118 C   0  0  0  0  0  0  0  0  0  0  0  0
   -1.1100   -3.2022    9.2587 N   0  0  0  0  0  0  0  0  0  0  0  0
   -1.5999   -1.9615    9.3772 C   0  0  0  0  0  0  0  0  0  0  0  0
   -1.0609   -0.7155    9.2357 C   0  0  0  0  0  0  0  0  0  0  0  0
   -1.8273    0.3936    9.4431 C   0  0  0  0  0  0  0  0  0  0  0  0
   -3.1533    0.3154    9.7984 C   0  0  0  0  0  0  0  0  0  0  0  0
   -3.6945   -0.9344    9.9402 C   0  0  0  0  0  0  0  0  0  0  0  0
   -2.9448   -2.0822    9.7349 C   0  0  0  0  0  0  0  0  0  0  0  0
   -0.1067   -3.4310    8.9944 H   0  0  0  0  0  0  0  0  0  0  0  0
   -6.0177   -7.7154    7.6197 C   0  0  0  0  0  0  0  0  0  0  0  0
   -7.4311   -7.5136    7.8998 N   0  0  0  0  0  0  0  0  0  0  0  0
   -8.3994   -8.5191    8.0324 C   0  0  0  0  0  0  0  0  0  0  0  0
   -8.1233   -9.7154    7.9075 O   0  0  0  0  0  0  0  0  0  0  0  0
   -7.7660   -6.5135    8.0174 H   0  0  0  0  0  0  0  0  0  0  0  0
   -9.8267   -8.1734    8.3364 C   0  0  0  0  0  0  0  0  0  0  0  0
  -10.7364   -8.8390    7.4426 N   0  0  0  0  0  0  0  0  0  0  0  0
  -11.8986   -9.4726    7.9330 C   0  0  0  0  0  0  0  0  0  0  0  0
  -12.1064   -9.4440    9.1844 O   0  0  0  0  0  0  0  0  0  0  0  0
  -10.5577   -8.8692    6.4053 H   0  0  0  0  0  0  0  0  0  0  0  0
  -12.7625  -10.0938    7.0703 O   0  0  0  0  0  0  0  0  0  0  0  0
  -13.1264   -9.5319    5.8543 C   0  0  0  0  0  0  0  0  0  0  0  0
  -14.2498   -8.5915    5.9402 C   0  0  0  0  0  0  0  0  0  0  0  0
  -14.5262   -7.7137    4.9398 C   0  0  0  0  0  0  0  0  0  0  0  0
  -15.5902   -6.8416    5.0586 C   0  0  0  0  0  0  0  0  0  0  0  0
  -16.3622   -6.8729    6.1954 C   0  0  0  0  0  0  0  0  0  0  0  0
  -16.0801   -7.7674    7.2135 C   0  0  0  0  0  0  0  0  0  0  0  0
  -15.0303   -8.6364    7.1101 C   0  0  0  0  0  0  0  0  0  0  0  0
  -10.0093   -6.6794    8.3125 C   0  0  0  0  0  0  0  0  0  0  0  0
  -11.1982   -6.3052    9.1423 C   0  0  0  0  0  0  0  0  0  0  0  0
  -12.4542   -6.3535    8.5838 C   0  0  0  0  0  0  0  0  0  0  0  0
  -13.5674   -6.0038    9.3513 C   0  0  0  0  0  0  0  0  0  0  0  0
  -13.3781   -5.6155   10.6604 C   0  0  0  0  0  0  0  0  0  0  0  0
  -12.1037   -5.5730   11.2052 C   0  0  0  0  0  0  0  0  0  0  0  0
  -11.0001   -5.9193   10.4463 C   0  0  0  0  0  0  0  0  0  0  0  0
   -6.3633   -6.1812    5.6910 C   0  0  0  0  0  0  0  0  0  0  0  0
   -5.8601   -7.5781    6.1318 C   0  0  0  0  0  0  0  0  0  0  0  0
   -6.4765   -8.6288    5.2893 C   0  0  0  0  0  0  0  0  0  0  0  0
 59 60  1  0  0  0
 60 61  1  0  0  0
 60 34  1  0  0  0
 34 35  1  0  0  0
 35 36  1  0  0  0
 36 37  2  0  0  0
 36 39  1  0  0  0
 39 52  1  0  0  0
 52 53  1  0  0  0
 53 54  2  0  0  0
 54 55  1  0  0  0
 55 56  2  0  0  0
 56 57  1  0  0  0
 57 58  2  0  0  0
 39 40  1  0  0  0
 40 41  1  0  0  0
 41 42  2  0  0  0
 41 44  1  0  0  0
 44 45  1  0  0  0
 45 46  1  0  0  0
 46 47  2  0  0  0
 47 48  1  0  0  0
 48 49  2  0  0  0
 49 50  1  0  0  0
 50 51  2  0  0  0
 34  1  1  0  0  0
  1  2  2  0  0  0
  1  3  1  0  0  0
  3  5  1  0  0  0
  5 23  1  0  0  0
 23 24  1  0  0  0
 24 25  2  0  0  0
 25 26  1  0  0  0
 26 27  1  0  0  0
 27 28  2  0  0  0
 28 29  1  0  0  0
 29 30  2  0  0  0
 30 31  1  0  0  0
 31 32  2  0  0  0
  5  6  1  0  0  0
  6  7  2  0  0  0
  6  8  1  0  0  0
  8 10  1  0  0  0
 10 16  1  0  0  0
 16 17  1  0  0  0
 17 18  2  0  0  0
 18 19  1  0  0  0
 19 20  2  0  0  0
 20 21  1  0  0  0
 21 22  2  0  0  0
 10 11  1  0  0  0
 11 12  1  0  0  0
 11 13  2  0  0  0
 58 53  1  0  0  0
 51 46  1  0  0  0
 32 24  1  0  0  0
 22 17  1  0  0  0
 32 27  1  0  0  0
 35 38  1  0  0  0
 40 43  1  0  0  0
  3  4  1  0  0  0
 26 33  1  0  0  0
  8  9  1  0  0  0
 12 14  1  0  0  0
 12 15  1  0  0  0
M  END
> <minimizedAffinity>
-7.30683

> <CNNscore>
0.2148559690

> <CNNaffinity>
7.3304357529

> <CNN_VS>
1.5749878883

> <CNNaffinity_variance>
0.1593235880

$$$$
[H]c1c([H])c([H])c(C([H])([H])OC(=O)N([H])[C@@]([H])(C(=O)N([H])[C@]([H])(C(=O)N([H])[C@]([H])(C(=O)N([H])[C@]([H])(C(=O)N([H])[H])C([H])([H])c2c([H])c([H])c([H])c([H])c2[H])C([H])([H])c2c([H])n([H])c3c([H])c([H])c([H])c([H])c23)C([H])(C([H])([H])[H])C([H])([H])[H])C([H])([H])c2c([H])c([H])c([H])c([H])c2[H])c([H])c1[H]


 61 65  0  0  0  0  0  0  0  0999 V2000
   -5.7854   -7.8581    7.7809 C   0  0  0  0  0  0  0  0  0  0  0  0
   -4.5766   -8.2785    7.7143 O   0  0  0  0  0  0  0  0  0  0  0  0
   -5.9592   -6.8043    8.7173 N   0  0  0  0  0  0  0  0  0  0  0  0
   -6.9084   -6.3954    8.8265 H   0  0  0  0  0  0  0  0  0  0  0  0
   -4.9256   -6.2383    9.5383 C   0  0  0  0  0  0  0  0  0  0  0  0
   -5.2759   -6.3422   11.0013 C   0  0  0  0  0  0  0  0  0  0  0  0
   -6.2002   -7.1146   11.3368 O   0  0  0  0  0  0  0  0  0  0  0  0
   -4.5910   -5.5991   11.9617 N   0  0  0  0  0  0  0  0  0  0  0  0
   -3.8145   -4.9652   11.6523 H   0  0  0  0  0  0  0  0  0  0  0  0
   -4.8796   -5.6423   13.3749 C   0  0  0  0  0  0  0  0  0  0  0  0
   -6.1367   -4.9999   13.7306 C   0  0  0  0  0  0  0  0  0  0  0  0
   -7.4105   -5.6271   13.6646 N   0  0  0  0  0  0  0  0  0  0  0  0
   -6.1794   -3.7856   14.1380 O   0  0  0  0  0  0  0  0  0  0  0  0
   -7.9545   -5.8345   14.5144 H   0  0  0  0  0  0  0  0  0  0  0  0
   -7.8286   -5.8967   12.7384 H   0  0  0  0  0  0  0  0  0  0  0  0
   -3.6888   -5.2262   14.2110 C   0  0  0  0  0  0  0  0  0  0  0  0
   -2.9140   -4.1033   13.6486 C   0  0  0  0  0  0  0  0  0  0  0  0
   -3.1956   -2.7804   13.9490 C   0  0  0  0  0  0  0  0  0  0  0  0
   -2.4687   -1.7199   13.4333 C   0  0  0  0  0  0  0  0  0  0  0  0
   -1.4118   -1.9526   12.5799 C   0  0  0  0  0  0  0  0  0  0  0  0
   -1.1029   -3.2681   12.2577 C   0  0  0  0  0  0  0  0  0  0  0  0
   -1.8459   -4.3086   12.7880 C   0  0  0  0  0  0  0  0  0  0  0  0
   -4.7356   -4.7875    9.2677 C   0  0  0  0  0  0  0  0  0  0  0  0
   -3.4803   -4.3834    8.6284 C   0  0  0  0  0  0  0  0  0  0  0  0
   -2.3180   -3.9636    9.2669 C   0  0  0  0  0  0  0  0  0  0  0  0
   -1.4095   -3.7469    8.3306 N   0  0  0  0  0  0  0  0  0  0  0  0
   -1.8969   -3.9965    7.1085 C   0  0  0  0  0  0  0  0  0  0  0  0
   -1.3765   -3.9156    5.8492 C   0  0  0  0  0  0  0  0  0  0  0  0
   -2.1439   -4.2288    4.7659 C   0  0  0  0  0  0  0  0  0  0  0  0
   -3.4528   -4.6328    4.8839 C   0  0  0  0  0  0  0  0  0  0  0  0
   -3.9752   -4.7144    6.1471 C   0  0  0  0  0  0  0  0  0  0  0  0
   -3.2228   -4.4055    7.2696 C   0  0  0  0  0  0  0  0  0  0  0  0
   -0.4190   -3.4170    8.5283 H   0  0  0  0  0  0  0  0  0  0  0  0
   -6.7691   -8.4762    6.9351 C   0  0  0  0  0  0  0  0  0  0  0  0
   -8.1210   -8.4233    7.4704 N   0  0  0  0  0  0  0  0  0  0  0  0
   -8.8729   -7.2630    7.7041 C   0  0  0  0  0  0  0  0  0  0  0  0
   -8.4269   -6.1356    7.4735 O   0  0  0  0  0  0  0  0  0  0  0  0
   -8.5874   -9.3468    7.7065 H   0  0  0  0  0  0  0  0  0  0  0  0
  -10.2671   -7.3501    8.2496 C   0  0  0  0  0  0  0  0  0  0  0  0
  -11.0629   -8.3035    7.5236 N   0  0  0  0  0  0  0  0  0  0  0  0
  -12.0152   -9.1062    8.1882 C   0  0  0  0  0  0  0  0  0  0  0  0
  -12.1366   -8.9658    9.4434 O   0  0  0  0  0  0  0  0  0  0  0  0
  -10.9546   -8.4248    6.4832 H   0  0  0  0  0  0  0  0  0  0  0  0
  -12.7744  -10.0028    7.4838 O   0  0  0  0  0  0  0  0  0  0  0  0
  -14.1604   -9.9350    7.4512 C   0  0  0  0  0  0  0  0  0  0  0  0
  -14.6895   -8.8974    6.5582 C   0  0  0  0  0  0  0  0  0  0  0  0
  -15.5698   -7.9583    6.9950 C   0  0  0  0  0  0  0  0  0  0  0  0
  -16.0481   -6.9997    6.1237 C   0  0  0  0  0  0  0  0  0  0  0  0
  -15.6245   -7.0075    4.8162 C   0  0  0  0  0  0  0  0  0  0  0  0
  -14.7276   -7.9640    4.3724 C   0  0  0  0  0  0  0  0  0  0  0  0
  -14.2457   -8.9190    5.2231 C   0  0  0  0  0  0  0  0  0  0  0  0
  -10.9000   -5.9844    8.2612 C   0  0  0  0  0  0  0  0  0  0  0  0
  -11.6065   -5.7691    9.5637 C   0  0  0  0  0  0  0  0  0  0  0  0
  -12.9491   -5.4705    9.5629 C   0  0  0  0  0  0  0  0  0  0  0  0
  -13.6140   -5.2664   10.7740 C   0  0  0  0  0  0  0  0  0  0  0  0
  -12.9022   -5.3698   11.9500 C   0  0  0  0  0  0  0  0  0  0  0  0
  -11.5489   -5.6714   11.9299 C   0  0  0  0  0  0  0  0  0  0  0  0
  -10.8890   -5.8741   10.7311 C   0  0  0  0  0  0  0  0  0  0  0  0
   -6.1062   -9.0412    4.6040 C   0  0  0  0  0  0  0  0  0  0  0  0
   -6.8666   -8.0345    5.5024 C   0  0  0  0  0  0  0  0  0  0  0  0
   -6.4355   -6.6517    5.1929 C   0  0  0  0  0  0  0  0  0  0  0  0
 59 60  1  0  0  0
 60 61  1  0  0  0
 60 34  1  0  0  0
 34 35  1  0  0  0
 35 36  1  0  0  0
 36 37  2  0  0  0
 36 39  1  0  0  0
 39 52  1  0  0  0
 52 53  1  0  0  0
 53 54  2  0  0  0
 54 55  1  0  0  0
 55 56  2  0  0  0
 56 57  1  0  0  0
 57 58  2  0  0  0
 39 40  1  0  0  0
 40 41  1  0  0  0
 41 42  2  0  0  0
 41 44  1  0  0  0
 44 45  1  0  0  0
 45 46  1  0  0  0
 46 47  2  0  0  0
 47 48  1  0  0  0
 48 49  2  0  0  0
 49 50  1  0  0  0
 50 51  2  0  0  0
 34  1  1  0  0  0
  1  2  2  0  0  0
  1  3  1  0  0  0
  3  5  1  0  0  0
  5 23  1  0  0  0
 23 24  1  0  0  0
 24 25  2  0  0  0
 25 26  1  0  0  0
 26 27  1  0  0  0
 27 28  2  0  0  0
 28 29  1  0  0  0
 29 30  2  0  0  0
 30 31  1  0  0  0
 31 32  2  0  0  0
  5  6  1  0  0  0
  6  7  2  0  0  0
  6  8  1  0  0  0
  8 10  1  0  0  0
 10 16  1  0  0  0
 16 17  1  0  0  0
 17 18  2  0  0  0
 18 19  1  0  0  0
 19 20  2  0  0  0
 20 21  1  0  0  0
 21 22  2  0  0  0
 10 11  1  0  0  0
 11 12  1  0  0  0
 11 13  2  0  0  0
 58 53  1  0  0  0
 51 46  1  0  0  0
 32 24  1  0  0  0
 22 17  1  0  0  0
 32 27  1  0  0  0
 35 38  1  0  0  0
 40 43  1  0  0  0
  3  4  1  0  0  0
 26 33  1  0  0  0
  8  9  1  0  0  0
 12 14  1  0  0  0
 12 15  1  0  0  0
M  END
> <minimizedAffinity>
-3.33765

> <CNNscore>
0.1629988998

> <CNNaffinity>
7.2430024147

> <CNN_VS>
1.1806014776

> <CNNaffinity_variance>
0.2269751579

$$$$
[H]c1c([H])c([H])c(C([H])([H])OC(=O)N([H])[C@@]([H])(C(=O)N([H])[C@]([H])(C(=O)N([H])[C@]([H])(C(=O)N([H])[C@]([H])(C(=O)N([H])[H])C([H])([H])c2c([H])c([H])c([H])c([H])c2[H])C([H])([H])c2c([H])n([H])c3c([H])c([H])c([H])c([H])c23)C([H])(C([H])([H])[H])C([H])([H])[H])C([H])([H])c2c([H])c([H])c([H])c([H])c2[H])c([H])c1[H]


 61 65  0  0  0  0  0  0  0  0999 V2000
   -8.8724   -6.4510    8.2406 C   0  0  0  0  0  0  0  0  0  0  0  0
   -8.2301   -6.8140    9.2885 O   0  0  0  0  0  0  0  0  0  0  0  0
   -8.0230   -6.1287    7.1489 N   0  0  0  0  0  0  0  0  0  0  0  0
   -8.4625   -5.8352    6.2540 H   0  0  0  0  0  0  0  0  0  0  0  0
   -6.5876   -6.1758    7.1658 C   0  0  0  0  0  0  0  0  0  0  0  0
   -6.0130   -5.7097    5.8518 C   0  0  0  0  0  0  0  0  0  0  0  0
   -6.6170   -6.0122    4.7995 O   0  0  0  0  0  0  0  0  0  0  0  0
   -4.8386   -4.9601    5.8032 N   0  0  0  0  0  0  0  0  0  0  0  0
   -4.3576   -4.7140    6.7023 H   0  0  0  0  0  0  0  0  0  0  0  0
   -4.2290   -4.4905    4.5825 C   0  0  0  0  0  0  0  0  0  0  0  0
   -2.9425   -5.1108    4.3001 C   0  0  0  0  0  0  0  0  0  0  0  0
   -2.1198   -4.7913    3.1859 N   0  0  0  0  0  0  0  0  0  0  0  0
   -2.4518   -6.0173    5.0614 O   0  0  0  0  0  0  0  0  0  0  0  0
   -1.2075   -4.3280    3.3040 H   0  0  0  0  0  0  0  0  0  0  0  0
   -2.4281   -5.0221    2.2075 H   0  0  0  0  0  0  0  0  0  0  0  0
   -4.2476   -2.9806    4.4824 C   0  0  0  0  0  0  0  0  0  0  0  0
   -3.8448   -2.2845    5.7197 C   0  0  0  0  0  0  0  0  0  0  0  0
   -2.9558   -2.8356    6.6281 C   0  0  0  0  0  0  0  0  0  0  0  0
   -2.5647   -2.1866    7.7877 C   0  0  0  0  0  0  0  0  0  0  0  0
   -3.0618   -0.9358    8.0844 C   0  0  0  0  0  0  0  0  0  0  0  0
   -3.9561   -0.3545    7.1944 C   0  0  0  0  0  0  0  0  0  0  0  0
   -4.3292   -1.0257    6.0429 C   0  0  0  0  0  0  0  0  0  0  0  0
   -6.0813   -7.5611    7.3625 C   0  0  0  0  0  0  0  0  0  0  0  0
   -4.6294   -7.7376    7.4556 C   0  0  0  0  0  0  0  0  0  0  0  0
   -3.8555   -8.6559    6.7538 C   0  0  0  0  0  0  0  0  0  0  0  0
   -2.5934   -8.4470    7.0898 N   0  0  0  0  0  0  0  0  0  0  0  0
   -2.4812   -7.4463    7.9724 C   0  0  0  0  0  0  0  0  0  0  0  0
   -1.4256   -6.8700    8.6182 C   0  0  0  0  0  0  0  0  0  0  0  0
   -1.6315   -5.8486    9.4984 C   0  0  0  0  0  0  0  0  0  0  0  0
   -2.8857   -5.3578    9.7752 C   0  0  0  0  0  0  0  0  0  0  0  0
   -3.9450   -5.9354    9.1274 C   0  0  0  0  0  0  0  0  0  0  0  0
   -3.7711   -6.9736    8.2254 C   0  0  0  0  0  0  0  0  0  0  0  0
   -1.7755   -9.0051    6.7046 H   0  0  0  0  0  0  0  0  0  0  0  0
  -10.3080   -6.4202    8.2981 C   0  0  0  0  0  0  0  0  0  0  0  0
  -10.9454   -7.5779    7.6896 N   0  0  0  0  0  0  0  0  0  0  0  0
  -12.2235   -7.6105    7.1139 C   0  0  0  0  0  0  0  0  0  0  0  0
  -12.9535   -6.6159    7.0819 O   0  0  0  0  0  0  0  0  0  0  0  0
  -10.3952   -8.4852    7.6758 H   0  0  0  0  0  0  0  0  0  0  0  0
  -12.7584   -8.8728    6.5060 C   0  0  0  0  0  0  0  0  0  0  0  0
  -14.1967   -8.8808    6.4777 N   0  0  0  0  0  0  0  0  0  0  0  0
  -14.8961   -8.8686    5.2516 C   0  0  0  0  0  0  0  0  0  0  0  0
  -14.2157   -8.8398    4.1810 O   0  0  0  0  0  0  0  0  0  0  0  0
  -14.7597   -8.8959    7.3674 H   0  0  0  0  0  0  0  0  0  0  0  0
  -16.2657   -8.8873    5.2379 O   0  0  0  0  0  0  0  0  0  0  0  0
  -17.0254   -7.8129    5.6800 C   0  0  0  0  0  0  0  0  0  0  0  0
  -16.6617   -6.5291    5.0690 C   0  0  0  0  0  0  0  0  0  0  0  0
  -15.5441   -5.8507    5.4409 C   0  0  0  0  0  0  0  0  0  0  0  0
  -15.2367   -4.6436    4.8451 C   0  0  0  0  0  0  0  0  0  0  0  0
  -16.0711   -4.1398    3.8760 C   0  0  0  0  0  0  0  0  0  0  0  0
  -17.2088   -4.8315    3.4975 C   0  0  0  0  0  0  0  0  0  0  0  0
  -17.5260   -6.0273    4.0784 C   0  0  0  0  0  0  0  0  0  0  0  0
  -12.2052  -10.0681    7.2349 C   0  0  0  0  0  0  0  0  0  0  0  0
  -10.7265  -10.1507    7.0147 C   0  0  0  0  0  0  0  0  0  0  0  0
   -9.8721   -9.9023    8.0636 C   0  0  0  0  0  0  0  0  0  0  0  0
   -8.4916   -9.9756    7.8649 C   0  0  0  0  0  0  0  0  0  0  0  0
   -8.0156  -10.2974    6.6118 C   0  0  0  0  0  0  0  0  0  0  0  0
   -8.8931  -10.5441    5.5669 C   0  0  0  0  0  0  0  0  0  0  0  0
  -10.2607  -10.4721    5.7623 C   0  0  0  0  0  0  0  0  0  0  0  0
  -11.9040   -7.4310    9.9180 C   0  0  0  0  0  0  0  0  0  0  0  0
  -10.9712   -6.2280    9.6325 C   0  0  0  0  0  0  0  0  0  0  0  0
  -11.7021   -4.9574    9.8447 C   0  0  0  0  0  0  0  0  0  0  0  0
 59 60  1  0  0  0
 60 61  1  0  0  0
 60 34  1  0  0  0
 34 35  1  0  0  0
 35 36  1  0  0  0
 36 37  2  0  0  0
 36 39  1  0  0  0
 39 52  1  0  0  0
 52 53  1  0  0  0
 53 54  2  0  0  0
 54 55  1  0  0  0
 55 56  2  0  0  0
 56 57  1  0  0  0
 57 58  2  0  0  0
 39 40  1  0  0  0
 40 41  1  0  0  0
 41 42  2  0  0  0
 41 44  1  0  0  0
 44 45  1  0  0  0
 45 46  1  0  0  0
 46 47  2  0  0  0
 47 48  1  0  0  0
 48 49  2  0  0  0
 49 50  1  0  0  0
 50 51  2  0  0  0
 34  1  1  0  0  0
  1  2  2  0  0  0
  1  3  1  0  0  0
  3  5  1  0  0  0
  5 23  1  0  0  0
 23 24  1  0  0  0
 24 25  2  0  0  0
 25 26  1  0  0  0
 26 27  1  0  0  0
 27 28  2  0  0  0
 28 29  1  0  0  0
 29 30  2  0  0  0
 30 31  1  0  0  0
 31 32  2  0  0  0
  5  6  1  0  0  0
  6  7  2  0  0  0
  6  8  1  0  0  0
  8 10  1  0  0  0
 10 16  1  0  0  0
 16 17  1  0  0  0
 17 18  2  0  0  0
 18 19  1  0  0  0
 19 20  2  0  0  0
 20 21  1  0  0  0
 21 22  2  0  0  0
 10 11  1  0  0  0
 11 12  1  0  0  0
 11 13  2  0  0  0
 58 53  1  0  0  0
 51 46  1  0  0  0
 32 24  1  0  0  0
 22 17  1  0  0  0
 32 27  1  0  0  0
 35 38  1  0  0  0
 40 43  1  0  0  0
  3  4  1  0  0  0
 26 33  1  0  0  0
  8  9  1  0  0  0
 12 14  1  0  0  0
 12 15  1  0  0  0
M  END
> <minimizedAffinity>
-4.40010

> <CNNscore>
0.1558972597

> <CNNaffinity>
7.2886266708

> <CNN_VS>
1.1362769604

> <CNNaffinity_variance>
0.1838741750

$$$$
[H]c1c([H])c([H])c(C([H])([H])OC(=O)N([H])[C@@]([H])(C(=O)N([H])[C@]([H])(C(=O)N([H])[C@]([H])(C(=O)N([H])[C@]([H])(C(=O)N([H])[H])C([H])([H])c2c([H])c([H])c([H])c([H])c2[H])C([H])([H])c2c([H])n([H])c3c([H])c([H])c([H])c([H])c23)C([H])(C([H])([H])[H])C([H])([H])[H])C([H])([H])c2c([H])c([H])c([H])c([H])c2[H])c([H])c1[H]


 61 65  0  0  0  0  0  0  0  0999 V2000
   -4.3478   -5.9114    7.9755 C   0  0  0  0  0  0  0  0  0  0  0  0
   -5.1985   -4.9776    7.7599 O   0  0  0  0  0  0  0  0  0  0  0  0
   -3.0679   -5.4244    8.3526 N   0  0  0  0  0  0  0  0  0  0  0  0
   -2.3198   -6.1159    8.5582 H   0  0  0  0  0  0  0  0  0  0  0  0
   -2.7065   -4.0405    8.4828 C   0  0  0  0  0  0  0  0  0  0  0  0
   -3.0753   -3.5083    9.8447 C   0  0  0  0  0  0  0  0  0  0  0  0
   -4.1812   -2.9409    9.9805 O   0  0  0  0  0  0  0  0  0  0  0  0
   -2.2105   -3.6418   10.9299 N   0  0  0  0  0  0  0  0  0  0  0  0
   -1.2926   -4.1296   10.7887 H   0  0  0  0  0  0  0  0  0  0  0  0
   -2.4947   -3.1487   12.2559 C   0  0  0  0  0  0  0  0  0  0  0  0
   -1.5654   -2.1218   12.7050 C   0  0  0  0  0  0  0  0  0  0  0  0
   -1.1273   -1.9611   14.0476 N   0  0  0  0  0  0  0  0  0  0  0  0
   -1.0666   -1.2652   11.8929 O   0  0  0  0  0  0  0  0  0  0  0  0
   -0.1493   -2.1348   14.3204 H   0  0  0  0  0  0  0  0  0  0  0  0
   -1.7985   -1.6600   14.7987 H   0  0  0  0  0  0  0  0  0  0  0  0
   -2.7323   -4.2724   13.2412 C   0  0  0  0  0  0  0  0  0  0  0  0
   -4.1557   -4.5752   13.4860 C   0  0  0  0  0  0  0  0  0  0  0  0
   -4.9112   -3.8921   14.4252 C   0  0  0  0  0  0  0  0  0  0  0  0
   -6.2500   -4.1629   14.6561 C   0  0  0  0  0  0  0  0  0  0  0  0
   -6.8924   -5.1490   13.9388 C   0  0  0  0  0  0  0  0  0  0  0  0
   -6.1634   -5.8536   12.9892 C   0  0  0  0  0  0  0  0  0  0  0  0
   -4.8268   -5.5617   12.7790 C   0  0  0  0  0  0  0  0  0  0  0  0
   -3.4288   -3.1849    7.5027 C   0  0  0  0  0  0  0  0  0  0  0  0
   -2.6512   -2.1515    6.8135 C   0  0  0  0  0  0  0  0  0  0  0  0
   -1.9736   -1.0884    7.4013 C   0  0  0  0  0  0  0  0  0  0  0  0
   -1.3598   -0.4281    6.4336 N   0  0  0  0  0  0  0  0  0  0  0  0
   -1.5883   -0.9870    5.2383 C   0  0  0  0  0  0  0  0  0  0  0  0
   -1.2021   -0.6844    3.9645 C   0  0  0  0  0  0  0  0  0  0  0  0
   -1.6197   -1.4527    2.9178 C   0  0  0  0  0  0  0  0  0  0  0  0
   -2.4342   -2.5474    3.0879 C   0  0  0  0  0  0  0  0  0  0  0  0
   -2.8217   -2.8515    4.3655 C   0  0  0  0  0  0  0  0  0  0  0  0
   -2.4139   -2.0933    5.4521 C   0  0  0  0  0  0  0  0  0  0  0  0
   -0.7614    0.4359    6.5902 H   0  0  0  0  0  0  0  0  0  0  0  0
   -4.7773   -7.2737    7.8189 C   0  0  0  0  0  0  0  0  0  0  0  0
   -6.1910   -7.4116    7.5040 N   0  0  0  0  0  0  0  0  0  0  0  0
   -7.0719   -8.3549    8.0520 C   0  0  0  0  0  0  0  0  0  0  0  0
   -6.7029   -9.1930    8.8793 O   0  0  0  0  0  0  0  0  0  0  0  0
   -6.5997   -6.7363    6.7947 H   0  0  0  0  0  0  0  0  0  0  0  0
   -8.5161   -8.3801    7.6485 C   0  0  0  0  0  0  0  0  0  0  0  0
   -9.3394   -7.6506    8.5755 N   0  0  0  0  0  0  0  0  0  0  0  0
   -9.9058   -6.4082    8.2173 C   0  0  0  0  0  0  0  0  0  0  0  0
   -9.6560   -5.9545    7.0590 O   0  0  0  0  0  0  0  0  0  0  0  0
   -9.5385   -8.0247    9.5395 H   0  0  0  0  0  0  0  0  0  0  0  0
  -10.6969   -5.7284    9.1054 O   0  0  0  0  0  0  0  0  0  0  0  0
  -11.5621   -6.3786    9.9746 C   0  0  0  0  0  0  0  0  0  0  0  0
  -12.8439   -6.7610    9.3708 C   0  0  0  0  0  0  0  0  0  0  0  0
  -13.7587   -7.5062   10.0456 C   0  0  0  0  0  0  0  0  0  0  0  0
  -14.9526   -7.8491    9.4425 C   0  0  0  0  0  0  0  0  0  0  0  0
  -15.2025   -7.4290    8.1579 C   0  0  0  0  0  0  0  0  0  0  0  0
  -14.2705   -6.6699    7.4716 C   0  0  0  0  0  0  0  0  0  0  0  0
  -13.0844   -6.3229    8.0554 C   0  0  0  0  0  0  0  0  0  0  0  0
   -8.9791   -9.8033    7.4868 C   0  0  0  0  0  0  0  0  0  0  0  0
  -10.4469   -9.8235    7.1916 C   0  0  0  0  0  0  0  0  0  0  0  0
  -10.8744   -9.7678    5.8855 C   0  0  0  0  0  0  0  0  0  0  0  0
  -12.2420   -9.7843    5.6030 C   0  0  0  0  0  0  0  0  0  0  0  0
  -13.1371   -9.8562    6.6489 C   0  0  0  0  0  0  0  0  0  0  0  0
  -12.6863   -9.9113    7.9591 C   0  0  0  0  0  0  0  0  0  0  0  0
  -11.3320   -9.8954    8.2405 C   0  0  0  0  0  0  0  0  0  0  0  0
   -2.9123   -8.9058    7.5927 C   0  0  0  0  0  0  0  0  0  0  0  0
   -4.0424   -8.1533    6.8474 C   0  0  0  0  0  0  0  0  0  0  0  0
   -3.5039   -7.5074    5.6281 C   0  0  0  0  0  0  0  0  0  0  0  0
 59 60  1  0  0  0
 60 61  1  0  0  0
 60 34  1  0  0  0
 34 35  1  0  0  0
 35 36  1  0  0  0
 36 37  2  0  0  0
 36 39  1  0  0  0
 39 52  1  0  0  0
 52 53  1  0  0  0
 53 54  2  0  0  0
 54 55  1  0  0  0
 55 56  2  0  0  0
 56 57  1  0  0  0
 57 58  2  0  0  0
 39 40  1  0  0  0
 40 41  1  0  0  0
 41 42  2  0  0  0
 41 44  1  0  0  0
 44 45  1  0  0  0
 45 46  1  0  0  0
 46 47  2  0  0  0
 47 48  1  0  0  0
 48 49  2  0  0  0
 49 50  1  0  0  0
 50 51  2  0  0  0
 34  1  1  0  0  0
  1  2  2  0  0  0
  1  3  1  0  0  0
  3  5  1  0  0  0
  5 23  1  0  0  0
 23 24  1  0  0  0
 24 25  2  0  0  0
 25 26  1  0  0  0
 26 27  1  0  0  0
 27 28  2  0  0  0
 28 29  1  0  0  0
 29 30  2  0  0  0
 30 31  1  0  0  0
 31 32  2  0  0  0
  5  6  1  0  0  0
  6  7  2  0  0  0
  6  8  1  0  0  0
  8 10  1  0  0  0
 10 16  1  0  0  0
 16 17  1  0  0  0
 17 18  2  0  0  0
 18 19  1  0  0  0
 19 20  2  0  0  0
 20 21  1  0  0  0
 21 22  2  0  0  0
 10 11  1  0  0  0
 11 12  1  0  0  0
 11 13  2  0  0  0
 58 53  1  0  0  0
 51 46  1  0  0  0
 32 24  1  0  0  0
 22 17  1  0  0  0
 32 27  1  0  0  0
 35 38  1  0  0  0
 40 43  1  0  0  0
  3  4  1  0  0  0
 26 33  1  0  0  0
  8  9  1  0  0  0
 12 14  1  0  0  0
 12 15  1  0  0  0
M  END
> <minimizedAffinity>
-4.04993

> <CNNscore>
0.1478113532

> <CNNaffinity>
7.1120018959

> <CNN_VS>
1.0512346029

> <CNNaffinity_variance>
0.5242775679

$$$$
[H]c1c([H])c([H])c(C([H])([H])OC(=O)N([H])[C@@]([H])(C(=O)N([H])[C@]([H])(C(=O)N([H])[C@]([H])(C(=O)N([H])[C@]([H])(C(=O)N([H])[H])C([H])([H])c2c([H])c([H])c([H])c([H])c2[H])C([H])([H])c2c([H])n([H])c3c([H])c([H])c([H])c([H])c23)C([H])(C([H])([H])[H])C([H])([H])[H])C([H])([H])c2c([H])c([H])c([H])c([H])c2[H])c([H])c1[H]


 61 65  0  0  0  0  0  0  0  0999 V2000
   -8.9596   -8.6218    7.2609 C   0  0  0  0  0  0  0  0  0  0  0  0
   -8.5941   -9.6782    7.8876 O   0  0  0  0  0  0  0  0  0  0  0  0
  -10.3649   -8.5447    7.0690 N   0  0  0  0  0  0  0  0  0  0  0  0
  -10.7491   -7.7127    6.5789 H   0  0  0  0  0  0  0  0  0  0  0  0
  -11.3213   -9.5251    7.5012 C   0  0  0  0  0  0  0  0  0  0  0  0
  -12.6612   -9.3028    6.8460 C   0  0  0  0  0  0  0  0  0  0  0  0
  -13.4460  -10.2721    6.7563 O   0  0  0  0  0  0  0  0  0  0  0  0
  -13.0233   -8.0510    6.3505 N   0  0  0  0  0  0  0  0  0  0  0  0
  -12.3482   -7.2539    6.4468 H   0  0  0  0  0  0  0  0  0  0  0  0
  -14.2827   -7.7703    5.7046 C   0  0  0  0  0  0  0  0  0  0  0  0
  -14.5699   -8.6537    4.5835 C   0  0  0  0  0  0  0  0  0  0  0  0
  -15.7099   -9.4979    4.4926 N   0  0  0  0  0  0  0  0  0  0  0  0
  -13.7867   -8.7327    3.5723 O   0  0  0  0  0  0  0  0  0  0  0  0
  -16.4474   -9.3349    3.7924 H   0  0  0  0  0  0  0  0  0  0  0  0
  -15.8267  -10.3139    5.1452 H   0  0  0  0  0  0  0  0  0  0  0  0
  -14.4581   -6.2947    5.4184 C   0  0  0  0  0  0  0  0  0  0  0  0
  -15.8205   -5.9151    4.9971 C   0  0  0  0  0  0  0  0  0  0  0  0
  -16.9566   -6.4310    5.5991 C   0  0  0  0  0  0  0  0  0  0  0  0
  -18.2394   -6.0744    5.2169 C   0  0  0  0  0  0  0  0  0  0  0  0
  -18.4330   -5.1690    4.1959 C   0  0  0  0  0  0  0  0  0  0  0  0
  -17.3146   -4.6327    3.5705 C   0  0  0  0  0  0  0  0  0  0  0  0
  -16.0442   -5.0067    3.9732 C   0  0  0  0  0  0  0  0  0  0  0  0
  -11.5678   -9.4500    8.9667 C   0  0  0  0  0  0  0  0  0  0  0  0
  -12.5157   -8.4357    9.4362 C   0  0  0  0  0  0  0  0  0  0  0  0
  -13.8571   -8.6307    9.7486 C   0  0  0  0  0  0  0  0  0  0  0  0
  -14.3334   -7.4755   10.1821 N   0  0  0  0  0  0  0  0  0  0  0  0
  -13.3908   -6.5244   10.1764 C   0  0  0  0  0  0  0  0  0  0  0  0
  -13.3823   -5.2007   10.5097 C   0  0  0  0  0  0  0  0  0  0  0  0
  -12.2411   -4.4651   10.3785 C   0  0  0  0  0  0  0  0  0  0  0  0
  -11.0663   -5.0071    9.9132 C   0  0  0  0  0  0  0  0  0  0  0  0
  -11.0742   -6.3350    9.5790 C   0  0  0  0  0  0  0  0  0  0  0  0
  -12.2156   -7.1120    9.7021 C   0  0  0  0  0  0  0  0  0  0  0  0
  -15.3378   -7.3264   10.4948 H   0  0  0  0  0  0  0  0  0  0  0  0
   -7.9472   -7.6876    6.8520 C   0  0  0  0  0  0  0  0  0  0  0  0
   -6.7798   -7.6689    7.7201 N   0  0  0  0  0  0  0  0  0  0  0  0
   -5.8957   -6.5945    7.8938 C   0  0  0  0  0  0  0  0  0  0  0  0
   -6.0344   -5.5274    7.2894 O   0  0  0  0  0  0  0  0  0  0  0  0
   -6.5741   -8.5479    8.2780 H   0  0  0  0  0  0  0  0  0  0  0  0
   -4.7329   -6.7030    8.8345 C   0  0  0  0  0  0  0  0  0  0  0  0
   -4.2398   -5.4080    9.2210 N   0  0  0  0  0  0  0  0  0  0  0  0
   -4.4612   -4.9085   10.5226 C   0  0  0  0  0  0  0  0  0  0  0  0
   -5.1163   -5.6331   11.3324 O   0  0  0  0  0  0  0  0  0  0  0  0
   -3.7038   -4.8043    8.5448 H   0  0  0  0  0  0  0  0  0  0  0  0
   -3.9771   -3.6783   10.8815 O   0  0  0  0  0  0  0  0  0  0  0  0
   -2.7263   -3.2290   10.4811 C   0  0  0  0  0  0  0  0  0  0  0  0
   -2.7617   -2.0267    9.6402 C   0  0  0  0  0  0  0  0  0  0  0  0
   -3.3384   -0.8720   10.0665 C   0  0  0  0  0  0  0  0  0  0  0  0
   -3.3551    0.2378    9.2451 C   0  0  0  0  0  0  0  0  0  0  0  0
   -2.7837    0.1600    7.9974 C   0  0  0  0  0  0  0  0  0  0  0  0
   -2.1963   -1.0162    7.5642 C   0  0  0  0  0  0  0  0  0  0  0  0
   -2.1723   -2.1227    8.3661 C   0  0  0  0  0  0  0  0  0  0  0  0
   -3.6536   -7.5538    8.2206 C   0  0  0  0  0  0  0  0  0  0  0  0
   -2.8146   -6.7176    7.3048 C   0  0  0  0  0  0  0  0  0  0  0  0
   -3.0427   -6.7635    5.9492 C   0  0  0  0  0  0  0  0  0  0  0  0
   -2.2626   -5.9877    5.0888 C   0  0  0  0  0  0  0  0  0  0  0  0
   -1.2750   -5.1887    5.6241 C   0  0  0  0  0  0  0  0  0  0  0  0
   -1.0602   -5.1565    6.9936 C   0  0  0  0  0  0  0  0  0  0  0  0
   -1.8322   -5.9241    7.8471 C   0  0  0  0  0  0  0  0  0  0  0  0
   -6.2121   -8.7259    5.4013 C   0  0  0  0  0  0  0  0  0  0  0  0
   -7.4241   -7.7626    5.4455 C   0  0  0  0  0  0  0  0  0  0  0  0
   -7.0791   -6.4821    4.7859 C   0  0  0  0  0  0  0  0  0  0  0  0
 59 60  1  0  0  0
 60 61  1  0  0  0
 60 34  1  0  0  0
 34 35  1  0  0  0
 35 36  1  0  0  0
 36 37  2  0  0  0
 36 39  1  0  0  0
 39 52  1  0  0  0
 52 53  1  0  0  0
 53 54  2  0  0  0
 54 55  1  0  0  0
 55 56  2  0  0  0
 56 57  1  0  0  0
 57 58  2  0  0  0
 39 40  1  0  0  0
 40 41  1  0  0  0
 41 42  2  0  0  0
 41 44  1  0  0  0
 44 45  1  0  0  0
 45 46  1  0  0  0
 46 47  2  0  0  0
 47 48  1  0  0  0
 48 49  2  0  0  0
 49 50  1  0  0  0
 50 51  2  0  0  0
 34  1  1  0  0  0
  1  2  2  0  0  0
  1  3  1  0  0  0
  3  5  1  0  0  0
  5 23  1  0  0  0
 23 24  1  0  0  0
 24 25  2  0  0  0
 25 26  1  0  0  0
 26 27  1  0  0  0
 27 28  2  0  0  0
 28 29  1  0  0  0
 29 30  2  0  0  0
 30 31  1  0  0  0
 31 32  2  0  0  0
  5  6  1  0  0  0
  6  7  2  0  0  0
  6  8  1  0  0  0
  8 10  1  0  0  0
 10 16  1  0  0  0
 16 17  1  0  0  0
 17 18  2  0  0  0
 18 19  1  0  0  0
 19 20  2  0  0  0
 20 21  1  0  0  0
 21 22  2  0  0  0
 10 11  1  0  0  0
 11 12  1  0  0  0
 11 13  2  0  0  0
 58 53  1  0  0  0
 51 46  1  0  0  0
 32 24  1  0  0  0
 22 17  1  0  0  0
 32 27  1  0  0  0
 35 38  1  0  0  0
 40 43  1  0  0  0
  3  4  1  0  0  0
 26 33  1  0  0  0
  8  9  1  0  0  0
 12 14  1  0  0  0
 12 15  1  0  0  0
M  END
> <minimizedAffinity>
-6.05263

> <CNNscore>
0.1182433963

> <CNNaffinity>
7.5935592651

> <CNN_VS>
0.8978882432

> <CNNaffinity_variance>
0.0391746350

$$$$
[H]c1c([H])c([H])c(C([H])([H])OC(=O)N([H])[C@@]([H])(C(=O)N([H])[C@]([H])(C(=O)N([H])[C@]([H])(C(=O)N([H])[C@]([H])(C(=O)N([H])[H])C([H])([H])c2c([H])c([H])c([H])c([H])c2[H])C([H])([H])c2c([H])n([H])c3c([H])c([H])c([H])c([H])c23)C([H])(C([H])([H])[H])C([H])([H])[H])C([H])([H])c2c([H])c([H])c([H])c([H])c2[H])c([H])c1[H]


 61 65  0  0  0  0  0  0  0  0999 V2000
   -6.7917   -6.8248    6.9516 C   0  0  0  0  0  0  0  0  0  0  0  0
   -6.8802   -7.2903    5.7609 O   0  0  0  0  0  0  0  0  0  0  0  0
   -5.6333   -6.0284    7.1549 N   0  0  0  0  0  0  0  0  0  0  0  0
   -5.4889   -5.6009    8.0911 H   0  0  0  0  0  0  0  0  0  0  0  0
   -4.6277   -5.7505    6.1679 C   0  0  0  0  0  0  0  0  0  0  0  0
   -3.2675   -5.6082    6.8031 C   0  0  0  0  0  0  0  0  0  0  0  0
   -2.3009   -6.1995    6.2744 O   0  0  0  0  0  0  0  0  0  0  0  0
   -3.0841   -4.8384    7.9509 N   0  0  0  0  0  0  0  0  0  0  0  0
   -3.9115   -4.3468    8.3682 H   0  0  0  0  0  0  0  0  0  0  0  0
   -1.8147   -4.6670    8.6154 C   0  0  0  0  0  0  0  0  0  0  0  0
   -1.5088   -5.7271    9.5653 C   0  0  0  0  0  0  0  0  0  0  0  0
   -1.6657   -5.6187   10.9738 N   0  0  0  0  0  0  0  0  0  0  0  0
   -1.0608   -6.8647    9.1815 O   0  0  0  0  0  0  0  0  0  0  0  0
   -2.3709   -6.1712   11.4822 H   0  0  0  0  0  0  0  0  0  0  0  0
   -1.0606   -4.9651   11.5324 H   0  0  0  0  0  0  0  0  0  0  0  0
   -1.6363   -3.2609    9.1457 C   0  0  0  0  0  0  0  0  0  0  0  0
   -1.4928   -2.2304    8.0992 C   0  0  0  0  0  0  0  0  0  0  0  0
   -1.1880   -2.5423    6.7842 C   0  0  0  0  0  0  0  0  0  0  0  0
   -1.0599   -1.5832    5.7930 C   0  0  0  0  0  0  0  0  0  0  0  0
   -1.2361   -0.2491    6.0910 C   0  0  0  0  0  0  0  0  0  0  0  0
   -1.5423    0.0981    7.4008 C   0  0  0  0  0  0  0  0  0  0  0  0
   -1.6646   -0.8813    8.3712 C   0  0  0  0  0  0  0  0  0  0  0  0
   -4.8837   -4.4652    5.4631 C   0  0  0  0  0  0  0  0  0  0  0  0
   -3.8963   -4.0377    4.4681 C   0  0  0  0  0  0  0  0  0  0  0  0
   -2.9759   -4.8451    3.8081 C   0  0  0  0  0  0  0  0  0  0  0  0
   -2.3142   -4.0767    2.9589 N   0  0  0  0  0  0  0  0  0  0  0  0
   -2.7382   -2.8078    3.0146 C   0  0  0  0  0  0  0  0  0  0  0  0
   -2.3771   -1.6618    2.3668 C   0  0  0  0  0  0  0  0  0  0  0  0
   -2.9982   -0.4824    2.6564 C   0  0  0  0  0  0  0  0  0  0  0  0
   -3.9977   -0.3890    3.5960 C   0  0  0  0  0  0  0  0  0  0  0  0
   -4.3605   -1.5384    4.2459 C   0  0  0  0  0  0  0  0  0  0  0  0
   -3.7516   -2.7538    3.9744 C   0  0  0  0  0  0  0  0  0  0  0  0
   -1.5446   -4.4272    2.3156 H   0  0  0  0  0  0  0  0  0  0  0  0
   -7.8310   -7.1500    7.8892 C   0  0  0  0  0  0  0  0  0  0  0  0
   -8.9482   -7.8727    7.3007 N   0  0  0  0  0  0  0  0  0  0  0  0
  -10.2909   -7.7820    7.6945 C   0  0  0  0  0  0  0  0  0  0  0  0
  -10.6538   -7.0548    8.6232 O   0  0  0  0  0  0  0  0  0  0  0  0
   -8.7328   -8.5304    6.4962 H   0  0  0  0  0  0  0  0  0  0  0  0
  -11.3513   -8.5757    6.9912 C   0  0  0  0  0  0  0  0  0  0  0  0
  -12.3562   -7.7243    6.4127 N   0  0  0  0  0  0  0  0  0  0  0  0
  -13.2821   -8.2315    5.4756 C   0  0  0  0  0  0  0  0  0  0  0  0
  -13.1909   -9.4557    5.1549 O   0  0  0  0  0  0  0  0  0  0  0  0
  -12.4248   -6.7063    6.6736 H   0  0  0  0  0  0  0  0  0  0  0  0
  -14.2411   -7.4129    4.9401 O   0  0  0  0  0  0  0  0  0  0  0  0
  -15.0681   -6.6259    5.7298 C   0  0  0  0  0  0  0  0  0  0  0  0
  -16.3805   -6.3492    5.1340 C   0  0  0  0  0  0  0  0  0  0  0  0
  -16.9251   -5.1039    5.1493 C   0  0  0  0  0  0  0  0  0  0  0  0
  -18.1642   -4.8833    4.5812 C   0  0  0  0  0  0  0  0  0  0  0  0
  -18.8359   -5.9338    4.0030 C   0  0  0  0  0  0  0  0  0  0  0  0
  -18.2804   -7.2016    3.9876 C   0  0  0  0  0  0  0  0  0  0  0  0
  -17.0550   -7.4351    4.5460 C   0  0  0  0  0  0  0  0  0  0  0  0
  -11.9473   -9.5856    7.9350 C   0  0  0  0  0  0  0  0  0  0  0  0
  -13.1215   -8.9816    8.6409 C   0  0  0  0  0  0  0  0  0  0  0  0
  -12.9113   -8.1859    9.7430 C   0  0  0  0  0  0  0  0  0  0  0  0
  -14.0021   -7.6210   10.4076 C   0  0  0  0  0  0  0  0  0  0  0  0
  -15.2728   -7.8772    9.9389 C   0  0  0  0  0  0  0  0  0  0  0  0
  -15.4641   -8.6823    8.8263 C   0  0  0  0  0  0  0  0  0  0  0  0
  -14.3848   -9.2424    8.1668 C   0  0  0  0  0  0  0  0  0  0  0  0
   -6.1757   -7.2762    9.7431 C   0  0  0  0  0  0  0  0  0  0  0  0
   -7.4635   -7.8924    9.1427 C   0  0  0  0  0  0  0  0  0  0  0  0
   -7.3213   -9.3630    9.0375 C   0  0  0  0  0  0  0  0  0  0  0  0
 59 60  1  0  0  0
 60 61  1  0  0  0
 60 34  1  0  0  0
 34 35  1  0  0  0
 35 36  1  0  0  0
 36 37  2  0  0  0
 36 39  1  0  0  0
 39 52  1  0  0  0
 52 53  1  0  0  0
 53 54  2  0  0  0
 54 55  1  0  0  0
 55 56  2  0  0  0
 56 57  1  0  0  0
 57 58  2  0  0  0
 39 40  1  0  0  0
 40 41  1  0  0  0
 41 42  2  0  0  0
 41 44  1  0  0  0
 44 45  1  0  0  0
 45 46  1  0  0  0
 46 47  2  0  0  0
 47 48  1  0  0  0
 48 49  2  0  0  0
 49 50  1  0  0  0
 50 51  2  0  0  0
 34  1  1  0  0  0
  1  2  2  0  0  0
  1  3  1  0  0  0
  3  5  1  0  0  0
  5 23  1  0  0  0
 23 24  1  0  0  0
 24 25  2  0  0  0
 25 26  1  0  0  0
 26 27  1  0  0  0
 27 28  2  0  0  0
 28 29  1  0  0  0
 29 30  2  0  0  0
 30 31  1  0  0  0
 31 32  2  0  0  0
  5  6  1  0  0  0
  6  7  2  0  0  0
  6  8  1  0  0  0
  8 10  1  0  0  0
 10 16  1  0  0  0
 16 17  1  0  0  0
 17 18  2  0  0  0
 18 19  1  0  0  0
 19 20  2  0  0  0
 20 21  1  0  0  0
 21 22  2  0  0  0
 10 11  1  0  0  0
 11 12  1  0  0  0
 11 13  2  0  0  0
 58 53  1  0  0  0
 51 46  1  0  0  0
 32 24  1  0  0  0
 22 17  1  0  0  0
 32 27  1  0  0  0
 35 38  1  0  0  0
 40 43  1  0  0  0
  3  4  1  0  0  0
 26 33  1  0  0  0
  8  9  1  0  0  0
 12 14  1  0  0  0
 12 15  1  0  0  0
M  END
> <minimizedAffinity>
-4.78981

> <CNNscore>
0.1167964488

> <CNNaffinity>
6.9363198280

> <CNN_VS>
0.8101375103

> <CNNaffinity_variance>
0.4760910869

$$$$
[H]c1c([H])c([H])c(C([H])([H])OC(=O)N([H])[C@@]([H])(C(=O)N([H])[C@]([H])(C(=O)N([H])[C@]([H])(C(=O)N([H])[C@]([H])(C(=O)N([H])[H])C([H])([H])c2c([H])c([H])c([H])c([H])c2[H])C([H])([H])c2c([H])n([H])c3c([H])c([H])c([H])c([H])c23)C([H])(C([H])([H])[H])C([H])([H])[H])C([H])([H])c2c([H])c([H])c([H])c([H])c2[H])c([H])c1[H]


 61 65  0  0  0  0  0  0  0  0999 V2000
   -5.4506   -6.7498    7.6548 C   0  0  0  0  0  0  0  0  0  0  0  0
   -5.6086   -6.5367    8.9086 O   0  0  0  0  0  0  0  0  0  0  0  0
   -4.3480   -6.0446    7.1033 N   0  0  0  0  0  0  0  0  0  0  0  0
   -4.1404   -6.1696    6.0926 H   0  0  0  0  0  0  0  0  0  0  0  0
   -3.4751   -5.1626    7.8264 C   0  0  0  0  0  0  0  0  0  0  0  0
   -3.1225   -3.9504    7.0018 C   0  0  0  0  0  0  0  0  0  0  0  0
   -2.0234   -3.3913    7.2086 O   0  0  0  0  0  0  0  0  0  0  0  0
   -3.9946   -3.4593    6.0313 N   0  0  0  0  0  0  0  0  0  0  0  0
   -4.9065   -3.9534    5.8736 H   0  0  0  0  0  0  0  0  0  0  0  0
   -3.7259   -2.3006    5.2143 C   0  0  0  0  0  0  0  0  0  0  0  0
   -3.9969   -1.0392    5.8888 C   0  0  0  0  0  0  0  0  0  0  0  0
   -3.1091   -0.4037    6.7989 N   0  0  0  0  0  0  0  0  0  0  0  0
   -5.0910   -0.3987    5.7021 O   0  0  0  0  0  0  0  0  0  0  0  0
   -2.6535    0.4918    6.5718 H   0  0  0  0  0  0  0  0  0  0  0  0
   -2.8952   -0.8385    7.7320 H   0  0  0  0  0  0  0  0  0  0  0  0
   -4.3262   -2.4290    3.8311 C   0  0  0  0  0  0  0  0  0  0  0  0
   -3.3935   -2.9420    2.8091 C   0  0  0  0  0  0  0  0  0  0  0  0
   -3.5966   -2.7493    1.4523 C   0  0  0  0  0  0  0  0  0  0  0  0
   -2.7226   -3.2191    0.4857 C   0  0  0  0  0  0  0  0  0  0  0  0
   -1.5902   -3.9138    0.8526 C   0  0  0  0  0  0  0  0  0  0  0  0
   -1.3567   -4.1249    2.2057 C   0  0  0  0  0  0  0  0  0  0  0  0
   -2.2469   -3.6438    3.1501 C   0  0  0  0  0  0  0  0  0  0  0  0
   -2.1812   -5.8164    8.1620 C   0  0  0  0  0  0  0  0  0  0  0  0
   -1.9540   -7.1642    7.6334 C   0  0  0  0  0  0  0  0  0  0  0  0
   -2.0517   -8.3613    8.3350 C   0  0  0  0  0  0  0  0  0  0  0  0
   -1.8223   -9.3415    7.4772 N   0  0  0  0  0  0  0  0  0  0  0  0
   -1.5775   -8.8692    6.2483 C   0  0  0  0  0  0  0  0  0  0  0  0
   -1.2802   -9.4562    5.0524 C   0  0  0  0  0  0  0  0  0  0  0  0
   -1.0606   -8.6903    3.9453 C   0  0  0  0  0  0  0  0  0  0  0  0
   -1.1253   -7.3172    3.9764 C   0  0  0  0  0  0  0  0  0  0  0  0
   -1.4238   -6.7278    5.1758 C   0  0  0  0  0  0  0  0  0  0  0  0
   -1.6547   -7.4763    6.3195 C   0  0  0  0  0  0  0  0  0  0  0  0
   -1.8327  -10.3721    7.7355 H   0  0  0  0  0  0  0  0  0  0  0  0
   -6.3664   -7.6386    6.9942 C   0  0  0  0  0  0  0  0  0  0  0  0
   -7.7537   -7.4555    7.3929 N   0  0  0  0  0  0  0  0  0  0  0  0
   -8.6403   -8.4669    7.7891 C   0  0  0  0  0  0  0  0  0  0  0  0
   -8.3060   -9.6543    7.8257 O   0  0  0  0  0  0  0  0  0  0  0  0
   -8.1352   -6.4653    7.3866 H   0  0  0  0  0  0  0  0  0  0  0  0
  -10.0477   -8.1387    8.1899 C   0  0  0  0  0  0  0  0  0  0  0  0
  -11.0074   -8.7637    7.3193 N   0  0  0  0  0  0  0  0  0  0  0  0
  -12.1067   -9.4751    7.8466 C   0  0  0  0  0  0  0  0  0  0  0  0
  -12.2126   -9.5528    9.1086 O   0  0  0  0  0  0  0  0  0  0  0  0
  -10.9130   -8.7055    6.2721 H   0  0  0  0  0  0  0  0  0  0  0  0
  -13.0196  -10.0566    7.0069 O   0  0  0  0  0  0  0  0  0  0  0  0
  -13.3590   -9.4994    5.7817 C   0  0  0  0  0  0  0  0  0  0  0  0
  -14.5275   -8.6127    5.8291 C   0  0  0  0  0  0  0  0  0  0  0  0
  -15.2481   -8.4388    6.9685 C   0  0  0  0  0  0  0  0  0  0  0  0
  -16.3437   -7.5984    6.9731 C   0  0  0  0  0  0  0  0  0  0  0  0
  -16.6941   -6.9434    5.8166 C   0  0  0  0  0  0  0  0  0  0  0  0
  -15.9595   -7.1208    4.6569 C   0  0  0  0  0  0  0  0  0  0  0  0
  -14.8727   -7.9494    4.6372 C   0  0  0  0  0  0  0  0  0  0  0  0
  -10.2305   -6.6456    8.2463 C   0  0  0  0  0  0  0  0  0  0  0  0
  -11.3676   -6.3129    9.1617 C   0  0  0  0  0  0  0  0  0  0  0  0
  -12.6585   -6.3995    8.6949 C   0  0  0  0  0  0  0  0  0  0  0  0
  -13.7240   -6.0886    9.5427 C   0  0  0  0  0  0  0  0  0  0  0  0
  -13.4532   -5.6991   10.8370 C   0  0  0  0  0  0  0  0  0  0  0  0
  -12.1447   -5.6176   11.2888 C   0  0  0  0  0  0  0  0  0  0  0  0
  -11.0884   -5.9255   10.4504 C   0  0  0  0  0  0  0  0  0  0  0  0
   -7.2853   -6.5737    4.9412 C   0  0  0  0  0  0  0  0  0  0  0  0
   -6.3636   -7.6897    5.4926 C   0  0  0  0  0  0  0  0  0  0  0  0
   -6.7032   -8.9861    4.8621 C   0  0  0  0  0  0  0  0  0  0  0  0
 59 60  1  0  0  0
 60 61  1  0  0  0
 60 34  1  0  0  0
 34 35  1  0  0  0
 35 36  1  0  0  0
 36 37  2  0  0  0
 36 39  1  0  0  0
 39 52  1  0  0  0
 52 53  1  0  0  0
 53 54  2  0  0  0
 54 55  1  0  0  0
 55 56  2  0  0  0
 56 57  1  0  0  0
 57 58  2  0  0  0
 39 40  1  0  0  0
 40 41  1  0  0  0
 41 42  2  0  0  0
 41 44  1  0  0  0
 44 45  1  0  0  0
 45 46  1  0  0  0
 46 47  2  0  0  0
 47 48  1  0  0  0
 48 49  2  0  0  0
 49 50  1  0  0  0
 50 51  2  0  0  0
 34  1  1  0  0  0
  1  2  2  0  0  0
  1  3  1  0  0  0
  3  5  1  0  0  0
  5 23  1  0  0  0
 23 24  1  0  0  0
 24 25  2  0  0  0
 25 26  1  0  0  0
 26 27  1  0  0  0
 27 28  2  0  0  0
 28 29  1  0  0  0
 29 30  2  0  0  0
 30 31  1  0  0  0
 31 32  2  0  0  0
  5  6  1  0  0  0
  6  7  2  0  0  0
  6  8  1  0  0  0
  8 10  1  0  0  0
 10 16  1  0  0  0
 16 17  1  0  0  0
 17 18  2  0  0  0
 18 19  1  0  0  0
 19 20  2  0  0  0
 20 21  1  0  0  0
 21 22  2  0  0  0
 10 11  1  0  0  0
 11 12  1  0  0  0
 11 13  2  0  0  0
 58 53  1  0  0  0
 51 46  1  0  0  0
 32 24  1  0  0  0
 22 17  1  0  0  0
 32 27  1  0  0  0
 35 38  1  0  0  0
 40 43  1  0  0  0
  3  4  1  0  0  0
 26 33  1  0  0  0
  8  9  1  0  0  0
 12 14  1  0  0  0
 12 15  1  0  0  0
M  END
> <minimizedAffinity>
-8.22791

> <CNNscore>
0.1101323590

> <CNNaffinity>
7.0485506058

> <CNN_VS>
0.7762734890

> <CNNaffinity_variance>
0.4610100687

$$$$
[H]c1c([H])c([H])c(C([H])([H])OC(=O)N([H])[C@@]([H])(C(=O)N([H])[C@]([H])(C(=O)N([H])[C@]([H])(C(=O)N([H])[C@]([H])(C(=O)N([H])[H])C([H])([H])c2c([H])c([H])c([H])c([H])c2[H])C([H])([H])c2c([H])n([H])c3c([H])c([H])c([H])c([H])c23)C([H])(C([H])([H])[H])C([H])([H])[H])C([H])([H])c2c([H])c([H])c([H])c([H])c2[H])c([H])c1[H]


 61 65  0  0  0  0  0  0  0  0999 V2000
   -5.0749   -6.4837    8.7036 C   0  0  0  0  0  0  0  0  0  0  0  0
   -3.9024   -6.9930    8.7943 O   0  0  0  0  0  0  0  0  0  0  0  0
   -5.3643   -5.5603    9.7433 N   0  0  0  0  0  0  0  0  0  0  0  0
   -6.2914   -5.0906    9.7395 H   0  0  0  0  0  0  0  0  0  0  0  0
   -4.4772   -5.2056   10.8156 C   0  0  0  0  0  0  0  0  0  0  0  0
   -5.1689   -5.3132   12.1512 C   0  0  0  0  0  0  0  0  0  0  0  0
   -6.1404   -6.0936   12.2552 O   0  0  0  0  0  0  0  0  0  0  0  0
   -4.7421   -4.5647   13.2472 N   0  0  0  0  0  0  0  0  0  0  0  0
   -3.9193   -3.9241   13.1332 H   0  0  0  0  0  0  0  0  0  0  0  0
   -5.3625   -4.6111   14.5492 C   0  0  0  0  0  0  0  0  0  0  0  0
   -5.6672   -3.2959   15.0943 C   0  0  0  0  0  0  0  0  0  0  0  0
   -6.9628   -2.7118   15.1162 N   0  0  0  0  0  0  0  0  0  0  0  0
   -4.7568   -2.5526   15.6050 O   0  0  0  0  0  0  0  0  0  0  0  0
   -7.4650   -2.5460   16.0002 H   0  0  0  0  0  0  0  0  0  0  0  0
   -7.4418   -2.4349   14.2222 H   0  0  0  0  0  0  0  0  0  0  0  0
   -4.6334   -5.5423   15.4933 C   0  0  0  0  0  0  0  0  0  0  0  0
   -3.4682   -6.2231   14.8960 C   0  0  0  0  0  0  0  0  0  0  0  0
   -2.3480   -5.5354   14.4585 C   0  0  0  0  0  0  0  0  0  0  0  0
   -1.2459   -6.1660   13.9047 C   0  0  0  0  0  0  0  0  0  0  0  0
   -1.2274   -7.5372   13.7666 C   0  0  0  0  0  0  0  0  0  0  0  0
   -2.3354   -8.2571   14.1951 C   0  0  0  0  0  0  0  0  0  0  0  0
   -3.4229   -7.6010   14.7452 C   0  0  0  0  0  0  0  0  0  0  0  0
   -4.0157   -3.7950   10.7092 C   0  0  0  0  0  0  0  0  0  0  0  0
   -2.9310   -3.5137    9.7648 C   0  0  0  0  0  0  0  0  0  0  0  0
   -1.9164   -4.3835    9.3788 C   0  0  0  0  0  0  0  0  0  0  0  0
   -1.1820   -3.7570    8.4748 N   0  0  0  0  0  0  0  0  0  0  0  0
   -1.6459   -2.5236    8.2366 C   0  0  0  0  0  0  0  0  0  0  0  0
   -1.2444   -1.5040    7.4227 C   0  0  0  0  0  0  0  0  0  0  0  0
   -1.9289   -0.3243    7.4085 C   0  0  0  0  0  0  0  0  0  0  0  0
   -3.0343   -0.1058    8.1965 C   0  0  0  0  0  0  0  0  0  0  0  0
   -3.4376   -1.1285    9.0130 C   0  0  0  0  0  0  0  0  0  0  0  0
   -2.7663   -2.3407    9.0506 C   0  0  0  0  0  0  0  0  0  0  0  0
   -0.3324   -4.1832    8.0000 H   0  0  0  0  0  0  0  0  0  0  0  0
   -5.9114   -6.8905    7.6083 C   0  0  0  0  0  0  0  0  0  0  0  0
   -7.3330   -6.8759    7.9177 N   0  0  0  0  0  0  0  0  0  0  0  0
   -8.1787   -7.9930    7.9724 C   0  0  0  0  0  0  0  0  0  0  0  0
   -7.7715   -9.1351    7.7427 O   0  0  0  0  0  0  0  0  0  0  0  0
   -7.7766   -5.9341    8.1237 H   0  0  0  0  0  0  0  0  0  0  0  0
   -9.6299   -7.8396    8.3181 C   0  0  0  0  0  0  0  0  0  0  0  0
  -10.4694   -8.6098    7.4398 N   0  0  0  0  0  0  0  0  0  0  0  0
  -11.5811   -9.3209    7.9412 C   0  0  0  0  0  0  0  0  0  0  0  0
  -11.8067   -9.2659    9.1887 O   0  0  0  0  0  0  0  0  0  0  0  0
  -10.2755   -8.6614    6.4061 H   0  0  0  0  0  0  0  0  0  0  0  0
  -12.3791  -10.0420    7.0929 O   0  0  0  0  0  0  0  0  0  0  0  0
  -12.7944   -9.5450    5.8652 C   0  0  0  0  0  0  0  0  0  0  0  0
  -14.1251   -8.9265    5.8875 C   0  0  0  0  0  0  0  0  0  0  0  0
  -14.7042   -8.5163    7.0468 C   0  0  0  0  0  0  0  0  0  0  0  0
  -15.9596   -7.9414    7.0279 C   0  0  0  0  0  0  0  0  0  0  0  0
  -16.6123   -7.7901    5.8278 C   0  0  0  0  0  0  0  0  0  0  0  0
  -16.0216   -8.2077    4.6476 C   0  0  0  0  0  0  0  0  0  0  0  0
  -14.7797   -8.7785    4.6508 C   0  0  0  0  0  0  0  0  0  0  0  0
  -10.0062   -6.3821    8.3181 C   0  0  0  0  0  0  0  0  0  0  0  0
  -11.1842   -6.1674    9.2172 C   0  0  0  0  0  0  0  0  0  0  0  0
  -12.4541   -6.2224    8.6918 C   0  0  0  0  0  0  0  0  0  0  0  0
  -13.5574   -6.0211    9.5242 C   0  0  0  0  0  0  0  0  0  0  0  0
  -13.3445   -5.7699   10.8627 C   0  0  0  0  0  0  0  0  0  0  0  0
  -12.0563   -5.7181   11.3734 C   0  0  0  0  0  0  0  0  0  0  0  0
  -10.9625   -5.9175   10.5503 C   0  0  0  0  0  0  0  0  0  0  0  0
   -6.6550   -6.8868    5.2334 C   0  0  0  0  0  0  0  0  0  0  0  0
   -5.7611   -6.1889    6.2883 C   0  0  0  0  0  0  0  0  0  0  0  0
   -4.3855   -6.0298    5.7627 C   0  0  0  0  0  0  0  0  0  0  0  0
 59 60  1  0  0  0
 60 61  1  0  0  0
 60 34  1  0  0  0
 34 35  1  0  0  0
 35 36  1  0  0  0
 36 37  2  0  0  0
 36 39  1  0  0  0
 39 52  1  0  0  0
 52 53  1  0  0  0
 53 54  2  0  0  0
 54 55  1  0  0  0
 55 56  2  0  0  0
 56 57  1  0  0  0
 57 58  2  0  0  0
 39 40  1  0  0  0
 40 41  1  0  0  0
 41 42  2  0  0  0
 41 44  1  0  0  0
 44 45  1  0  0  0
 45 46  1  0  0  0
 46 47  2  0  0  0
 47 48  1  0  0  0
 48 49  2  0  0  0
 49 50  1  0  0  0
 50 51  2  0  0  0
 34  1  1  0  0  0
  1  2  2  0  0  0
  1  3  1  0  0  0
  3  5  1  0  0  0
  5 23  1  0  0  0
 23 24  1  0  0  0
 24 25  2  0  0  0
 25 26  1  0  0  0
 26 27  1  0  0  0
 27 28  2  0  0  0
 28 29  1  0  0  0
 29 30  2  0  0  0
 30 31  1  0  0  0
 31 32  2  0  0  0
  5  6  1  0  0  0
  6  7  2  0  0  0
  6  8  1  0  0  0
  8 10  1  0  0  0
 10 16  1  0  0  0
 16 17  1  0  0  0
 17 18  2  0  0  0
 18 19  1  0  0  0
 19 20  2  0  0  0
 20 21  1  0  0  0
 21 22  2  0  0  0
 10 11  1  0  0  0
 11 12  1  0  0  0
 11 13  2  0  0  0
 58 53  1  0  0  0
 51 46  1  0  0  0
 32 24  1  0  0  0
 22 17  1  0  0  0
 32 27  1  0  0  0
 35 38  1  0  0  0
 40 43  1  0  0  0
  3  4  1  0  0  0
 26 33  1  0  0  0
  8  9  1  0  0  0
 12 14  1  0  0  0
 12 15  1  0  0  0
M  END
> <minimizedAffinity>
-7.74333

> <CNNscore>
0.1069687232

> <CNNaffinity>
7.1501741409

> <CNN_VS>
0.7648450136

> <CNNaffinity_variance>
0.1122723818

$$$$
[H]c1c([H])c(C([H])([H])N2C(=O)C(C([H])([H])[H])(C([H])([H])[H])N([H])C2([H])[H])c([H])c([H])c1[N+](=O)[O-]


 19 20  0  0  0  0  0  0  0  0999 V2000
  -13.6965   -6.9584    8.6777 C   0  0  0  0  0  0  0  0  0  0  0  0
  -17.1615   -6.4487    5.2284 C   0  0  0  0  0  0  0  0  0  0  0  0
  -16.2295   -7.4123    5.9300 C   0  0  0  0  0  0  0  0  0  0  0  0
  -15.9199   -8.5512    4.9964 C   0  0  0  0  0  0  0  0  0  0  0  0
  -16.8940   -7.9034    7.1095 N   0  0  0  0  0  0  0  0  0  0  0  0
  -15.7799   -8.2650    7.9720 C   0  0  0  0  0  0  0  0  0  0  0  0
  -14.7500   -7.2757    7.7473 N   0  0  0  0  0  0  0  0  0  0  0  0
  -15.0351   -6.7422    6.4610 C   0  0  0  0  0  0  0  0  0  0  0  0
  -14.3885   -5.8492    5.8618 O   0  0  0  0  0  0  0  0  0  0  0  0
  -17.4754   -7.1458    7.5349 H   0  0  0  0  0  0  0  0  0  0  0  0
  -12.4182   -7.5931    8.3362 C   0  0  0  0  0  0  0  0  0  0  0  0
  -12.3544   -8.8344    7.7571 C   0  0  0  0  0  0  0  0  0  0  0  0
  -11.1221   -9.3775    7.4598 C   0  0  0  0  0  0  0  0  0  0  0  0
   -9.9533   -8.6934    7.7350 C   0  0  0  0  0  0  0  0  0  0  0  0
   -9.9999   -7.4388    8.3197 C   0  0  0  0  0  0  0  0  0  0  0  0
  -11.2460   -6.9218    8.6054 C   0  0  0  0  0  0  0  0  0  0  0  0
   -8.6899   -9.2620    7.4248 N   0  0  0  0  0  0  0  0  0  0  0  0
   -7.7987   -8.5530    6.6752 O   0  0  0  0  0  0  0  0  0  0  0  0
   -8.3778  -10.3842    7.8179 O   0  0  0  0  0  0  0  0  0  0  0  0
  2  3  1  0  0  0
  3  4  1  0  0  0
  3  5  1  0  0  0
  5  6  1  0  0  0
  6  7  1  0  0  0
  7  1  1  0  0  0
  1 11  1  0  0  0
 11 12  2  0  0  0
 12 13  1  0  0  0
 13 14  2  0  0  0
 14 15  1  0  0  0
 15 16  2  0  0  0
 14 17  1  0  0  0
 17 18  1  0  0  0
 17 19  2  0  0  0
  7  8  1  0  0  0
  8  9  2  0  0  0
  8  3  1  0  0  0
 16 11  1  0  0  0
  5 10  1  0  0  0
M  CHG 1  17   1
M  CHG 1  18  -1
M  END
> <minimizedAffinity>
-7.29499

> <CNNscore>
0.7895226479

> <CNNaffinity>
6.1699938774

> <CNN_VS>
4.8713498116

> <CNNaffinity_variance>
0.2237768918

$$$$
[H]c1c([H])c(C([H])([H])N2C(=O)C(C([H])([H])[H])(C([H])([H])[H])N([H])C2([H])[H])c([H])c([H])c1[N+](=O)[O-]


 19 20  0  0  0  0  0  0  0  0999 V2000
   -6.5324   -9.1340    4.2669 C   0  0  0  0  0  0  0  0  0  0  0  0
   -8.7586  -11.3544    0.4883 C   0  0  0  0  0  0  0  0  0  0  0  0
   -8.0636  -11.5488    1.8182 C   0  0  0  0  0  0  0  0  0  0  0  0
   -7.4426  -12.9193    1.8430 C   0  0  0  0  0  0  0  0  0  0  0  0
   -9.0482  -11.4307    2.8625 N   0  0  0  0  0  0  0  0  0  0  0  0
   -8.2493  -11.0126    4.0039 C   0  0  0  0  0  0  0  0  0  0  0  0
   -7.2318  -10.1245    3.4883 N   0  0  0  0  0  0  0  0  0  0  0  0
   -7.1165  -10.4656    2.1132 C   0  0  0  0  0  0  0  0  0  0  0  0
   -6.3427   -9.9423    1.2754 O   0  0  0  0  0  0  0  0  0  0  0  0
   -9.7565  -10.7055    2.6066 H   0  0  0  0  0  0  0  0  0  0  0  0
   -7.3563   -8.5565    5.3352 C   0  0  0  0  0  0  0  0  0  0  0  0
   -8.0132   -9.3385    6.2502 C   0  0  0  0  0  0  0  0  0  0  0  0
   -8.7724   -8.7357    7.2312 C   0  0  0  0  0  0  0  0  0  0  0  0
   -8.8821   -7.3602    7.3072 C   0  0  0  0  0  0  0  0  0  0  0  0
   -8.2251   -6.5558    6.3909 C   0  0  0  0  0  0  0  0  0  0  0  0
   -7.4738   -7.1870    5.4220 C   0  0  0  0  0  0  0  0  0  0  0  0
   -9.6665   -6.7501    8.3211 N   0  0  0  0  0  0  0  0  0  0  0  0
  -10.4580   -7.5241    9.1168 O   0  0  0  0  0  0  0  0  0  0  0  0
   -9.6494   -5.5340    8.5005 O   0  0  0  0  0  0  0  0  0  0  0  0
  2  3  1  0  0  0
  3  4  1  0  0  0
  3  5  1  0  0  0
  5  6  1  0  0  0
  6  7  1  0  0  0
  7  1  1  0  0  0
  1 11  1  0  0  0
 11 12  2  0  0  0
 12 13  1  0  0  0
 13 14  2  0  0  0
 14 15  1  0  0  0
 15 16  2  0  0  0
 14 17  1  0  0  0
 17 18  1  0  0  0
 17 19  2  0  0  0
  7  8  1  0  0  0
  8  9  2  0  0  0
  8  3  1  0  0  0
 16 11  1  0  0  0
  5 10  1  0  0  0
M  CHG 1  17   1
M  CHG 1  18  -1
M  END
> <minimizedAffinity>
8.64022

> <CNNscore>
0.7007911801

> <CNNaffinity>
4.9918966293

> <CNN_VS>
3.4982771873

> <CNNaffinity_variance>
0.3793279231

$$$$
[H]c1c([H])c(C([H])([H])N2C(=O)C(C([H])([H])[H])(C([H])([H])[H])N([H])C2([H])[H])c([H])c([H])c1[N+](=O)[O-]


 19 20  0  0  0  0  0  0  0  0999 V2000
  -13.7304   -9.1394    8.0025 C   0  0  0  0  0  0  0  0  0  0  0  0
  -17.4719   -8.2872    4.9304 C   0  0  0  0  0  0  0  0  0  0  0  0
  -16.0223   -7.9901    5.2460 C   0  0  0  0  0  0  0  0  0  0  0  0
  -15.6732   -6.6377    4.6860 C   0  0  0  0  0  0  0  0  0  0  0  0
  -15.2098   -9.0074    4.6305 N   0  0  0  0  0  0  0  0  0  0  0  0
  -14.0174   -9.0061    5.4637 C   0  0  0  0  0  0  0  0  0  0  0  0
  -14.4645   -8.7719    6.8183 N   0  0  0  0  0  0  0  0  0  0  0  0
  -15.7256   -8.1313    6.6776 C   0  0  0  0  0  0  0  0  0  0  0  0
  -16.4751   -7.7436    7.6064 O   0  0  0  0  0  0  0  0  0  0  0  0
  -15.7006   -9.9297    4.6687 H   0  0  0  0  0  0  0  0  0  0  0  0
  -12.3492   -8.6435    7.9989 C   0  0  0  0  0  0  0  0  0  0  0  0
  -12.0249   -7.3914    8.4542 C   0  0  0  0  0  0  0  0  0  0  0  0
  -10.7079   -6.9831    8.4249 C   0  0  0  0  0  0  0  0  0  0  0  0
   -9.7120   -7.8127    7.9455 C   0  0  0  0  0  0  0  0  0  0  0  0
  -10.0223   -9.0803    7.4819 C   0  0  0  0  0  0  0  0  0  0  0  0
  -11.3473   -9.4604    7.5237 C   0  0  0  0  0  0  0  0  0  0  0  0
   -8.3593   -7.3822    7.9198 N   0  0  0  0  0  0  0  0  0  0  0  0
   -7.4317   -8.0323    8.6785 O   0  0  0  0  0  0  0  0  0  0  0  0
   -8.0018   -6.4322    7.2262 O   0  0  0  0  0  0  0  0  0  0  0  0
  2  3  1  0  0  0
  3  4  1  0  0  0
  3  5  1  0  0  0
  5  6  1  0  0  0
  6  7  1  0  0  0
  7  1  1  0  0  0
  1 11  1  0  0  0
 11 12  2  0  0  0
 12 13  1  0  0  0
 13 14  2  0  0  0
 14 15  1  0  0  0
 15 16  2  0  0  0
 14 17  1  0  0  0
 17 18  1  0  0  0
 17 19  2  0  0  0
  7  8  1  0  0  0
  8  9  2  0  0  0
  8  3  1  0  0  0
 16 11  1  0  0  0
  5 10  1  0  0  0
M  CHG 1  17   1
M  CHG 1  18  -1
M  END
> <minimizedAffinity>
-7.50894

> <CNNscore>
0.6358876824

> <CNNaffinity>
5.9961848259

> <CNN_VS>
3.8129000664

> <CNNaffinity_variance>
0.2915172875

$$$$
[H]c1c([H])c(C([H])([H])N2C(=O)C(C([H])([H])[H])(C([H])([H])[H])N([H])C2([H])[H])c([H])c([H])c1[N+](=O)[O-]


 19 20  0  0  0  0  0  0  0  0999 V2000
  -15.4476   -7.7929    7.8724 C   0  0  0  0  0  0  0  0  0  0  0  0
  -17.0264   -5.1441    4.0443 C   0  0  0  0  0  0  0  0  0  0  0  0
  -16.6015   -6.5144    4.5249 C   0  0  0  0  0  0  0  0  0  0  0  0
  -16.0582   -7.2897    3.3551 C   0  0  0  0  0  0  0  0  0  0  0  0
  -17.7575   -7.1797    5.0680 N   0  0  0  0  0  0  0  0  0  0  0  0
  -17.1678   -8.1210    6.0072 C   0  0  0  0  0  0  0  0  0  0  0  0
  -16.0330   -7.4506    6.6011 N   0  0  0  0  0  0  0  0  0  0  0  0
  -15.6784   -6.4413    5.6651 C   0  0  0  0  0  0  0  0  0  0  0  0
  -14.7390   -5.6166    5.7748 O   0  0  0  0  0  0  0  0  0  0  0  0
  -18.3722   -6.4889    5.5557 H   0  0  0  0  0  0  0  0  0  0  0  0
  -14.0337   -8.1724    7.7702 C   0  0  0  0  0  0  0  0  0  0  0  0
  -13.0352   -7.4136    8.3247 C   0  0  0  0  0  0  0  0  0  0  0  0
  -11.7249   -7.8237    8.1943 C   0  0  0  0  0  0  0  0  0  0  0  0
  -11.4021   -8.9835    7.5158 C   0  0  0  0  0  0  0  0  0  0  0  0
  -12.3984   -9.7614    6.9498 C   0  0  0  0  0  0  0  0  0  0  0  0
  -13.6987   -9.3261    7.0966 C   0  0  0  0  0  0  0  0  0  0  0  0
  -10.0498   -9.3963    7.3874 N   0  0  0  0  0  0  0  0  0  0  0  0
   -9.7634  -10.5850    6.7844 O   0  0  0  0  0  0  0  0  0  0  0  0
   -9.1253   -8.7042    7.8090 O   0  0  0  0  0  0  0  0  0  0  0  0
  2  3  1  0  0  0
  3  4  1  0  0  0
  3  5  1  0  0  0
  5  6  1  0  0  0
  6  7  1  0  0  0
  7  1  1  0  0  0
  1 11  1  0  0  0
 11 12  2  0  0  0
 12 13  1  0  0  0
 13 14  2  0  0  0
 14 15  1  0  0  0
 15 16  2  0  0  0
 14 17  1  0  0  0
 17 18  1  0  0  0
 17 19  2  0  0  0
  7  8  1  0  0  0
  8  9  2  0  0  0
  8  3  1  0  0  0
 16 11  1  0  0  0
  5 10  1  0  0  0
M  CHG 1  17   1
M  CHG 1  18  -1
M  END
> <minimizedAffinity>
-6.97408

> <CNNscore>
0.6158226728

> <CNNaffinity>
5.8158988953

> <CNN_VS>
3.5815625191

> <CNNaffinity_variance>
0.0606391020

$$$$
[H]c1c([H])c(C([H])([H])N2C(=O)C(C([H])([H])[H])(C([H])([H])[H])N([H])C2([H])[H])c([H])c([H])c1[N+](=O)[O-]


 19 20  0  0  0  0  0  0  0  0999 V2000
   -6.8885   -9.5556    4.6636 C   0  0  0  0  0  0  0  0  0  0  0  0
   -7.7970  -12.9143    1.1911 C   0  0  0  0  0  0  0  0  0  0  0  0
   -8.0064  -11.4809    1.6277 C   0  0  0  0  0  0  0  0  0  0  0  0
   -9.2855  -10.9725    1.0194 C   0  0  0  0  0  0  0  0  0  0  0  0
   -6.8898  -10.7002    1.1612 N   0  0  0  0  0  0  0  0  0  0  0  0
   -6.8614   -9.5941    2.1055 C   0  0  0  0  0  0  0  0  0  0  0  0
   -7.2244  -10.1445    3.3920 N   0  0  0  0  0  0  0  0  0  0  0  0
   -7.9460  -11.3307    3.0877 C   0  0  0  0  0  0  0  0  0  0  0  0
   -8.4540  -12.1291    3.9117 O   0  0  0  0  0  0  0  0  0  0  0  0
   -6.0119  -11.2658    1.2099 H   0  0  0  0  0  0  0  0  0  0  0  0
   -8.0450   -9.4185    5.5564 C   0  0  0  0  0  0  0  0  0  0  0  0
   -8.2005   -8.3363    6.3839 C   0  0  0  0  0  0  0  0  0  0  0  0
   -9.3099   -8.2652    7.2002 C   0  0  0  0  0  0  0  0  0  0  0  0
  -10.2651   -9.2640    7.1982 C   0  0  0  0  0  0  0  0  0  0  0  0
  -10.1233  -10.3638    6.3685 C   0  0  0  0  0  0  0  0  0  0  0  0
   -9.0041  -10.4070    5.5640 C   0  0  0  0  0  0  0  0  0  0  0  0
  -11.4033   -9.1807    8.0426 N   0  0  0  0  0  0  0  0  0  0  0  0
  -11.4520   -8.2255    9.0142 O   0  0  0  0  0  0  0  0  0  0  0  0
  -12.3516   -9.9532    7.9186 O   0  0  0  0  0  0  0  0  0  0  0  0
  2  3  1  0  0  0
  3  4  1  0  0  0
  3  5  1  0  0  0
  5  6  1  0  0  0
  6  7  1  0  0  0
  7  1  1  0  0  0
  1 11  1  0  0  0
 11 12  2  0  0  0
 12 13  1  0  0  0
 13 14  2  0  0  0
 14 15  1  0  0  0
 15 16  2  0  0  0
 14 17  1  0  0  0
 17 18  1  0  0  0
 17 19  2  0  0  0
  7  8  1  0  0  0
  8  9  2  0  0  0
  8  3  1  0  0  0
 16 11  1  0  0  0
  5 10  1  0  0  0
M  CHG 1  17   1
M  CHG 1  18  -1
M  END
> <minimizedAffinity>
10.23682

> <CNNscore>
0.5996921062

> <CNNaffinity>
4.8539018631

> <CNN_VS>
2.9108467102

> <CNNaffinity_variance>
0.4973990321

$$$$
[H]c1c([H])c(C([H])([H])N2C(=O)C(C([H])([H])[H])(C([H])([H])[H])N([H])C2([H])[H])c([H])c([H])c1[N+](=O)[O-]


 19 20  0  0  0  0  0  0  0  0999 V2000
  -13.4198   -9.8070    7.4954 C   0  0  0  0  0  0  0  0  0  0  0  0
  -15.4857   -6.5633    4.4336 C   0  0  0  0  0  0  0  0  0  0  0  0
  -15.7352   -7.6617    5.4438 C   0  0  0  0  0  0  0  0  0  0  0  0
  -17.0557   -8.3131    5.1330 C   0  0  0  0  0  0  0  0  0  0  0  0
  -15.7706   -7.0680    6.7553 N   0  0  0  0  0  0  0  0  0  0  0  0
  -15.3888   -8.1777    7.6147 C   0  0  0  0  0  0  0  0  0  0  0  0
  -14.3925   -8.9335    6.8895 N   0  0  0  0  0  0  0  0  0  0  0  0
  -14.6142   -8.6076    5.5237 C   0  0  0  0  0  0  0  0  0  0  0  0
  -13.9724   -9.0431    4.5374 O   0  0  0  0  0  0  0  0  0  0  0  0
  -15.0796   -6.2856    6.8131 H   0  0  0  0  0  0  0  0  0  0  0  0
  -12.0939   -9.1908    7.6210 C   0  0  0  0  0  0  0  0  0  0  0  0
  -11.9154   -7.9609    8.2003 C   0  0  0  0  0  0  0  0  0  0  0  0
  -10.6436   -7.4350    8.2888 C   0  0  0  0  0  0  0  0  0  0  0  0
   -9.5485   -8.1251    7.8046 C   0  0  0  0  0  0  0  0  0  0  0  0
   -9.7112   -9.3685    7.2165 C   0  0  0  0  0  0  0  0  0  0  0  0
  -10.9943   -9.8682    7.1423 C   0  0  0  0  0  0  0  0  0  0  0  0
   -8.2435   -7.5744    7.9008 N   0  0  0  0  0  0  0  0  0  0  0  0
   -7.8805   -6.5550    7.0714 O   0  0  0  0  0  0  0  0  0  0  0  0
   -7.4281   -7.9964    8.7182 O   0  0  0  0  0  0  0  0  0  0  0  0
  2  3  1  0  0  0
  3  4  1  0  0  0
  3  5  1  0  0  0
  5  6  1  0  0  0
  6  7  1  0  0  0
  7  1  1  0  0  0
  1 11  1  0  0  0
 11 12  2  0  0  0
 12 13  1  0  0  0
 13 14  2  0  0  0
 14 15  1  0  0  0
 15 16  2  0  0  0
 14 17  1  0  0  0
 17 18  1  0  0  0
 17 19  2  0  0  0
  7  8  1  0  0  0
  8  9  2  0  0  0
  8  3  1  0  0  0
 16 11  1  0  0  0
  5 10  1  0  0  0
M  CHG 1  17   1
M  CHG 1  18  -1
M  END
> <minimizedAffinity>
-7.14755

> <CNNscore>
0.5832911134

> <CNNaffinity>
5.7977266312

> <CNN_VS>
3.3817625046

> <CNNaffinity_variance>
0.2140329182

$$$$
[H]c1c([H])c(C([H])([H])N2C(=O)C(C([H])([H])[H])(C([H])([H])[H])N([H])C2([H])[H])c([H])c([H])c1[N+](=O)[O-]


 19 20  0  0  0  0  0  0  0  0999 V2000
  -12.9225   -9.8378    7.7397 C   0  0  0  0  0  0  0  0  0  0  0  0
  -17.0920   -7.6223    6.3721 C   0  0  0  0  0  0  0  0  0  0  0  0
  -15.5903   -7.6767    6.1955 C   0  0  0  0  0  0  0  0  0  0  0  0
  -15.1044   -6.3175    5.7700 C   0  0  0  0  0  0  0  0  0  0  0  0
  -15.2914   -8.6519    5.1788 N   0  0  0  0  0  0  0  0  0  0  0  0
  -13.9394   -9.0631    5.5235 C   0  0  0  0  0  0  0  0  0  0  0  0
  -13.8706   -9.0756    6.9674 N   0  0  0  0  0  0  0  0  0  0  0  0
  -14.9098   -8.2011    7.3869 C   0  0  0  0  0  0  0  0  0  0  0  0
  -15.2118   -7.9121    8.5701 O   0  0  0  0  0  0  0  0  0  0  0  0
  -15.9612   -9.4521    5.2420 H   0  0  0  0  0  0  0  0  0  0  0  0
  -11.5878   -9.2286    7.7739 C   0  0  0  0  0  0  0  0  0  0  0  0
  -10.4934   -9.8438    7.2226 C   0  0  0  0  0  0  0  0  0  0  0  0
   -9.2651   -9.2198    7.2870 C   0  0  0  0  0  0  0  0  0  0  0  0
   -9.1192   -7.9881    7.8963 C   0  0  0  0  0  0  0  0  0  0  0  0
  -10.2144   -7.3531    8.4581 C   0  0  0  0  0  0  0  0  0  0  0  0
  -11.4289   -8.0012    8.3783 C   0  0  0  0  0  0  0  0  0  0  0  0
   -7.8501   -7.3547    7.9570 N   0  0  0  0  0  0  0  0  0  0  0  0
   -6.9461   -7.7480    8.8988 O   0  0  0  0  0  0  0  0  0  0  0  0
   -7.5443   -6.4552    7.1768 O   0  0  0  0  0  0  0  0  0  0  0  0
  2  3  1  0  0  0
  3  4  1  0  0  0
  3  5  1  0  0  0
  5  6  1  0  0  0
  6  7  1  0  0  0
  7  1  1  0  0  0
  1 11  1  0  0  0
 11 12  2  0  0  0
 12 13  1  0  0  0
 13 14  2  0  0  0
 14 15  1  0  0  0
 15 16  2  0  0  0
 14 17  1  0  0  0
 17 18  1  0  0  0
 17 19  2  0  0  0
  7  8  1  0  0  0
  8  9  2  0  0  0
  8  3  1  0  0  0
 16 11  1  0  0  0
  5 10  1  0  0  0
M  CHG 1  17   1
M  CHG 1  18  -1
M  END
> <minimizedAffinity>
-7.57057

> <CNNscore>
0.5778666735

> <CNNaffinity>
5.8547592163

> <CNN_VS>
3.3832702637

> <CNNaffinity_variance>
0.1668907702

$$$$
[H]c1c([H])c(C([H])([H])N2C(=O)C(C([H])([H])[H])(C([H])([H])[H])N([H])C2([H])[H])c([H])c([H])c1[N+](=O)[O-]


 19 20  0  0  0  0  0  0  0  0999 V2000
  -13.6694   -9.6039    7.8903 C   0  0  0  0  0  0  0  0  0  0  0  0
  -15.3778   -6.6889    4.3198 C   0  0  0  0  0  0  0  0  0  0  0  0
  -15.7401   -7.6833    5.4011 C   0  0  0  0  0  0  0  0  0  0  0  0
  -17.0236   -8.3685    5.0170 C   0  0  0  0  0  0  0  0  0  0  0  0
  -15.9119   -6.9629    6.6362 N   0  0  0  0  0  0  0  0  0  0  0  0
  -15.6305   -7.9804    7.6370 C   0  0  0  0  0  0  0  0  0  0  0  0
  -14.5668   -8.7993    7.1006 N   0  0  0  0  0  0  0  0  0  0  0  0
  -14.6396   -8.6112    5.6935 C   0  0  0  0  0  0  0  0  0  0  0  0
  -13.8986   -9.1390    4.8292 O   0  0  0  0  0  0  0  0  0  0  0  0
  -15.2265   -6.1753    6.6899 H   0  0  0  0  0  0  0  0  0  0  0  0
  -12.2888   -9.1065    7.8762 C   0  0  0  0  0  0  0  0  0  0  0  0
  -11.2769   -9.7874    7.2498 C   0  0  0  0  0  0  0  0  0  0  0  0
   -9.9996   -9.2677    7.2718 C   0  0  0  0  0  0  0  0  0  0  0  0
   -9.7231   -8.0751    7.9130 C   0  0  0  0  0  0  0  0  0  0  0  0
  -10.7336   -7.3748    8.5507 C   0  0  0  0  0  0  0  0  0  0  0  0
  -12.0000   -7.9191    8.5117 C   0  0  0  0  0  0  0  0  0  0  0  0
   -8.4045   -7.5493    7.9296 N   0  0  0  0  0  0  0  0  0  0  0  0
   -7.4389   -8.1766    8.6596 O   0  0  0  0  0  0  0  0  0  0  0  0
   -8.1101   -6.5363    7.2983 O   0  0  0  0  0  0  0  0  0  0  0  0
  2  3  1  0  0  0
  3  4  1  0  0  0
  3  5  1  0  0  0
  5  6  1  0  0  0
  6  7  1  0  0  0
  7  1  1  0  0  0
  1 11  1  0  0  0
 11 12  2  0  0  0
 12 13  1  0  0  0
 13 14  2  0  0  0
 14 15  1  0  0  0
 15 16  2  0  0  0
 14 17  1  0  0  0
 17 18  1  0  0  0
 17 19  2  0  0  0
  7  8  1  0  0  0
  8  9  2  0  0  0
  8  3  1  0  0  0
 16 11  1  0  0  0
  5 10  1  0  0  0
M  CHG 1  17   1
M  CHG 1  18  -1
M  END
> <minimizedAffinity>
-7.09237

> <CNNscore>
0.5681507587

> <CNNaffinity>
5.7653799057

> <CNN_VS>
3.2756049633

> <CNNaffinity_variance>
0.1607342213

$$$$
[H]c1c([H])c(C([H])([H])N2C(=O)C(C([H])([H])[H])(C([H])([H])[H])N([H])C2([H])[H])c([H])c([H])c1[N+](=O)[O-]


 19 20  0  0  0  0  0  0  0  0999 V2000
  -13.8788   -9.2199    5.7825 C   0  0  0  0  0  0  0  0  0  0  0  0
  -11.1445   -7.1495    9.3040 C   0  0  0  0  0  0  0  0  0  0  0  0
  -12.3535   -8.0084    9.0040 C   0  0  0  0  0  0  0  0  0  0  0  0
  -13.3410   -7.8630   10.1301 C   0  0  0  0  0  0  0  0  0  0  0  0
  -11.9185   -9.3772    8.8984 N   0  0  0  0  0  0  0  0  0  0  0  0
  -12.9347   -9.9662    8.0403 C   0  0  0  0  0  0  0  0  0  0  0  0
  -13.2873   -8.9548    7.0694 N   0  0  0  0  0  0  0  0  0  0  0  0
  -12.9216   -7.7241    7.6796 C   0  0  0  0  0  0  0  0  0  0  0  0
  -13.0533   -6.5774    7.1875 O   0  0  0  0  0  0  0  0  0  0  0  0
  -10.9730   -9.4194    8.4542 H   0  0  0  0  0  0  0  0  0  0  0  0
  -14.9667   -8.2934    5.4485 C   0  0  0  0  0  0  0  0  0  0  0  0
  -14.9309   -7.5035    4.3282 C   0  0  0  0  0  0  0  0  0  0  0  0
  -15.9848   -6.6525    4.0690 C   0  0  0  0  0  0  0  0  0  0  0  0
  -17.0736   -6.5827    4.9171 C   0  0  0  0  0  0  0  0  0  0  0  0
  -17.1256   -7.3737    6.0529 C   0  0  0  0  0  0  0  0  0  0  0  0
  -16.0575   -8.2143    6.2856 C   0  0  0  0  0  0  0  0  0  0  0  0
  -18.1532   -5.7031    4.6407 N   0  0  0  0  0  0  0  0  0  0  0  0
  -19.1818   -6.1270    3.8527 O   0  0  0  0  0  0  0  0  0  0  0  0
  -18.1836   -4.5620    5.0971 O   0  0  0  0  0  0  0  0  0  0  0  0
  2  3  1  0  0  0
  3  4  1  0  0  0
  3  5  1  0  0  0
  5  6  1  0  0  0
  6  7  1  0  0  0
  7  1  1  0  0  0
  1 11  1  0  0  0
 11 12  2  0  0  0
 12 13  1  0  0  0
 13 14  2  0  0  0
 14 15  1  0  0  0
 15 16  2  0  0  0
 14 17  1  0  0  0
 17 18  1  0  0  0
 17 19  2  0  0  0
  7  8  1  0  0  0
  8  9  2  0  0  0
  8  3  1  0  0  0
 16 11  1  0  0  0
  5 10  1  0  0  0
M  CHG 1  17   1
M  CHG 1  18  -1
M  END
> <minimizedAffinity>
-6.33848

> <CNNscore>
0.5114247203

> <CNNaffinity>
5.6873431206

> <CNN_VS>
2.9086477757

> <CNNaffinity_variance>
0.0756173655

$$$$
[H]OC([H])([H])[C@@]1(O[H])C([H])([H])[C@@]2([H])O[C@]1(C([H])([H])[H])n1c3c([H])c([H])c([H])c([H])c3c3c4c(c5c6c([H])c([H])c([H])c([H])c6n2c5c31)C(=O)N([H])C4([H])[H]


 36 43  0  0  0  0  0  0  0  0999 V2000
  -10.7586   -4.3965   10.2784 C   0  0  0  0  0  0  0  0  0  0  0  0
  -11.6046   -5.5786    9.9499 C   0  0  0  0  0  0  0  0  0  0  0  0
  -12.6125   -4.9582    9.1610 O   0  0  0  0  0  0  0  0  0  0  0  0
  -13.7774   -5.6334    9.2914 C   0  0  0  0  0  0  0  0  0  0  0  0
  -13.8235   -6.1764   10.6554 C   0  0  0  0  0  0  0  0  0  0  0  0
  -12.3826   -6.1209   11.1123 C   0  0  0  0  0  0  0  0  0  0  0  0
  -12.0234   -7.4169   11.4512 O   0  0  0  0  0  0  0  0  0  0  0  0
  -13.9142   -6.6419    8.2325 N   0  0  0  0  0  0  0  0  0  0  0  0
  -14.9920   -7.0069    7.5597 C   0  0  0  0  0  0  0  0  0  0  0  0
  -16.2743   -6.5376    7.6791 C   0  0  0  0  0  0  0  0  0  0  0  0
  -17.2540   -7.0779    6.8551 C   0  0  0  0  0  0  0  0  0  0  0  0
  -16.9445   -8.0562    5.9454 C   0  0  0  0  0  0  0  0  0  0  0  0
  -15.6356   -8.5375    5.8212 C   0  0  0  0  0  0  0  0  0  0  0  0
  -14.6815   -7.9998    6.6354 C   0  0  0  0  0  0  0  0  0  0  0  0
  -13.3321   -8.2306    6.7784 C   0  0  0  0  0  0  0  0  0  0  0  0
  -12.4390   -9.0935    6.1697 C   0  0  0  0  0  0  0  0  0  0  0  0
  -12.5371  -10.0948    5.1229 C   0  0  0  0  0  0  0  0  0  0  0  0
  -13.5029  -10.4698    4.4561 O   0  0  0  0  0  0  0  0  0  0  0  0
  -11.2321  -10.6531    4.9409 N   0  0  0  0  0  0  0  0  0  0  0  0
  -10.2877  -10.0470    5.8476 C   0  0  0  0  0  0  0  0  0  0  0  0
  -11.1211   -9.0671    6.5863 C   0  0  0  0  0  0  0  0  0  0  0  0
  -10.6760   -8.2084    7.5854 C   0  0  0  0  0  0  0  0  0  0  0  0
   -9.4846   -7.9780    8.1981 C   0  0  0  0  0  0  0  0  0  0  0  0
   -8.2561   -8.5658    8.0024 C   0  0  0  0  0  0  0  0  0  0  0  0
   -7.1755   -8.1567    8.7894 C   0  0  0  0  0  0  0  0  0  0  0  0
   -7.3811   -7.1729    9.7399 C   0  0  0  0  0  0  0  0  0  0  0  0
   -8.6270   -6.5969    9.9177 C   0  0  0  0  0  0  0  0  0  0  0  0
   -9.7025   -6.9829    9.1543 C   0  0  0  0  0  0  0  0  0  0  0  0
  -11.0064   -6.5969    9.1349 N   0  0  0  0  0  0  0  0  0  0  0  0
  -11.5791   -7.3768    8.1570 C   0  0  0  0  0  0  0  0  0  0  0  0
  -12.9011   -7.3751    7.7693 C   0  0  0  0  0  0  0  0  0  0  0  0
  -12.2241   -7.5524   12.4084 H   0  0  0  0  0  0  0  0  0  0  0  0
  -10.9563  -11.4042    4.2519 H   0  0  0  0  0  0  0  0  0  0  0  0
  -12.3143   -5.2717   12.3361 C   0  0  0  0  0  0  0  0  0  0  0  0
  -11.3161   -5.7799   13.1681 O   0  0  0  0  0  0  0  0  0  0  0  0
  -11.6804   -6.2047   13.9858 H   0  0  0  0  0  0  0  0  0  0  0  0
  2  1  1  0  0  0
  2  3  1  0  0  0
  3  4  1  0  0  0
  4  5  1  0  0  0
  5  6  1  0  0  0
  6  7  1  0  0  0
  6 34  1  0  0  0
 34 35  1  0  0  0
  4  8  1  0  0  0
  8  9  1  0  0  0
  9 10  2  0  0  0
 10 11  1  0  0  0
 11 12  2  0  0  0
 12 13  1  0  0  0
 13 14  2  0  0  0
 14 15  1  0  0  0
 15 16  2  0  0  0
 16 17  1  0  0  0
 17 18  2  0  0  0
 17 19  1  0  0  0
 19 20  1  0  0  0
 20 21  1  0  0  0
 21 22  2  0  0  0
 22 23  1  0  0  0
 23 24  2  0  0  0
 24 25  1  0  0  0
 25 26  2  0  0  0
 26 27  1  0  0  0
 27 28  2  0  0  0
 28 29  1  0  0  0
 29 30  1  0  0  0
 30 31  2  0  0  0
  6  2  1  0  0  0
 31  8  1  0  0  0
 29  2  1  0  0  0
 14  9  1  0  0  0
 31 15  1  0  0  0
 21 16  1  0  0  0
 30 22  1  0  0  0
 28 23  1  0  0  0
  7 32  1  0  0  0
 35 36  1  0  0  0
 19 33  1  0  0  0
M  END
> <minimizedAffinity>
17.25787

> <CNNscore>
0.3865301609

> <CNNaffinity>
6.2803125381

> <CNN_VS>
2.4275302887

> <CNNaffinity_variance>
0.9044462442

$$$$
[H]OC([H])([H])[C@@]1(O[H])C([H])([H])[C@@]2([H])O[C@]1(C([H])([H])[H])n1c3c([H])c([H])c([H])c([H])c3c3c4c(c5c6c([H])c([H])c([H])c([H])c6n2c5c31)C(=O)N([H])C4([H])[H]


 36 43  0  0  0  0  0  0  0  0999 V2000
  -11.2065   -9.4907    8.9839 C   0  0  0  0  0  0  0  0  0  0  0  0
  -12.1527   -8.6625    8.1840 C   0  0  0  0  0  0  0  0  0  0  0  0
  -12.1649   -9.3963    6.9656 O   0  0  0  0  0  0  0  0  0  0  0  0
  -12.3949   -8.5591    5.9282 C   0  0  0  0  0  0  0  0  0  0  0  0
  -11.7900   -7.2632    6.2633 C   0  0  0  0  0  0  0  0  0  0  0  0
  -11.6017   -7.3323    7.7626 C   0  0  0  0  0  0  0  0  0  0  0  0
  -12.2973   -6.2596    8.2999 O   0  0  0  0  0  0  0  0  0  0  0  0
  -13.8296   -8.4967    5.6199 N   0  0  0  0  0  0  0  0  0  0  0  0
  -14.4298   -8.4293    4.4440 C   0  0  0  0  0  0  0  0  0  0  0  0
  -13.8642   -8.3960    3.1958 C   0  0  0  0  0  0  0  0  0  0  0  0
  -14.7052   -8.3241    2.0921 C   0  0  0  0  0  0  0  0  0  0  0  0
  -16.0671   -8.2875    2.2489 C   0  0  0  0  0  0  0  0  0  0  0  0
  -16.6475   -8.3214    3.5225 C   0  0  0  0  0  0  0  0  0  0  0  0
  -15.8122   -8.3920    4.5993 C   0  0  0  0  0  0  0  0  0  0  0  0
  -16.0342   -8.4402    5.9569 C   0  0  0  0  0  0  0  0  0  0  0  0
  -17.1729   -8.4223    6.7416 C   0  0  0  0  0  0  0  0  0  0  0  0
  -18.5986   -8.3661    6.4729 C   0  0  0  0  0  0  0  0  0  0  0  0
  -19.2151   -8.3132    5.4075 O   0  0  0  0  0  0  0  0  0  0  0  0
  -19.2730   -8.3816    7.7349 N   0  0  0  0  0  0  0  0  0  0  0  0
  -18.3232   -8.4385    8.8194 C   0  0  0  0  0  0  0  0  0  0  0  0
  -17.0183   -8.4689    8.1146 C   0  0  0  0  0  0  0  0  0  0  0  0
  -15.7674   -8.5330    8.7185 C   0  0  0  0  0  0  0  0  0  0  0  0
  -15.3168   -8.5690   10.0005 C   0  0  0  0  0  0  0  0  0  0  0  0
  -16.0120   -8.5548   11.1877 C   0  0  0  0  0  0  0  0  0  0  0  0
  -15.3002   -8.5796   12.3907 C   0  0  0  0  0  0  0  0  0  0  0  0
  -13.9181   -8.6171   12.3440 C   0  0  0  0  0  0  0  0  0  0  0  0
  -13.2418   -8.6306   11.1364 C   0  0  0  0  0  0  0  0  0  0  0  0
  -13.9214   -8.6081    9.9423 C   0  0  0  0  0  0  0  0  0  0  0  0
  -13.5098   -8.6009    8.6462 N   0  0  0  0  0  0  0  0  0  0  0  0
  -14.6756   -8.5504    7.9176 C   0  0  0  0  0  0  0  0  0  0  0  0
  -14.7896   -8.5042    6.5454 C   0  0  0  0  0  0  0  0  0  0  0  0
  -11.6828   -5.4884    8.3521 H   0  0  0  0  0  0  0  0  0  0  0  0
  -20.3164   -8.3561    7.8945 H   0  0  0  0  0  0  0  0  0  0  0  0
  -10.1508   -7.1563    8.0585 C   0  0  0  0  0  0  0  0  0  0  0  0
  -10.0186   -6.1696    9.0361 O   0  0  0  0  0  0  0  0  0  0  0  0
   -9.6241   -5.3323    8.6823 H   0  0  0  0  0  0  0  0  0  0  0  0
  2  1  1  0  0  0
  2  3  1  0  0  0
  3  4  1  0  0  0
  4  5  1  0  0  0
  5  6  1  0  0  0
  6  7  1  0  0  0
  6 34  1  0  0  0
 34 35  1  0  0  0
  4  8  1  0  0  0
  8  9  1  0  0  0
  9 10  2  0  0  0
 10 11  1  0  0  0
 11 12  2  0  0  0
 12 13  1  0  0  0
 13 14  2  0  0  0
 14 15  1  0  0  0
 15 16  2  0  0  0
 16 17  1  0  0  0
 17 18  2  0  0  0
 17 19  1  0  0  0
 19 20  1  0  0  0
 20 21  1  0  0  0
 21 22  2  0  0  0
 22 23  1  0  0  0
 23 24  2  0  0  0
 24 25  1  0  0  0
 25 26  2  0  0  0
 26 27  1  0  0  0
 27 28  2  0  0  0
 28 29  1  0  0  0
 29 30  1  0  0  0
 30 31  2  0  0  0
  6  2  1  0  0  0
 31  8  1  0  0  0
 29  2  1  0  0  0
 14  9  1  0  0  0
 31 15  1  0  0  0
 21 16  1  0  0  0
 30 22  1  0  0  0
 28 23  1  0  0  0
  7 32  1  0  0  0
 35 36  1  0  0  0
 19 33  1  0  0  0
M  END
> <minimizedAffinity>
20.30086

> <CNNscore>
0.3317964971

> <CNNaffinity>
6.1959104538

> <CNN_VS>
2.0557813644

> <CNNaffinity_variance>
0.5307189226

$$$$
[H]OC([H])([H])[C@@]1(O[H])C([H])([H])[C@@]2([H])O[C@]1(C([H])([H])[H])n1c3c([H])c([H])c([H])c([H])c3c3c4c(c5c6c([H])c([H])c([H])c([H])c6n2c5c31)C(=O)N([H])C4([H])[H]


 36 43  0  0  0  0  0  0  0  0999 V2000
   -1.2003   -3.7043    5.7616 C   0  0  0  0  0  0  0  0  0  0  0  0
   -2.5907   -3.9983    6.2109 C   0  0  0  0  0  0  0  0  0  0  0  0
   -2.6599   -5.3904    5.9278 O   0  0  0  0  0  0  0  0  0  0  0  0
   -3.9343   -5.7357    5.6332 C   0  0  0  0  0  0  0  0  0  0  0  0
   -4.5605   -4.5871    4.9652 C   0  0  0  0  0  0  0  0  0  0  0  0
   -3.6577   -3.4277    5.3241 C   0  0  0  0  0  0  0  0  0  0  0  0
   -4.4529   -2.4885    5.9636 O   0  0  0  0  0  0  0  0  0  0  0  0
   -4.6392   -6.1949    6.8371 N   0  0  0  0  0  0  0  0  0  0  0  0
   -5.5137   -7.1773    6.9702 C   0  0  0  0  0  0  0  0  0  0  0  0
   -5.9971   -8.0279    6.0101 C   0  0  0  0  0  0  0  0  0  0  0  0
   -6.9205   -8.9944    6.3895 C   0  0  0  0  0  0  0  0  0  0  0  0
   -7.3370   -9.0940    7.6922 C   0  0  0  0  0  0  0  0  0  0  0  0
   -6.8449   -8.2267    8.6750 C   0  0  0  0  0  0  0  0  0  0  0  0
   -5.9385   -7.2813    8.2913 C   0  0  0  0  0  0  0  0  0  0  0  0
   -5.2677   -6.2930    8.9754 C   0  0  0  0  0  0  0  0  0  0  0  0
   -5.2643   -5.8751   10.2938 C   0  0  0  0  0  0  0  0  0  0  0  0
   -5.9405   -6.3056   11.5042 C   0  0  0  0  0  0  0  0  0  0  0  0
   -6.7516   -7.2135   11.6933 O   0  0  0  0  0  0  0  0  0  0  0  0
   -5.5013   -5.4529   12.5663 N   0  0  0  0  0  0  0  0  0  0  0  0
   -4.5621   -4.4729   12.0775 C   0  0  0  0  0  0  0  0  0  0  0  0
   -4.4567   -4.8065   10.6359 C   0  0  0  0  0  0  0  0  0  0  0  0
   -3.6593   -4.1510    9.7042 C   0  0  0  0  0  0  0  0  0  0  0  0
   -2.8055   -3.0939    9.7402 C   0  0  0  0  0  0  0  0  0  0  0  0
   -2.4357   -2.2854   10.7902 C   0  0  0  0  0  0  0  0  0  0  0  0
   -1.5417   -1.2363   10.5561 C   0  0  0  0  0  0  0  0  0  0  0  0
   -1.0600   -1.0480    9.2731 C   0  0  0  0  0  0  0  0  0  0  0  0
   -1.4475   -1.8752    8.2333 C   0  0  0  0  0  0  0  0  0  0  0  0
   -2.3240   -2.9130    8.4411 C   0  0  0  0  0  0  0  0  0  0  0  0
   -2.8653   -3.8442    7.6109 N   0  0  0  0  0  0  0  0  0  0  0  0
   -3.6878   -4.5897    8.4234 C   0  0  0  0  0  0  0  0  0  0  0  0
   -4.4807   -5.6506    8.0441 C   0  0  0  0  0  0  0  0  0  0  0  0
   -4.8146   -1.8740    5.2805 H   0  0  0  0  0  0  0  0  0  0  0  0
   -5.7977   -5.5001   13.5786 H   0  0  0  0  0  0  0  0  0  0  0  0
   -3.1395   -2.8318    4.0591 C   0  0  0  0  0  0  0  0  0  0  0  0
   -3.9895   -1.7910    3.6836 O   0  0  0  0  0  0  0  0  0  0  0  0
   -4.5235   -2.0064    2.8772 H   0  0  0  0  0  0  0  0  0  0  0  0
  2  1  1  0  0  0
  2  3  1  0  0  0
  3  4  1  0  0  0
  4  5  1  0  0  0
  5  6  1  0  0  0
  6  7  1  0  0  0
  6 34  1  0  0  0
 34 35  1  0  0  0
  4  8  1  0  0  0
  8  9  1  0  0  0
  9 10  2  0  0  0
 10 11  1  0  0  0
 11 12  2  0  0  0
 12 13  1  0  0  0
 13 14  2  0  0  0
 14 15  1  0  0  0
 15 16  2  0  0  0
 16 17  1  0  0  0
 17 18  2  0  0  0
 17 19  1  0  0  0
 19 20  1  0  0  0
 20 21  1  0  0  0
 21 22  2  0  0  0
 22 23  1  0  0  0
 23 24  2  0  0  0
 24 25  1  0  0  0
 25 26  2  0  0  0
 26 27  1  0  0  0
 27 28  2  0  0  0
 28 29  1  0  0  0
 29 30  1  0  0  0
 30 31  2  0  0  0
  6  2  1  0  0  0
 31  8  1  0  0  0
 29  2  1  0  0  0
 14  9  1  0  0  0
 31 15  1  0  0  0
 21 16  1  0  0  0
 30 22  1  0  0  0
 28 23  1  0  0  0
  7 32  1  0  0  0
 35 36  1  0  0  0
 19 33  1  0  0  0
M  END
> <minimizedAffinity>
-3.82020

> <CNNscore>
0.3010497391

> <CNNaffinity>
5.0422224998

> <CNN_VS>
1.5179597139

> <CNNaffinity_variance>
0.2926656008

$$$$
[H]OC([H])([H])[C@@]1(O[H])C([H])([H])[C@@]2([H])O[C@]1(C([H])([H])[H])n1c3c([H])c([H])c([H])c([H])c3c3c4c(c5c6c([H])c([H])c([H])c([H])c6n2c5c31)C(=O)N([H])C4([H])[H]


 36 43  0  0  0  0  0  0  0  0999 V2000
   -9.4638  -10.0303    7.8108 C   0  0  0  0  0  0  0  0  0  0  0  0
   -8.7251   -8.7456    7.9695 C   0  0  0  0  0  0  0  0  0  0  0  0
   -8.2879   -8.8690    9.3174 O   0  0  0  0  0  0  0  0  0  0  0  0
   -8.1839   -7.6431    9.8799 C   0  0  0  0  0  0  0  0  0  0  0  0
   -9.2199   -6.7920    9.2799 C   0  0  0  0  0  0  0  0  0  0  0  0
   -9.6049   -7.5315    8.0178 C   0  0  0  0  0  0  0  0  0  0  0  0
   -9.3859   -6.6578    6.9633 O   0  0  0  0  0  0  0  0  0  0  0  0
   -6.8173   -7.1230    9.7420 N   0  0  0  0  0  0  0  0  0  0  0  0
   -6.0971   -6.4259   10.6039 C   0  0  0  0  0  0  0  0  0  0  0  0
   -6.4430   -6.0001   11.8601 C   0  0  0  0  0  0  0  0  0  0  0  0
   -5.5107   -5.2733   12.5903 C   0  0  0  0  0  0  0  0  0  0  0  0
   -4.2755   -4.9898   12.0663 C   0  0  0  0  0  0  0  0  0  0  0  0
   -3.9195   -5.4235   10.7836 C   0  0  0  0  0  0  0  0  0  0  0  0
   -4.8428   -6.1364   10.0753 C   0  0  0  0  0  0  0  0  0  0  0  0
   -4.8297   -6.7017    8.8204 C   0  0  0  0  0  0  0  0  0  0  0  0
   -3.8938   -6.7527    7.8035 C   0  0  0  0  0  0  0  0  0  0  0  0
   -2.5397   -6.2569    7.6348 C   0  0  0  0  0  0  0  0  0  0  0  0
   -1.8167   -5.6154    8.3989 O   0  0  0  0  0  0  0  0  0  0  0  0
   -2.1001   -6.6476    6.3302 N   0  0  0  0  0  0  0  0  0  0  0  0
   -3.1358   -7.3785    5.6413 C   0  0  0  0  0  0  0  0  0  0  0  0
   -4.2351   -7.4111    6.6368 C   0  0  0  0  0  0  0  0  0  0  0  0
   -5.4754   -8.0150    6.4614 C   0  0  0  0  0  0  0  0  0  0  0  0
   -6.0824   -8.6946    5.4528 C   0  0  0  0  0  0  0  0  0  0  0  0
   -5.6216   -9.0228    4.1986 C   0  0  0  0  0  0  0  0  0  0  0  0
   -6.4639   -9.7202    3.3276 C   0  0  0  0  0  0  0  0  0  0  0  0
   -7.7346  -10.0559    3.7592 C   0  0  0  0  0  0  0  0  0  0  0  0
   -8.1750   -9.7141    5.0261 C   0  0  0  0  0  0  0  0  0  0  0  0
   -7.3634   -9.0299    5.8988 C   0  0  0  0  0  0  0  0  0  0  0  0
   -7.5496   -8.5708    7.1653 N   0  0  0  0  0  0  0  0  0  0  0  0
   -6.3651   -7.9458    7.4799 C   0  0  0  0  0  0  0  0  0  0  0  0
   -6.0617   -7.2976    8.6570 C   0  0  0  0  0  0  0  0  0  0  0  0
  -10.2171   -6.1484    6.8069 H   0  0  0  0  0  0  0  0  0  0  0  0
   -1.1590   -6.4493    5.8944 H   0  0  0  0  0  0  0  0  0  0  0  0
  -11.0619   -7.8414    8.0855 C   0  0  0  0  0  0  0  0  0  0  0  0
  -11.4344   -7.9093    9.4285 O   0  0  0  0  0  0  0  0  0  0  0  0
  -11.6466   -8.8324    9.7195 H   0  0  0  0  0  0  0  0  0  0  0  0
  2  1  1  0  0  0
  2  3  1  0  0  0
  3  4  1  0  0  0
  4  5  1  0  0  0
  5  6  1  0  0  0
  6  7  1  0  0  0
  6 34  1  0  0  0
 34 35  1  0  0  0
  4  8  1  0  0  0
  8  9  1  0  0  0
  9 10  2  0  0  0
 10 11  1  0  0  0
 11 12  2  0  0  0
 12 13  1  0  0  0
 13 14  2  0  0  0
 14 15  1  0  0  0
 15 16  2  0  0  0
 16 17  1  0  0  0
 17 18  2  0  0  0
 17 19  1  0  0  0
 19 20  1  0  0  0
 20 21  1  0  0  0
 21 22  2  0  0  0
 22 23  1  0  0  0
 23 24  2  0  0  0
 24 25  1  0  0  0
 25 26  2  0  0  0
 26 27  1  0  0  0
 27 28  2  0  0  0
 28 29  1  0  0  0
 29 30  1  0  0  0
 30 31  2  0  0  0
  6  2  1  0  0  0
 31  8  1  0  0  0
 29  2  1  0  0  0
 14  9  1  0  0  0
 31 15  1  0  0  0
 21 16  1  0  0  0
 30 22  1  0  0  0
 28 23  1  0  0  0
  7 32  1  0  0  0
 35 36  1  0  0  0
 19 33  1  0  0  0
M  END
> <minimizedAffinity>
12.56530

> <CNNscore>
0.2909968197

> <CNNaffinity>
5.3261733055

> <CNN_VS>
1.5498994589

> <CNNaffinity_variance>
0.2782179415

$$$$
[H]OC([H])([H])[C@@]1(O[H])C([H])([H])[C@@]2([H])O[C@]1(C([H])([H])[H])n1c3c([H])c([H])c([H])c([H])c3c3c4c(c5c6c([H])c([H])c([H])c([H])c6n2c5c31)C(=O)N([H])C4([H])[H]


 36 43  0  0  0  0  0  0  0  0999 V2000
  -13.1476   -6.3443   11.6545 C   0  0  0  0  0  0  0  0  0  0  0  0
  -12.2733   -6.2947   10.4485 C   0  0  0  0  0  0  0  0  0  0  0  0
  -11.0038   -6.5298   11.0454 O   0  0  0  0  0  0  0  0  0  0  0  0
  -10.0379   -5.9121   10.3274 C   0  0  0  0  0  0  0  0  0  0  0  0
  -10.6218   -4.6888    9.7614 C   0  0  0  0  0  0  0  0  0  0  0  0
  -12.1127   -4.9240    9.8605 C   0  0  0  0  0  0  0  0  0  0  0  0
  -12.6173   -4.8210    8.5729 O   0  0  0  0  0  0  0  0  0  0  0  0
   -9.4656   -6.8276    9.3316 N   0  0  0  0  0  0  0  0  0  0  0  0
   -8.2099   -6.9573    8.9395 C   0  0  0  0  0  0  0  0  0  0  0  0
   -7.1062   -6.2623    9.3612 C   0  0  0  0  0  0  0  0  0  0  0  0
   -5.8746   -6.5763    8.7997 C   0  0  0  0  0  0  0  0  0  0  0  0
   -5.7672   -7.5574    7.8476 C   0  0  0  0  0  0  0  0  0  0  0  0
   -6.8927   -8.2689    7.4150 C   0  0  0  0  0  0  0  0  0  0  0  0
   -8.0972   -7.9522    7.9731 C   0  0  0  0  0  0  0  0  0  0  0  0
   -9.3726   -8.4356    7.7880 C   0  0  0  0  0  0  0  0  0  0  0  0
   -9.9187   -9.4054    6.9670 C   0  0  0  0  0  0  0  0  0  0  0  0
   -9.3862  -10.3271    5.9798 C   0  0  0  0  0  0  0  0  0  0  0  0
   -8.2334  -10.5019    5.5815 O   0  0  0  0  0  0  0  0  0  0  0  0
  -10.4842  -11.0909    5.4709 N   0  0  0  0  0  0  0  0  0  0  0  0
  -11.7198  -10.6851    6.0956 C   0  0  0  0  0  0  0  0  0  0  0  0
  -11.2824   -9.6223    7.0335 C   0  0  0  0  0  0  0  0  0  0  0  0
  -12.1071   -8.9028    7.8913 C   0  0  0  0  0  0  0  0  0  0  0  0
  -13.4406   -8.8818    8.1540 C   0  0  0  0  0  0  0  0  0  0  0  0
  -14.4649   -9.6243    7.6132 C   0  0  0  0  0  0  0  0  0  0  0  0
  -15.7733   -9.3925    8.0477 C   0  0  0  0  0  0  0  0  0  0  0  0
  -15.9918   -8.4213    9.0083 C   0  0  0  0  0  0  0  0  0  0  0  0
  -14.9442   -7.6873    9.5369 C   0  0  0  0  0  0  0  0  0  0  0  0
  -13.6504   -7.8996    9.1254 C   0  0  0  0  0  0  0  0  0  0  0  0
  -12.4673   -7.3217    9.4652 N   0  0  0  0  0  0  0  0  0  0  0  0
  -11.5361   -7.9626    8.6812 C   0  0  0  0  0  0  0  0  0  0  0  0
  -10.1811   -7.7172    8.6423 C   0  0  0  0  0  0  0  0  0  0  0  0
  -12.8707   -3.8798    8.4151 H   0  0  0  0  0  0  0  0  0  0  0  0
  -10.4401  -11.8527    4.7412 H   0  0  0  0  0  0  0  0  0  0  0  0
  -12.7017   -3.8353   10.6920 C   0  0  0  0  0  0  0  0  0  0  0  0
  -12.2932   -2.6099   10.1645 O   0  0  0  0  0  0  0  0  0  0  0  0
  -11.6448   -2.1401   10.7483 H   0  0  0  0  0  0  0  0  0  0  0  0
  2  1  1  0  0  0
  2  3  1  0  0  0
  3  4  1  0  0  0
  4  5  1  0  0  0
  5  6  1  0  0  0
  6  7  1  0  0  0
  6 34  1  0  0  0
 34 35  1  0  0  0
  4  8  1  0  0  0
  8  9  1  0  0  0
  9 10  2  0  0  0
 10 11  1  0  0  0
 11 12  2  0  0  0
 12 13  1  0  0  0
 13 14  2  0  0  0
 14 15  1  0  0  0
 15 16  2  0  0  0
 16 17  1  0  0  0
 17 18  2  0  0  0
 17 19  1  0  0  0
 19 20  1  0  0  0
 20 21  1  0  0  0
 21 22  2  0  0  0
 22 23  1  0  0  0
 23 24  2  0  0  0
 24 25  1  0  0  0
 25 26  2  0  0  0
 26 27  1  0  0  0
 27 28  2  0  0  0
 28 29  1  0  0  0
 29 30  1  0  0  0
 30 31  2  0  0  0
  6  2  1  0  0  0
 31  8  1  0  0  0
 29  2  1  0  0  0
 14  9  1  0  0  0
 31 15  1  0  0  0
 21 16  1  0  0  0
 30 22  1  0  0  0
 28 23  1  0  0  0
  7 32  1  0  0  0
 35 36  1  0  0  0
 19 33  1  0  0  0
M  END
> <minimizedAffinity>
14.18880

> <CNNscore>
0.2877185047

> <CNNaffinity>
6.1415185928

> <CNN_VS>
1.7670285702

> <CNNaffinity_variance>
0.5570866466

$$$$
[H]OC([H])([H])[C@@]1(O[H])C([H])([H])[C@@]2([H])O[C@]1(C([H])([H])[H])n1c3c([H])c([H])c([H])c([H])c3c3c4c(c5c6c([H])c([H])c([H])c([H])c6n2c5c31)C(=O)N([H])C4([H])[H]


 36 43  0  0  0  0  0  0  0  0999 V2000
   -5.6935   -6.3687    4.8626 C   0  0  0  0  0  0  0  0  0  0  0  0
   -4.8166   -6.3140    6.0664 C   0  0  0  0  0  0  0  0  0  0  0  0
   -4.5979   -4.9115    6.1577 O   0  0  0  0  0  0  0  0  0  0  0  0
   -3.3870   -4.6712    6.7109 C   0  0  0  0  0  0  0  0  0  0  0  0
   -2.4894   -5.7589    6.2999 C   0  0  0  0  0  0  0  0  0  0  0  0
   -3.4331   -6.8500    5.8451 C   0  0  0  0  0  0  0  0  0  0  0  0
   -3.1512   -7.9663    6.6182 O   0  0  0  0  0  0  0  0  0  0  0  0
   -3.5054   -4.4997    8.1648 N   0  0  0  0  0  0  0  0  0  0  0  0
   -2.8684   -3.6594    8.9620 C   0  0  0  0  0  0  0  0  0  0  0  0
   -1.9205   -2.7240    8.6368 C   0  0  0  0  0  0  0  0  0  0  0  0
   -1.3855   -1.9453    9.6556 C   0  0  0  0  0  0  0  0  0  0  0  0
   -1.7962   -2.1092   10.9537 C   0  0  0  0  0  0  0  0  0  0  0  0
   -2.7641   -3.0637   11.2887 C   0  0  0  0  0  0  0  0  0  0  0  0
   -3.2828   -3.8230   10.2804 C   0  0  0  0  0  0  0  0  0  0  0  0
   -4.2245   -4.8265   10.2512 C   0  0  0  0  0  0  0  0  0  0  0  0
   -4.9870   -5.4518   11.2209 C   0  0  0  0  0  0  0  0  0  0  0  0
   -5.1326   -5.3062   12.6580 C   0  0  0  0  0  0  0  0  0  0  0  0
   -4.5795   -4.5408   13.4494 O   0  0  0  0  0  0  0  0  0  0  0  0
   -6.1030   -6.2654   13.0894 N   0  0  0  0  0  0  0  0  0  0  0  0
   -6.5879   -7.0376   11.9714 C   0  0  0  0  0  0  0  0  0  0  0  0
   -5.8433   -6.4622   10.8246 C   0  0  0  0  0  0  0  0  0  0  0  0
   -5.9573   -6.8601    9.4971 C   0  0  0  0  0  0  0  0  0  0  0  0
   -6.6748   -7.8037    8.8320 C   0  0  0  0  0  0  0  0  0  0  0  0
   -7.5817   -8.7256    9.3016 C   0  0  0  0  0  0  0  0  0  0  0  0
   -8.1764   -9.6124    8.3992 C   0  0  0  0  0  0  0  0  0  0  0  0
   -7.8302   -9.5312    7.0624 C   0  0  0  0  0  0  0  0  0  0  0  0
   -6.9148   -8.5946    6.6146 C   0  0  0  0  0  0  0  0  0  0  0  0
   -6.3193   -7.7125    7.4838 C   0  0  0  0  0  0  0  0  0  0  0  0
   -5.3992   -6.7261    7.3114 N   0  0  0  0  0  0  0  0  0  0  0  0
   -5.1959   -6.2234    8.5757 C   0  0  0  0  0  0  0  0  0  0  0  0
   -4.3303   -5.2128    8.9324 C   0  0  0  0  0  0  0  0  0  0  0  0
   -2.4614   -8.4979    6.1527 H   0  0  0  0  0  0  0  0  0  0  0  0
   -6.4443   -6.4193   14.0767 H   0  0  0  0  0  0  0  0  0  0  0  0
   -3.1268   -7.1668    4.4205 C   0  0  0  0  0  0  0  0  0  0  0  0
   -2.0150   -8.0092    4.3872 O   0  0  0  0  0  0  0  0  0  0  0  0
   -1.2070   -7.5608    4.0294 H   0  0  0  0  0  0  0  0  0  0  0  0
  2  1  1  0  0  0
  2  3  1  0  0  0
  3  4  1  0  0  0
  4  5  1  0  0  0
  5  6  1  0  0  0
  6  7  1  0  0  0
  6 34  1  0  0  0
 34 35  1  0  0  0
  4  8  1  0  0  0
  8  9  1  0  0  0
  9 10  2  0  0  0
 10 11  1  0  0  0
 11 12  2  0  0  0
 12 13  1  0  0  0
 13 14  2  0  0  0
 14 15  1  0  0  0
 15 16  2  0  0  0
 16 17  1  0  0  0
 17 18  2  0  0  0
 17 19  1  0  0  0
 19 20  1  0  0  0
 20 21  1  0  0  0
 21 22  2  0  0  0
 22 23  1  0  0  0
 23 24  2  0  0  0
 24 25  1  0  0  0
 25 26  2  0  0  0
 26 27  1  0  0  0
 27 28  2  0  0  0
 28 29  1  0  0  0
 29 30  1  0  0  0
 30 31  2  0  0  0
  6  2  1  0  0  0
 31  8  1  0  0  0
 29  2  1  0  0  0
 14  9  1  0  0  0
 31 15  1  0  0  0
 21 16  1  0  0  0
 30 22  1  0  0  0
 28 23  1  0  0  0
  7 32  1  0  0  0
 35 36  1  0  0  0
 19 33  1  0  0  0
M  END
> <minimizedAffinity>
0.92599

> <CNNscore>
0.2872741818

> <CNNaffinity>
5.1741495132

> <CNN_VS>
1.4863995314

> <CNNaffinity_variance>
0.5993863344

$$$$
[H]OC([H])([H])[C@@]1(O[H])C([H])([H])[C@@]2([H])O[C@]1(C([H])([H])[H])n1c3c([H])c([H])c([H])c([H])c3c3c4c(c5c6c([H])c([H])c([H])c([H])c6n2c5c31)C(=O)N([H])C4([H])[H]


 36 43  0  0  0  0  0  0  0  0999 V2000
   -8.6436   -7.2040    9.4306 C   0  0  0  0  0  0  0  0  0  0  0  0
   -7.2432   -7.1228    8.9272 C   0  0  0  0  0  0  0  0  0  0  0  0
   -7.4302   -6.2897    7.7897 O   0  0  0  0  0  0  0  0  0  0  0  0
   -6.5091   -6.5893    6.8453 C   0  0  0  0  0  0  0  0  0  0  0  0
   -6.2229   -8.0265    6.9471 C   0  0  0  0  0  0  0  0  0  0  0  0
   -6.7315   -8.3968    8.3227 C   0  0  0  0  0  0  0  0  0  0  0  0
   -5.6548   -8.9333    9.0128 O   0  0  0  0  0  0  0  0  0  0  0  0
   -5.3289   -5.7253    6.9787 N   0  0  0  0  0  0  0  0  0  0  0  0
   -4.5829   -5.1776    6.0348 C   0  0  0  0  0  0  0  0  0  0  0  0
   -4.7157   -5.2775    4.6741 C   0  0  0  0  0  0  0  0  0  0  0  0
   -3.8020   -4.6059    3.8711 C   0  0  0  0  0  0  0  0  0  0  0  0
   -2.7931   -3.8619    4.4270 C   0  0  0  0  0  0  0  0  0  0  0  0
   -2.6551   -3.7580    5.8164 C   0  0  0  0  0  0  0  0  0  0  0  0
   -3.5578   -4.4216    6.5955 C   0  0  0  0  0  0  0  0  0  0  0  0
   -3.7153   -4.5361    7.9581 C   0  0  0  0  0  0  0  0  0  0  0  0
   -3.0211   -4.0404    9.0467 C   0  0  0  0  0  0  0  0  0  0  0  0
   -1.8601   -3.1852    9.2154 C   0  0  0  0  0  0  0  0  0  0  0  0
   -1.1348   -2.6396    8.3822 O   0  0  0  0  0  0  0  0  0  0  0  0
   -1.6376   -3.0377   10.6213 N   0  0  0  0  0  0  0  0  0  0  0  0
   -2.6192   -3.7813   11.3731 C   0  0  0  0  0  0  0  0  0  0  0  0
   -3.4630   -4.3821   10.3113 C   0  0  0  0  0  0  0  0  0  0  0  0
   -4.5706   -5.1978   10.5149 C   0  0  0  0  0  0  0  0  0  0  0  0
   -5.2078   -5.7038   11.6038 C   0  0  0  0  0  0  0  0  0  0  0  0
   -4.9351   -5.5515   12.9437 C   0  0  0  0  0  0  0  0  0  0  0  0
   -5.7439   -6.2042   13.8788 C   0  0  0  0  0  0  0  0  0  0  0  0
   -6.7923   -6.9823   13.4218 C   0  0  0  0  0  0  0  0  0  0  0  0
   -7.0461   -7.1197   12.0681 C   0  0  0  0  0  0  0  0  0  0  0  0
   -6.2648   -6.4863   11.1319 C   0  0  0  0  0  0  0  0  0  0  0  0
   -6.2882   -6.4647    9.7723 N   0  0  0  0  0  0  0  0  0  0  0  0
   -5.2259   -5.6627    9.4248 C   0  0  0  0  0  0  0  0  0  0  0  0
   -4.8148   -5.3450    8.1489 C   0  0  0  0  0  0  0  0  0  0  0  0
   -5.6432   -9.9083    8.8569 H   0  0  0  0  0  0  0  0  0  0  0  0
   -0.8747   -2.4739   11.0850 H   0  0  0  0  0  0  0  0  0  0  0  0
   -7.7718   -9.4535    8.1658 C   0  0  0  0  0  0  0  0  0  0  0  0
   -7.1294  -10.6759    7.9660 O   0  0  0  0  0  0  0  0  0  0  0  0
   -7.2355  -11.0162    7.0414 H   0  0  0  0  0  0  0  0  0  0  0  0
  2  1  1  0  0  0
  2  3  1  0  0  0
  3  4  1  0  0  0
  4  5  1  0  0  0
  5  6  1  0  0  0
  6  7  1  0  0  0
  6 34  1  0  0  0
 34 35  1  0  0  0
  4  8  1  0  0  0
  8  9  1  0  0  0
  9 10  2  0  0  0
 10 11  1  0  0  0
 11 12  2  0  0  0
 12 13  1  0  0  0
 13 14  2  0  0  0
 14 15  1  0  0  0
 15 16  2  0  0  0
 16 17  1  0  0  0
 17 18  2  0  0  0
 17 19  1  0  0  0
 19 20  1  0  0  0
 20 21  1  0  0  0
 21 22  2  0  0  0
 22 23  1  0  0  0
 23 24  2  0  0  0
 24 25  1  0  0  0
 25 26  2  0  0  0
 26 27  1  0  0  0
 27 28  2  0  0  0
 28 29  1  0  0  0
 29 30  1  0  0  0
 30 31  2  0  0  0
  6  2  1  0  0  0
 31  8  1  0  0  0
 29  2  1  0  0  0
 14  9  1  0  0  0
 31 15  1  0  0  0
 21 16  1  0  0  0
 30 22  1  0  0  0
 28 23  1  0  0  0
  7 32  1  0  0  0
 35 36  1  0  0  0
 19 33  1  0  0  0
M  END
> <minimizedAffinity>
8.88024

> <CNNscore>
0.2825797796

> <CNNaffinity>
5.1950750351

> <CNN_VS>
1.4680231810

> <CNNaffinity_variance>
0.7198778391

$$$$
[H]OC([H])([H])[C@@]1(O[H])C([H])([H])[C@@]2([H])O[C@]1(C([H])([H])[H])n1c3c([H])c([H])c([H])c([H])c3c3c4c(c5c6c([H])c([H])c([H])c([H])c6n2c5c31)C(=O)N([H])C4([H])[H]


 36 43  0  0  0  0  0  0  0  0999 V2000
  -12.8905   -7.0419    7.0975 C   0  0  0  0  0  0  0  0  0  0  0  0
  -11.6511   -7.7202    7.5719 C   0  0  0  0  0  0  0  0  0  0  0  0
  -10.7695   -7.4186    6.4973 O   0  0  0  0  0  0  0  0  0  0  0  0
   -9.8541   -8.4057    6.3642 C   0  0  0  0  0  0  0  0  0  0  0  0
  -10.5033   -9.6657    6.7496 C   0  0  0  0  0  0  0  0  0  0  0  0
  -11.7165   -9.2185    7.5345 C   0  0  0  0  0  0  0  0  0  0  0  0
  -11.6139   -9.7997    8.7894 O   0  0  0  0  0  0  0  0  0  0  0  0
   -8.6383   -8.0923    7.1264 N   0  0  0  0  0  0  0  0  0  0  0  0
   -7.3735   -8.3095    6.8091 C   0  0  0  0  0  0  0  0  0  0  0  0
   -6.8634   -8.8921    5.6780 C   0  0  0  0  0  0  0  0  0  0  0  0
   -5.4841   -9.0145    5.5636 C   0  0  0  0  0  0  0  0  0  0  0  0
   -4.6547   -8.5631    6.5581 C   0  0  0  0  0  0  0  0  0  0  0  0
   -5.1728   -7.9676    7.7144 C   0  0  0  0  0  0  0  0  0  0  0  0
   -6.5289   -7.8525    7.8163 C   0  0  0  0  0  0  0  0  0  0  0  0
   -7.3558   -7.3344    8.7870 C   0  0  0  0  0  0  0  0  0  0  0  0
   -7.1343   -6.7513   10.0214 C   0  0  0  0  0  0  0  0  0  0  0  0
   -5.9534   -6.4235   10.7998 C   0  0  0  0  0  0  0  0  0  0  0  0
   -4.7572   -6.5896   10.5559 O   0  0  0  0  0  0  0  0  0  0  0  0
   -6.3980   -5.8178   12.0178 N   0  0  0  0  0  0  0  0  0  0  0  0
   -7.8387   -5.7495   12.0564 C   0  0  0  0  0  0  0  0  0  0  0  0
   -8.2329   -6.3511   10.7590 C   0  0  0  0  0  0  0  0  0  0  0  0
   -9.5350   -6.5160   10.2996 C   0  0  0  0  0  0  0  0  0  0  0  0
  -10.7725   -6.2475   10.7936 C   0  0  0  0  0  0  0  0  0  0  0  0
  -11.1486   -5.6840   11.9912 C   0  0  0  0  0  0  0  0  0  0  0  0
  -12.5098   -5.5330   12.2718 C   0  0  0  0  0  0  0  0  0  0  0  0
  -13.4326   -5.9574   11.3326 C   0  0  0  0  0  0  0  0  0  0  0  0
  -13.0289   -6.5214   10.1349 C   0  0  0  0  0  0  0  0  0  0  0  0
  -11.6963   -6.6782    9.8380 C   0  0  0  0  0  0  0  0  0  0  0  0
  -11.0453   -7.2020    8.7651 N   0  0  0  0  0  0  0  0  0  0  0  0
   -9.7122   -7.0893    9.0856 C   0  0  0  0  0  0  0  0  0  0  0  0
   -8.6424   -7.5020    8.3221 C   0  0  0  0  0  0  0  0  0  0  0  0
  -12.0701  -10.6751    8.7623 H   0  0  0  0  0  0  0  0  0  0  0  0
   -5.7911   -5.4580   12.8032 H   0  0  0  0  0  0  0  0  0  0  0  0
  -12.9325   -9.7551    6.8584 C   0  0  0  0  0  0  0  0  0  0  0  0
  -13.4939  -10.7352    7.6776 O   0  0  0  0  0  0  0  0  0  0  0  0
  -13.3905  -11.6481    7.3063 H   0  0  0  0  0  0  0  0  0  0  0  0
  2  1  1  0  0  0
  2  3  1  0  0  0
  3  4  1  0  0  0
  4  5  1  0  0  0
  5  6  1  0  0  0
  6  7  1  0  0  0
  6 34  1  0  0  0
 34 35  1  0  0  0
  4  8  1  0  0  0
  8  9  1  0  0  0
  9 10  2  0  0  0
 10 11  1  0  0  0
 11 12  2  0  0  0
 12 13  1  0  0  0
 13 14  2  0  0  0
 14 15  1  0  0  0
 15 16  2  0  0  0
 16 17  1  0  0  0
 17 18  2  0  0  0
 17 19  1  0  0  0
 19 20  1  0  0  0
 20 21  1  0  0  0
 21 22  2  0  0  0
 22 23  1  0  0  0
 23 24  2  0  0  0
 24 25  1  0  0  0
 25 26  2  0  0  0
 26 27  1  0  0  0
 27 28  2  0  0  0
 28 29  1  0  0  0
 29 30  1  0  0  0
 30 31  2  0  0  0
  6  2  1  0  0  0
 31  8  1  0  0  0
 29  2  1  0  0  0
 14  9  1  0  0  0
 31 15  1  0  0  0
 21 16  1  0  0  0
 30 22  1  0  0  0
 28 23  1  0  0  0
  7 32  1  0  0  0
 35 36  1  0  0  0
 19 33  1  0  0  0
M  END
> <minimizedAffinity>
13.91692

> <CNNscore>
0.2628665268

> <CNNaffinity>
5.9478521347

> <CNN_VS>
1.5634912252

> <CNNaffinity_variance>
0.2652428746

$$$$
[H]OC([H])([H])[C@@]1(O[H])C([H])([H])[C@@]2([H])O[C@]1(C([H])([H])[H])n1c3c([H])c([H])c([H])c([H])c3c3c4c(c5c6c([H])c([H])c([H])c([H])c6n2c5c31)C(=O)N([H])C4([H])[H]


 36 43  0  0  0  0  0  0  0  0999 V2000
   -3.1160   -7.7780    7.0248 C   0  0  0  0  0  0  0  0  0  0  0  0
   -4.3027   -6.9668    7.4181 C   0  0  0  0  0  0  0  0  0  0  0  0
   -5.3341   -7.9339    7.2631 O   0  0  0  0  0  0  0  0  0  0  0  0
   -6.4922   -7.3199    6.9286 C   0  0  0  0  0  0  0  0  0  0  0  0
   -6.1506   -6.1416    6.1208 C   0  0  0  0  0  0  0  0  0  0  0  0
   -4.6859   -5.9131    6.4214 C   0  0  0  0  0  0  0  0  0  0  0  0
   -4.5798   -4.6245    6.9229 O   0  0  0  0  0  0  0  0  0  0  0  0
   -7.2874   -7.0232    8.1273 N   0  0  0  0  0  0  0  0  0  0  0  0
   -8.5959   -7.0934    8.3008 C   0  0  0  0  0  0  0  0  0  0  0  0
   -9.5599   -7.4608    7.3981 C   0  0  0  0  0  0  0  0  0  0  0  0
  -10.8863   -7.4591    7.8121 C   0  0  0  0  0  0  0  0  0  0  0  0
  -11.2215   -7.0988    9.0920 C   0  0  0  0  0  0  0  0  0  0  0  0
  -10.2391   -6.7231   10.0162 C   0  0  0  0  0  0  0  0  0  0  0  0
   -8.9398   -6.7283    9.5990 C   0  0  0  0  0  0  0  0  0  0  0  0
   -7.7525   -6.4240   10.2253 C   0  0  0  0  0  0  0  0  0  0  0  0
   -7.4252   -5.9890   11.4967 C   0  0  0  0  0  0  0  0  0  0  0  0
   -8.1797   -5.6913   12.7009 C   0  0  0  0  0  0  0  0  0  0  0  0
   -9.3896   -5.7471   12.9267 O   0  0  0  0  0  0  0  0  0  0  0  0
   -7.2434   -5.2806   13.7022 N   0  0  0  0  0  0  0  0  0  0  0  0
   -5.8989   -5.2956   13.1791 C   0  0  0  0  0  0  0  0  0  0  0  0
   -6.0924   -5.7601   11.7836 C   0  0  0  0  0  0  0  0  0  0  0  0
   -5.0871   -5.9532   10.8425 C   0  0  0  0  0  0  0  0  0  0  0  0
   -3.7368   -5.7976   10.8289 C   0  0  0  0  0  0  0  0  0  0  0  0
   -2.8812   -5.3710   11.8182 C   0  0  0  0  0  0  0  0  0  0  0  0
   -1.5145   -5.2781   11.5392 C   0  0  0  0  0  0  0  0  0  0  0  0
   -1.0701   -5.6191   10.2744 C   0  0  0  0  0  0  0  0  0  0  0  0
   -1.9512   -6.0455    9.2958 C   0  0  0  0  0  0  0  0  0  0  0  0
   -3.2982   -6.1455    9.5487 C   0  0  0  0  0  0  0  0  0  0  0  0
   -4.3567   -6.5156    8.7793 N   0  0  0  0  0  0  0  0  0  0  0  0
   -5.4459   -6.3813    9.6088 C   0  0  0  0  0  0  0  0  0  0  0  0
   -6.7637   -6.6191    9.2852 C   0  0  0  0  0  0  0  0  0  0  0  0
   -4.4241   -4.0104    6.1655 H   0  0  0  0  0  0  0  0  0  0  0  0
   -7.4633   -4.9982   14.6955 H   0  0  0  0  0  0  0  0  0  0  0  0
   -3.9297   -5.9892    5.1384 C   0  0  0  0  0  0  0  0  0  0  0  0
   -3.1108   -4.8634    5.0439 O   0  0  0  0  0  0  0  0  0  0  0  0
   -3.4151   -4.2276    4.3475 H   0  0  0  0  0  0  0  0  0  0  0  0
  2  1  1  0  0  0
  2  3  1  0  0  0
  3  4  1  0  0  0
  4  5  1  0  0  0
  5  6  1  0  0  0
  6  7  1  0  0  0
  6 34  1  0  0  0
 34 35  1  0  0  0
  4  8  1  0  0  0
  8  9  1  0  0  0
  9 10  2  0  0  0
 10 11  1  0  0  0
 11 12  2  0  0  0
 12 13  1  0  0  0
 13 14  2  0  0  0
 14 15  1  0  0  0
 15 16  2  0  0  0
 16 17  1  0  0  0
 17 18  2  0  0  0
 17 19  1  0  0  0
 19 20  1  0  0  0
 20 21  1  0  0  0
 21 22  2  0  0  0
 22 23  1  0  0  0
 23 24  2  0  0  0
 24 25  1  0  0  0
 25 26  2  0  0  0
 26 27  1  0  0  0
 27 28  2  0  0  0
 28 29  1  0  0  0
 29 30  1  0  0  0
 30 31  2  0  0  0
  6  2  1  0  0  0
 31  8  1  0  0  0
 29  2  1  0  0  0
 14  9  1  0  0  0
 31 15  1  0  0  0
 21 16  1  0  0  0
 30 22  1  0  0  0
 28 23  1  0  0  0
  7 32  1  0  0  0
 35 36  1  0  0  0
 19 33  1  0  0  0
M  END
> <minimizedAffinity>
11.12079

> <CNNscore>
0.2616726458

> <CNNaffinity>
5.4950609207

> <CNN_VS>
1.4379070997

> <CNNaffinity_variance>
0.3397158980

$$$$
[H]c1c([H])c2c3c(c1[H])[C@@](C([H])([H])[H])(C(=O)C2([H])C([H])([H])C([H])([H])C([H])([H])C([H])([H])Cl)C([H])([H])C3([H])[H]


 18 20  0  0  0  0  0  0  0  0999 V2000
  -15.8038   -8.6573    3.7135 C   0  0  0  0  0  0  0  0  0  0  0  0
  -16.5559   -7.6988    4.7079 C   0  0  0  0  0  0  0  0  0  0  0  0
  -17.8070   -8.3739    5.2330 C   0  0  0  0  0  0  0  0  0  0  0  0
  -17.7806   -7.8792    4.1067 C   0  0  0  0  0  0  0  0  0  0  0  0
  -16.5880   -6.8449    4.4327 C   0  0  0  0  0  0  0  0  0  0  0  0
  -16.9427   -6.3415    4.0705 C   0  0  0  0  0  0  0  0  0  0  0  0
  -16.6644   -4.9627    3.7710 C   0  0  0  0  0  0  0  0  0  0  0  0
  -15.5869   -4.2793    4.1413 C   0  0  0  0  0  0  0  0  0  0  0  0
  -14.7986   -5.1880    4.8772 C   0  0  0  0  0  0  0  0  0  0  0  0
  -15.3135   -6.4075    4.9959 C   0  0  0  0  0  0  0  0  0  0  0  0
  -14.4816   -7.3376    5.8427 C   0  0  0  0  0  0  0  0  0  0  0  0
  -15.8165   -7.8948    5.9545 C   0  0  0  0  0  0  0  0  0  0  0  0
  -16.1801   -8.3915    6.8816 O   0  0  0  0  0  0  0  0  0  0  0  0
  -14.1521   -6.7244    7.1351 C   0  0  0  0  0  0  0  0  0  0  0  0
  -12.8928   -7.3668    7.6537 C   0  0  0  0  0  0  0  0  0  0  0  0
  -13.0505   -7.5585    9.1388 C   0  0  0  0  0  0  0  0  0  0  0  0
  -12.1577   -6.5472    9.8349 C   0  0  0  0  0  0  0  0  0  0  0  0
  -13.1622   -5.2421   10.4864 Cl  0  0  0  0  0  0  0  0  0  0  0  0
  2  1  1  0  0  0
  2  3  1  0  0  0
  3  4  1  0  0  0
  4  5  1  0  0  0
  5  6  2  0  0  0
  6  7  1  0  0  0
  7  8  2  0  0  0
  8  9  1  0  0  0
  9 10  2  0  0  0
 10 11  1  0  0  0
 11 14  1  0  0  0
 14 15  1  0  0  0
 15 16  1  0  0  0
 16 17  1  0  0  0
 17 18  1  0  0  0
 11 12  1  0  0  0
 12 13  2  0  0  0
  6  2  1  0  0  0
 12  2  1  0  0  0
 10  5  1  0  0  0
M  END
> <minimizedAffinity>
-8.76462

> <CNNscore>
0.6761990786

> <CNNaffinity>
6.1928019524

> <CNN_VS>
4.1875667572

> <CNNaffinity_variance>
0.0274174009

$$$$
[H]c1c([H])c2c3c(c1[H])[C@@](C([H])([H])[H])(C(=O)C2([H])C([H])([H])C([H])([H])C([H])([H])C([H])([H])Cl)C([H])([H])C3([H])[H]


 18 20  0  0  0  0  0  0  0  0999 V2000
  -14.1288   -8.4216    3.9368 C   0  0  0  0  0  0  0  0  0  0  0  0
  -15.0961   -8.0528    5.1207 C   0  0  0  0  0  0  0  0  0  0  0  0
  -14.4413   -8.3813    6.4473 C   0  0  0  0  0  0  0  0  0  0  0  0
  -14.9406   -9.2655    5.7524 C   0  0  0  0  0  0  0  0  0  0  0  0
  -15.9517   -8.2811    4.9733 C   0  0  0  0  0  0  0  0  0  0  0  0
  -16.4631   -8.7758    5.0382 C   0  0  0  0  0  0  0  0  0  0  0  0
  -17.8381   -8.8320    4.6203 C   0  0  0  0  0  0  0  0  0  0  0  0
  -18.5001   -7.8853    3.9642 C   0  0  0  0  0  0  0  0  0  0  0  0
  -17.5740   -6.8386    3.7765 C   0  0  0  0  0  0  0  0  0  0  0  0
  -16.3635   -7.0659    4.2759 C   0  0  0  0  0  0  0  0  0  0  0  0
  -15.4145   -5.9043    4.1191 C   0  0  0  0  0  0  0  0  0  0  0  0
  -14.8810   -6.6136    5.2667 C   0  0  0  0  0  0  0  0  0  0  0  0
  -14.3866   -6.0897    6.1150 O   0  0  0  0  0  0  0  0  0  0  0  0
  -16.0157   -4.6594    4.6128 C   0  0  0  0  0  0  0  0  0  0  0  0
  -15.3853   -3.5074    3.8758 C   0  0  0  0  0  0  0  0  0  0  0  0
  -14.2591   -2.9783    4.7237 C   0  0  0  0  0  0  0  0  0  0  0  0
  -14.5006   -1.4959    4.9439 C   0  0  0  0  0  0  0  0  0  0  0  0
  -14.2243   -1.1132    6.6509 Cl  0  0  0  0  0  0  0  0  0  0  0  0
  2  1  1  0  0  0
  2  3  1  0  0  0
  3  4  1  0  0  0
  4  5  1  0  0  0
  5  6  2  0  0  0
  6  7  1  0  0  0
  7  8  2  0  0  0
  8  9  1  0  0  0
  9 10  2  0  0  0
 10 11  1  0  0  0
 11 14  1  0  0  0
 14 15  1  0  0  0
 15 16  1  0  0  0
 16 17  1  0  0  0
 17 18  1  0  0  0
 11 12  1  0  0  0
 12 13  2  0  0  0
  6  2  1  0  0  0
 12  2  1  0  0  0
 10  5  1  0  0  0
M  END
> <minimizedAffinity>
-1.70445

> <CNNscore>
0.4627273679

> <CNNaffinity>
5.7769165039

> <CNN_VS>
2.6731374264

> <CNNaffinity_variance>
0.2981978655

$$$$
[H]c1c([H])c2c3c(c1[H])[C@@](C([H])([H])[H])(C(=O)C2([H])C([H])([H])C([H])([H])C([H])([H])C([H])([H])Cl)C([H])([H])C3([H])[H]


 18 20  0  0  0  0  0  0  0  0999 V2000
  -13.5530  -10.3842    8.0696 C   0  0  0  0  0  0  0  0  0  0  0  0
  -12.8614   -9.1878    7.3188 C   0  0  0  0  0  0  0  0  0  0  0  0
  -11.9426   -9.7165    6.2357 C   0  0  0  0  0  0  0  0  0  0  0  0
  -11.6000   -9.7294    7.4175 C   0  0  0  0  0  0  0  0  0  0  0  0
  -12.5821   -8.5316    7.8640 C   0  0  0  0  0  0  0  0  0  0  0  0
  -12.0528   -8.2629    8.2615 C   0  0  0  0  0  0  0  0  0  0  0  0
  -11.9483   -7.1083    9.1127 C   0  0  0  0  0  0  0  0  0  0  0  0
  -12.9076   -6.2223    9.3576 C   0  0  0  0  0  0  0  0  0  0  0  0
  -14.0224   -6.6578    8.6118 C   0  0  0  0  0  0  0  0  0  0  0  0
  -13.8260   -7.7678    7.9077 C   0  0  0  0  0  0  0  0  0  0  0  0
  -15.0125   -8.1724    7.0693 C   0  0  0  0  0  0  0  0  0  0  0  0
  -13.8932   -8.7733    6.3688 C   0  0  0  0  0  0  0  0  0  0  0  0
  -13.8703   -8.8803    5.2613 O   0  0  0  0  0  0  0  0  0  0  0  0
  -15.4905   -7.0504    6.2524 C   0  0  0  0  0  0  0  0  0  0  0  0
  -16.9702   -7.2241    6.0335 C   0  0  0  0  0  0  0  0  0  0  0  0
  -17.1632   -7.9036    4.7037 C   0  0  0  0  0  0  0  0  0  0  0  0
  -18.2965   -7.1975    3.9816 C   0  0  0  0  0  0  0  0  0  0  0  0
  -18.1822   -5.4573    4.2903 Cl  0  0  0  0  0  0  0  0  0  0  0  0
  2  1  1  0  0  0
  2  3  1  0  0  0
  3  4  1  0  0  0
  4  5  1  0  0  0
  5  6  2  0  0  0
  6  7  1  0  0  0
  7  8  2  0  0  0
  8  9  1  0  0  0
  9 10  2  0  0  0
 10 11  1  0  0  0
 11 14  1  0  0  0
 14 15  1  0  0  0
 15 16  1  0  0  0
 16 17  1  0  0  0
 17 18  1  0  0  0
 11 12  1  0  0  0
 12 13  2  0  0  0
  6  2  1  0  0  0
 12  2  1  0  0  0
 10  5  1  0  0  0
M  END
> <minimizedAffinity>
-8.07851

> <CNNscore>
0.4313645363

> <CNNaffinity>
5.8273057938

> <CNN_VS>
2.5136930943

> <CNNaffinity_variance>
0.0105508538

$$$$
[H]c1c([H])c2c3c(c1[H])[C@@](C([H])([H])[H])(C(=O)C2([H])C([H])([H])C([H])([H])C([H])([H])C([H])([H])Cl)C([H])([H])C3([H])[H]


 18 20  0  0  0  0  0  0  0  0999 V2000
  -17.0548   -6.9064    6.1193 C   0  0  0  0  0  0  0  0  0  0  0  0
  -15.7054   -6.5085    5.4165 C   0  0  0  0  0  0  0  0  0  0  0  0
  -15.6090   -5.0010    5.2939 C   0  0  0  0  0  0  0  0  0  0  0  0
  -16.3110   -5.6546    4.5231 C   0  0  0  0  0  0  0  0  0  0  0  0
  -15.4939   -7.0305    4.7174 C   0  0  0  0  0  0  0  0  0  0  0  0
  -15.5394   -7.1420    4.0132 C   0  0  0  0  0  0  0  0  0  0  0  0
  -15.0748   -8.1947    3.1504 C   0  0  0  0  0  0  0  0  0  0  0  0
  -14.4032   -9.2786    3.5235 C   0  0  0  0  0  0  0  0  0  0  0  0
  -14.2512   -9.1656    4.9209 C   0  0  0  0  0  0  0  0  0  0  0  0
  -14.7865   -8.0731    5.4558 C   0  0  0  0  0  0  0  0  0  0  0  0
  -14.5512   -7.9463    6.9400 C   0  0  0  0  0  0  0  0  0  0  0  0
  -14.7456   -6.5719    6.5182 C   0  0  0  0  0  0  0  0  0  0  0  0
  -14.2142   -5.7197    6.9977 O   0  0  0  0  0  0  0  0  0  0  0  0
  -13.1292   -8.1086    7.2662 C   0  0  0  0  0  0  0  0  0  0  0  0
  -13.0267   -8.8892    8.5499 C   0  0  0  0  0  0  0  0  0  0  0  0
  -13.4596   -7.9864    9.6745 C   0  0  0  0  0  0  0  0  0  0  0  0
  -12.4086   -6.9021    9.8303 C   0  0  0  0  0  0  0  0  0  0  0  0
  -13.1978   -5.4030   10.3467 Cl  0  0  0  0  0  0  0  0  0  0  0  0
  2  1  1  0  0  0
  2  3  1  0  0  0
  3  4  1  0  0  0
  4  5  1  0  0  0
  5  6  2  0  0  0
  6  7  1  0  0  0
  7  8  2  0  0  0
  8  9  1  0  0  0
  9 10  2  0  0  0
 10 11  1  0  0  0
 11 14  1  0  0  0
 14 15  1  0  0  0
 15 16  1  0  0  0
 16 17  1  0  0  0
 17 18  1  0  0  0
 11 12  1  0  0  0
 12 13  2  0  0  0
  6  2  1  0  0  0
 12  2  1  0  0  0
 10  5  1  0  0  0
M  END
> <minimizedAffinity>
-6.56010

> <CNNscore>
0.3700649738

> <CNNaffinity>
5.8105120659

> <CNN_VS>
2.1502668858

> <CNNaffinity_variance>
0.0713189170

$$$$
[H]c1c([H])c2c3c(c1[H])[C@@](C([H])([H])[H])(C(=O)C2([H])C([H])([H])C([H])([H])C([H])([H])C([H])([H])Cl)C([H])([H])C3([H])[H]


 18 20  0  0  0  0  0  0  0  0999 V2000
  -13.7727   -6.9959    6.6391 C   0  0  0  0  0  0  0  0  0  0  0  0
  -13.5808   -7.7192    8.0223 C   0  0  0  0  0  0  0  0  0  0  0  0
  -14.4987   -8.9218    8.1107 C   0  0  0  0  0  0  0  0  0  0  0  0
  -14.9302   -7.7827    8.2849 C   0  0  0  0  0  0  0  0  0  0  0  0
  -13.5094   -7.1564    8.7180 C   0  0  0  0  0  0  0  0  0  0  0  0
  -13.8419   -6.7930    9.2356 C   0  0  0  0  0  0  0  0  0  0  0  0
  -13.3857   -5.8728   10.2424 C   0  0  0  0  0  0  0  0  0  0  0  0
  -12.1334   -5.4719   10.4322 C   0  0  0  0  0  0  0  0  0  0  0  0
  -11.3716   -6.1370    9.4494 C   0  0  0  0  0  0  0  0  0  0  0  0
  -12.0674   -6.9369    8.6479 C   0  0  0  0  0  0  0  0  0  0  0  0
  -11.2183   -7.6847    7.6509 C   0  0  0  0  0  0  0  0  0  0  0  0
  -12.3875   -8.5323    7.7899 C   0  0  0  0  0  0  0  0  0  0  0  0
  -12.3318   -9.6417    7.7220 O   0  0  0  0  0  0  0  0  0  0  0  0
  -10.1002   -8.3667    8.3141 C   0  0  0  0  0  0  0  0  0  0  0  0
   -8.9130   -8.3342    7.3883 C   0  0  0  0  0  0  0  0  0  0  0  0
   -8.5993   -6.8918    7.0909 C   0  0  0  0  0  0  0  0  0  0  0  0
   -7.2525   -6.8442    6.3921 C   0  0  0  0  0  0  0  0  0  0  0  0
   -6.8024   -8.4831    5.8938 Cl  0  0  0  0  0  0  0  0  0  0  0  0
  2  1  1  0  0  0
  2  3  1  0  0  0
  3  4  1  0  0  0
  4  5  1  0  0  0
  5  6  2  0  0  0
  6  7  1  0  0  0
  7  8  2  0  0  0
  8  9  1  0  0  0
  9 10  2  0  0  0
 10 11  1  0  0  0
 11 14  1  0  0  0
 14 15  1  0  0  0
 15 16  1  0  0  0
 16 17  1  0  0  0
 17 18  1  0  0  0
 11 12  1  0  0  0
 12 13  2  0  0  0
  6  2  1  0  0  0
 12  2  1  0  0  0
 10  5  1  0  0  0
M  END
> <minimizedAffinity>
-8.53336

> <CNNscore>
0.3612681627

> <CNNaffinity>
5.5145339966

> <CNN_VS>
1.9922255278

> <CNNaffinity_variance>
0.1180175766

$$$$
[H]c1c([H])c2c3c(c1[H])[C@@](C([H])([H])[H])(C(=O)C2([H])C([H])([H])C([H])([H])C([H])([H])C([H])([H])Cl)C([H])([H])C3([H])[H]


 18 20  0  0  0  0  0  0  0  0999 V2000
  -12.4993   -9.5979    9.1261 C   0  0  0  0  0  0  0  0  0  0  0  0
  -12.0152   -8.3196    8.3483 C   0  0  0  0  0  0  0  0  0  0  0  0
  -10.9659   -8.7020    7.3238 C   0  0  0  0  0  0  0  0  0  0  0  0
  -10.6795   -8.6055    8.5166 C   0  0  0  0  0  0  0  0  0  0  0  0
  -11.8899   -7.6025    8.8735 C   0  0  0  0  0  0  0  0  0  0  0  0
  -11.4392   -7.2229    9.2776 C   0  0  0  0  0  0  0  0  0  0  0  0
  -11.5936   -6.0392   10.0797 C   0  0  0  0  0  0  0  0  0  0  0  0
  -12.7135   -5.3450   10.2501 C   0  0  0  0  0  0  0  0  0  0  0  0
  -13.6913   -6.0131    9.4846 C   0  0  0  0  0  0  0  0  0  0  0  0
  -13.2569   -7.0900    8.8381 C   0  0  0  0  0  0  0  0  0  0  0  0
  -14.3069   -7.7450    7.9762 C   0  0  0  0  0  0  0  0  0  0  0  0
  -13.0640   -8.1457    7.3441 C   0  0  0  0  0  0  0  0  0  0  0  0
  -12.9726   -8.2870    6.2440 O   0  0  0  0  0  0  0  0  0  0  0  0
  -14.9529   -6.7662    7.0934 C   0  0  0  0  0  0  0  0  0  0  0  0
  -16.2288   -7.3725    6.5718 C   0  0  0  0  0  0  0  0  0  0  0  0
  -16.6080   -6.6378    5.3134 C   0  0  0  0  0  0  0  0  0  0  0  0
  -15.4729   -6.8034    4.3192 C   0  0  0  0  0  0  0  0  0  0  0  0
  -15.4013   -8.4955    3.8013 Cl  0  0  0  0  0  0  0  0  0  0  0  0
  2  1  1  0  0  0
  2  3  1  0  0  0
  3  4  1  0  0  0
  4  5  1  0  0  0
  5  6  2  0  0  0
  6  7  1  0  0  0
  7  8  2  0  0  0
  8  9  1  0  0  0
  9 10  2  0  0  0
 10 11  1  0  0  0
 11 14  1  0  0  0
 14 15  1  0  0  0
 15 16  1  0  0  0
 16 17  1  0  0  0
 17 18  1  0  0  0
 11 12  1  0  0  0
 12 13  2  0  0  0
  6  2  1  0  0  0
 12  2  1  0  0  0
 10  5  1  0  0  0
M  END
> <minimizedAffinity>
-7.71696

> <CNNscore>
0.3552942276

> <CNNaffinity>
5.7661652565

> <CNN_VS>
2.0486853123

> <CNNaffinity_variance>
0.0454719253

$$$$
[H]c1c([H])c2c3c(c1[H])[C@@](C([H])([H])[H])(C(=O)C2([H])C([H])([H])C([H])([H])C([H])([H])C([H])([H])Cl)C([H])([H])C3([H])[H]


 18 20  0  0  0  0  0  0  0  0999 V2000
  -13.3812   -6.2217    8.8960 C   0  0  0  0  0  0  0  0  0  0  0  0
  -13.8800   -7.7129    8.8667 C   0  0  0  0  0  0  0  0  0  0  0  0
  -14.7456   -7.9944   10.0784 C   0  0  0  0  0  0  0  0  0  0  0  0
  -13.5191   -7.9600   10.1715 C   0  0  0  0  0  0  0  0  0  0  0  0
  -13.2483   -8.3009    8.6195 C   0  0  0  0  0  0  0  0  0  0  0  0
  -12.7232   -8.7414    8.8210 C   0  0  0  0  0  0  0  0  0  0  0  0
  -11.8074   -9.5797    8.0951 C   0  0  0  0  0  0  0  0  0  0  0  0
  -11.7445   -9.7175    6.7752 C   0  0  0  0  0  0  0  0  0  0  0  0
  -12.7542   -8.8787    6.2601 C   0  0  0  0  0  0  0  0  0  0  0  0
  -13.4543   -8.2176    7.1761 C   0  0  0  0  0  0  0  0  0  0  0  0
  -14.5690   -7.3806    6.6005 C   0  0  0  0  0  0  0  0  0  0  0  0
  -15.0204   -7.6459    7.9535 C   0  0  0  0  0  0  0  0  0  0  0  0
  -16.0959   -7.7735    8.2095 O   0  0  0  0  0  0  0  0  0  0  0  0
  -15.4105   -8.1712    5.6940 C   0  0  0  0  0  0  0  0  0  0  0  0
  -15.6702   -7.3515    4.4577 C   0  0  0  0  0  0  0  0  0  0  0  0
  -15.1797   -5.9523    4.7206 C   0  0  0  0  0  0  0  0  0  0  0  0
  -16.2077   -4.9868    4.1589 C   0  0  0  0  0  0  0  0  0  0  0  0
  -17.7220   -5.1676    5.0593 Cl  0  0  0  0  0  0  0  0  0  0  0  0
  2  1  1  0  0  0
  2  3  1  0  0  0
  3  4  1  0  0  0
  4  5  1  0  0  0
  5  6  2  0  0  0
  6  7  1  0  0  0
  7  8  2  0  0  0
  8  9  1  0  0  0
  9 10  2  0  0  0
 10 11  1  0  0  0
 11 14  1  0  0  0
 14 15  1  0  0  0
 15 16  1  0  0  0
 16 17  1  0  0  0
 17 18  1  0  0  0
 11 12  1  0  0  0
 12 13  2  0  0  0
  6  2  1  0  0  0
 12  2  1  0  0  0
 10  5  1  0  0  0
M  END
> <minimizedAffinity>
-7.29861

> <CNNscore>
0.3099761307

> <CNNaffinity>
5.6550798416

> <CNN_VS>
1.7529398203

> <CNNaffinity_variance>
0.1285248101

$$$$
[H]c1c([H])c2c3c(c1[H])[C@@](C([H])([H])[H])(C(=O)C2([H])C([H])([H])C([H])([H])C([H])([H])C([H])([H])Cl)C([H])([H])C3([H])[H]


 18 20  0  0  0  0  0  0  0  0999 V2000
  -13.6792   -6.0561    8.8627 C   0  0  0  0  0  0  0  0  0  0  0  0
  -12.2961   -6.7458    9.1536 C   0  0  0  0  0  0  0  0  0  0  0  0
  -11.2002   -5.7014    9.2240 C   0  0  0  0  0  0  0  0  0  0  0  0
  -11.6431   -6.0813    8.1407 C   0  0  0  0  0  0  0  0  0  0  0  0
  -12.1653   -7.5037    8.6906 C   0  0  0  0  0  0  0  0  0  0  0  0
  -11.9126   -7.8114    8.0974 C   0  0  0  0  0  0  0  0  0  0  0  0
  -11.8997   -9.1680    7.6200 C   0  0  0  0  0  0  0  0  0  0  0  0
  -12.4049  -10.2264    8.2443 C   0  0  0  0  0  0  0  0  0  0  0  0
  -12.9414   -9.7318    9.4511 C   0  0  0  0  0  0  0  0  0  0  0  0
  -12.8053   -8.4217    9.6289 C   0  0  0  0  0  0  0  0  0  0  0  0
  -13.3283   -7.9319   10.9559 C   0  0  0  0  0  0  0  0  0  0  0  0
  -12.3364   -6.9337   10.6034 C   0  0  0  0  0  0  0  0  0  0  0  0
  -11.7170   -6.4123   11.3670 O   0  0  0  0  0  0  0  0  0  0  0  0
  -12.7809   -8.7226   12.0649 C   0  0  0  0  0  0  0  0  0  0  0  0
  -13.7636   -9.8149   12.3945 C   0  0  0  0  0  0  0  0  0  0  0  0
  -12.9819  -11.0748   12.6571 C   0  0  0  0  0  0  0  0  0  0  0  0
  -13.9119  -12.0657   13.3336 C   0  0  0  0  0  0  0  0  0  0  0  0
  -13.1203  -13.6487   13.3986 Cl  0  0  0  0  0  0  0  0  0  0  0  0
  2  1  1  0  0  0
  2  3  1  0  0  0
  3  4  1  0  0  0
  4  5  1  0  0  0
  5  6  2  0  0  0
  6  7  1  0  0  0
  7  8  2  0  0  0
  8  9  1  0  0  0
  9 10  2  0  0  0
 10 11  1  0  0  0
 11 14  1  0  0  0
 14 15  1  0  0  0
 15 16  1  0  0  0
 16 17  1  0  0  0
 17 18  1  0  0  0
 11 12  1  0  0  0
 12 13  2  0  0  0
  6  2  1  0  0  0
 12  2  1  0  0  0
 10  5  1  0  0  0
M  END
> <minimizedAffinity>
9.67346

> <CNNscore>
0.2803849876

> <CNNaffinity>
4.9567437172

> <CNN_VS>
1.3897964954

> <CNNaffinity_variance>
0.1789548397

$$$$
[H]c1c([H])c2c3c(c1[H])[C@@](C([H])([H])[H])(C(=O)C2([H])C([H])([H])C([H])([H])C([H])([H])C([H])([H])Cl)C([H])([H])C3([H])[H]


 18 20  0  0  0  0  0  0  0  0999 V2000
   -7.0398   -8.1991    9.1500 C   0  0  0  0  0  0  0  0  0  0  0  0
   -7.7117   -8.7010    7.8196 C   0  0  0  0  0  0  0  0  0  0  0  0
   -7.7351  -10.2160    7.7895 C   0  0  0  0  0  0  0  0  0  0  0  0
   -6.7043   -9.5942    7.5348 C   0  0  0  0  0  0  0  0  0  0  0  0
   -7.4596   -8.2410    7.0911 C   0  0  0  0  0  0  0  0  0  0  0  0
   -7.0029   -8.1803    6.5450 C   0  0  0  0  0  0  0  0  0  0  0  0
   -6.8503   -7.2137    5.4911 C   0  0  0  0  0  0  0  0  0  0  0  0
   -7.5985   -6.1324    5.3011 C   0  0  0  0  0  0  0  0  0  0  0  0
   -8.5530   -6.1473    6.3391 C   0  0  0  0  0  0  0  0  0  0  0  0
   -8.4543   -7.1752    7.1757 C   0  0  0  0  0  0  0  0  0  0  0  0
   -9.5276   -7.2007    8.2349 C   0  0  0  0  0  0  0  0  0  0  0  0
   -9.1376   -8.5939    8.1268 C   0  0  0  0  0  0  0  0  0  0  0  0
   -9.8606   -9.4284    8.2661 O   0  0  0  0  0  0  0  0  0  0  0  0
  -10.8627   -7.0708    7.6387 C   0  0  0  0  0  0  0  0  0  0  0  0
  -11.8024   -6.5544    8.6960 C   0  0  0  0  0  0  0  0  0  0  0  0
  -12.7190   -7.6825    9.0892 C   0  0  0  0  0  0  0  0  0  0  0  0
  -13.7340   -7.1336   10.0756 C   0  0  0  0  0  0  0  0  0  0  0  0
  -13.3119   -5.4585   10.4663 Cl  0  0  0  0  0  0  0  0  0  0  0  0
  2  1  1  0  0  0
  2  3  1  0  0  0
  3  4  1  0  0  0
  4  5  1  0  0  0
  5  6  2  0  0  0
  6  7  1  0  0  0
  7  8  2  0  0  0
  8  9  1  0  0  0
  9 10  2  0  0  0
 10 11  1  0  0  0
 11 14  1  0  0  0
 14 15  1  0  0  0
 15 16  1  0  0  0
 16 17  1  0  0  0
 17 18  1  0  0  0
 11 12  1  0  0  0
 12 13  2  0  0  0
  6  2  1  0  0  0
 12  2  1  0  0  0
 10  5  1  0  0  0
M  END
> <minimizedAffinity>
-6.02385

> <CNNscore>
0.2769048512

> <CNNaffinity>
5.1467323303

> <CNN_VS>
1.4251551628

> <CNNaffinity_variance>
0.1187082976

$$$$
[H]OC([H])(c1c([H])c([H])c(C#N)c([H])c1N([H])C(=Nc1c([H])c([H])c(OC([H])([H])C([H])([H])C([H])([H])N([H])C(=O)c2c([H])c([H])c([H])c([H])c2[H])c([H])c1[H])c1c([H])c([H])c([H])c([H])c1[H])C([H])([H])[H]


 42 45  0  0  0  0  0  0  0  0999 V2000
  -14.9390   -6.8780    6.0904 C   0  0  0  0  0  0  0  0  0  0  0  0
  -14.3112   -7.5909    6.8904 N   0  0  0  0  0  0  0  0  0  0  0  0
  -12.9433   -7.5886    7.2186 C   0  0  0  0  0  0  0  0  0  0  0  0
  -12.3516   -6.4458    7.6545 C   0  0  0  0  0  0  0  0  0  0  0  0
  -11.0054   -6.4126    8.0019 C   0  0  0  0  0  0  0  0  0  0  0  0
  -10.2695   -7.5635    7.9009 C   0  0  0  0  0  0  0  0  0  0  0  0
  -10.8688   -8.6900    7.4610 C   0  0  0  0  0  0  0  0  0  0  0  0
  -12.1945   -8.7752    7.1054 C   0  0  0  0  0  0  0  0  0  0  0  0
   -8.9203   -7.4951    8.2766 O   0  0  0  0  0  0  0  0  0  0  0  0
   -8.2684   -6.2780    8.0890 C   0  0  0  0  0  0  0  0  0  0  0  0
   -8.0805   -5.9685    6.5926 C   0  0  0  0  0  0  0  0  0  0  0  0
   -6.7229   -6.5883    6.2180 C   0  0  0  0  0  0  0  0  0  0  0  0
   -5.6186   -5.8260    6.6937 N   0  0  0  0  0  0  0  0  0  0  0  0
   -4.9654   -6.0339    7.9178 C   0  0  0  0  0  0  0  0  0  0  0  0
   -5.3126   -6.9308    8.7177 O   0  0  0  0  0  0  0  0  0  0  0  0
   -5.2602   -5.0187    6.0675 H   0  0  0  0  0  0  0  0  0  0  0  0
   -3.8344   -5.1335    8.2316 C   0  0  0  0  0  0  0  0  0  0  0  0
   -3.8906   -4.3107    9.3269 C   0  0  0  0  0  0  0  0  0  0  0  0
   -2.8036   -3.5000    9.5723 C   0  0  0  0  0  0  0  0  0  0  0  0
   -1.7007   -3.5215    8.7419 C   0  0  0  0  0  0  0  0  0  0  0  0
   -1.6689   -4.3534    7.6520 C   0  0  0  0  0  0  0  0  0  0  0  0
   -2.7315   -5.1597    7.3936 C   0  0  0  0  0  0  0  0  0  0  0  0
  -14.2759   -5.8011    5.2965 C   0  0  0  0  0  0  0  0  0  0  0  0
  -15.0023   -4.6147    5.0633 C   0  0  0  0  0  0  0  0  0  0  0  0
  -14.4058   -3.5760    4.3996 C   0  0  0  0  0  0  0  0  0  0  0  0
  -13.1012   -3.6730    3.9552 C   0  0  0  0  0  0  0  0  0  0  0  0
  -12.3986   -4.8501    4.1968 C   0  0  0  0  0  0  0  0  0  0  0  0
  -13.0018   -5.9248    4.8775 C   0  0  0  0  0  0  0  0  0  0  0  0
  -16.3505   -6.9399    5.8019 N   0  0  0  0  0  0  0  0  0  0  0  0
  -16.9273   -6.4410    6.5115 H   0  0  0  0  0  0  0  0  0  0  0  0
  -17.8464   -6.8451    3.9772 C   0  0  0  0  0  0  0  0  0  0  0  0
  -18.3703   -7.4381    2.8549 C   0  0  0  0  0  0  0  0  0  0  0  0
  -18.0219   -8.7051    2.4464 C   0  0  0  0  0  0  0  0  0  0  0  0
  -17.1182   -9.4390    3.1631 C   0  0  0  0  0  0  0  0  0  0  0  0
  -16.5681   -8.8575    4.3106 C   0  0  0  0  0  0  0  0  0  0  0  0
  -16.9116   -7.5861    4.7212 C   0  0  0  0  0  0  0  0  0  0  0  0
  -19.5574   -5.1459    4.1464 O   0  0  0  0  0  0  0  0  0  0  0  0
  -18.3180   -5.5685    4.4850 C   0  0  0  0  0  0  0  0  0  0  0  0
  -17.7416   -5.1282    5.7781 C   0  0  0  0  0  0  0  0  0  0  0  0
  -19.7305   -5.2447    3.1550 H   0  0  0  0  0  0  0  0  0  0  0  0
  -16.7281  -10.7788    2.7747 C   0  0  0  0  0  0  0  0  0  0  0  0
  -16.3987  -11.8452    2.4797 N   0  0  0  0  0  0  0  0  0  0  0  0
 37 38  1  0  0  0
 38 39  1  0  0  0
 38 31  1  0  0  0
 31 32  2  0  0  0
 32 33  1  0  0  0
 33 34  2  0  0  0
 34 41  1  0  0  0
 41 42  3  0  0  0
 34 35  1  0  0  0
 35 36  2  0  0  0
 36 29  1  0  0  0
 29  1  1  0  0  0
  1  2  2  0  0  0
  2  3  1  0  0  0
  3  4  2  0  0  0
  4  5  1  0  0  0
  5  6  2  0  0  0
  6  9  1  0  0  0
  9 10  1  0  0  0
 10 11  1  0  0  0
 11 12  1  0  0  0
 12 13  1  0  0  0
 13 14  1  0  0  0
 14 17  1  0  0  0
 17 18  2  0  0  0
 18 19  1  0  0  0
 19 20  2  0  0  0
 20 21  1  0  0  0
 21 22  2  0  0  0
 14 15  2  0  0  0
  6  7  1  0  0  0
  7  8  2  0  0  0
  1 23  1  0  0  0
 23 24  2  0  0  0
 24 25  1  0  0  0
 25 26  2  0  0  0
 26 27  1  0  0  0
 27 28  2  0  0  0
 36 31  1  0  0  0
  8  3  1  0  0  0
 28 23  1  0  0  0
 22 17  1  0  0  0
 37 40  1  0  0  0
 29 30  1  0  0  0
 13 16  1  0  0  0
M  END
> <minimizedAffinity>
9.88965

> <CNNscore>
0.4990164638

> <CNNaffinity>
7.2225332260

> <CNN_VS>
3.6041629314

> <CNNaffinity_variance>
1.5543968678

$$$$
[H]OC([H])(c1c([H])c([H])c(C#N)c([H])c1N([H])C(=Nc1c([H])c([H])c(OC([H])([H])C([H])([H])C([H])([H])N([H])C(=O)c2c([H])c([H])c([H])c([H])c2[H])c([H])c1[H])c1c([H])c([H])c([H])c([H])c1[H])C([H])([H])[H]


 42 45  0  0  0  0  0  0  0  0999 V2000
  -13.9486   -8.1687    7.2560 C   0  0  0  0  0  0  0  0  0  0  0  0
  -13.0612   -8.7793    6.6377 N   0  0  0  0  0  0  0  0  0  0  0  0
  -11.7001   -8.9503    6.9492 C   0  0  0  0  0  0  0  0  0  0  0  0
  -11.0881  -10.1355    6.6907 C   0  0  0  0  0  0  0  0  0  0  0  0
   -9.7405  -10.3328    6.9719 C   0  0  0  0  0  0  0  0  0  0  0  0
   -9.0231   -9.3023    7.5194 C   0  0  0  0  0  0  0  0  0  0  0  0
   -9.6452   -8.1323    7.7761 C   0  0  0  0  0  0  0  0  0  0  0  0
  -10.9733   -7.8869    7.5172 C   0  0  0  0  0  0  0  0  0  0  0  0
   -7.6634   -9.5331    7.7726 O   0  0  0  0  0  0  0  0  0  0  0  0
   -6.7711   -8.5196    7.4289 C   0  0  0  0  0  0  0  0  0  0  0  0
   -6.6286   -8.3937    5.9012 C   0  0  0  0  0  0  0  0  0  0  0  0
   -6.5744   -6.8814    5.6226 C   0  0  0  0  0  0  0  0  0  0  0  0
   -5.9056   -6.1553    6.6483 N   0  0  0  0  0  0  0  0  0  0  0  0
   -4.5418   -5.8258    6.6423 C   0  0  0  0  0  0  0  0  0  0  0  0
   -3.7777   -6.1563    5.7086 O   0  0  0  0  0  0  0  0  0  0  0  0
   -6.4913   -5.8401    7.5026 H   0  0  0  0  0  0  0  0  0  0  0  0
   -4.0347   -5.0633    7.8041 C   0  0  0  0  0  0  0  0  0  0  0  0
   -3.2042   -3.9889    7.6153 C   0  0  0  0  0  0  0  0  0  0  0  0
   -2.7703   -3.3133    8.7353 C   0  0  0  0  0  0  0  0  0  0  0  0
   -3.1625   -3.7087    9.9987 C   0  0  0  0  0  0  0  0  0  0  0  0
   -3.9938   -4.7874   10.1612 C   0  0  0  0  0  0  0  0  0  0  0  0
   -4.4316   -5.4663    9.0688 C   0  0  0  0  0  0  0  0  0  0  0  0
  -13.6808   -7.4747    8.5507 C   0  0  0  0  0  0  0  0  0  0  0  0
  -13.5288   -8.2720    9.7044 C   0  0  0  0  0  0  0  0  0  0  0  0
  -13.2137   -7.6803   10.8984 C   0  0  0  0  0  0  0  0  0  0  0  0
  -13.0416   -6.3125   10.9897 C   0  0  0  0  0  0  0  0  0  0  0  0
  -13.1925   -5.5418    9.8404 C   0  0  0  0  0  0  0  0  0  0  0  0
  -13.5171   -6.1390    8.6075 C   0  0  0  0  0  0  0  0  0  0  0  0
  -15.3318   -8.0327    6.8717 N   0  0  0  0  0  0  0  0  0  0  0  0
  -15.9397   -8.7650    7.2953 H   0  0  0  0  0  0  0  0  0  0  0  0
  -17.2028   -7.1400    5.7410 C   0  0  0  0  0  0  0  0  0  0  0  0
  -17.7411   -6.1447    4.9630 C   0  0  0  0  0  0  0  0  0  0  0  0
  -16.9978   -5.0983    4.4671 C   0  0  0  0  0  0  0  0  0  0  0  0
  -15.6605   -5.0102    4.7376 C   0  0  0  0  0  0  0  0  0  0  0  0
  -15.0873   -6.0111    5.5294 C   0  0  0  0  0  0  0  0  0  0  0  0
  -15.8298   -7.0596    6.0318 C   0  0  0  0  0  0  0  0  0  0  0  0
  -18.2868   -8.4651    7.4477 O   0  0  0  0  0  0  0  0  0  0  0  0
  -17.9544   -8.3155    6.1452 C   0  0  0  0  0  0  0  0  0  0  0  0
  -18.8302   -8.9166    5.1109 C   0  0  0  0  0  0  0  0  0  0  0  0
  -17.4998   -8.2920    8.0587 H   0  0  0  0  0  0  0  0  0  0  0  0
  -14.8383   -3.9310    4.2304 C   0  0  0  0  0  0  0  0  0  0  0  0
  -14.1724   -3.0693    3.8473 N   0  0  0  0  0  0  0  0  0  0  0  0
 37 38  1  0  0  0
 38 39  1  0  0  0
 38 31  1  0  0  0
 31 32  2  0  0  0
 32 33  1  0  0  0
 33 34  2  0  0  0
 34 41  1  0  0  0
 41 42  3  0  0  0
 34 35  1  0  0  0
 35 36  2  0  0  0
 36 29  1  0  0  0
 29  1  1  0  0  0
  1  2  2  0  0  0
  2  3  1  0  0  0
  3  4  2  0  0  0
  4  5  1  0  0  0
  5  6  2  0  0  0
  6  9  1  0  0  0
  9 10  1  0  0  0
 10 11  1  0  0  0
 11 12  1  0  0  0
 12 13  1  0  0  0
 13 14  1  0  0  0
 14 17  1  0  0  0
 17 18  2  0  0  0
 18 19  1  0  0  0
 19 20  2  0  0  0
 20 21  1  0  0  0
 21 22  2  0  0  0
 14 15  2  0  0  0
  6  7  1  0  0  0
  7  8  2  0  0  0
  1 23  1  0  0  0
 23 24  2  0  0  0
 24 25  1  0  0  0
 25 26  2  0  0  0
 26 27  1  0  0  0
 27 28  2  0  0  0
 36 31  1  0  0  0
  8  3  1  0  0  0
 28 23  1  0  0  0
 22 17  1  0  0  0
 37 40  1  0  0  0
 29 30  1  0  0  0
 13 16  1  0  0  0
M  END
> <minimizedAffinity>
-8.29547

> <CNNscore>
0.4971450865

> <CNNaffinity>
7.6591811180

> <CNN_VS>
3.8077242374

> <CNNaffinity_variance>
0.1097182781

$$$$
[H]OC([H])(c1c([H])c([H])c(C#N)c([H])c1N([H])C(=Nc1c([H])c([H])c(OC([H])([H])C([H])([H])C([H])([H])N([H])C(=O)c2c([H])c([H])c([H])c([H])c2[H])c([H])c1[H])c1c([H])c([H])c([H])c([H])c1[H])C([H])([H])[H]


 42 45  0  0  0  0  0  0  0  0999 V2000
  -13.5652   -8.0428    7.0382 C   0  0  0  0  0  0  0  0  0  0  0  0
  -12.5288   -8.5085    6.5369 N   0  0  0  0  0  0  0  0  0  0  0  0
  -11.2264   -8.5814    7.0638 C   0  0  0  0  0  0  0  0  0  0  0  0
  -10.5336   -9.7485    7.0027 C   0  0  0  0  0  0  0  0  0  0  0  0
   -9.2389   -9.8506    7.5000 C   0  0  0  0  0  0  0  0  0  0  0  0
   -8.6580   -8.7436    8.0598 C   0  0  0  0  0  0  0  0  0  0  0  0
   -9.3599   -7.5923    8.1190 C   0  0  0  0  0  0  0  0  0  0  0  0
  -10.6408   -7.4395    7.6424 C   0  0  0  0  0  0  0  0  0  0  0  0
   -7.3456   -8.8806    8.5343 O   0  0  0  0  0  0  0  0  0  0  0  0
   -6.6296   -7.7093    8.7725 C   0  0  0  0  0  0  0  0  0  0  0  0
   -5.9978   -7.1664    7.4777 C   0  0  0  0  0  0  0  0  0  0  0  0
   -5.0406   -6.0502    7.9310 C   0  0  0  0  0  0  0  0  0  0  0  0
   -5.1038   -5.8046    9.3318 N   0  0  0  0  0  0  0  0  0  0  0  0
   -4.1507   -5.0827   10.0658 C   0  0  0  0  0  0  0  0  0  0  0  0
   -3.1343   -4.5837    9.5341 O   0  0  0  0  0  0  0  0  0  0  0  0
   -5.9471   -6.2128    9.8746 H   0  0  0  0  0  0  0  0  0  0  0  0
   -4.3974   -4.9361   11.5170 C   0  0  0  0  0  0  0  0  0  0  0  0
   -3.5411   -4.1967   12.2915 C   0  0  0  0  0  0  0  0  0  0  0  0
   -3.8270   -4.0900   13.6353 C   0  0  0  0  0  0  0  0  0  0  0  0
   -4.9378   -4.7070   14.1754 C   0  0  0  0  0  0  0  0  0  0  0  0
   -5.7791   -5.4417   13.3796 C   0  0  0  0  0  0  0  0  0  0  0  0
   -5.5133   -5.5587   12.0523 C   0  0  0  0  0  0  0  0  0  0  0  0
  -13.5883   -7.4508    8.4088 C   0  0  0  0  0  0  0  0  0  0  0  0
  -13.7117   -8.3322    9.5031 C   0  0  0  0  0  0  0  0  0  0  0  0
  -13.6673   -7.8365   10.7789 C   0  0  0  0  0  0  0  0  0  0  0  0
  -13.5024   -6.4843   11.0100 C   0  0  0  0  0  0  0  0  0  0  0  0
  -13.3792   -5.6298    9.9182 C   0  0  0  0  0  0  0  0  0  0  0  0
  -13.4242   -6.1280    8.6021 C   0  0  0  0  0  0  0  0  0  0  0  0
  -14.8735   -7.9998    6.4333 N   0  0  0  0  0  0  0  0  0  0  0  0
  -15.4702   -8.8077    6.7099 H   0  0  0  0  0  0  0  0  0  0  0  0
  -16.3715   -7.3818    4.7156 C   0  0  0  0  0  0  0  0  0  0  0  0
  -16.8810   -6.4054    3.8954 C   0  0  0  0  0  0  0  0  0  0  0  0
  -16.4027   -5.1153    3.8818 C   0  0  0  0  0  0  0  0  0  0  0  0
  -15.3748   -4.7498    4.7058 C   0  0  0  0  0  0  0  0  0  0  0  0
  -14.8383   -5.7257    5.5527 C   0  0  0  0  0  0  0  0  0  0  0  0
  -15.3177   -7.0191    5.5723 C   0  0  0  0  0  0  0  0  0  0  0  0
  -18.0301   -9.1146    5.0160 O   0  0  0  0  0  0  0  0  0  0  0  0
  -16.7798   -8.7732    4.6293 C   0  0  0  0  0  0  0  0  0  0  0  0
  -16.1069   -9.5866    3.5882 C   0  0  0  0  0  0  0  0  0  0  0  0
  -18.2727   -8.7050    5.9082 H   0  0  0  0  0  0  0  0  0  0  0  0
  -14.8348   -3.4058    4.7194 C   0  0  0  0  0  0  0  0  0  0  0  0
  -14.3931   -2.3393    4.7099 N   0  0  0  0  0  0  0  0  0  0  0  0
 37 38  1  0  0  0
 38 39  1  0  0  0
 38 31  1  0  0  0
 31 32  2  0  0  0
 32 33  1  0  0  0
 33 34  2  0  0  0
 34 41  1  0  0  0
 41 42  3  0  0  0
 34 35  1  0  0  0
 35 36  2  0  0  0
 36 29  1  0  0  0
 29  1  1  0  0  0
  1  2  2  0  0  0
  2  3  1  0  0  0
  3  4  2  0  0  0
  4  5  1  0  0  0
  5  6  2  0  0  0
  6  9  1  0  0  0
  9 10  1  0  0  0
 10 11  1  0  0  0
 11 12  1  0  0  0
 12 13  1  0  0  0
 13 14  1  0  0  0
 14 17  1  0  0  0
 17 18  2  0  0  0
 18 19  1  0  0  0
 19 20  2  0  0  0
 20 21  1  0  0  0
 21 22  2  0  0  0
 14 15  2  0  0  0
  6  7  1  0  0  0
  7  8  2  0  0  0
  1 23  1  0  0  0
 23 24  2  0  0  0
 24 25  1  0  0  0
 25 26  2  0  0  0
 26 27  1  0  0  0
 27 28  2  0  0  0
 36 31  1  0  0  0
  8  3  1  0  0  0
 28 23  1  0  0  0
 22 17  1  0  0  0
 37 40  1  0  0  0
 29 30  1  0  0  0
 13 16  1  0  0  0
M  END
> <minimizedAffinity>
-7.77965

> <CNNscore>
0.4521391690

> <CNNaffinity>
7.4229569435

> <CNN_VS>
3.3562095165

> <CNNaffinity_variance>
0.0720997155

$$$$
[H]OC([H])(c1c([H])c([H])c(C#N)c([H])c1N([H])C(=Nc1c([H])c([H])c(OC([H])([H])C([H])([H])C([H])([H])N([H])C(=O)c2c([H])c([H])c([H])c([H])c2[H])c([H])c1[H])c1c([H])c([H])c([H])c([H])c1[H])C([H])([H])[H]


 42 45  0  0  0  0  0  0  0  0999 V2000
  -13.7550   -8.1006    7.0211 C   0  0  0  0  0  0  0  0  0  0  0  0
  -12.7943   -8.6203    6.4301 N   0  0  0  0  0  0  0  0  0  0  0  0
  -11.4642   -8.7968    6.8528 C   0  0  0  0  0  0  0  0  0  0  0  0
  -10.7754   -7.7518    7.3814 C   0  0  0  0  0  0  0  0  0  0  0  0
   -9.4646   -7.8958    7.8231 C   0  0  0  0  0  0  0  0  0  0  0  0
   -8.8650   -9.1231    7.7205 C   0  0  0  0  0  0  0  0  0  0  0  0
   -9.5591  -10.1510    7.1882 C   0  0  0  0  0  0  0  0  0  0  0  0
  -10.8552  -10.0608    6.7374 C   0  0  0  0  0  0  0  0  0  0  0  0
   -7.5491   -9.2337    8.1923 O   0  0  0  0  0  0  0  0  0  0  0  0
   -6.5431   -8.6712    7.4094 C   0  0  0  0  0  0  0  0  0  0  0  0
   -6.1945   -7.2485    7.8833 C   0  0  0  0  0  0  0  0  0  0  0  0
   -4.6575   -7.2060    7.9415 C   0  0  0  0  0  0  0  0  0  0  0  0
   -4.0701   -6.7977    6.7107 N   0  0  0  0  0  0  0  0  0  0  0  0
   -2.7591   -6.3198    6.5645 C   0  0  0  0  0  0  0  0  0  0  0  0
   -1.9763   -6.2063    7.5336 O   0  0  0  0  0  0  0  0  0  0  0  0
   -4.6838   -6.8517    5.8203 H   0  0  0  0  0  0  0  0  0  0  0  0
   -2.3340   -5.9460    5.1977 C   0  0  0  0  0  0  0  0  0  0  0  0
   -2.7757   -4.7775    4.6329 C   0  0  0  0  0  0  0  0  0  0  0  0
   -2.3396   -4.4793    3.3601 C   0  0  0  0  0  0  0  0  0  0  0  0
   -1.4879   -5.3303    2.6844 C   0  0  0  0  0  0  0  0  0  0  0  0
   -1.0604   -6.4939    3.2712 C   0  0  0  0  0  0  0  0  0  0  0  0
   -1.4800   -6.8051    4.5254 C   0  0  0  0  0  0  0  0  0  0  0  0
  -13.6332   -7.5495    8.4035 C   0  0  0  0  0  0  0  0  0  0  0  0
  -13.4171   -6.1625    8.5412 C   0  0  0  0  0  0  0  0  0  0  0  0
  -13.3689   -5.6065    9.7917 C   0  0  0  0  0  0  0  0  0  0  0  0
  -13.5299   -6.3850   10.9217 C   0  0  0  0  0  0  0  0  0  0  0  0
  -13.7454   -7.7514   10.7667 C   0  0  0  0  0  0  0  0  0  0  0  0
  -13.7960   -8.3342    9.4861 C   0  0  0  0  0  0  0  0  0  0  0  0
  -15.0990   -7.9513    6.5204 N   0  0  0  0  0  0  0  0  0  0  0  0
  -15.7500   -8.6719    6.8973 H   0  0  0  0  0  0  0  0  0  0  0  0
  -16.5881   -7.3257    4.7977 C   0  0  0  0  0  0  0  0  0  0  0  0
  -17.0658   -6.3550    3.9520 C   0  0  0  0  0  0  0  0  0  0  0  0
  -16.5356   -5.0866    3.8939 C   0  0  0  0  0  0  0  0  0  0  0  0
  -15.4853   -4.7382    4.6968 C   0  0  0  0  0  0  0  0  0  0  0  0
  -14.9803   -5.7087    5.5690 C   0  0  0  0  0  0  0  0  0  0  0  0
  -15.5116   -6.9801    5.6333 C   0  0  0  0  0  0  0  0  0  0  0  0
  -18.3286   -8.9723    5.1188 O   0  0  0  0  0  0  0  0  0  0  0  0
  -17.0534   -8.7012    4.7586 C   0  0  0  0  0  0  0  0  0  0  0  0
  -16.3848   -9.5878    3.7762 C   0  0  0  0  0  0  0  0  0  0  0  0
  -18.5805   -8.5133    5.9840 H   0  0  0  0  0  0  0  0  0  0  0  0
  -14.8911   -3.4177    4.6636 C   0  0  0  0  0  0  0  0  0  0  0  0
  -14.3968   -2.3750    4.6306 N   0  0  0  0  0  0  0  0  0  0  0  0
 37 38  1  0  0  0
 38 39  1  0  0  0
 38 31  1  0  0  0
 31 32  2  0  0  0
 32 33  1  0  0  0
 33 34  2  0  0  0
 34 41  1  0  0  0
 41 42  3  0  0  0
 34 35  1  0  0  0
 35 36  2  0  0  0
 36 29  1  0  0  0
 29  1  1  0  0  0
  1  2  2  0  0  0
  2  3  1  0  0  0
  3  4  2  0  0  0
  4  5  1  0  0  0
  5  6  2  0  0  0
  6  9  1  0  0  0
  9 10  1  0  0  0
 10 11  1  0  0  0
 11 12  1  0  0  0
 12 13  1  0  0  0
 13 14  1  0  0  0
 14 17  1  0  0  0
 17 18  2  0  0  0
 18 19  1  0  0  0
 19 20  2  0  0  0
 20 21  1  0  0  0
 21 22  2  0  0  0
 14 15  2  0  0  0
  6  7  1  0  0  0
  7  8  2  0  0  0
  1 23  1  0  0  0
 23 24  2  0  0  0
 24 25  1  0  0  0
 25 26  2  0  0  0
 26 27  1  0  0  0
 27 28  2  0  0  0
 36 31  1  0  0  0
  8  3  1  0  0  0
 28 23  1  0  0  0
 22 17  1  0  0  0
 37 40  1  0  0  0
 29 30  1  0  0  0
 13 16  1  0  0  0
M  END
> <minimizedAffinity>
-7.49340

> <CNNscore>
0.3926521540

> <CNNaffinity>
7.3770875931

> <CNN_VS>
2.8966293335

> <CNNaffinity_variance>
0.1958203763

$$$$
[H]OC([H])(c1c([H])c([H])c(C#N)c([H])c1N([H])C(=Nc1c([H])c([H])c(OC([H])([H])C([H])([H])C([H])([H])N([H])C(=O)c2c([H])c([H])c([H])c([H])c2[H])c([H])c1[H])c1c([H])c([H])c([H])c([H])c1[H])C([H])([H])[H]


 42 45  0  0  0  0  0  0  0  0999 V2000
  -13.4211   -7.9712    6.8654 C   0  0  0  0  0  0  0  0  0  0  0  0
  -12.3778   -8.3169    6.2872 N   0  0  0  0  0  0  0  0  0  0  0  0
  -11.0664   -8.4284    6.7838 C   0  0  0  0  0  0  0  0  0  0  0  0
  -10.3679   -7.3107    7.1136 C   0  0  0  0  0  0  0  0  0  0  0  0
   -9.0755   -7.3861    7.6215 C   0  0  0  0  0  0  0  0  0  0  0  0
   -8.5044   -8.6196    7.7913 C   0  0  0  0  0  0  0  0  0  0  0  0
   -9.2076   -9.7212    7.4542 C   0  0  0  0  0  0  0  0  0  0  0  0
  -10.4864   -9.7005    6.9488 C   0  0  0  0  0  0  0  0  0  0  0  0
   -7.2070   -8.6562    8.3220 O   0  0  0  0  0  0  0  0  0  0  0  0
   -6.9798   -7.9424    9.4969 C   0  0  0  0  0  0  0  0  0  0  0  0
   -6.3905   -6.5511    9.2015 C   0  0  0  0  0  0  0  0  0  0  0  0
   -5.0730   -6.4924    9.9942 C   0  0  0  0  0  0  0  0  0  0  0  0
   -5.1424   -5.6176   11.1151 N   0  0  0  0  0  0  0  0  0  0  0  0
   -4.1745   -5.5282   12.1269 C   0  0  0  0  0  0  0  0  0  0  0  0
   -3.1417   -6.2340   12.1291 O   0  0  0  0  0  0  0  0  0  0  0  0
   -6.0121   -4.9780   11.1986 H   0  0  0  0  0  0  0  0  0  0  0  0
   -4.4299   -4.5535   13.2100 C   0  0  0  0  0  0  0  0  0  0  0  0
   -5.5853   -4.6251   13.9447 C   0  0  0  0  0  0  0  0  0  0  0  0
   -5.7638   -3.6946   14.9453 C   0  0  0  0  0  0  0  0  0  0  0  0
   -4.8091   -2.7287   15.1944 C   0  0  0  0  0  0  0  0  0  0  0  0
   -3.6616   -2.6778   14.4450 C   0  0  0  0  0  0  0  0  0  0  0  0
   -3.4682   -3.5866   13.4537 C   0  0  0  0  0  0  0  0  0  0  0  0
  -13.4431   -7.6040    8.3126 C   0  0  0  0  0  0  0  0  0  0  0  0
  -13.2788   -6.2439    8.6480 C   0  0  0  0  0  0  0  0  0  0  0  0
  -13.3619   -5.8558    9.9586 C   0  0  0  0  0  0  0  0  0  0  0  0
  -13.6053   -6.7780   10.9582 C   0  0  0  0  0  0  0  0  0  0  0  0
  -13.7678   -8.1154   10.6085 C   0  0  0  0  0  0  0  0  0  0  0  0
  -13.6837   -8.5262    9.2645 C   0  0  0  0  0  0  0  0  0  0  0  0
  -14.7387   -7.8771    6.2871 N   0  0  0  0  0  0  0  0  0  0  0  0
  -15.3466   -8.6843    6.5404 H   0  0  0  0  0  0  0  0  0  0  0  0
  -16.2288   -7.1683    4.5978 C   0  0  0  0  0  0  0  0  0  0  0  0
  -16.7336   -6.1497    3.8275 C   0  0  0  0  0  0  0  0  0  0  0  0
  -16.2536   -4.8613    3.8831 C   0  0  0  0  0  0  0  0  0  0  0  0
  -15.2286   -4.5408    4.7292 C   0  0  0  0  0  0  0  0  0  0  0  0
  -14.6969   -5.5602    5.5263 C   0  0  0  0  0  0  0  0  0  0  0  0
  -15.1780   -6.8521    5.4766 C   0  0  0  0  0  0  0  0  0  0  0  0
  -15.6882   -9.5075    4.3159 O   0  0  0  0  0  0  0  0  0  0  0  0
  -16.6384   -8.5527    4.4375 C   0  0  0  0  0  0  0  0  0  0  0  0
  -17.9466   -8.9184    5.0318 C   0  0  0  0  0  0  0  0  0  0  0  0
  -14.9751   -9.2454    3.6485 H   0  0  0  0  0  0  0  0  0  0  0  0
  -14.6871   -3.2001    4.8150 C   0  0  0  0  0  0  0  0  0  0  0  0
  -14.2411   -2.1388    4.9009 N   0  0  0  0  0  0  0  0  0  0  0  0
 37 38  1  0  0  0
 38 39  1  0  0  0
 38 31  1  0  0  0
 31 32  2  0  0  0
 32 33  1  0  0  0
 33 34  2  0  0  0
 34 41  1  0  0  0
 41 42  3  0  0  0
 34 35  1  0  0  0
 35 36  2  0  0  0
 36 29  1  0  0  0
 29  1  1  0  0  0
  1  2  2  0  0  0
  2  3  1  0  0  0
  3  4  2  0  0  0
  4  5  1  0  0  0
  5  6  2  0  0  0
  6  9  1  0  0  0
  9 10  1  0  0  0
 10 11  1  0  0  0
 11 12  1  0  0  0
 12 13  1  0  0  0
 13 14  1  0  0  0
 14 17  1  0  0  0
 17 18  2  0  0  0
 18 19  1  0  0  0
 19 20  2  0  0  0
 20 21  1  0  0  0
 21 22  2  0  0  0
 14 15  2  0  0  0
  6  7  1  0  0  0
  7  8  2  0  0  0
  1 23  1  0  0  0
 23 24  2  0  0  0
 24 25  1  0  0  0
 25 26  2  0  0  0
 26 27  1  0  0  0
 27 28  2  0  0  0
 36 31  1  0  0  0
  8  3  1  0  0  0
 28 23  1  0  0  0
 22 17  1  0  0  0
 37 40  1  0  0  0
 29 30  1  0  0  0
 13 16  1  0  0  0
M  END
> <minimizedAffinity>
-4.20956

> <CNNscore>
0.3486928046

> <CNNaffinity>
7.2393712997

> <CNN_VS>
2.5243167877

> <CNNaffinity_variance>
0.7015235424

$$$$
[H]OC([H])(c1c([H])c([H])c(C#N)c([H])c1N([H])C(=Nc1c([H])c([H])c(OC([H])([H])C([H])([H])C([H])([H])N([H])C(=O)c2c([H])c([H])c([H])c([H])c2[H])c([H])c1[H])c1c([H])c([H])c([H])c([H])c1[H])C([H])([H])[H]


 42 45  0  0  0  0  0  0  0  0999 V2000
  -16.0221   -7.4610    6.9344 C   0  0  0  0  0  0  0  0  0  0  0  0
  -15.3255   -8.1745    7.6746 N   0  0  0  0  0  0  0  0  0  0  0  0
  -13.9380   -8.4058    7.6584 C   0  0  0  0  0  0  0  0  0  0  0  0
  -13.4431   -9.5255    7.0690 C   0  0  0  0  0  0  0  0  0  0  0  0
  -12.0761   -9.7770    7.0219 C   0  0  0  0  0  0  0  0  0  0  0  0
  -11.2185   -8.8683    7.5831 C   0  0  0  0  0  0  0  0  0  0  0  0
  -11.7242   -7.7632    8.1702 C   0  0  0  0  0  0  0  0  0  0  0  0
  -13.0655   -7.4686    8.2433 C   0  0  0  0  0  0  0  0  0  0  0  0
   -9.8468   -9.1477    7.5006 O   0  0  0  0  0  0  0  0  0  0  0  0
   -8.9671   -8.0973    7.7544 C   0  0  0  0  0  0  0  0  0  0  0  0
   -7.6836   -8.2267    6.9143 C   0  0  0  0  0  0  0  0  0  0  0  0
   -7.2915   -6.7845    6.5485 C   0  0  0  0  0  0  0  0  0  0  0  0
   -6.2972   -6.2469    7.4139 N   0  0  0  0  0  0  0  0  0  0  0  0
   -5.0259   -5.8143    7.0078 C   0  0  0  0  0  0  0  0  0  0  0  0
   -4.6489   -5.8708    5.8163 O   0  0  0  0  0  0  0  0  0  0  0  0
   -6.5363   -6.1736    8.4674 H   0  0  0  0  0  0  0  0  0  0  0  0
   -4.1335   -5.2841    8.0617 C   0  0  0  0  0  0  0  0  0  0  0  0
   -2.9882   -4.6112    7.7222 C   0  0  0  0  0  0  0  0  0  0  0  0
   -2.2008   -4.1340    8.7476 C   0  0  0  0  0  0  0  0  0  0  0  0
   -2.5589   -4.3289   10.0667 C   0  0  0  0  0  0  0  0  0  0  0  0
   -3.7096   -5.0059   10.3805 C   0  0  0  0  0  0  0  0  0  0  0  0
   -4.4985   -5.4842    9.3831 C   0  0  0  0  0  0  0  0  0  0  0  0
  -15.4330   -6.6547    5.8242 C   0  0  0  0  0  0  0  0  0  0  0  0
  -15.5794   -5.2530    5.8808 C   0  0  0  0  0  0  0  0  0  0  0  0
  -14.9945   -4.4727    4.9194 C   0  0  0  0  0  0  0  0  0  0  0  0
  -14.2616   -5.0390    3.8942 C   0  0  0  0  0  0  0  0  0  0  0  0
  -14.1251   -6.4236    3.8559 C   0  0  0  0  0  0  0  0  0  0  0  0
  -14.7226   -7.2360    4.8384 C   0  0  0  0  0  0  0  0  0  0  0  0
  -17.4499   -7.2734    7.0096 N   0  0  0  0  0  0  0  0  0  0  0  0
  -17.7125   -6.3261    7.3543 H   0  0  0  0  0  0  0  0  0  0  0  0
  -18.6424   -8.3919    5.3057 C   0  0  0  0  0  0  0  0  0  0  0  0
  -19.5262   -9.3782    4.9428 C   0  0  0  0  0  0  0  0  0  0  0  0
  -20.1640  -10.1846    5.8573 C   0  0  0  0  0  0  0  0  0  0  0  0
  -19.9352  -10.0278    7.1961 C   0  0  0  0  0  0  0  0  0  0  0  0
  -19.0378   -9.0305    7.5927 C   0  0  0  0  0  0  0  0  0  0  0  0
  -18.3932   -8.2227    6.6788 C   0  0  0  0  0  0  0  0  0  0  0  0
  -17.4280   -7.9278    3.2676 O   0  0  0  0  0  0  0  0  0  0  0  0
  -18.0794   -7.4510    4.3528 C   0  0  0  0  0  0  0  0  0  0  0  0
  -18.7559   -6.1351    4.2588 C   0  0  0  0  0  0  0  0  0  0  0  0
  -16.7697   -8.6549    3.5138 H   0  0  0  0  0  0  0  0  0  0  0  0
  -20.5899  -10.8486    8.1940 C   0  0  0  0  0  0  0  0  0  0  0  0
  -21.0914  -11.5037    9.0014 N   0  0  0  0  0  0  0  0  0  0  0  0
 37 38  1  0  0  0
 38 39  1  0  0  0
 38 31  1  0  0  0
 31 32  2  0  0  0
 32 33  1  0  0  0
 33 34  2  0  0  0
 34 41  1  0  0  0
 41 42  3  0  0  0
 34 35  1  0  0  0
 35 36  2  0  0  0
 36 29  1  0  0  0
 29  1  1  0  0  0
  1  2  2  0  0  0
  2  3  1  0  0  0
  3  4  2  0  0  0
  4  5  1  0  0  0
  5  6  2  0  0  0
  6  9  1  0  0  0
  9 10  1  0  0  0
 10 11  1  0  0  0
 11 12  1  0  0  0
 12 13  1  0  0  0
 13 14  1  0  0  0
 14 17  1  0  0  0
 17 18  2  0  0  0
 18 19  1  0  0  0
 19 20  2  0  0  0
 20 21  1  0  0  0
 21 22  2  0  0  0
 14 15  2  0  0  0
  6  7  1  0  0  0
  7  8  2  0  0  0
  1 23  1  0  0  0
 23 24  2  0  0  0
 24 25  1  0  0  0
 25 26  2  0  0  0
 26 27  1  0  0  0
 27 28  2  0  0  0
 36 31  1  0  0  0
  8  3  1  0  0  0
 28 23  1  0  0  0
 22 17  1  0  0  0
 37 40  1  0  0  0
 29 30  1  0  0  0
 13 16  1  0  0  0
M  END
> <minimizedAffinity>
-3.72845

> <CNNscore>
0.3462561071

> <CNNaffinity>
7.1580328941

> <CNN_VS>
2.4785125256

> <CNNaffinity_variance>
0.1849961281

$$$$
[H]OC([H])(c1c([H])c([H])c(C#N)c([H])c1N([H])C(=Nc1c([H])c([H])c(OC([H])([H])C([H])([H])C([H])([H])N([H])C(=O)c2c([H])c([H])c([H])c([H])c2[H])c([H])c1[H])c1c([H])c([H])c([H])c([H])c1[H])C([H])([H])[H]


 42 45  0  0  0  0  0  0  0  0999 V2000
   -3.6044   -5.8143    6.8020 C   0  0  0  0  0  0  0  0  0  0  0  0
   -4.8462   -5.8213    6.8162 N   0  0  0  0  0  0  0  0  0  0  0  0
   -5.7391   -6.8814    7.0567 C   0  0  0  0  0  0  0  0  0  0  0  0
   -6.1276   -7.1671    8.3269 C   0  0  0  0  0  0  0  0  0  0  0  0
   -7.0207   -8.1981    8.5980 C   0  0  0  0  0  0  0  0  0  0  0  0
   -7.5151   -8.9342    7.5539 C   0  0  0  0  0  0  0  0  0  0  0  0
   -7.1162   -8.6431    6.2978 C   0  0  0  0  0  0  0  0  0  0  0  0
   -6.2367   -7.6357    5.9772 C   0  0  0  0  0  0  0  0  0  0  0  0
   -8.4263   -9.9536    7.8649 O   0  0  0  0  0  0  0  0  0  0  0  0
   -9.6457   -9.9446    7.1907 C   0  0  0  0  0  0  0  0  0  0  0  0
  -10.4913   -8.7183    7.5797 C   0  0  0  0  0  0  0  0  0  0  0  0
  -11.9132   -9.2615    7.8049 C   0  0  0  0  0  0  0  0  0  0  0  0
  -12.8446   -8.7857    6.8391 N   0  0  0  0  0  0  0  0  0  0  0  0
  -13.5550   -7.5794    6.9327 C   0  0  0  0  0  0  0  0  0  0  0  0
  -13.4271   -6.8012    7.9038 O   0  0  0  0  0  0  0  0  0  0  0  0
  -13.0257   -9.4052    5.9698 H   0  0  0  0  0  0  0  0  0  0  0  0
  -14.4786   -7.2612    5.8218 C   0  0  0  0  0  0  0  0  0  0  0  0
  -14.9150   -8.2529    4.9816 C   0  0  0  0  0  0  0  0  0  0  0  0
  -15.7802   -7.8969    3.9698 C   0  0  0  0  0  0  0  0  0  0  0  0
  -16.1896   -6.5875    3.8143 C   0  0  0  0  0  0  0  0  0  0  0  0
  -15.7383   -5.6134    4.6679 C   0  0  0  0  0  0  0  0  0  0  0  0
  -14.8844   -5.9452    5.6712 C   0  0  0  0  0  0  0  0  0  0  0  0
   -2.7998   -7.0411    7.0801 C   0  0  0  0  0  0  0  0  0  0  0  0
   -2.2058   -7.1625    8.3537 C   0  0  0  0  0  0  0  0  0  0  0  0
   -1.5181   -8.3028    8.6731 C   0  0  0  0  0  0  0  0  0  0  0  0
   -1.3980   -9.3374    7.7654 C   0  0  0  0  0  0  0  0  0  0  0  0
   -1.9932   -9.2015    6.5145 C   0  0  0  0  0  0  0  0  0  0  0  0
   -2.7020   -8.0335    6.1747 C   0  0  0  0  0  0  0  0  0  0  0  0
   -2.7498   -4.6820    6.5432 N   0  0  0  0  0  0  0  0  0  0  0  0
   -1.7763   -4.9615    6.2995 H   0  0  0  0  0  0  0  0  0  0  0  0
   -2.9714   -2.7311    7.8552 C   0  0  0  0  0  0  0  0  0  0  0  0
   -3.2870   -1.3970    7.9335 C   0  0  0  0  0  0  0  0  0  0  0  0
   -3.7560   -0.6750    6.8601 C   0  0  0  0  0  0  0  0  0  0  0  0
   -3.9302   -1.2765    5.6448 C   0  0  0  0  0  0  0  0  0  0  0  0
   -3.6148   -2.6353    5.5376 C   0  0  0  0  0  0  0  0  0  0  0  0
   -3.1404   -3.3616    6.6101 C   0  0  0  0  0  0  0  0  0  0  0  0
   -1.3070   -3.6459    9.3507 O   0  0  0  0  0  0  0  0  0  0  0  0
   -2.6123   -3.5239    9.0183 C   0  0  0  0  0  0  0  0  0  0  0  0
   -3.6333   -3.6083   10.0900 C   0  0  0  0  0  0  0  0  0  0  0  0
   -0.7343   -3.8722    8.5486 H   0  0  0  0  0  0  0  0  0  0  0  0
   -4.4284   -0.5575    4.4903 C   0  0  0  0  0  0  0  0  0  0  0  0
   -4.8142    0.0351    3.5777 N   0  0  0  0  0  0  0  0  0  0  0  0
 37 38  1  0  0  0
 38 39  1  0  0  0
 38 31  1  0  0  0
 31 32  2  0  0  0
 32 33  1  0  0  0
 33 34  2  0  0  0
 34 41  1  0  0  0
 41 42  3  0  0  0
 34 35  1  0  0  0
 35 36  2  0  0  0
 36 29  1  0  0  0
 29  1  1  0  0  0
  1  2  2  0  0  0
  2  3  1  0  0  0
  3  4  2  0  0  0
  4  5  1  0  0  0
  5  6  2  0  0  0
  6  9  1  0  0  0
  9 10  1  0  0  0
 10 11  1  0  0  0
 11 12  1  0  0  0
 12 13  1  0  0  0
 13 14  1  0  0  0
 14 17  1  0  0  0
 17 18  2  0  0  0
 18 19  1  0  0  0
 19 20  2  0  0  0
 20 21  1  0  0  0
 21 22  2  0  0  0
 14 15  2  0  0  0
  6  7  1  0  0  0
  7  8  2  0  0  0
  1 23  1  0  0  0
 23 24  2  0  0  0
 24 25  1  0  0  0
 25 26  2  0  0  0
 26 27  1  0  0  0
 27 28  2  0  0  0
 36 31  1  0  0  0
  8  3  1  0  0  0
 28 23  1  0  0  0
 22 17  1  0  0  0
 37 40  1  0  0  0
 29 30  1  0  0  0
 13 16  1  0  0  0
M  END
> <minimizedAffinity>
-8.13568

> <CNNscore>
0.2739627063

> <CNNaffinity>
6.4045572281

> <CNN_VS>
1.7546098232

> <CNNaffinity_variance>
0.0534539521

$$$$
[H]OC([H])(c1c([H])c([H])c(C#N)c([H])c1N([H])C(=Nc1c([H])c([H])c(OC([H])([H])C([H])([H])C([H])([H])N([H])C(=O)c2c([H])c([H])c([H])c([H])c2[H])c([H])c1[H])c1c([H])c([H])c([H])c([H])c1[H])C([H])([H])[H]


 42 45  0  0  0  0  0  0  0  0999 V2000
   -5.0305   -5.8322    9.6315 C   0  0  0  0  0  0  0  0  0  0  0  0
   -4.1142   -5.1462    9.1497 N   0  0  0  0  0  0  0  0  0  0  0  0
   -3.7291   -4.9706    7.8082 C   0  0  0  0  0  0  0  0  0  0  0  0
   -3.5671   -6.0515    7.0011 C   0  0  0  0  0  0  0  0  0  0  0  0
   -3.2022   -5.9124    5.6664 C   0  0  0  0  0  0  0  0  0  0  0  0
   -3.0064   -4.6532    5.1639 C   0  0  0  0  0  0  0  0  0  0  0  0
   -3.1651   -3.5888    5.9784 C   0  0  0  0  0  0  0  0  0  0  0  0
   -3.5243   -3.6726    7.3032 C   0  0  0  0  0  0  0  0  0  0  0  0
   -2.6565   -4.5522    3.8098 O   0  0  0  0  0  0  0  0  0  0  0  0
   -2.0694   -5.6694    3.2192 C   0  0  0  0  0  0  0  0  0  0  0  0
   -1.0606   -5.2616    2.1301 C   0  0  0  0  0  0  0  0  0  0  0  0
   -1.9037   -4.6087    1.0208 C   0  0  0  0  0  0  0  0  0  0  0  0
   -2.2880   -3.2741    1.3336 N   0  0  0  0  0  0  0  0  0  0  0  0
   -3.5739   -2.7435    1.1510 C   0  0  0  0  0  0  0  0  0  0  0  0
   -4.5159   -3.4190    0.6805 O   0  0  0  0  0  0  0  0  0  0  0  0
   -1.5287   -2.6150    1.7352 H   0  0  0  0  0  0  0  0  0  0  0  0
   -3.7737   -1.3301    1.5394 C   0  0  0  0  0  0  0  0  0  0  0  0
   -3.7680   -0.3449    0.5859 C   0  0  0  0  0  0  0  0  0  0  0  0
   -3.9668    0.9519    1.0074 C   0  0  0  0  0  0  0  0  0  0  0  0
   -4.1652    1.2414    2.3427 C   0  0  0  0  0  0  0  0  0  0  0  0
   -4.1660    0.2379    3.2775 C   0  0  0  0  0  0  0  0  0  0  0  0
   -3.9712   -1.0469    2.8811 C   0  0  0  0  0  0  0  0  0  0  0  0
   -5.9560   -6.6342    8.7770 C   0  0  0  0  0  0  0  0  0  0  0  0
   -6.7354   -5.9440    7.8253 C   0  0  0  0  0  0  0  0  0  0  0  0
   -7.5452   -6.6489    6.9752 C   0  0  0  0  0  0  0  0  0  0  0  0
   -7.6093   -8.0277    7.0356 C   0  0  0  0  0  0  0  0  0  0  0  0
   -6.8310   -8.6922    7.9790 C   0  0  0  0  0  0  0  0  0  0  0  0
   -5.9953   -7.9780    8.8587 C   0  0  0  0  0  0  0  0  0  0  0  0
   -5.3666   -5.9670   11.0273 N   0  0  0  0  0  0  0  0  0  0  0  0
   -6.0378   -6.7436   11.2052 H   0  0  0  0  0  0  0  0  0  0  0  0
   -5.5905   -5.2116   13.2534 C   0  0  0  0  0  0  0  0  0  0  0  0
   -5.0897   -4.4809   14.3025 C   0  0  0  0  0  0  0  0  0  0  0  0
   -3.9449   -3.7233   14.2074 C   0  0  0  0  0  0  0  0  0  0  0  0
   -3.2470   -3.6687   13.0330 C   0  0  0  0  0  0  0  0  0  0  0  0
   -3.7354   -4.4053   11.9485 C   0  0  0  0  0  0  0  0  0  0  0  0
   -4.8803   -5.1693   12.0409 C   0  0  0  0  0  0  0  0  0  0  0  0
   -7.7992   -5.4740   14.2003 O   0  0  0  0  0  0  0  0  0  0  0  0
   -6.8708   -5.8955   13.3117 C   0  0  0  0  0  0  0  0  0  0  0  0
   -7.3247   -6.5375   12.0547 C   0  0  0  0  0  0  0  0  0  0  0  0
   -7.4033   -5.3354   15.1205 H   0  0  0  0  0  0  0  0  0  0  0  0
   -2.0420   -2.8787   12.8855 C   0  0  0  0  0  0  0  0  0  0  0  0
   -1.0827   -2.2434   12.7909 N   0  0  0  0  0  0  0  0  0  0  0  0
 37 38  1  0  0  0
 38 39  1  0  0  0
 38 31  1  0  0  0
 31 32  2  0  0  0
 32 33  1  0  0  0
 33 34  2  0  0  0
 34 41  1  0  0  0
 41 42  3  0  0  0
 34 35  1  0  0  0
 35 36  2  0  0  0
 36 29  1  0  0  0
 29  1  1  0  0  0
  1  2  2  0  0  0
  2  3  1  0  0  0
  3  4  2  0  0  0
  4  5  1  0  0  0
  5  6  2  0  0  0
  6  9  1  0  0  0
  9 10  1  0  0  0
 10 11  1  0  0  0
 11 12  1  0  0  0
 12 13  1  0  0  0
 13 14  1  0  0  0
 14 17  1  0  0  0
 17 18  2  0  0  0
 18 19  1  0  0  0
 19 20  2  0  0  0
 20 21  1  0  0  0
 21 22  2  0  0  0
 14 15  2  0  0  0
  6  7  1  0  0  0
  7  8  2  0  0  0
  1 23  1  0  0  0
 23 24  2  0  0  0
 24 25  1  0  0  0
 25 26  2  0  0  0
 26 27  1  0  0  0
 27 28  2  0  0  0
 36 31  1  0  0  0
  8  3  1  0  0  0
 28 23  1  0  0  0
 22 17  1  0  0  0
 37 40  1  0  0  0
 29 30  1  0  0  0
 13 16  1  0  0  0
M  END
> <minimizedAffinity>
-1.91432

> <CNNscore>
0.2616908848

> <CNNaffinity>
5.8355917931

> <CNN_VS>
1.5271211863

> <CNNaffinity_variance>
0.4688863754

$$$$
[H]OC([H])(c1c([H])c([H])c(C#N)c([H])c1N([H])C(=Nc1c([H])c([H])c(OC([H])([H])C([H])([H])C([H])([H])N([H])C(=O)c2c([H])c([H])c([H])c([H])c2[H])c([H])c1[H])c1c([H])c([H])c([H])c([H])c1[H])C([H])([H])[H]


 42 45  0  0  0  0  0  0  0  0999 V2000
   -2.7448   -4.8805    8.0456 C   0  0  0  0  0  0  0  0  0  0  0  0
   -2.1861   -4.1434    7.2168 N   0  0  0  0  0  0  0  0  0  0  0  0
   -2.2378   -4.1656    5.8112 C   0  0  0  0  0  0  0  0  0  0  0  0
   -1.4161   -4.9935    5.1146 C   0  0  0  0  0  0  0  0  0  0  0  0
   -1.4522   -5.0514    3.7256 C   0  0  0  0  0  0  0  0  0  0  0  0
   -2.3411   -4.2536    3.0550 C   0  0  0  0  0  0  0  0  0  0  0  0
   -3.1474   -3.4318    3.7594 C   0  0  0  0  0  0  0  0  0  0  0  0
   -3.1507   -3.3372    5.1314 C   0  0  0  0  0  0  0  0  0  0  0  0
   -2.3605   -4.3524    1.6564 O   0  0  0  0  0  0  0  0  0  0  0  0
   -1.1321   -4.4754    1.0101 C   0  0  0  0  0  0  0  0  0  0  0  0
   -1.0868   -3.6250   -0.2725 C   0  0  0  0  0  0  0  0  0  0  0  0
   -2.4822   -2.9864   -0.3847 C   0  0  0  0  0  0  0  0  0  0  0  0
   -2.6457   -1.8638    0.4755 N   0  0  0  0  0  0  0  0  0  0  0  0
   -3.8401   -1.1476    0.6451 C   0  0  0  0  0  0  0  0  0  0  0  0
   -4.8903   -1.4433    0.0331 O   0  0  0  0  0  0  0  0  0  0  0  0
   -1.7807   -1.5315    1.0355 H   0  0  0  0  0  0  0  0  0  0  0  0
   -3.8067   -0.0086    1.5885 C   0  0  0  0  0  0  0  0  0  0  0  0
   -4.9752    0.5580    2.0281 C   0  0  0  0  0  0  0  0  0  0  0  0
   -4.8806    1.6111    2.9119 C   0  0  0  0  0  0  0  0  0  0  0  0
   -3.6505    2.0730    3.3361 C   0  0  0  0  0  0  0  0  0  0  0  0
   -2.4958    1.4893    2.8814 C   0  0  0  0  0  0  0  0  0  0  0  0
   -2.5690    0.4501    2.0092 C   0  0  0  0  0  0  0  0  0  0  0  0
   -3.6519   -5.9932    7.6348 C   0  0  0  0  0  0  0  0  0  0  0  0
   -5.0322   -5.7169    7.5457 C   0  0  0  0  0  0  0  0  0  0  0  0
   -5.8896   -6.6898    7.1060 C   0  0  0  0  0  0  0  0  0  0  0  0
   -5.4218   -7.9393    6.7471 C   0  0  0  0  0  0  0  0  0  0  0  0
   -4.0563   -8.1933    6.8385 C   0  0  0  0  0  0  0  0  0  0  0  0
   -3.1654   -7.2010    7.2900 C   0  0  0  0  0  0  0  0  0  0  0  0
   -2.6423   -4.7991    9.4817 N   0  0  0  0  0  0  0  0  0  0  0  0
   -2.6005   -5.7363    9.9347 H   0  0  0  0  0  0  0  0  0  0  0  0
   -2.7572   -3.7641   11.6010 C   0  0  0  0  0  0  0  0  0  0  0  0
   -2.6594   -2.6229   12.3585 C   0  0  0  0  0  0  0  0  0  0  0  0
   -2.4311   -1.3803   11.8132 C   0  0  0  0  0  0  0  0  0  0  0  0
   -2.2907   -1.2333   10.4612 C   0  0  0  0  0  0  0  0  0  0  0  0
   -2.3848   -2.3809    9.6664 C   0  0  0  0  0  0  0  0  0  0  0  0
   -2.6095   -3.6289   10.2095 C   0  0  0  0  0  0  0  0  0  0  0  0
   -4.3714   -5.5384   11.9007 O   0  0  0  0  0  0  0  0  0  0  0  0
   -3.1375   -5.0494   12.1609 C   0  0  0  0  0  0  0  0  0  0  0  0
   -2.0307   -6.0023   12.4163 C   0  0  0  0  0  0  0  0  0  0  0  0
   -5.0894   -4.8397   12.0384 H   0  0  0  0  0  0  0  0  0  0  0  0
   -2.0572    0.0558    9.8435 C   0  0  0  0  0  0  0  0  0  0  0  0
   -1.8557    1.0886    9.3686 N   0  0  0  0  0  0  0  0  0  0  0  0
 37 38  1  0  0  0
 38 39  1  0  0  0
 38 31  1  0  0  0
 31 32  2  0  0  0
 32 33  1  0  0  0
 33 34  2  0  0  0
 34 41  1  0  0  0
 41 42  3  0  0  0
 34 35  1  0  0  0
 35 36  2  0  0  0
 36 29  1  0  0  0
 29  1  1  0  0  0
  1  2  2  0  0  0
  2  3  1  0  0  0
  3  4  2  0  0  0
  4  5  1  0  0  0
  5  6  2  0  0  0
  6  9  1  0  0  0
  9 10  1  0  0  0
 10 11  1  0  0  0
 11 12  1  0  0  0
 12 13  1  0  0  0
 13 14  1  0  0  0
 14 17  1  0  0  0
 17 18  2  0  0  0
 18 19  1  0  0  0
 19 20  2  0  0  0
 20 21  1  0  0  0
 21 22  2  0  0  0
 14 15  2  0  0  0
  6  7  1  0  0  0
  7  8  2  0  0  0
  1 23  1  0  0  0
 23 24  2  0  0  0
 24 25  1  0  0  0
 25 26  2  0  0  0
 26 27  1  0  0  0
 27 28  2  0  0  0
 36 31  1  0  0  0
  8  3  1  0  0  0
 28 23  1  0  0  0
 22 17  1  0  0  0
 37 40  1  0  0  0
 29 30  1  0  0  0
 13 16  1  0  0  0
M  END
> <minimizedAffinity>
-3.86292

> <CNNscore>
0.2557198405

> <CNNaffinity>
5.9972858429

> <CNN_VS>
1.5336250067

> <CNNaffinity_variance>
0.2406499833

$$$$
[H]c1c([H])c([H])c(C(=O)N([H])[C@]([H])(C(=O)N([H])[C@@]([H])(c2c([H])c([H])c(Cl)c([H])c2[H])C([H])([H])[H])c2c([H])c([H])c(Cl)c([H])c2[H])c([H])c1[H]


 31 33  0  0  0  0  0  0  0  0999 V2000
  -10.2816   -6.9028    8.0131 C   0  0  0  0  0  0  0  0  0  0  0  0
   -9.0137   -7.3564    7.4204 C   0  0  0  0  0  0  0  0  0  0  0  0
   -8.3094   -6.5461    6.5549 C   0  0  0  0  0  0  0  0  0  0  0  0
   -7.1236   -6.8977    5.9634 C   0  0  0  0  0  0  0  0  0  0  0  0
   -6.5886   -8.1407    6.2438 C   0  0  0  0  0  0  0  0  0  0  0  0
   -5.0720   -8.5530    5.4685 Cl  0  0  0  0  0  0  0  0  0  0  0  0
   -7.2531   -8.9765    7.0965 C   0  0  0  0  0  0  0  0  0  0  0  0
   -8.4583   -8.5976    7.6867 C   0  0  0  0  0  0  0  0  0  0  0  0
  -12.5064   -7.6673    7.0271 N   0  0  0  0  0  0  0  0  0  0  0  0
  -11.3209   -7.9291    7.7497 C   0  0  0  0  0  0  0  0  0  0  0  0
  -11.0971   -9.0786    8.2106 O   0  0  0  0  0  0  0  0  0  0  0  0
  -12.7147   -6.7022    6.6289 H   0  0  0  0  0  0  0  0  0  0  0  0
  -12.7376   -9.7970    6.0101 C   0  0  0  0  0  0  0  0  0  0  0  0
  -13.4529   -8.7360    6.8272 C   0  0  0  0  0  0  0  0  0  0  0  0
  -14.6824   -8.2885    6.1386 C   0  0  0  0  0  0  0  0  0  0  0  0
  -15.7484   -7.6990    6.7786 C   0  0  0  0  0  0  0  0  0  0  0  0
  -16.8870   -7.2905    6.0978 C   0  0  0  0  0  0  0  0  0  0  0  0
  -16.9509   -7.4808    4.7440 C   0  0  0  0  0  0  0  0  0  0  0  0
  -18.4137   -6.9501    3.9039 Cl  0  0  0  0  0  0  0  0  0  0  0  0
  -15.9060   -8.0669    4.0656 C   0  0  0  0  0  0  0  0  0  0  0  0
  -14.7718   -8.4682    4.7782 C   0  0  0  0  0  0  0  0  0  0  0  0
  -10.1847   -6.5556    9.4036 N   0  0  0  0  0  0  0  0  0  0  0  0
  -11.2863   -6.0635   10.1453 C   0  0  0  0  0  0  0  0  0  0  0  0
  -12.3847   -5.9361    9.5309 O   0  0  0  0  0  0  0  0  0  0  0  0
   -9.2712   -6.6612    9.9179 H   0  0  0  0  0  0  0  0  0  0  0  0
  -11.2581   -5.6946   11.5473 C   0  0  0  0  0  0  0  0  0  0  0  0
  -12.3609   -5.1828   12.1957 C   0  0  0  0  0  0  0  0  0  0  0  0
  -12.3313   -4.8313   13.5318 C   0  0  0  0  0  0  0  0  0  0  0  0
  -11.1632   -4.9922   14.2589 C   0  0  0  0  0  0  0  0  0  0  0  0
  -10.0502   -5.5003   13.6360 C   0  0  0  0  0  0  0  0  0  0  0  0
  -10.1075   -5.8474   12.2842 C   0  0  0  0  0  0  0  0  0  0  0  0
 13 14  1  0  0  0
 14  9  1  0  0  0
  9 10  1  0  0  0
 10 11  2  0  0  0
 10  1  1  0  0  0
  1 22  1  0  0  0
 22 23  1  0  0  0
 23 24  2  0  0  0
 23 26  1  0  0  0
 26 27  2  0  0  0
 27 28  1  0  0  0
 28 29  2  0  0  0
 29 30  1  0  0  0
 30 31  2  0  0  0
  1  2  1  0  0  0
  2  3  2  0  0  0
  3  4  1  0  0  0
  4  5  2  0  0  0
  5  6  1  0  0  0
  5  7  1  0  0  0
  7  8  2  0  0  0
 14 15  1  0  0  0
 15 16  2  0  0  0
 16 17  1  0  0  0
 17 18  2  0  0  0
 18 19  1  0  0  0
 18 20  1  0  0  0
 20 21  2  0  0  0
 31 26  1  0  0  0
  8  2  1  0  0  0
 21 15  1  0  0  0
  9 12  1  0  0  0
 22 25  1  0  0  0
M  END
> <minimizedAffinity>
-2.40633

> <CNNscore>
0.5800477266

> <CNNaffinity>
6.7078170776

> <CNN_VS>
3.8908541203

> <CNNaffinity_variance>
0.2379089296

$$$$
[H]c1c([H])c([H])c(C(=O)N([H])[C@]([H])(C(=O)N([H])[C@@]([H])(c2c([H])c([H])c(Cl)c([H])c2[H])C([H])([H])[H])c2c([H])c([H])c(Cl)c([H])c2[H])c([H])c1[H]


 31 33  0  0  0  0  0  0  0  0999 V2000
  -12.0637   -8.9837    7.2140 C   0  0  0  0  0  0  0  0  0  0  0  0
  -10.6085   -8.7683    7.2350 C   0  0  0  0  0  0  0  0  0  0  0  0
   -9.7361   -9.8288    7.1083 C   0  0  0  0  0  0  0  0  0  0  0  0
   -8.3705   -9.7083    7.1189 C   0  0  0  0  0  0  0  0  0  0  0  0
   -7.8196   -8.4493    7.2652 C   0  0  0  0  0  0  0  0  0  0  0  0
   -6.0707   -8.3367    7.2738 Cl  0  0  0  0  0  0  0  0  0  0  0  0
   -8.6469   -7.3695    7.3940 C   0  0  0  0  0  0  0  0  0  0  0  0
  -10.0336   -7.5159    7.3805 C   0  0  0  0  0  0  0  0  0  0  0  0
  -12.8485   -7.7060    9.2774 N   0  0  0  0  0  0  0  0  0  0  0  0
  -12.5719   -8.9184    8.6069 C   0  0  0  0  0  0  0  0  0  0  0  0
  -12.7522  -10.0213    9.1856 O   0  0  0  0  0  0  0  0  0  0  0  0
  -12.7030   -6.7626    8.8060 H   0  0  0  0  0  0  0  0  0  0  0  0
  -14.8340   -7.4979   10.5572 C   0  0  0  0  0  0  0  0  0  0  0  0
  -13.3393   -7.7532   10.6320 C   0  0  0  0  0  0  0  0  0  0  0  0
  -12.6843   -6.7616   11.5116 C   0  0  0  0  0  0  0  0  0  0  0  0
  -12.1031   -7.0733   12.7193 C   0  0  0  0  0  0  0  0  0  0  0  0
  -11.4959   -6.1143   13.5182 C   0  0  0  0  0  0  0  0  0  0  0  0
  -11.4749   -4.8148   13.0897 C   0  0  0  0  0  0  0  0  0  0  0  0
  -10.6941   -3.6154   14.1287 Cl  0  0  0  0  0  0  0  0  0  0  0  0
  -12.0451   -4.4607   11.8876 C   0  0  0  0  0  0  0  0  0  0  0  0
  -12.6496   -5.4487   11.1041 C   0  0  0  0  0  0  0  0  0  0  0  0
  -12.7709   -8.1055    6.3238 N   0  0  0  0  0  0  0  0  0  0  0  0
  -14.1850   -8.0432    6.2782 C   0  0  0  0  0  0  0  0  0  0  0  0
  -14.8217   -8.8026    7.0645 O   0  0  0  0  0  0  0  0  0  0  0  0
  -12.2431   -7.4716    5.6683 H   0  0  0  0  0  0  0  0  0  0  0  0
  -14.9606   -7.1825    5.4063 C   0  0  0  0  0  0  0  0  0  0  0  0
  -14.8837   -5.8083    5.4710 C   0  0  0  0  0  0  0  0  0  0  0  0
  -15.6243   -4.9901    4.6393 C   0  0  0  0  0  0  0  0  0  0  0  0
  -16.4771   -5.5526    3.7037 C   0  0  0  0  0  0  0  0  0  0  0  0
  -16.5718   -6.9196    3.6190 C   0  0  0  0  0  0  0  0  0  0  0  0
  -15.8119   -7.7235    4.4720 C   0  0  0  0  0  0  0  0  0  0  0  0
 13 14  1  0  0  0
 14  9  1  0  0  0
  9 10  1  0  0  0
 10 11  2  0  0  0
 10  1  1  0  0  0
  1 22  1  0  0  0
 22 23  1  0  0  0
 23 24  2  0  0  0
 23 26  1  0  0  0
 26 27  2  0  0  0
 27 28  1  0  0  0
 28 29  2  0  0  0
 29 30  1  0  0  0
 30 31  2  0  0  0
  1  2  1  0  0  0
  2  3  2  0  0  0
  3  4  1  0  0  0
  4  5  2  0  0  0
  5  6  1  0  0  0
  5  7  1  0  0  0
  7  8  2  0  0  0
 14 15  1  0  0  0
 15 16  2  0  0  0
 16 17  1  0  0  0
 17 18  2  0  0  0
 18 19  1  0  0  0
 18 20  1  0  0  0
 20 21  2  0  0  0
 31 26  1  0  0  0
  8  2  1  0  0  0
 21 15  1  0  0  0
  9 12  1  0  0  0
 22 25  1  0  0  0
M  END
> <minimizedAffinity>
0.36263

> <CNNscore>
0.5276540518

> <CNNaffinity>
6.7747755051

> <CNN_VS>
3.5747377872

> <CNNaffinity_variance>
0.2471726835

$$$$
[H]c1c([H])c([H])c(C(=O)N([H])[C@]([H])(C(=O)N([H])[C@@]([H])(c2c([H])c([H])c(Cl)c([H])c2[H])C([H])([H])[H])c2c([H])c([H])c(Cl)c([H])c2[H])c([H])c1[H]


 31 33  0  0  0  0  0  0  0  0999 V2000
  -10.7190   -7.8865    7.7208 C   0  0  0  0  0  0  0  0  0  0  0  0
   -9.6312   -8.8769    7.7047 C   0  0  0  0  0  0  0  0  0  0  0  0
   -8.4559   -8.6456    8.3879 C   0  0  0  0  0  0  0  0  0  0  0  0
   -7.3990   -9.5183    8.4200 C   0  0  0  0  0  0  0  0  0  0  0  0
   -7.5050  -10.7098    7.7278 C   0  0  0  0  0  0  0  0  0  0  0  0
   -6.1333  -11.7985    7.7933 Cl  0  0  0  0  0  0  0  0  0  0  0  0
   -8.6523  -10.9805    7.0368 C   0  0  0  0  0  0  0  0  0  0  0  0
   -9.7148  -10.0776    7.0181 C   0  0  0  0  0  0  0  0  0  0  0  0
  -12.8125   -8.0053    6.2684 N   0  0  0  0  0  0  0  0  0  0  0  0
  -11.9668   -8.5466    7.2623 C   0  0  0  0  0  0  0  0  0  0  0  0
  -12.2506   -9.6426    7.8118 O   0  0  0  0  0  0  0  0  0  0  0  0
  -12.5906   -7.0798    5.7913 H   0  0  0  0  0  0  0  0  0  0  0  0
  -13.6119   -9.6360    4.7436 C   0  0  0  0  0  0  0  0  0  0  0  0
  -14.0030   -8.7275    5.8954 C   0  0  0  0  0  0  0  0  0  0  0  0
  -15.1129   -7.8338    5.5009 C   0  0  0  0  0  0  0  0  0  0  0  0
  -15.2328   -7.2643    4.2541 C   0  0  0  0  0  0  0  0  0  0  0  0
  -16.2907   -6.4302    3.9197 C   0  0  0  0  0  0  0  0  0  0  0  0
  -17.2466   -6.1655    4.8627 C   0  0  0  0  0  0  0  0  0  0  0  0
  -18.5823   -5.0996    4.4076 Cl  0  0  0  0  0  0  0  0  0  0  0  0
  -17.1639   -6.7153    6.1222 C   0  0  0  0  0  0  0  0  0  0  0  0
  -16.0867   -7.5520    6.4301 C   0  0  0  0  0  0  0  0  0  0  0  0
  -10.8777   -7.2142    8.9803 N   0  0  0  0  0  0  0  0  0  0  0  0
  -12.0440   -6.4826    9.3126 C   0  0  0  0  0  0  0  0  0  0  0  0
  -12.9639   -6.4384    8.4455 O   0  0  0  0  0  0  0  0  0  0  0  0
  -10.1133   -7.2497    9.7045 H   0  0  0  0  0  0  0  0  0  0  0  0
  -12.2690   -5.7820   10.5620 C   0  0  0  0  0  0  0  0  0  0  0  0
  -13.3134   -4.8994   10.7326 C   0  0  0  0  0  0  0  0  0  0  0  0
  -13.5254   -4.2323   11.9242 C   0  0  0  0  0  0  0  0  0  0  0  0
  -12.6702   -4.4458   12.9928 C   0  0  0  0  0  0  0  0  0  0  0  0
  -11.6219   -5.3205   12.8484 C   0  0  0  0  0  0  0  0  0  0  0  0
  -11.4303   -5.9817   11.6329 C   0  0  0  0  0  0  0  0  0  0  0  0
 13 14  1  0  0  0
 14  9  1  0  0  0
  9 10  1  0  0  0
 10 11  2  0  0  0
 10  1  1  0  0  0
  1 22  1  0  0  0
 22 23  1  0  0  0
 23 24  2  0  0  0
 23 26  1  0  0  0
 26 27  2  0  0  0
 27 28  1  0  0  0
 28 29  2  0  0  0
 29 30  1  0  0  0
 30 31  2  0  0  0
  1  2  1  0  0  0
  2  3  2  0  0  0
  3  4  1  0  0  0
  4  5  2  0  0  0
  5  6  1  0  0  0
  5  7  1  0  0  0
  7  8  2  0  0  0
 14 15  1  0  0  0
 15 16  2  0  0  0
 16 17  1  0  0  0
 17 18  2  0  0  0
 18 19  1  0  0  0
 18 20  1  0  0  0
 20 21  2  0  0  0
 31 26  1  0  0  0
  8  2  1  0  0  0
 21 15  1  0  0  0
  9 12  1  0  0  0
 22 25  1  0  0  0
M  END
> <minimizedAffinity>
2.20045

> <CNNscore>
0.5224135518

> <CNNaffinity>
6.5729207993

> <CNN_VS>
3.4337828159

> <CNNaffinity_variance>
0.3064826429

$$$$
[H]c1c([H])c([H])c(C(=O)N([H])[C@]([H])(C(=O)N([H])[C@@]([H])(c2c([H])c([H])c(Cl)c([H])c2[H])C([H])([H])[H])c2c([H])c([H])c(Cl)c([H])c2[H])c([H])c1[H]


 31 33  0  0  0  0  0  0  0  0999 V2000
  -12.7050   -7.6515    6.6750 C   0  0  0  0  0  0  0  0  0  0  0  0
  -11.3825   -7.4803    7.2964 C   0  0  0  0  0  0  0  0  0  0  0  0
  -11.2671   -7.1379    8.6273 C   0  0  0  0  0  0  0  0  0  0  0  0
  -10.0724   -6.9605    9.2761 C   0  0  0  0  0  0  0  0  0  0  0  0
   -8.9014   -7.1325    8.5628 C   0  0  0  0  0  0  0  0  0  0  0  0
   -7.3953   -6.8969    9.4274 Cl  0  0  0  0  0  0  0  0  0  0  0  0
   -8.9687   -7.4722    7.2410 C   0  0  0  0  0  0  0  0  0  0  0  0
  -10.1954   -7.6475    6.6015 C   0  0  0  0  0  0  0  0  0  0  0  0
  -14.3023   -9.3241    7.7508 N   0  0  0  0  0  0  0  0  0  0  0  0
  -13.6717   -8.0600    7.7245 C   0  0  0  0  0  0  0  0  0  0  0  0
  -13.9152   -7.2084    8.6185 O   0  0  0  0  0  0  0  0  0  0  0  0
  -14.1102  -10.0584    7.0044 H   0  0  0  0  0  0  0  0  0  0  0  0
  -16.4529   -8.7585    8.5746 C   0  0  0  0  0  0  0  0  0  0  0  0
  -15.2271   -9.6211    8.8160 C   0  0  0  0  0  0  0  0  0  0  0  0
  -14.6592   -9.3571   10.1554 C   0  0  0  0  0  0  0  0  0  0  0  0
  -15.2143   -8.4874   11.0658 C   0  0  0  0  0  0  0  0  0  0  0  0
  -14.6526   -8.2658   12.3156 C   0  0  0  0  0  0  0  0  0  0  0  0
  -13.5076   -8.9352   12.6531 C   0  0  0  0  0  0  0  0  0  0  0  0
  -12.8153   -8.6326   14.2521 Cl  0  0  0  0  0  0  0  0  0  0  0  0
  -12.9202   -9.8141   11.7711 C   0  0  0  0  0  0  0  0  0  0  0  0
  -13.5090  -10.0171   10.5192 C   0  0  0  0  0  0  0  0  0  0  0  0
  -13.1499   -6.5098    5.9252 N   0  0  0  0  0  0  0  0  0  0  0  0
  -14.4039   -6.4704    5.2683 C   0  0  0  0  0  0  0  0  0  0  0  0
  -15.1381   -7.4960    5.3645 O   0  0  0  0  0  0  0  0  0  0  0  0
  -12.5406   -5.6541    5.8439 H   0  0  0  0  0  0  0  0  0  0  0  0
  -14.9136   -5.3537    4.4965 C   0  0  0  0  0  0  0  0  0  0  0  0
  -16.1845   -5.3464    3.9642 C   0  0  0  0  0  0  0  0  0  0  0  0
  -16.6678   -4.2811    3.2284 C   0  0  0  0  0  0  0  0  0  0  0  0
  -15.8621   -3.1758    3.0091 C   0  0  0  0  0  0  0  0  0  0  0  0
  -14.5916   -3.1583    3.5290 C   0  0  0  0  0  0  0  0  0  0  0  0
  -14.1279   -4.2485    4.2690 C   0  0  0  0  0  0  0  0  0  0  0  0
 13 14  1  0  0  0
 14  9  1  0  0  0
  9 10  1  0  0  0
 10 11  2  0  0  0
 10  1  1  0  0  0
  1 22  1  0  0  0
 22 23  1  0  0  0
 23 24  2  0  0  0
 23 26  1  0  0  0
 26 27  2  0  0  0
 27 28  1  0  0  0
 28 29  2  0  0  0
 29 30  1  0  0  0
 30 31  2  0  0  0
  1  2  1  0  0  0
  2  3  2  0  0  0
  3  4  1  0  0  0
  4  5  2  0  0  0
  5  6  1  0  0  0
  5  7  1  0  0  0
  7  8  2  0  0  0
 14 15  1  0  0  0
 15 16  2  0  0  0
 16 17  1  0  0  0
 17 18  2  0  0  0
 18 19  1  0  0  0
 18 20  1  0  0  0
 20 21  2  0  0  0
 31 26  1  0  0  0
  8  2  1  0  0  0
 21 15  1  0  0  0
  9 12  1  0  0  0
 22 25  1  0  0  0
M  END
> <minimizedAffinity>
15.47322

> <CNNscore>
0.5150159597

> <CNNaffinity>
6.6424560547

> <CNN_VS>
3.4209709167

> <CNNaffinity_variance>
1.5187094212

$$$$
[H]c1c([H])c([H])c(C(=O)N([H])[C@]([H])(C(=O)N([H])[C@@]([H])(c2c([H])c([H])c(Cl)c([H])c2[H])C([H])([H])[H])c2c([H])c([H])c(Cl)c([H])c2[H])c([H])c1[H]


 31 33  0  0  0  0  0  0  0  0999 V2000
  -11.4718   -8.7053    7.8854 C   0  0  0  0  0  0  0  0  0  0  0  0
  -12.0205   -7.7164    8.8264 C   0  0  0  0  0  0  0  0  0  0  0  0
  -11.3366   -6.5517    9.1047 C   0  0  0  0  0  0  0  0  0  0  0  0
  -11.7819   -5.5846    9.9685 C   0  0  0  0  0  0  0  0  0  0  0  0
  -12.9920   -5.7764   10.6077 C   0  0  0  0  0  0  0  0  0  0  0  0
  -13.5268   -4.5178   11.7038 Cl  0  0  0  0  0  0  0  0  0  0  0  0
  -13.7037   -6.9166   10.3615 C   0  0  0  0  0  0  0  0  0  0  0  0
  -13.2310   -7.8870    9.4788 C   0  0  0  0  0  0  0  0  0  0  0  0
  -13.3130   -8.2793    6.1723 N   0  0  0  0  0  0  0  0  0  0  0  0
  -12.5617   -9.1574    6.9851 C   0  0  0  0  0  0  0  0  0  0  0  0
  -12.7978  -10.3935    6.9744 O   0  0  0  0  0  0  0  0  0  0  0  0
  -13.1292   -7.2307    6.1664 H   0  0  0  0  0  0  0  0  0  0  0  0
  -13.6888   -9.2067    4.0224 C   0  0  0  0  0  0  0  0  0  0  0  0
  -14.3518   -8.8216    5.3327 C   0  0  0  0  0  0  0  0  0  0  0  0
  -15.4540   -7.8644    5.0979 C   0  0  0  0  0  0  0  0  0  0  0  0
  -16.7392   -8.2382    4.7786 C   0  0  0  0  0  0  0  0  0  0  0  0
  -17.7491   -7.3099    4.5661 C   0  0  0  0  0  0  0  0  0  0  0  0
  -17.4559   -5.9778    4.6780 C   0  0  0  0  0  0  0  0  0  0  0  0
  -18.7627   -4.8188    4.4019 Cl  0  0  0  0  0  0  0  0  0  0  0  0
  -16.1825   -5.5617    4.9958 C   0  0  0  0  0  0  0  0  0  0  0  0
  -15.1857   -6.5199    5.2043 C   0  0  0  0  0  0  0  0  0  0  0  0
  -10.3136   -8.2489    7.1685 N   0  0  0  0  0  0  0  0  0  0  0  0
   -8.9928   -8.5241    7.5991 C   0  0  0  0  0  0  0  0  0  0  0  0
   -8.8609   -9.2006    8.6598 O   0  0  0  0  0  0  0  0  0  0  0  0
  -10.4206   -7.6857    6.2845 H   0  0  0  0  0  0  0  0  0  0  0  0
   -7.7827   -8.0949    6.9254 C   0  0  0  0  0  0  0  0  0  0  0  0
   -6.5985   -8.7924    7.0247 C   0  0  0  0  0  0  0  0  0  0  0  0
   -5.4463   -8.3809    6.3822 C   0  0  0  0  0  0  0  0  0  0  0  0
   -5.4640   -7.2320    5.6085 C   0  0  0  0  0  0  0  0  0  0  0  0
   -6.6315   -6.5190    5.4933 C   0  0  0  0  0  0  0  0  0  0  0  0
   -7.7819   -6.9571    6.1535 C   0  0  0  0  0  0  0  0  0  0  0  0
 13 14  1  0  0  0
 14  9  1  0  0  0
  9 10  1  0  0  0
 10 11  2  0  0  0
 10  1  1  0  0  0
  1 22  1  0  0  0
 22 23  1  0  0  0
 23 24  2  0  0  0
 23 26  1  0  0  0
 26 27  2  0  0  0
 27 28  1  0  0  0
 28 29  2  0  0  0
 29 30  1  0  0  0
 30 31  2  0  0  0
  1  2  1  0  0  0
  2  3  2  0  0  0
  3  4  1  0  0  0
  4  5  2  0  0  0
  5  6  1  0  0  0
  5  7  1  0  0  0
  7  8  2  0  0  0
 14 15  1  0  0  0
 15 16  2  0  0  0
 16 17  1  0  0  0
 17 18  2  0  0  0
 18 19  1  0  0  0
 18 20  1  0  0  0
 20 21  2  0  0  0
 31 26  1  0  0  0
  8  2  1  0  0  0
 21 15  1  0  0  0
  9 12  1  0  0  0
 22 25  1  0  0  0
M  END
> <minimizedAffinity>
-7.49292

> <CNNscore>
0.4915325940

> <CNNaffinity>
6.7824187279

> <CNN_VS>
3.3337798119

> <CNNaffinity_variance>
0.0619720332

$$$$
[H]c1c([H])c([H])c(C(=O)N([H])[C@]([H])(C(=O)N([H])[C@@]([H])(c2c([H])c([H])c(Cl)c([H])c2[H])C([H])([H])[H])c2c([H])c([H])c(Cl)c([H])c2[H])c([H])c1[H]


 31 33  0  0  0  0  0  0  0  0999 V2000
  -11.5683   -8.7200    7.8517 C   0  0  0  0  0  0  0  0  0  0  0  0
  -12.1017   -7.7380    8.8087 C   0  0  0  0  0  0  0  0  0  0  0  0
  -11.3845   -6.6052    9.1312 C   0  0  0  0  0  0  0  0  0  0  0  0
  -11.8138   -5.6467   10.0124 C   0  0  0  0  0  0  0  0  0  0  0  0
  -13.0420   -5.8137   10.6235 C   0  0  0  0  0  0  0  0  0  0  0  0
  -13.5554   -4.5670   11.7431 Cl  0  0  0  0  0  0  0  0  0  0  0  0
  -13.7868   -6.9219   10.3332 C   0  0  0  0  0  0  0  0  0  0  0  0
  -13.3299   -7.8843    9.4334 C   0  0  0  0  0  0  0  0  0  0  0  0
  -13.4300   -8.2324    6.1774 N   0  0  0  0  0  0  0  0  0  0  0  0
  -12.6649   -9.1398    6.9439 C   0  0  0  0  0  0  0  0  0  0  0  0
  -12.8936  -10.3759    6.8822 O   0  0  0  0  0  0  0  0  0  0  0  0
  -13.2526   -7.1834    6.2150 H   0  0  0  0  0  0  0  0  0  0  0  0
  -13.8082   -9.1456    4.0219 C   0  0  0  0  0  0  0  0  0  0  0  0
  -14.4743   -8.7447    5.3259 C   0  0  0  0  0  0  0  0  0  0  0  0
  -15.5474   -7.7574    5.0814 C   0  0  0  0  0  0  0  0  0  0  0  0
  -15.3904   -6.3994    5.2387 C   0  0  0  0  0  0  0  0  0  0  0  0
  -16.4218   -5.5021    4.9985 C   0  0  0  0  0  0  0  0  0  0  0  0
  -17.6359   -5.9851    4.5914 C   0  0  0  0  0  0  0  0  0  0  0  0
  -18.9306   -4.8181    4.2928 Cl  0  0  0  0  0  0  0  0  0  0  0  0
  -17.8347   -7.3369    4.4218 C   0  0  0  0  0  0  0  0  0  0  0  0
  -16.7770   -8.2167    4.6714 C   0  0  0  0  0  0  0  0  0  0  0  0
  -10.4028   -8.2703    7.1425 N   0  0  0  0  0  0  0  0  0  0  0  0
   -9.0865   -8.5500    7.5839 C   0  0  0  0  0  0  0  0  0  0  0  0
   -8.9656   -9.2244    8.6473 O   0  0  0  0  0  0  0  0  0  0  0  0
  -10.5006   -7.7088    6.2564 H   0  0  0  0  0  0  0  0  0  0  0  0
   -7.8694   -8.1276    6.9185 C   0  0  0  0  0  0  0  0  0  0  0  0
   -7.8096   -6.9855    6.1499 C   0  0  0  0  0  0  0  0  0  0  0  0
   -6.6485   -6.5853    5.5162 C   0  0  0  0  0  0  0  0  0  0  0  0
   -5.4975   -7.3449    5.6471 C   0  0  0  0  0  0  0  0  0  0  0  0
   -5.5308   -8.4874    6.4075 C   0  0  0  0  0  0  0  0  0  0  0  0
   -6.7178   -8.8692    7.0373 C   0  0  0  0  0  0  0  0  0  0  0  0
 13 14  1  0  0  0
 14  9  1  0  0  0
  9 10  1  0  0  0
 10 11  2  0  0  0
 10  1  1  0  0  0
  1 22  1  0  0  0
 22 23  1  0  0  0
 23 24  2  0  0  0
 23 26  1  0  0  0
 26 27  2  0  0  0
 27 28  1  0  0  0
 28 29  2  0  0  0
 29 30  1  0  0  0
 30 31  2  0  0  0
  1  2  1  0  0  0
  2  3  2  0  0  0
  3  4  1  0  0  0
  4  5  2  0  0  0
  5  6  1  0  0  0
  5  7  1  0  0  0
  7  8  2  0  0  0
 14 15  1  0  0  0
 15 16  2  0  0  0
 16 17  1  0  0  0
 17 18  2  0  0  0
 18 19  1  0  0  0
 18 20  1  0  0  0
 20 21  2  0  0  0
 31 26  1  0  0  0
  8  2  1  0  0  0
 21 15  1  0  0  0
  9 12  1  0  0  0
 22 25  1  0  0  0
M  END
> <minimizedAffinity>
-7.57972

> <CNNscore>
0.4893985987

> <CNNaffinity>
6.7882475853

> <CNN_VS>
3.3221588135

> <CNNaffinity_variance>
0.0531298742

$$$$
[H]c1c([H])c([H])c(C(=O)N([H])[C@]([H])(C(=O)N([H])[C@@]([H])(c2c([H])c([H])c(Cl)c([H])c2[H])C([H])([H])[H])c2c([H])c([H])c(Cl)c([H])c2[H])c([H])c1[H]


 31 33  0  0  0  0  0  0  0  0999 V2000
  -11.3314   -6.9679    7.9208 C   0  0  0  0  0  0  0  0  0  0  0  0
  -10.0467   -7.4622    7.4015 C   0  0  0  0  0  0  0  0  0  0  0  0
   -9.6945   -8.7887    7.5356 C   0  0  0  0  0  0  0  0  0  0  0  0
   -8.5174   -9.3231    7.0791 C   0  0  0  0  0  0  0  0  0  0  0  0
   -7.6171   -8.4904    6.4419 C   0  0  0  0  0  0  0  0  0  0  0  0
   -6.1243   -9.2110    5.8729 Cl  0  0  0  0  0  0  0  0  0  0  0  0
   -7.9251   -7.1682    6.2870 C   0  0  0  0  0  0  0  0  0  0  0  0
   -9.1288   -6.6464    6.7596 C   0  0  0  0  0  0  0  0  0  0  0  0
  -12.3044   -8.5626    6.1839 N   0  0  0  0  0  0  0  0  0  0  0  0
  -12.4196   -7.8205    7.3807 C   0  0  0  0  0  0  0  0  0  0  0  0
  -13.4831   -7.8573    8.0526 O   0  0  0  0  0  0  0  0  0  0  0  0
  -11.4137   -8.5454    5.6011 H   0  0  0  0  0  0  0  0  0  0  0  0
  -13.3700   -9.3793    4.2292 C   0  0  0  0  0  0  0  0  0  0  0  0
  -13.4225   -9.3603    5.7464 C   0  0  0  0  0  0  0  0  0  0  0  0
  -14.7204   -8.8307    6.2166 C   0  0  0  0  0  0  0  0  0  0  0  0
  -15.6158   -8.1673    5.4094 C   0  0  0  0  0  0  0  0  0  0  0  0
  -16.8265   -7.6847    5.8868 C   0  0  0  0  0  0  0  0  0  0  0  0
  -17.1397   -7.8754    7.2053 C   0  0  0  0  0  0  0  0  0  0  0  0
  -18.6890   -7.2497    7.7846 Cl  0  0  0  0  0  0  0  0  0  0  0  0
  -16.2717   -8.5341    8.0468 C   0  0  0  0  0  0  0  0  0  0  0  0
  -15.0592   -9.0093    7.5374 C   0  0  0  0  0  0  0  0  0  0  0  0
  -11.3765   -6.8513    9.3518 N   0  0  0  0  0  0  0  0  0  0  0  0
  -10.8772   -5.7191   10.0408 C   0  0  0  0  0  0  0  0  0  0  0  0
  -10.3784   -4.7913    9.3405 O   0  0  0  0  0  0  0  0  0  0  0  0
  -11.7918   -7.6224    9.9375 H   0  0  0  0  0  0  0  0  0  0  0  0
  -10.8908   -5.5372   11.4793 C   0  0  0  0  0  0  0  0  0  0  0  0
   -9.7528   -5.6579   12.2468 C   0  0  0  0  0  0  0  0  0  0  0  0
   -9.7684   -5.4847   13.6178 C   0  0  0  0  0  0  0  0  0  0  0  0
  -10.9582   -5.1791   14.2581 C   0  0  0  0  0  0  0  0  0  0  0  0
  -12.1062   -5.0532   13.5159 C   0  0  0  0  0  0  0  0  0  0  0  0
  -12.0624   -5.2336   12.1315 C   0  0  0  0  0  0  0  0  0  0  0  0
 13 14  1  0  0  0
 14  9  1  0  0  0
  9 10  1  0  0  0
 10 11  2  0  0  0
 10  1  1  0  0  0
  1 22  1  0  0  0
 22 23  1  0  0  0
 23 24  2  0  0  0
 23 26  1  0  0  0
 26 27  2  0  0  0
 27 28  1  0  0  0
 28 29  2  0  0  0
 29 30  1  0  0  0
 30 31  2  0  0  0
  1  2  1  0  0  0
  2  3  2  0  0  0
  3  4  1  0  0  0
  4  5  2  0  0  0
  5  6  1  0  0  0
  5  7  1  0  0  0
  7  8  2  0  0  0
 14 15  1  0  0  0
 15 16  2  0  0  0
 16 17  1  0  0  0
 17 18  2  0  0  0
 18 19  1  0  0  0
 18 20  1  0  0  0
 20 21  2  0  0  0
 31 26  1  0  0  0
  8  2  1  0  0  0
 21 15  1  0  0  0
  9 12  1  0  0  0
 22 25  1  0  0  0
M  END
> <minimizedAffinity>
3.74669

> <CNNscore>
0.4798263907

> <CNNaffinity>
6.4907531738

> <CNN_VS>
3.1144347191

> <CNNaffinity_variance>
0.9861809611

$$$$
[H]c1c([H])c([H])c(C(=O)N([H])[C@]([H])(C(=O)N([H])[C@@]([H])(c2c([H])c([H])c(Cl)c([H])c2[H])C([H])([H])[H])c2c([H])c([H])c(Cl)c([H])c2[H])c([H])c1[H]


 31 33  0  0  0  0  0  0  0  0999 V2000
   -6.8831   -7.0422    7.8574 C   0  0  0  0  0  0  0  0  0  0  0  0
   -8.3521   -7.1147    7.8934 C   0  0  0  0  0  0  0  0  0  0  0  0
   -9.0109   -8.2698    7.5279 C   0  0  0  0  0  0  0  0  0  0  0  0
  -10.3743   -8.4139    7.5348 C   0  0  0  0  0  0  0  0  0  0  0  0
  -11.1499   -7.3411    7.9313 C   0  0  0  0  0  0  0  0  0  0  0  0
  -12.8882   -7.5647    7.9266 Cl  0  0  0  0  0  0  0  0  0  0  0  0
  -10.5390   -6.1765    8.3020 C   0  0  0  0  0  0  0  0  0  0  0  0
   -9.1501   -6.0525    8.2871 C   0  0  0  0  0  0  0  0  0  0  0  0
   -6.3756   -8.3445    5.7236 N   0  0  0  0  0  0  0  0  0  0  0  0
   -6.3684   -8.2302    7.1318 C   0  0  0  0  0  0  0  0  0  0  0  0
   -5.9107   -9.1617    7.8436 O   0  0  0  0  0  0  0  0  0  0  0  0
   -6.7579   -7.5682    5.1035 H   0  0  0  0  0  0  0  0  0  0  0  0
   -4.4441   -9.2107    4.6548 C   0  0  0  0  0  0  0  0  0  0  0  0
   -5.8515   -9.5427    5.1174 C   0  0  0  0  0  0  0  0  0  0  0  0
   -6.6747  -10.0165    3.9843 C   0  0  0  0  0  0  0  0  0  0  0  0
   -7.8749  -10.6735    4.1304 C   0  0  0  0  0  0  0  0  0  0  0  0
   -8.6212  -11.1030    3.0417 C   0  0  0  0  0  0  0  0  0  0  0  0
   -8.1466  -10.8646    1.7804 C   0  0  0  0  0  0  0  0  0  0  0  0
   -9.1193  -11.4232    0.4131 Cl  0  0  0  0  0  0  0  0  0  0  0  0
   -6.9501  -10.2104    1.5905 C   0  0  0  0  0  0  0  0  0  0  0  0
   -6.2203   -9.7894    2.7064 C   0  0  0  0  0  0  0  0  0  0  0  0
   -6.3724   -5.8068    7.3314 N   0  0  0  0  0  0  0  0  0  0  0  0
   -4.9985   -5.6073    7.0514 C   0  0  0  0  0  0  0  0  0  0  0  0
   -4.2161   -6.5736    7.2840 O   0  0  0  0  0  0  0  0  0  0  0  0
   -7.0220   -5.0005    7.1363 H   0  0  0  0  0  0  0  0  0  0  0  0
   -4.4172   -4.3892    6.5215 C   0  0  0  0  0  0  0  0  0  0  0  0
   -4.5120   -4.0475    5.1900 C   0  0  0  0  0  0  0  0  0  0  0  0
   -3.9565   -2.8862    4.6872 C   0  0  0  0  0  0  0  0  0  0  0  0
   -3.2787   -2.0257    5.5352 C   0  0  0  0  0  0  0  0  0  0  0  0
   -3.1702   -2.3433    6.8664 C   0  0  0  0  0  0  0  0  0  0  0  0
   -3.7410   -3.5236    7.3484 C   0  0  0  0  0  0  0  0  0  0  0  0
 13 14  1  0  0  0
 14  9  1  0  0  0
  9 10  1  0  0  0
 10 11  2  0  0  0
 10  1  1  0  0  0
  1 22  1  0  0  0
 22 23  1  0  0  0
 23 24  2  0  0  0
 23 26  1  0  0  0
 26 27  2  0  0  0
 27 28  1  0  0  0
 28 29  2  0  0  0
 29 30  1  0  0  0
 30 31  2  0  0  0
  1  2  1  0  0  0
  2  3  2  0  0  0
  3  4  1  0  0  0
  4  5  2  0  0  0
  5  6  1  0  0  0
  5  7  1  0  0  0
  7  8  2  0  0  0
 14 15  1  0  0  0
 15 16  2  0  0  0
 16 17  1  0  0  0
 17 18  2  0  0  0
 18 19  1  0  0  0
 18 20  1  0  0  0
 20 21  2  0  0  0
 31 26  1  0  0  0
  8  2  1  0  0  0
 21 15  1  0  0  0
  9 12  1  0  0  0
 22 25  1  0  0  0
M  END
> <minimizedAffinity>
12.27481

> <CNNscore>
0.4472328722

> <CNNaffinity>
5.9337358475

> <CNN_VS>
2.6537616253

> <CNNaffinity_variance>
1.1705381870

$$$$
[H]c1c([H])c([H])c(C(=O)N([H])[C@]([H])(C(=O)N([H])[C@@]([H])(c2c([H])c([H])c(Cl)c([H])c2[H])C([H])([H])[H])c2c([H])c([H])c(Cl)c([H])c2[H])c([H])c1[H]


 31 33  0  0  0  0  0  0  0  0999 V2000
  -14.6385   -6.5947    4.5041 C   0  0  0  0  0  0  0  0  0  0  0  0
  -14.2099   -7.4308    3.3720 C   0  0  0  0  0  0  0  0  0  0  0  0
  -14.1343   -6.9087    2.0979 C   0  0  0  0  0  0  0  0  0  0  0  0
  -13.7448   -7.6233    0.9945 C   0  0  0  0  0  0  0  0  0  0  0  0
  -13.4034   -8.9528    1.1553 C   0  0  0  0  0  0  0  0  0  0  0  0
  -12.9110   -9.8320   -0.2786 Cl  0  0  0  0  0  0  0  0  0  0  0  0
  -13.4638   -9.5116    2.4007 C   0  0  0  0  0  0  0  0  0  0  0  0
  -13.8630   -8.7654    3.5090 C   0  0  0  0  0  0  0  0  0  0  0  0
  -16.9502   -6.4844    3.4316 N   0  0  0  0  0  0  0  0  0  0  0  0
  -16.1213   -6.6098    4.5688 C   0  0  0  0  0  0  0  0  0  0  0  0
  -16.6269   -6.7428    5.7135 O   0  0  0  0  0  0  0  0  0  0  0  0
  -16.5427   -6.3711    2.4546 H   0  0  0  0  0  0  0  0  0  0  0  0
  -18.7662   -5.1746    4.2125 C   0  0  0  0  0  0  0  0  0  0  0  0
  -18.3811   -6.5111    3.6040 C   0  0  0  0  0  0  0  0  0  0  0  0
  -18.8318   -7.6254    4.4651 C   0  0  0  0  0  0  0  0  0  0  0  0
  -17.9774   -8.4874    5.1135 C   0  0  0  0  0  0  0  0  0  0  0  0
  -18.4380   -9.5226    5.9154 C   0  0  0  0  0  0  0  0  0  0  0  0
  -19.7877   -9.6911    6.0658 C   0  0  0  0  0  0  0  0  0  0  0  0
  -20.3446  -11.0182    7.0935 Cl  0  0  0  0  0  0  0  0  0  0  0  0
  -20.6767   -8.8505    5.4343 C   0  0  0  0  0  0  0  0  0  0  0  0
  -20.1832   -7.8164    4.6328 C   0  0  0  0  0  0  0  0  0  0  0  0
  -14.0252   -6.9464    5.7546 N   0  0  0  0  0  0  0  0  0  0  0  0
  -14.6071   -7.8709    6.6560 C   0  0  0  0  0  0  0  0  0  0  0  0
  -15.7099   -8.3902    6.3180 O   0  0  0  0  0  0  0  0  0  0  0  0
  -13.1065   -6.5158    6.0384 H   0  0  0  0  0  0  0  0  0  0  0  0
  -14.0437   -8.2697    7.9312 C   0  0  0  0  0  0  0  0  0  0  0  0
  -13.0929   -9.2613    8.0375 C   0  0  0  0  0  0  0  0  0  0  0  0
  -12.5578   -9.6399    9.2541 C   0  0  0  0  0  0  0  0  0  0  0  0
  -12.9793   -9.0128   10.4151 C   0  0  0  0  0  0  0  0  0  0  0  0
  -13.9257   -8.0214   10.3362 C   0  0  0  0  0  0  0  0  0  0  0  0
  -14.4502   -7.6581    9.0935 C   0  0  0  0  0  0  0  0  0  0  0  0
 13 14  1  0  0  0
 14  9  1  0  0  0
  9 10  1  0  0  0
 10 11  2  0  0  0
 10  1  1  0  0  0
  1 22  1  0  0  0
 22 23  1  0  0  0
 23 24  2  0  0  0
 23 26  1  0  0  0
 26 27  2  0  0  0
 27 28  1  0  0  0
 28 29  2  0  0  0
 29 30  1  0  0  0
 30 31  2  0  0  0
  1  2  1  0  0  0
  2  3  2  0  0  0
  3  4  1  0  0  0
  4  5  2  0  0  0
  5  6  1  0  0  0
  5  7  1  0  0  0
  7  8  2  0  0  0
 14 15  1  0  0  0
 15 16  2  0  0  0
 16 17  1  0  0  0
 17 18  2  0  0  0
 18 19  1  0  0  0
 18 20  1  0  0  0
 20 21  2  0  0  0
 31 26  1  0  0  0
  8  2  1  0  0  0
 21 15  1  0  0  0
  9 12  1  0  0  0
 22 25  1  0  0  0
M  END
> <minimizedAffinity>
15.99430

> <CNNscore>
0.4417634010

> <CNNaffinity>
6.3819818497

> <CNN_VS>
2.8193259239

> <CNNaffinity_variance>
1.3257759809

$$$$
[H]c1c([H])c(N([H])C(=O)c2c([H])c([H])c(OC([H])([H])[H])c(OC3([H])C([H])([H])C([H])([H])C([H])([H])C3([H])[H])c2[H])c([H])c(S(=O)(=O)C(F)(F)F)c1Cl


 32 34  0  0  0  0  0  0  0  0999 V2000
   -9.1327  -10.5716    6.6131 C   0  0  0  0  0  0  0  0  0  0  0  0
   -7.9331  -10.6188    6.9647 O   0  0  0  0  0  0  0  0  0  0  0  0
   -9.6920  -11.4860    5.7356 N   0  0  0  0  0  0  0  0  0  0  0  0
  -10.7380  -11.3269    5.5281 H   0  0  0  0  0  0  0  0  0  0  0  0
   -9.1249  -12.5886    5.0714 C   0  0  0  0  0  0  0  0  0  0  0  0
   -8.8524  -13.7716    5.7128 C   0  0  0  0  0  0  0  0  0  0  0  0
   -8.3033  -14.8211    4.9782 C   0  0  0  0  0  0  0  0  0  0  0  0
   -8.0338  -14.6782    3.6198 C   0  0  0  0  0  0  0  0  0  0  0  0
   -7.3902  -16.0459    2.7174 Cl  0  0  0  0  0  0  0  0  0  0  0  0
   -8.2907  -13.5141    2.9495 C   0  0  0  0  0  0  0  0  0  0  0  0
   -8.8370  -12.4849    3.6991 C   0  0  0  0  0  0  0  0  0  0  0  0
   -7.9358  -13.2376    1.2643 S   0  0  0  0  0  0  0  0  0  0  0  0
   -8.9721  -13.8949    0.3793 O   0  0  0  0  0  0  0  0  0  0  0  0
   -6.6164  -13.8975    0.8818 O   0  0  0  0  0  0  0  0  0  0  0  0
   -7.8264  -11.5589    0.7958 C   0  0  0  0  0  0  0  0  0  0  0  0
   -6.8650  -11.3832   -0.2027 F   0  0  0  0  0  0  0  0  0  0  0  0
   -9.0351  -11.0414    0.4831 F   0  0  0  0  0  0  0  0  0  0  0  0
   -7.3140  -10.7831    1.8654 F   0  0  0  0  0  0  0  0  0  0  0  0
  -11.4868   -7.3706    8.2931 C   0  0  0  0  0  0  0  0  0  0  0  0
  -10.0949   -7.4170    8.4298 C   0  0  0  0  0  0  0  0  0  0  0  0
   -9.3211   -8.4345    7.9029 C   0  0  0  0  0  0  0  0  0  0  0  0
   -9.9190   -9.4570    7.2101 C   0  0  0  0  0  0  0  0  0  0  0  0
  -11.2769   -9.4115    7.0771 C   0  0  0  0  0  0  0  0  0  0  0  0
  -12.0884   -8.3883    7.6031 C   0  0  0  0  0  0  0  0  0  0  0  0
  -12.5602   -6.3625   10.2076 C   0  0  0  0  0  0  0  0  0  0  0  0
  -12.1748   -6.3081    8.8575 O   0  0  0  0  0  0  0  0  0  0  0  0
  -13.4188   -8.4541    7.4057 O   0  0  0  0  0  0  0  0  0  0  0  0
  -14.3868   -7.5813    7.0773 C   0  0  0  0  0  0  0  0  0  0  0  0
  -15.6665   -8.3044    6.6285 C   0  0  0  0  0  0  0  0  0  0  0  0
  -16.3830   -7.2413    5.8359 C   0  0  0  0  0  0  0  0  0  0  0  0
  -15.3218   -6.2476    5.3888 C   0  0  0  0  0  0  0  0  0  0  0  0
  -14.0115   -6.9372    5.7224 C   0  0  0  0  0  0  0  0  0  0  0  0
 25 26  1  0  0  0
 26 19  1  0  0  0
 19 20  2  0  0  0
 20 21  1  0  0  0
 21 22  2  0  0  0
 22 23  1  0  0  0
 23 24  2  0  0  0
 24 27  1  0  0  0
 27 28  1  0  0  0
 28 29  1  0  0  0
 29 30  1  0  0  0
 30 31  1  0  0  0
 31 32  1  0  0  0
 22  1  1  0  0  0
  1  2  2  0  0  0
  1  3  1  0  0  0
  3  5  1  0  0  0
  5  6  2  0  0  0
  6  7  1  0  0  0
  7  8  2  0  0  0
  8  9  1  0  0  0
  8 10  1  0  0  0
 10 11  2  0  0  0
 10 12  1  0  0  0
 12 13  2  0  0  0
 12 14  2  0  0  0
 12 15  1  0  0  0
 15 16  1  0  0  0
 15 17  1  0  0  0
 15 18  1  0  0  0
 24 19  1  0  0  0
 32 28  1  0  0  0
 11  5  1  0  0  0
  3  4  1  0  0  0
M  END
> <minimizedAffinity>
5.02692

> <CNNscore>
0.6073325872

> <CNNaffinity>
6.5470743179

> <CNN_VS>
3.9762516022

> <CNNaffinity_variance>
0.5015126467

$$$$
[H]c1c([H])c(N([H])C(=O)c2c([H])c([H])c(OC([H])([H])[H])c(OC3([H])C([H])([H])C([H])([H])C([H])([H])C3([H])[H])c2[H])c([H])c(S(=O)(=O)C(F)(F)F)c1Cl


 32 34  0  0  0  0  0  0  0  0999 V2000
  -13.5551   -7.6121    8.3199 C   0  0  0  0  0  0  0  0  0  0  0  0
  -12.8882   -6.7024    7.7790 O   0  0  0  0  0  0  0  0  0  0  0  0
  -14.4340   -8.4169    7.6136 N   0  0  0  0  0  0  0  0  0  0  0  0
  -14.9352   -9.1638    8.2082 H   0  0  0  0  0  0  0  0  0  0  0  0
  -14.7807   -8.4248    6.2505 C   0  0  0  0  0  0  0  0  0  0  0  0
  -13.9556   -8.9481    5.2859 C   0  0  0  0  0  0  0  0  0  0  0  0
  -14.3806   -8.9300    3.9586 C   0  0  0  0  0  0  0  0  0  0  0  0
  -15.6171   -8.3925    3.6117 C   0  0  0  0  0  0  0  0  0  0  0  0
  -16.1388   -8.4379    1.9309 Cl  0  0  0  0  0  0  0  0  0  0  0  0
  -16.4633   -7.8614    4.5456 C   0  0  0  0  0  0  0  0  0  0  0  0
  -16.0208   -7.8908    5.8582 C   0  0  0  0  0  0  0  0  0  0  0  0
  -18.0031   -7.1243    4.1880 S   0  0  0  0  0  0  0  0  0  0  0  0
  -19.1081   -7.7591    5.0035 O   0  0  0  0  0  0  0  0  0  0  0  0
  -18.3910   -7.3771    2.7360 O   0  0  0  0  0  0  0  0  0  0  0  0
  -18.0768   -5.3990    4.4474 C   0  0  0  0  0  0  0  0  0  0  0  0
  -17.9151   -5.0925    5.8010 F   0  0  0  0  0  0  0  0  0  0  0  0
  -17.2308   -4.7287    3.6340 F   0  0  0  0  0  0  0  0  0  0  0  0
  -19.3798   -4.9160    4.1693 F   0  0  0  0  0  0  0  0  0  0  0  0
  -12.8576   -7.9866   12.5606 C   0  0  0  0  0  0  0  0  0  0  0  0
  -13.4507   -9.0109   11.8142 C   0  0  0  0  0  0  0  0  0  0  0  0
  -13.6868   -8.9114   10.4555 C   0  0  0  0  0  0  0  0  0  0  0  0
  -13.3334   -7.7681    9.7839 C   0  0  0  0  0  0  0  0  0  0  0  0
  -12.7550   -6.7689   10.5125 C   0  0  0  0  0  0  0  0  0  0  0  0
  -12.5033   -6.8438   11.8957 C   0  0  0  0  0  0  0  0  0  0  0  0
  -13.2445   -9.2898   14.5571 C   0  0  0  0  0  0  0  0  0  0  0  0
  -12.6625   -8.1815   13.9189 O   0  0  0  0  0  0  0  0  0  0  0  0
  -11.9262   -5.7904   12.5044 O   0  0  0  0  0  0  0  0  0  0  0  0
  -11.1270   -5.6148   13.5708 C   0  0  0  0  0  0  0  0  0  0  0  0
  -11.1389   -4.1536   14.0472 C   0  0  0  0  0  0  0  0  0  0  0  0
   -9.8583   -4.0555   14.8359 C   0  0  0  0  0  0  0  0  0  0  0  0
   -8.9521   -5.1662   14.3274 C   0  0  0  0  0  0  0  0  0  0  0  0
   -9.6601   -5.6758   13.0852 C   0  0  0  0  0  0  0  0  0  0  0  0
 25 26  1  0  0  0
 26 19  1  0  0  0
 19 20  2  0  0  0
 20 21  1  0  0  0
 21 22  2  0  0  0
 22 23  1  0  0  0
 23 24  2  0  0  0
 24 27  1  0  0  0
 27 28  1  0  0  0
 28 29  1  0  0  0
 29 30  1  0  0  0
 30 31  1  0  0  0
 31 32  1  0  0  0
 22  1  1  0  0  0
  1  2  2  0  0  0
  1  3  1  0  0  0
  3  5  1  0  0  0
  5  6  2  0  0  0
  6  7  1  0  0  0
  7  8  2  0  0  0
  8  9  1  0  0  0
  8 10  1  0  0  0
 10 11  2  0  0  0
 10 12  1  0  0  0
 12 13  2  0  0  0
 12 14  2  0  0  0
 12 15  1  0  0  0
 15 16  1  0  0  0
 15 17  1  0  0  0
 15 18  1  0  0  0
 24 19  1  0  0  0
 32 28  1  0  0  0
 11  5  1  0  0  0
  3  4  1  0  0  0
M  END
> <minimizedAffinity>
11.87448

> <CNNscore>
0.5985211730

> <CNNaffinity>
6.7397384644

> <CNN_VS>
4.0338759422

> <CNNaffinity_variance>
0.7340091467

$$$$
[H]c1c([H])c(N([H])C(=O)c2c([H])c([H])c(OC([H])([H])[H])c(OC3([H])C([H])([H])C([H])([H])C([H])([H])C3([H])[H])c2[H])c([H])c(S(=O)(=O)C(F)(F)F)c1Cl


 32 34  0  0  0  0  0  0  0  0999 V2000
  -13.6024   -8.5074    7.3776 C   0  0  0  0  0  0  0  0  0  0  0  0
  -12.6378   -8.0010    6.7628 O   0  0  0  0  0  0  0  0  0  0  0  0
  -14.8129   -8.7917    6.7670 N   0  0  0  0  0  0  0  0  0  0  0  0
  -15.5510   -9.2327    7.4176 H   0  0  0  0  0  0  0  0  0  0  0  0
  -15.2402   -8.6037    5.4403 C   0  0  0  0  0  0  0  0  0  0  0  0
  -14.5626   -9.1311    4.3688 C   0  0  0  0  0  0  0  0  0  0  0  0
  -15.0611   -8.9103    3.0861 C   0  0  0  0  0  0  0  0  0  0  0  0
  -16.2233   -8.1696    2.8890 C   0  0  0  0  0  0  0  0  0  0  0  0
  -16.8483   -7.9596    1.2566 Cl  0  0  0  0  0  0  0  0  0  0  0  0
  -16.9224   -7.6283    3.9323 C   0  0  0  0  0  0  0  0  0  0  0  0
  -16.4092   -7.8610    5.1981 C   0  0  0  0  0  0  0  0  0  0  0  0
  -18.3551   -6.6473    3.7672 S   0  0  0  0  0  0  0  0  0  0  0  0
  -19.5624   -7.3531    4.3446 O   0  0  0  0  0  0  0  0  0  0  0  0
  -18.6898   -6.4354    2.2956 O   0  0  0  0  0  0  0  0  0  0  0  0
  -18.2608   -5.0677    4.5060 C   0  0  0  0  0  0  0  0  0  0  0  0
  -19.4276   -4.3370    4.2676 F   0  0  0  0  0  0  0  0  0  0  0  0
  -17.9227   -5.1400    5.8126 F   0  0  0  0  0  0  0  0  0  0  0  0
  -17.2649   -4.2864    3.8688 F   0  0  0  0  0  0  0  0  0  0  0  0
  -12.8466   -9.2214   11.5644 C   0  0  0  0  0  0  0  0  0  0  0  0
  -13.1482  -10.2616   10.6783 C   0  0  0  0  0  0  0  0  0  0  0  0
  -13.3972  -10.0557    9.3339 C   0  0  0  0  0  0  0  0  0  0  0  0
  -13.3529   -8.7845    8.8191 C   0  0  0  0  0  0  0  0  0  0  0  0
  -13.0589   -7.7699    9.6840 C   0  0  0  0  0  0  0  0  0  0  0  0
  -12.8014   -7.9512   11.0562 C   0  0  0  0  0  0  0  0  0  0  0  0
  -13.6454   -9.3914   13.8375 C   0  0  0  0  0  0  0  0  0  0  0  0
  -12.6122   -9.5293   12.8953 O   0  0  0  0  0  0  0  0  0  0  0  0
  -12.5223   -6.8700   11.8087 O   0  0  0  0  0  0  0  0  0  0  0  0
  -12.2787   -5.5696   11.5712 C   0  0  0  0  0  0  0  0  0  0  0  0
  -13.4411   -4.9097   10.8127 C   0  0  0  0  0  0  0  0  0  0  0  0
  -12.7874   -3.6967   10.2020 C   0  0  0  0  0  0  0  0  0  0  0  0
  -11.2985   -3.9987   10.1305 C   0  0  0  0  0  0  0  0  0  0  0  0
  -11.2095   -5.4782   10.4576 C   0  0  0  0  0  0  0  0  0  0  0  0
 25 26  1  0  0  0
 26 19  1  0  0  0
 19 20  2  0  0  0
 20 21  1  0  0  0
 21 22  2  0  0  0
 22 23  1  0  0  0
 23 24  2  0  0  0
 24 27  1  0  0  0
 27 28  1  0  0  0
 28 29  1  0  0  0
 29 30  1  0  0  0
 30 31  1  0  0  0
 31 32  1  0  0  0
 22  1  1  0  0  0
  1  2  2  0  0  0
  1  3  1  0  0  0
  3  5  1  0  0  0
  5  6  2  0  0  0
  6  7  1  0  0  0
  7  8  2  0  0  0
  8  9  1  0  0  0
  8 10  1  0  0  0
 10 11  2  0  0  0
 10 12  1  0  0  0
 12 13  2  0  0  0
 12 14  2  0  0  0
 12 15  1  0  0  0
 15 16  1  0  0  0
 15 17  1  0  0  0
 15 18  1  0  0  0
 24 19  1  0  0  0
 32 28  1  0  0  0
 11  5  1  0  0  0
  3  4  1  0  0  0
M  END
> <minimizedAffinity>
13.51741

> <CNNscore>
0.5808135867

> <CNNaffinity>
7.2018065453

> <CNN_VS>
4.1829071045

> <CNNaffinity_variance>
1.5426473618

$$$$
[H]c1c([H])c(N([H])C(=O)c2c([H])c([H])c(OC([H])([H])[H])c(OC3([H])C([H])([H])C([H])([H])C([H])([H])C3([H])[H])c2[H])c([H])c(S(=O)(=O)C(F)(F)F)c1Cl


 32 34  0  0  0  0  0  0  0  0999 V2000
  -14.0122   -7.2616    8.0082 C   0  0  0  0  0  0  0  0  0  0  0  0
  -15.1710   -7.4579    8.4366 O   0  0  0  0  0  0  0  0  0  0  0  0
  -13.6635   -7.4479    6.6805 N   0  0  0  0  0  0  0  0  0  0  0  0
  -12.6314   -7.2340    6.4534 H   0  0  0  0  0  0  0  0  0  0  0  0
  -14.4303   -7.8670    5.5785 C   0  0  0  0  0  0  0  0  0  0  0  0
  -14.1173   -8.9877    4.8496 C   0  0  0  0  0  0  0  0  0  0  0  0
  -14.9378   -9.3425    3.7802 C   0  0  0  0  0  0  0  0  0  0  0  0
  -16.0546   -8.5785    3.4525 C   0  0  0  0  0  0  0  0  0  0  0  0
  -17.0946   -9.0915    2.1280 Cl  0  0  0  0  0  0  0  0  0  0  0  0
  -16.3951   -7.4558    4.1552 C   0  0  0  0  0  0  0  0  0  0  0  0
  -15.5662   -7.1226    5.2142 C   0  0  0  0  0  0  0  0  0  0  0  0
  -17.7453   -6.4179    3.7785 S   0  0  0  0  0  0  0  0  0  0  0  0
  -19.0466   -7.1890    3.8177 O   0  0  0  0  0  0  0  0  0  0  0  0
  -17.6378   -5.9004    2.3491 O   0  0  0  0  0  0  0  0  0  0  0  0
  -17.9225   -5.0258    4.8178 C   0  0  0  0  0  0  0  0  0  0  0  0
  -18.0699   -5.4165    6.1512 F   0  0  0  0  0  0  0  0  0  0  0  0
  -16.9380   -4.1207    4.6228 F   0  0  0  0  0  0  0  0  0  0  0  0
  -19.1460   -4.3637    4.5473 F   0  0  0  0  0  0  0  0  0  0  0  0
  -11.1020   -6.0006   10.9325 C   0  0  0  0  0  0  0  0  0  0  0  0
  -12.4769   -5.8434   11.1402 C   0  0  0  0  0  0  0  0  0  0  0  0
  -13.4269   -6.2369   10.2159 C   0  0  0  0  0  0  0  0  0  0  0  0
  -13.0314   -6.8102    9.0335 C   0  0  0  0  0  0  0  0  0  0  0  0
  -11.6900   -6.9632    8.8311 C   0  0  0  0  0  0  0  0  0  0  0  0
  -10.7020   -6.5718    9.7545 C   0  0  0  0  0  0  0  0  0  0  0  0
  -10.6511   -5.5338   13.2590 C   0  0  0  0  0  0  0  0  0  0  0  0
  -10.2278   -5.5742   11.9198 O   0  0  0  0  0  0  0  0  0  0  0  0
   -9.4085   -6.7753    9.4405 O   0  0  0  0  0  0  0  0  0  0  0  0
   -8.7453   -7.4048    8.4553 C   0  0  0  0  0  0  0  0  0  0  0  0
   -7.2984   -7.7216    8.8653 C   0  0  0  0  0  0  0  0  0  0  0  0
   -6.6143   -7.9087    7.5354 C   0  0  0  0  0  0  0  0  0  0  0  0
   -7.4578   -7.1692    6.5083 C   0  0  0  0  0  0  0  0  0  0  0  0
   -8.4384   -6.3704    7.3475 C   0  0  0  0  0  0  0  0  0  0  0  0
 25 26  1  0  0  0
 26 19  1  0  0  0
 19 20  2  0  0  0
 20 21  1  0  0  0
 21 22  2  0  0  0
 22 23  1  0  0  0
 23 24  2  0  0  0
 24 27  1  0  0  0
 27 28  1  0  0  0
 28 29  1  0  0  0
 29 30  1  0  0  0
 30 31  1  0  0  0
 31 32  1  0  0  0
 22  1  1  0  0  0
  1  2  2  0  0  0
  1  3  1  0  0  0
  3  5  1  0  0  0
  5  6  2  0  0  0
  6  7  1  0  0  0
  7  8  2  0  0  0
  8  9  1  0  0  0
  8 10  1  0  0  0
 10 11  2  0  0  0
 10 12  1  0  0  0
 12 13  2  0  0  0
 12 14  2  0  0  0
 12 15  1  0  0  0
 15 16  1  0  0  0
 15 17  1  0  0  0
 15 18  1  0  0  0
 24 19  1  0  0  0
 32 28  1  0  0  0
 11  5  1  0  0  0
  3  4  1  0  0  0
M  END
> <minimizedAffinity>
-2.84683

> <CNNscore>
0.4779412150

> <CNNaffinity>
6.9167661667

> <CNN_VS>
3.3058075905

> <CNNaffinity_variance>
0.2016879022

$$$$
[H]c1c([H])c(N([H])C(=O)c2c([H])c([H])c(OC([H])([H])[H])c(OC3([H])C([H])([H])C([H])([H])C([H])([H])C3([H])[H])c2[H])c([H])c(S(=O)(=O)C(F)(F)F)c1Cl


 32 34  0  0  0  0  0  0  0  0999 V2000
   -8.8813   -9.4367    6.5716 C   0  0  0  0  0  0  0  0  0  0  0  0
   -7.6630   -9.2695    6.3422 O   0  0  0  0  0  0  0  0  0  0  0  0
   -9.5965  -10.5122    6.0707 N   0  0  0  0  0  0  0  0  0  0  0  0
  -10.6363  -10.5313    6.3555 H   0  0  0  0  0  0  0  0  0  0  0  0
   -9.1935  -11.5846    5.2548 C   0  0  0  0  0  0  0  0  0  0  0  0
   -9.1462  -12.8783    5.7126 C   0  0  0  0  0  0  0  0  0  0  0  0
   -8.7493  -13.8856    4.8349 C   0  0  0  0  0  0  0  0  0  0  0  0
   -8.4059  -13.5916    3.5182 C   0  0  0  0  0  0  0  0  0  0  0  0
   -7.9618  -14.9003    2.4276 Cl  0  0  0  0  0  0  0  0  0  0  0  0
   -8.4397  -12.3149    3.0291 C   0  0  0  0  0  0  0  0  0  0  0  0
   -8.8378  -11.3300    3.9186 C   0  0  0  0  0  0  0  0  0  0  0  0
   -7.9770  -11.8569    1.4110 S   0  0  0  0  0  0  0  0  0  0  0  0
   -6.9183  -10.7763    1.4374 O   0  0  0  0  0  0  0  0  0  0  0  0
   -9.1570  -11.2336    0.6750 O   0  0  0  0  0  0  0  0  0  0  0  0
   -7.3793  -13.1604    0.4143 C   0  0  0  0  0  0  0  0  0  0  0  0
   -6.7610  -12.6633   -0.7359 F   0  0  0  0  0  0  0  0  0  0  0  0
   -6.6093  -14.0213    1.1160 F   0  0  0  0  0  0  0  0  0  0  0  0
   -8.4599  -13.9127   -0.1100 F   0  0  0  0  0  0  0  0  0  0  0  0
  -10.7829   -6.4261    9.0068 C   0  0  0  0  0  0  0  0  0  0  0  0
   -9.3911   -6.5547    8.9406 C   0  0  0  0  0  0  0  0  0  0  0  0
   -8.7604   -7.5140    8.1700 C   0  0  0  0  0  0  0  0  0  0  0  0
   -9.5088   -8.3917    7.4267 C   0  0  0  0  0  0  0  0  0  0  0  0
  -10.8667   -8.2659    7.4917 C   0  0  0  0  0  0  0  0  0  0  0  0
  -11.5343   -7.2993    8.2675 C   0  0  0  0  0  0  0  0  0  0  0  0
  -11.2859   -5.5659   11.2071 C   0  0  0  0  0  0  0  0  0  0  0  0
  -11.3209   -5.4319    9.8088 O   0  0  0  0  0  0  0  0  0  0  0  0
  -12.8805   -7.2749    8.2494 O   0  0  0  0  0  0  0  0  0  0  0  0
  -13.8619   -7.7496    9.0357 C   0  0  0  0  0  0  0  0  0  0  0  0
  -14.3499   -6.6843   10.0301 C   0  0  0  0  0  0  0  0  0  0  0  0
  -15.0054   -7.5140   11.1041 C   0  0  0  0  0  0  0  0  0  0  0  0
  -14.3978   -8.9049   11.0061 C   0  0  0  0  0  0  0  0  0  0  0  0
  -13.2294   -8.7271   10.0536 C   0  0  0  0  0  0  0  0  0  0  0  0
 25 26  1  0  0  0
 26 19  1  0  0  0
 19 20  2  0  0  0
 20 21  1  0  0  0
 21 22  2  0  0  0
 22 23  1  0  0  0
 23 24  2  0  0  0
 24 27  1  0  0  0
 27 28  1  0  0  0
 28 29  1  0  0  0
 29 30  1  0  0  0
 30 31  1  0  0  0
 31 32  1  0  0  0
 22  1  1  0  0  0
  1  2  2  0  0  0
  1  3  1  0  0  0
  3  5  1  0  0  0
  5  6  2  0  0  0
  6  7  1  0  0  0
  7  8  2  0  0  0
  8  9  1  0  0  0
  8 10  1  0  0  0
 10 11  2  0  0  0
 10 12  1  0  0  0
 12 13  2  0  0  0
 12 14  2  0  0  0
 12 15  1  0  0  0
 15 16  1  0  0  0
 15 17  1  0  0  0
 15 18  1  0  0  0
 24 19  1  0  0  0
 32 28  1  0  0  0
 11  5  1  0  0  0
  3  4  1  0  0  0
M  END
> <minimizedAffinity>
10.31701

> <CNNscore>
0.4597056210

> <CNNaffinity>
6.1434597969

> <CNN_VS>
2.8241829872

> <CNNaffinity_variance>
0.7889927626

$$$$
[H]c1c([H])c(N([H])C(=O)c2c([H])c([H])c(OC([H])([H])[H])c(OC3([H])C([H])([H])C([H])([H])C([H])([H])C3([H])[H])c2[H])c([H])c(S(=O)(=O)C(F)(F)F)c1Cl


 32 34  0  0  0  0  0  0  0  0999 V2000
   -6.4255   -7.3522    7.0093 C   0  0  0  0  0  0  0  0  0  0  0  0
   -6.5548   -7.4742    5.7710 O   0  0  0  0  0  0  0  0  0  0  0  0
   -7.3942   -7.7692    7.9076 N   0  0  0  0  0  0  0  0  0  0  0  0
   -7.1444   -7.6076    8.9439 H   0  0  0  0  0  0  0  0  0  0  0  0
   -8.6480   -8.3699    7.6948 C   0  0  0  0  0  0  0  0  0  0  0  0
   -8.7810   -9.6036    7.1069 C   0  0  0  0  0  0  0  0  0  0  0  0
  -10.0594  -10.1348    6.9456 C   0  0  0  0  0  0  0  0  0  0  0  0
  -11.1838   -9.4322    7.3703 C   0  0  0  0  0  0  0  0  0  0  0  0
  -12.7762  -10.1624    7.1966 Cl  0  0  0  0  0  0  0  0  0  0  0  0
  -11.0888   -8.2009    7.9577 C   0  0  0  0  0  0  0  0  0  0  0  0
   -9.8087   -7.6928    8.1087 C   0  0  0  0  0  0  0  0  0  0  0  0
  -12.4482   -7.2355    8.4698 S   0  0  0  0  0  0  0  0  0  0  0  0
  -13.3075   -6.8428    7.2880 O   0  0  0  0  0  0  0  0  0  0  0  0
  -11.9714   -5.9161    9.0651 O   0  0  0  0  0  0  0  0  0  0  0  0
  -13.4876   -7.9885    9.6541 C   0  0  0  0  0  0  0  0  0  0  0  0
  -14.7485   -8.2521    9.1128 F   0  0  0  0  0  0  0  0  0  0  0  0
  -12.9056   -9.0664   10.2251 F   0  0  0  0  0  0  0  0  0  0  0  0
  -13.7788   -7.0787   10.7008 F   0  0  0  0  0  0  0  0  0  0  0  0
   -2.7742   -5.4864    8.3499 C   0  0  0  0  0  0  0  0  0  0  0  0
   -2.8430   -6.2015    7.1491 C   0  0  0  0  0  0  0  0  0  0  0  0
   -4.0010   -6.8103    6.7017 C   0  0  0  0  0  0  0  0  0  0  0  0
   -5.1488   -6.7248    7.4489 C   0  0  0  0  0  0  0  0  0  0  0  0
   -5.0812   -6.0272    8.6205 C   0  0  0  0  0  0  0  0  0  0  0  0
   -3.9163   -5.3982    9.0993 C   0  0  0  0  0  0  0  0  0  0  0  0
   -1.2316   -3.6311    8.2407 C   0  0  0  0  0  0  0  0  0  0  0  0
   -1.5664   -4.9115    8.7126 O   0  0  0  0  0  0  0  0  0  0  0  0
   -3.9748   -4.7382   10.2716 O   0  0  0  0  0  0  0  0  0  0  0  0
   -3.8124   -5.0608   11.5664 C   0  0  0  0  0  0  0  0  0  0  0  0
   -5.1553   -5.0784   12.3136 C   0  0  0  0  0  0  0  0  0  0  0  0
   -4.7321   -4.9252   13.7520 C   0  0  0  0  0  0  0  0  0  0  0  0
   -3.3557   -4.2784   13.7305 C   0  0  0  0  0  0  0  0  0  0  0  0
   -3.1763   -3.8486   12.2858 C   0  0  0  0  0  0  0  0  0  0  0  0
 25 26  1  0  0  0
 26 19  1  0  0  0
 19 20  2  0  0  0
 20 21  1  0  0  0
 21 22  2  0  0  0
 22 23  1  0  0  0
 23 24  2  0  0  0
 24 27  1  0  0  0
 27 28  1  0  0  0
 28 29  1  0  0  0
 29 30  1  0  0  0
 30 31  1  0  0  0
 31 32  1  0  0  0
 22  1  1  0  0  0
  1  2  2  0  0  0
  1  3  1  0  0  0
  3  5  1  0  0  0
  5  6  2  0  0  0
  6  7  1  0  0  0
  7  8  2  0  0  0
  8  9  1  0  0  0
  8 10  1  0  0  0
 10 11  2  0  0  0
 10 12  1  0  0  0
 12 13  2  0  0  0
 12 14  2  0  0  0
 12 15  1  0  0  0
 15 16  1  0  0  0
 15 17  1  0  0  0
 15 18  1  0  0  0
 24 19  1  0  0  0
 32 28  1  0  0  0
 11  5  1  0  0  0
  3  4  1  0  0  0
M  END
> <minimizedAffinity>
-7.56651

> <CNNscore>
0.3798969984

> <CNNaffinity>
6.1586976051

> <CNN_VS>
2.3396706581

> <CNNaffinity_variance>
0.0877966583

$$$$
[H]c1c([H])c(N([H])C(=O)c2c([H])c([H])c(OC([H])([H])[H])c(OC3([H])C([H])([H])C([H])([H])C([H])([H])C3([H])[H])c2[H])c([H])c(S(=O)(=O)C(F)(F)F)c1Cl


 32 34  0  0  0  0  0  0  0  0999 V2000
  -14.1883   -6.3809    7.5110 C   0  0  0  0  0  0  0  0  0  0  0  0
  -14.8555   -7.4363    7.4335 O   0  0  0  0  0  0  0  0  0  0  0  0
  -14.3141   -5.3472    6.5975 N   0  0  0  0  0  0  0  0  0  0  0  0
  -13.6814   -4.4963    6.7928 H   0  0  0  0  0  0  0  0  0  0  0  0
  -15.1304   -5.2202    5.4591 C   0  0  0  0  0  0  0  0  0  0  0  0
  -14.9642   -4.2089    4.5454 C   0  0  0  0  0  0  0  0  0  0  0  0
  -15.8068   -4.1629    3.4360 C   0  0  0  0  0  0  0  0  0  0  0  0
  -16.7999   -5.1213    3.2530 C   0  0  0  0  0  0  0  0  0  0  0  0
  -17.8074   -5.0577    1.8108 Cl  0  0  0  0  0  0  0  0  0  0  0  0
  -16.9948   -6.1409    4.1433 C   0  0  0  0  0  0  0  0  0  0  0  0
  -16.1456   -6.1674    5.2377 C   0  0  0  0  0  0  0  0  0  0  0  0
  -18.2462   -7.3490    4.0137 S   0  0  0  0  0  0  0  0  0  0  0  0
  -18.3659   -7.8522    2.5919 O   0  0  0  0  0  0  0  0  0  0  0  0
  -19.6077   -6.7429    4.3323 O   0  0  0  0  0  0  0  0  0  0  0  0
  -18.0455   -8.7382    5.0527 C   0  0  0  0  0  0  0  0  0  0  0  0
  -19.2401   -9.4548    5.1607 F   0  0  0  0  0  0  0  0  0  0  0  0
  -16.9888   -9.4963    4.6847 F   0  0  0  0  0  0  0  0  0  0  0  0
  -17.8061   -8.3233    6.3864 F   0  0  0  0  0  0  0  0  0  0  0  0
  -11.3945   -6.2427   10.7952 C   0  0  0  0  0  0  0  0  0  0  0  0
  -12.7381   -5.8838   10.9501 C   0  0  0  0  0  0  0  0  0  0  0  0
  -13.6499   -5.9171    9.9113 C   0  0  0  0  0  0  0  0  0  0  0  0
  -13.2461   -6.3164    8.6621 C   0  0  0  0  0  0  0  0  0  0  0  0
  -11.9352   -6.6664    8.5113 C   0  0  0  0  0  0  0  0  0  0  0  0
  -10.9863   -6.6416    9.5510 C   0  0  0  0  0  0  0  0  0  0  0  0
  -11.0278   -5.6220   13.1004 C   0  0  0  0  0  0  0  0  0  0  0  0
  -10.5575   -6.1761   11.8979 O   0  0  0  0  0  0  0  0  0  0  0  0
   -9.7203   -7.0105    9.2780 O   0  0  0  0  0  0  0  0  0  0  0  0
   -9.0707   -7.5016    8.2086 C   0  0  0  0  0  0  0  0  0  0  0  0
   -7.7011   -8.0788    8.5995 C   0  0  0  0  0  0  0  0  0  0  0  0
   -6.9564   -8.0719    7.2891 C   0  0  0  0  0  0  0  0  0  0  0  0
   -7.6379   -7.0339    6.4108 C   0  0  0  0  0  0  0  0  0  0  0  0
   -8.5725   -6.3078    7.3611 C   0  0  0  0  0  0  0  0  0  0  0  0
 25 26  1  0  0  0
 26 19  1  0  0  0
 19 20  2  0  0  0
 20 21  1  0  0  0
 21 22  2  0  0  0
 22 23  1  0  0  0
 23 24  2  0  0  0
 24 27  1  0  0  0
 27 28  1  0  0  0
 28 29  1  0  0  0
 29 30  1  0  0  0
 30 31  1  0  0  0
 31 32  1  0  0  0
 22  1  1  0  0  0
  1  2  2  0  0  0
  1  3  1  0  0  0
  3  5  1  0  0  0
  5  6  2  0  0  0
  6  7  1  0  0  0
  7  8  2  0  0  0
  8  9  1  0  0  0
  8 10  1  0  0  0
 10 11  2  0  0  0
 10 12  1  0  0  0
 12 13  2  0  0  0
 12 14  2  0  0  0
 12 15  1  0  0  0
 15 16  1  0  0  0
 15 17  1  0  0  0
 15 18  1  0  0  0
 24 19  1  0  0  0
 32 28  1  0  0  0
 11  5  1  0  0  0
  3  4  1  0  0  0
M  END
> <minimizedAffinity>
-1.80365

> <CNNscore>
0.3740977049

> <CNNaffinity>
6.6209197044

> <CNN_VS>
2.4768707752

> <CNNaffinity_variance>
0.1262252629

$$$$
[H]c1c([H])c(N([H])C(=O)c2c([H])c([H])c(OC([H])([H])[H])c(OC3([H])C([H])([H])C([H])([H])C([H])([H])C3([H])[H])c2[H])c([H])c(S(=O)(=O)C(F)(F)F)c1Cl


 32 34  0  0  0  0  0  0  0  0999 V2000
  -11.9923   -7.2131    7.3452 C   0  0  0  0  0  0  0  0  0  0  0  0
  -12.4636   -6.7276    8.3974 O   0  0  0  0  0  0  0  0  0  0  0  0
  -12.6552   -7.1521    6.1304 N   0  0  0  0  0  0  0  0  0  0  0  0
  -12.1267   -7.6061    5.3075 H   0  0  0  0  0  0  0  0  0  0  0  0
  -13.9011   -6.5955    5.7896 C   0  0  0  0  0  0  0  0  0  0  0  0
  -14.0136   -5.4102    5.1057 C   0  0  0  0  0  0  0  0  0  0  0  0
  -15.2860   -4.9345    4.7940 C   0  0  0  0  0  0  0  0  0  0  0  0
  -16.4249   -5.6431    5.1669 C   0  0  0  0  0  0  0  0  0  0  0  0
  -18.0113   -5.0343    4.7068 Cl  0  0  0  0  0  0  0  0  0  0  0  0
  -16.3503   -6.8254    5.8502 C   0  0  0  0  0  0  0  0  0  0  0  0
  -15.0759   -7.2797    6.1485 C   0  0  0  0  0  0  0  0  0  0  0  0
  -17.7267   -7.7465    6.3974 S   0  0  0  0  0  0  0  0  0  0  0  0
  -18.7365   -6.8527    7.0835 O   0  0  0  0  0  0  0  0  0  0  0  0
  -17.3059   -8.7533    7.4613 O   0  0  0  0  0  0  0  0  0  0  0  0
  -18.5663   -8.6357    5.1508 C   0  0  0  0  0  0  0  0  0  0  0  0
  -19.1976   -7.7651    4.2587 F   0  0  0  0  0  0  0  0  0  0  0  0
  -17.7647   -9.5424    4.5493 F   0  0  0  0  0  0  0  0  0  0  0  0
  -19.6520   -9.3561    5.7083 F   0  0  0  0  0  0  0  0  0  0  0  0
   -8.0933   -9.0117    7.7616 C   0  0  0  0  0  0  0  0  0  0  0  0
   -9.2553   -9.7820    7.6410 C   0  0  0  0  0  0  0  0  0  0  0  0
  -10.5150   -9.2273    7.5101 C   0  0  0  0  0  0  0  0  0  0  0  0
  -10.6610   -7.8629    7.4944 C   0  0  0  0  0  0  0  0  0  0  0  0
   -9.5271   -7.1117    7.6122 C   0  0  0  0  0  0  0  0  0  0  0  0
   -8.2333   -7.6501    7.7468 C   0  0  0  0  0  0  0  0  0  0  0  0
   -6.8418  -11.0223    8.2359 C   0  0  0  0  0  0  0  0  0  0  0  0
   -6.8756   -9.6613    7.8882 O   0  0  0  0  0  0  0  0  0  0  0  0
   -7.1907   -6.8047    7.8551 O   0  0  0  0  0  0  0  0  0  0  0  0
   -5.8931   -6.8278    7.5051 C   0  0  0  0  0  0  0  0  0  0  0  0
   -5.0996   -5.7204    8.2165 C   0  0  0  0  0  0  0  0  0  0  0  0
   -3.8837   -5.5725    7.3382 C   0  0  0  0  0  0  0  0  0  0  0  0
   -4.2727   -6.1081    5.9688 C   0  0  0  0  0  0  0  0  0  0  0  0
   -5.7771   -6.2882    6.0605 C   0  0  0  0  0  0  0  0  0  0  0  0
 25 26  1  0  0  0
 26 19  1  0  0  0
 19 20  2  0  0  0
 20 21  1  0  0  0
 21 22  2  0  0  0
 22 23  1  0  0  0
 23 24  2  0  0  0
 24 27  1  0  0  0
 27 28  1  0  0  0
 28 29  1  0  0  0
 29 30  1  0  0  0
 30 31  1  0  0  0
 31 32  1  0  0  0
 22  1  1  0  0  0
  1  2  2  0  0  0
  1  3  1  0  0  0
  3  5  1  0  0  0
  5  6  2  0  0  0
  6  7  1  0  0  0
  7  8  2  0  0  0
  8  9  1  0  0  0
  8 10  1  0  0  0
 10 11  2  0  0  0
 10 12  1  0  0  0
 12 13  2  0  0  0
 12 14  2  0  0  0
 12 15  1  0  0  0
 15 16  1  0  0  0
 15 17  1  0  0  0
 15 18  1  0  0  0
 24 19  1  0  0  0
 32 28  1  0  0  0
 11  5  1  0  0  0
  3  4  1  0  0  0
M  END
> <minimizedAffinity>
-2.38043

> <CNNscore>
0.3250252604

> <CNNaffinity>
6.6100730896

> <CNN_VS>
2.1484408379

> <CNNaffinity_variance>
0.7002640367

$$$$
[H]c1c([H])c(N([H])C(=O)c2c([H])c([H])c(OC([H])([H])[H])c(OC3([H])C([H])([H])C([H])([H])C([H])([H])C3([H])[H])c2[H])c([H])c(S(=O)(=O)C(F)(F)F)c1Cl


 32 34  0  0  0  0  0  0  0  0999 V2000
   -7.0196   -7.3522    7.0394 C   0  0  0  0  0  0  0  0  0  0  0  0
   -7.4339   -6.9110    5.9446 O   0  0  0  0  0  0  0  0  0  0  0  0
   -7.8121   -8.1032    7.8920 N   0  0  0  0  0  0  0  0  0  0  0  0
   -7.3206   -8.4221    8.7971 H   0  0  0  0  0  0  0  0  0  0  0  0
   -9.1498   -8.5215    7.7741 C   0  0  0  0  0  0  0  0  0  0  0  0
   -9.5108   -9.6338    7.0547 C   0  0  0  0  0  0  0  0  0  0  0  0
  -10.8576   -9.9884    6.9998 C   0  0  0  0  0  0  0  0  0  0  0  0
  -11.8228   -9.2327    7.6595 C   0  0  0  0  0  0  0  0  0  0  0  0
  -13.5061   -9.7458    7.6089 Cl  0  0  0  0  0  0  0  0  0  0  0  0
  -11.4996   -8.1183    8.3834 C   0  0  0  0  0  0  0  0  0  0  0  0
  -10.1554   -7.7851    8.4249 C   0  0  0  0  0  0  0  0  0  0  0  0
  -12.6517   -7.0905    9.1948 S   0  0  0  0  0  0  0  0  0  0  0  0
  -13.5000   -7.8878   10.1612 O   0  0  0  0  0  0  0  0  0  0  0  0
  -13.6408   -6.5043    8.1945 O   0  0  0  0  0  0  0  0  0  0  0  0
  -11.9583   -5.7525   10.0773 C   0  0  0  0  0  0  0  0  0  0  0  0
  -11.5773   -6.1484   11.3619 F   0  0  0  0  0  0  0  0  0  0  0  0
  -10.9720   -5.1447    9.3813 F   0  0  0  0  0  0  0  0  0  0  0  0
  -12.9455   -4.7680   10.3317 F   0  0  0  0  0  0  0  0  0  0  0  0
   -2.8955   -6.4298    7.9064 C   0  0  0  0  0  0  0  0  0  0  0  0
   -3.9450   -5.9399    8.6918 C   0  0  0  0  0  0  0  0  0  0  0  0
   -5.2736   -6.2196    8.4306 C   0  0  0  0  0  0  0  0  0  0  0  0
   -5.6061   -7.0108    7.3599 C   0  0  0  0  0  0  0  0  0  0  0  0
   -4.5820   -7.4884    6.5938 C   0  0  0  0  0  0  0  0  0  0  0  0
   -3.2216   -7.2193    6.8368 C   0  0  0  0  0  0  0  0  0  0  0  0
   -1.2190   -6.0470    9.6025 C   0  0  0  0  0  0  0  0  0  0  0  0
   -1.5956   -6.0932    8.2496 O   0  0  0  0  0  0  0  0  0  0  0  0
   -2.3012   -7.7487    6.0087 O   0  0  0  0  0  0  0  0  0  0  0  0
   -1.4654   -8.8007    6.0461 C   0  0  0  0  0  0  0  0  0  0  0  0
   -1.7464   -9.7826    4.8977 C   0  0  0  0  0  0  0  0  0  0  0  0
   -1.1270  -11.0613    5.4006 C   0  0  0  0  0  0  0  0  0  0  0  0
   -1.0600  -10.9417    6.9154 C   0  0  0  0  0  0  0  0  0  0  0  0
   -1.8921   -9.7099    7.2221 C   0  0  0  0  0  0  0  0  0  0  0  0
 25 26  1  0  0  0
 26 19  1  0  0  0
 19 20  2  0  0  0
 20 21  1  0  0  0
 21 22  2  0  0  0
 22 23  1  0  0  0
 23 24  2  0  0  0
 24 27  1  0  0  0
 27 28  1  0  0  0
 28 29  1  0  0  0
 29 30  1  0  0  0
 30 31  1  0  0  0
 31 32  1  0  0  0
 22  1  1  0  0  0
  1  2  2  0  0  0
  1  3  1  0  0  0
  3  5  1  0  0  0
  5  6  2  0  0  0
  6  7  1  0  0  0
  7  8  2  0  0  0
  8  9  1  0  0  0
  8 10  1  0  0  0
 10 11  2  0  0  0
 10 12  1  0  0  0
 12 13  2  0  0  0
 12 14  2  0  0  0
 12 15  1  0  0  0
 15 16  1  0  0  0
 15 17  1  0  0  0
 15 18  1  0  0  0
 24 19  1  0  0  0
 32 28  1  0  0  0
 11  5  1  0  0  0
  3  4  1  0  0  0
M  END
> <minimizedAffinity>
-8.25055

> <CNNscore>
0.3035244048

> <CNNaffinity>
6.1895737648

> <CNN_VS>
1.8786866665

> <CNNaffinity_variance>
0.1060539261

$$$$
[H]c1nc(N([H])c2c([H])c([H])c(N3C([H])([H])C([H])([H])C([H])(N4C([H])([H])C([H])([H])N(C([H])([H])[H])C([H])([H])C4([H])[H])C([H])([H])C3([H])[H])c([H])c2OC([H])([H])[H])nc(N([H])c2c([H])c([H])c([H])c([H])c2S(=O)(=O)C([H])(C([H])([H])[H])C([H])([H])[H])c1Cl


 44 48  0  0  0  0  0  0  0  0999 V2000
   -4.7503    1.0562    4.6402 N   0  0  0  0  0  0  0  0  0  0  0  0
   -5.7398    0.6180    4.6414 H   0  0  0  0  0  0  0  0  0  0  0  0
   -4.2616    1.4939    3.3808 C   0  0  0  0  0  0  0  0  0  0  0  0
   -3.6095    2.6342    3.1404 N   0  0  0  0  0  0  0  0  0  0  0  0
   -3.1736    2.9857    1.9243 C   0  0  0  0  0  0  0  0  0  0  0  0
   -3.3924    2.1538    0.8513 C   0  0  0  0  0  0  0  0  0  0  0  0
   -2.8262    2.5994   -0.7554 Cl  0  0  0  0  0  0  0  0  0  0  0  0
   -4.0790    0.9431    1.0784 C   0  0  0  0  0  0  0  0  0  0  0  0
   -4.4733    0.6828    2.3265 N   0  0  0  0  0  0  0  0  0  0  0  0
   -4.2875    0.1116   -0.0327 N   0  0  0  0  0  0  0  0  0  0  0  0
   -4.7163   -0.8433    0.2026 H   0  0  0  0  0  0  0  0  0  0  0  0
   -4.0368    0.3030   -1.3998 C   0  0  0  0  0  0  0  0  0  0  0  0
   -4.9016    1.0611   -2.1604 C   0  0  0  0  0  0  0  0  0  0  0  0
   -4.6662    1.2601   -3.5269 C   0  0  0  0  0  0  0  0  0  0  0  0
   -3.5672    0.6928   -4.0987 C   0  0  0  0  0  0  0  0  0  0  0  0
   -2.7055   -0.0634   -3.3367 C   0  0  0  0  0  0  0  0  0  0  0  0
   -2.9114   -0.2741   -1.9984 C   0  0  0  0  0  0  0  0  0  0  0  0
   -1.8277   -1.2179   -1.0629 S   0  0  0  0  0  0  0  0  0  0  0  0
   -2.5634   -1.8509    0.0914 O   0  0  0  0  0  0  0  0  0  0  0  0
   -0.6577   -0.4591   -0.5020 O   0  0  0  0  0  0  0  0  0  0  0  0
   -1.1262   -2.5709   -1.9879 C   0  0  0  0  0  0  0  0  0  0  0  0
   -0.3101   -3.4546   -1.1015 C   0  0  0  0  0  0  0  0  0  0  0  0
   -2.1153   -3.2731   -2.8571 C   0  0  0  0  0  0  0  0  0  0  0  0
   -3.2164    0.0871    6.2150 C   0  0  0  0  0  0  0  0  0  0  0  0
   -2.5548    0.0691    7.4292 C   0  0  0  0  0  0  0  0  0  0  0  0
   -2.7486    1.0494    8.3768 C   0  0  0  0  0  0  0  0  0  0  0  0
   -3.6354    2.0458    8.0483 C   0  0  0  0  0  0  0  0  0  0  0  0
   -4.3209    2.0941    6.8304 C   0  0  0  0  0  0  0  0  0  0  0  0
   -4.1237    1.1143    5.8901 C   0  0  0  0  0  0  0  0  0  0  0  0
   -2.0514    1.0211    9.6252 N   0  0  0  0  0  0  0  0  0  0  0  0
   -0.8193    1.7252    9.7278 C   0  0  0  0  0  0  0  0  0  0  0  0
   -0.3102    1.9621   11.1219 C   0  0  0  0  0  0  0  0  0  0  0  0
   -0.4435    0.7899   12.0348 C   0  0  0  0  0  0  0  0  0  0  0  0
   -1.3946   -0.2659   11.5078 C   0  0  0  0  0  0  0  0  0  0  0  0
   -2.5588    0.2994   10.7674 C   0  0  0  0  0  0  0  0  0  0  0  0
   -0.7449    1.0480   13.3862 N   0  0  0  0  0  0  0  0  0  0  0  0
   -0.4649    2.3120   13.9276 C   0  0  0  0  0  0  0  0  0  0  0  0
   -0.5082    2.2366   15.4565 C   0  0  0  0  0  0  0  0  0  0  0  0
   -1.6843    1.4744   15.8283 N   0  0  0  0  0  0  0  0  0  0  0  0
   -2.9195    2.1548   15.6035 C   0  0  0  0  0  0  0  0  0  0  0  0
   -1.6385    0.1159   15.3927 C   0  0  0  0  0  0  0  0  0  0  0  0
   -0.5678   -0.0239   14.3126 C   0  0  0  0  0  0  0  0  0  0  0  0
   -3.9394   -1.9460    5.1467 C   0  0  0  0  0  0  0  0  0  0  0  0
   -2.9742   -0.9316    5.3065 O   0  0  0  0  0  0  0  0  0  0  0  0
 43 44  1  0  0  0
 44 24  1  0  0  0
 24 25  2  0  0  0
 25 26  1  0  0  0
 26 27  2  0  0  0
 27 28  1  0  0  0
 28 29  2  0  0  0
 29  1  1  0  0  0
  1  3  1  0  0  0
  3  4  2  0  0  0
  4  5  1  0  0  0
  5  6  2  0  0  0
  6  7  1  0  0  0
  6  8  1  0  0  0
  8 10  1  0  0  0
 10 12  1  0  0  0
 12 13  2  0  0  0
 13 14  1  0  0  0
 14 15  2  0  0  0
 15 16  1  0  0  0
 16 17  2  0  0  0
 17 18  1  0  0  0
 18 19  2  0  0  0
 18 20  2  0  0  0
 18 21  1  0  0  0
 21 22  1  0  0  0
 21 23  1  0  0  0
  8  9  2  0  0  0
 26 30  1  0  0  0
 30 31  1  0  0  0
 31 32  1  0  0  0
 32 33  1  0  0  0
 33 34  1  0  0  0
 34 35  1  0  0  0
 33 36  1  0  0  0
 36 37  1  0  0  0
 37 38  1  0  0  0
 38 39  1  0  0  0
 39 40  1  0  0  0
 39 41  1  0  0  0
 41 42  1  0  0  0
 29 24  1  0  0  0
  9  3  1  0  0  0
 35 30  1  0  0  0
 42 36  1  0  0  0
 17 12  1  0  0  0
  1  2  1  0  0  0
 10 11  1  0  0  0
M  END
> <minimizedAffinity>
-2.63576

> <CNNscore>
0.4953829944

> <CNNaffinity>
6.4014029503

> <CNN_VS>
3.1711461544

> <CNNaffinity_variance>
0.9520605206

$$$$
[H]c1nc(N([H])c2c([H])c([H])c(N3C([H])([H])C([H])([H])C([H])(N4C([H])([H])C([H])([H])N(C([H])([H])[H])C([H])([H])C4([H])[H])C([H])([H])C3([H])[H])c([H])c2OC([H])([H])[H])nc(N([H])c2c([H])c([H])c([H])c([H])c2S(=O)(=O)C([H])(C([H])([H])[H])C([H])([H])[H])c1Cl


 44 48  0  0  0  0  0  0  0  0999 V2000
   -4.7696    1.0468    4.5922 N   0  0  0  0  0  0  0  0  0  0  0  0
   -5.7957    0.7030    4.6015 H   0  0  0  0  0  0  0  0  0  0  0  0
   -4.2292    1.3684    3.3190 C   0  0  0  0  0  0  0  0  0  0  0  0
   -3.5695    2.4850    3.0010 N   0  0  0  0  0  0  0  0  0  0  0  0
   -3.0834    2.7245    1.7767 C   0  0  0  0  0  0  0  0  0  0  0  0
   -3.2557    1.7954    0.7775 C   0  0  0  0  0  0  0  0  0  0  0  0
   -2.6233    2.0930   -0.8387 Cl  0  0  0  0  0  0  0  0  0  0  0  0
   -3.9493    0.6072    1.0874 C   0  0  0  0  0  0  0  0  0  0  0  0
   -4.3952    0.4618    2.3368 N   0  0  0  0  0  0  0  0  0  0  0  0
   -4.1097   -0.3250    0.0507 N   0  0  0  0  0  0  0  0  0  0  0  0
   -4.7232   -1.1679    0.3037 H   0  0  0  0  0  0  0  0  0  0  0  0
   -3.6122   -0.3546   -1.2608 C   0  0  0  0  0  0  0  0  0  0  0  0
   -2.3301   -0.8007   -1.5025 C   0  0  0  0  0  0  0  0  0  0  0  0
   -1.8181   -0.8347   -2.8059 C   0  0  0  0  0  0  0  0  0  0  0  0
   -2.6057   -0.4197   -3.8375 C   0  0  0  0  0  0  0  0  0  0  0  0
   -3.8854    0.0249   -3.5931 C   0  0  0  0  0  0  0  0  0  0  0  0
   -4.4114    0.0687   -2.3285 C   0  0  0  0  0  0  0  0  0  0  0  0
   -6.0079    0.6242   -2.0410 S   0  0  0  0  0  0  0  0  0  0  0  0
   -6.1256    1.1391   -0.6284 O   0  0  0  0  0  0  0  0  0  0  0  0
   -7.0789   -0.4108   -2.2440 O   0  0  0  0  0  0  0  0  0  0  0  0
   -6.4549    1.9931   -3.0920 C   0  0  0  0  0  0  0  0  0  0  0  0
   -7.8074    2.5184   -2.7350 C   0  0  0  0  0  0  0  0  0  0  0  0
   -5.3810    3.0216   -3.2178 C   0  0  0  0  0  0  0  0  0  0  0  0
   -3.2914    0.0608    6.2092 C   0  0  0  0  0  0  0  0  0  0  0  0
   -2.6428    0.0497    7.4304 C   0  0  0  0  0  0  0  0  0  0  0  0
   -2.8059    1.0628    8.3489 C   0  0  0  0  0  0  0  0  0  0  0  0
   -3.6484    2.0846    7.9839 C   0  0  0  0  0  0  0  0  0  0  0  0
   -4.3196    2.1267    6.7579 C   0  0  0  0  0  0  0  0  0  0  0  0
   -4.1532    1.1142    5.8467 C   0  0  0  0  0  0  0  0  0  0  0  0
   -2.1224    1.0411    9.6050 N   0  0  0  0  0  0  0  0  0  0  0  0
   -0.8468    1.6652    9.6917 C   0  0  0  0  0  0  0  0  0  0  0  0
   -0.3344    1.9264   11.0803 C   0  0  0  0  0  0  0  0  0  0  0  0
   -0.5536    0.8055   12.0398 C   0  0  0  0  0  0  0  0  0  0  0  0
   -1.5690   -0.2059   11.5468 C   0  0  0  0  0  0  0  0  0  0  0  0
   -2.6865    0.4039   10.7707 C   0  0  0  0  0  0  0  0  0  0  0  0
   -0.8481    1.1402   13.3758 N   0  0  0  0  0  0  0  0  0  0  0  0
   -0.4562    2.3908   13.8776 C   0  0  0  0  0  0  0  0  0  0  0  0
   -0.5282    2.3756   15.4071 C   0  0  0  0  0  0  0  0  0  0  0  0
   -1.7770    1.7427   15.7846 N   0  0  0  0  0  0  0  0  0  0  0  0
   -2.9382    2.5288   15.5144 C   0  0  0  0  0  0  0  0  0  0  0  0
   -1.8551    0.3711   15.3976 C   0  0  0  0  0  0  0  0  0  0  0  0
   -0.7875    0.0908   14.3420 C   0  0  0  0  0  0  0  0  0  0  0  0
   -4.0915   -1.9629    5.1785 C   0  0  0  0  0  0  0  0  0  0  0  0
   -3.0819   -0.9916    5.3314 O   0  0  0  0  0  0  0  0  0  0  0  0
 43 44  1  0  0  0
 44 24  1  0  0  0
 24 25  2  0  0  0
 25 26  1  0  0  0
 26 27  2  0  0  0
 27 28  1  0  0  0
 28 29  2  0  0  0
 29  1  1  0  0  0
  1  3  1  0  0  0
  3  4  2  0  0  0
  4  5  1  0  0  0
  5  6  2  0  0  0
  6  7  1  0  0  0
  6  8  1  0  0  0
  8 10  1  0  0  0
 10 12  1  0  0  0
 12 13  2  0  0  0
 13 14  1  0  0  0
 14 15  2  0  0  0
 15 16  1  0  0  0
 16 17  2  0  0  0
 17 18  1  0  0  0
 18 19  2  0  0  0
 18 20  2  0  0  0
 18 21  1  0  0  0
 21 22  1  0  0  0
 21 23  1  0  0  0
  8  9  2  0  0  0
 26 30  1  0  0  0
 30 31  1  0  0  0
 31 32  1  0  0  0
 32 33  1  0  0  0
 33 34  1  0  0  0
 34 35  1  0  0  0
 33 36  1  0  0  0
 36 37  1  0  0  0
 37 38  1  0  0  0
 38 39  1  0  0  0
 39 40  1  0  0  0
 39 41  1  0  0  0
 41 42  1  0  0  0
 29 24  1  0  0  0
  9  3  1  0  0  0
 35 30  1  0  0  0
 42 36  1  0  0  0
 17 12  1  0  0  0
  1  2  1  0  0  0
 10 11  1  0  0  0
M  END
> <minimizedAffinity>
-2.80725

> <CNNscore>
0.4270205796

> <CNNaffinity>
6.2122659683

> <CNN_VS>
2.6527655125

> <CNNaffinity_variance>
0.6730067730

$$$$
[H]c1nc(N([H])c2c([H])c([H])c(N3C([H])([H])C([H])([H])C([H])(N4C([H])([H])C([H])([H])N(C([H])([H])[H])C([H])([H])C4([H])[H])C([H])([H])C3([H])[H])c([H])c2OC([H])([H])[H])nc(N([H])c2c([H])c([H])c([H])c([H])c2S(=O)(=O)C([H])(C([H])([H])[H])C([H])([H])[H])c1Cl


 44 48  0  0  0  0  0  0  0  0999 V2000
   -6.3746   -7.2112    8.4811 N   0  0  0  0  0  0  0  0  0  0  0  0
   -6.1701   -7.1918    9.5437 H   0  0  0  0  0  0  0  0  0  0  0  0
   -7.4539   -8.0358    8.0669 C   0  0  0  0  0  0  0  0  0  0  0  0
   -7.3660   -9.3039    7.6576 N   0  0  0  0  0  0  0  0  0  0  0  0
   -8.4282  -10.0266    7.2809 C   0  0  0  0  0  0  0  0  0  0  0  0
   -9.6830   -9.4644    7.3058 C   0  0  0  0  0  0  0  0  0  0  0  0
  -11.0916  -10.3997    6.8141 Cl  0  0  0  0  0  0  0  0  0  0  0  0
   -9.8031   -8.1262    7.7342 C   0  0  0  0  0  0  0  0  0  0  0  0
   -8.6850   -7.4900    8.0893 N   0  0  0  0  0  0  0  0  0  0  0  0
  -11.0944   -7.5770    7.7521 N   0  0  0  0  0  0  0  0  0  0  0  0
  -11.6615   -7.7489    6.8577 H   0  0  0  0  0  0  0  0  0  0  0  0
  -11.7808   -6.8421    8.7304 C   0  0  0  0  0  0  0  0  0  0  0  0
  -11.0956   -5.9571    9.5358 C   0  0  0  0  0  0  0  0  0  0  0  0
  -11.7662   -5.2173   10.5184 C   0  0  0  0  0  0  0  0  0  0  0  0
  -13.1101   -5.3833   10.6699 C   0  0  0  0  0  0  0  0  0  0  0  0
  -13.7914   -6.2674    9.8643 C   0  0  0  0  0  0  0  0  0  0  0  0
  -13.1609   -7.0036    8.8955 C   0  0  0  0  0  0  0  0  0  0  0  0
  -14.0243   -8.0999    7.8993 S   0  0  0  0  0  0  0  0  0  0  0  0
  -15.4967   -8.0328    8.2181 O   0  0  0  0  0  0  0  0  0  0  0  0
  -13.5920   -9.5343    8.0225 O   0  0  0  0  0  0  0  0  0  0  0  0
  -13.8874   -7.7023    6.1668 C   0  0  0  0  0  0  0  0  0  0  0  0
  -14.2144   -8.8899    5.3209 C   0  0  0  0  0  0  0  0  0  0  0  0
  -14.5828   -6.4368    5.7903 C   0  0  0  0  0  0  0  0  0  0  0  0
   -4.6336   -5.5595    8.3669 C   0  0  0  0  0  0  0  0  0  0  0  0
   -3.7673   -4.7383    7.6688 C   0  0  0  0  0  0  0  0  0  0  0  0
   -3.7396   -4.7143    6.2922 C   0  0  0  0  0  0  0  0  0  0  0  0
   -4.6204   -5.5516    5.6516 C   0  0  0  0  0  0  0  0  0  0  0  0
   -5.5094   -6.3940    6.3265 C   0  0  0  0  0  0  0  0  0  0  0  0
   -5.5324   -6.4135    7.6984 C   0  0  0  0  0  0  0  0  0  0  0  0
   -2.8326   -3.8649    5.5841 N   0  0  0  0  0  0  0  0  0  0  0  0
   -1.5228   -4.3502    5.3138 C   0  0  0  0  0  0  0  0  0  0  0  0
   -0.7380   -3.5886    4.2828 C   0  0  0  0  0  0  0  0  0  0  0  0
   -0.8493   -2.1053    4.3945 C   0  0  0  0  0  0  0  0  0  0  0  0
   -2.0093   -1.6624    5.2636 C   0  0  0  0  0  0  0  0  0  0  0  0
   -3.2081   -2.5414    5.1478 C   0  0  0  0  0  0  0  0  0  0  0  0
   -0.8594   -1.3612    3.1987 N   0  0  0  0  0  0  0  0  0  0  0  0
   -0.6527   -2.0164    1.9751 C   0  0  0  0  0  0  0  0  0  0  0  0
   -0.3230   -0.9867    0.8907 C   0  0  0  0  0  0  0  0  0  0  0  0
   -1.2504    0.1186    1.0341 N   0  0  0  0  0  0  0  0  0  0  0  0
   -2.5916   -0.1874    0.6508 C   0  0  0  0  0  0  0  0  0  0  0  0
   -1.1050    0.8219    2.2676 C   0  0  0  0  0  0  0  0  0  0  0  0
   -0.3103   -0.0439    3.2429 C   0  0  0  0  0  0  0  0  0  0  0  0
   -4.0429   -4.4189   10.4034 C   0  0  0  0  0  0  0  0  0  0  0  0
   -4.6087   -5.5335    9.7527 O   0  0  0  0  0  0  0  0  0  0  0  0
 43 44  1  0  0  0
 44 24  1  0  0  0
 24 25  2  0  0  0
 25 26  1  0  0  0
 26 27  2  0  0  0
 27 28  1  0  0  0
 28 29  2  0  0  0
 29  1  1  0  0  0
  1  3  1  0  0  0
  3  4  2  0  0  0
  4  5  1  0  0  0
  5  6  2  0  0  0
  6  7  1  0  0  0
  6  8  1  0  0  0
  8 10  1  0  0  0
 10 12  1  0  0  0
 12 13  2  0  0  0
 13 14  1  0  0  0
 14 15  2  0  0  0
 15 16  1  0  0  0
 16 17  2  0  0  0
 17 18  1  0  0  0
 18 19  2  0  0  0
 18 20  2  0  0  0
 18 21  1  0  0  0
 21 22  1  0  0  0
 21 23  1  0  0  0
  8  9  2  0  0  0
 26 30  1  0  0  0
 30 31  1  0  0  0
 31 32  1  0  0  0
 32 33  1  0  0  0
 33 34  1  0  0  0
 34 35  1  0  0  0
 33 36  1  0  0  0
 36 37  1  0  0  0
 37 38  1  0  0  0
 38 39  1  0  0  0
 39 40  1  0  0  0
 39 41  1  0  0  0
 41 42  1  0  0  0
 29 24  1  0  0  0
  9  3  1  0  0  0
 35 30  1  0  0  0
 42 36  1  0  0  0
 17 12  1  0  0  0
  1  2  1  0  0  0
 10 11  1  0  0  0
M  END
> <minimizedAffinity>
-8.43430

> <CNNscore>
0.3596991301

> <CNNaffinity>
7.2206244469

> <CNN_VS>
2.5972523689

> <CNNaffinity_variance>
0.0801813230

$$$$
[H]c1nc(N([H])c2c([H])c([H])c(N3C([H])([H])C([H])([H])C([H])(N4C([H])([H])C([H])([H])N(C([H])([H])[H])C([H])([H])C4([H])[H])C([H])([H])C3([H])[H])c([H])c2OC([H])([H])[H])nc(N([H])c2c([H])c([H])c([H])c([H])c2S(=O)(=O)C([H])(C([H])([H])[H])C([H])([H])[H])c1Cl


 44 48  0  0  0  0  0  0  0  0999 V2000
   -4.7550    1.3058    5.4290 N   0  0  0  0  0  0  0  0  0  0  0  0
   -5.7565    1.6288    5.6816 H   0  0  0  0  0  0  0  0  0  0  0  0
   -4.2433    1.7677    4.1875 C   0  0  0  0  0  0  0  0  0  0  0  0
   -3.2678    2.6643    4.0208 N   0  0  0  0  0  0  0  0  0  0  0  0
   -2.8312    3.0554    2.8171 C   0  0  0  0  0  0  0  0  0  0  0  0
   -3.3941    2.5268    1.6792 C   0  0  0  0  0  0  0  0  0  0  0  0
   -2.8327    3.0291    0.0876 Cl  0  0  0  0  0  0  0  0  0  0  0  0
   -4.4265    1.5777    1.8279 C   0  0  0  0  0  0  0  0  0  0  0  0
   -4.7912    1.2531    3.0699 N   0  0  0  0  0  0  0  0  0  0  0  0
   -4.9825    1.0524    0.6513 N   0  0  0  0  0  0  0  0  0  0  0  0
   -5.0365   -0.0188    0.6265 H   0  0  0  0  0  0  0  0  0  0  0  0
   -5.4826    1.6757   -0.5019 C   0  0  0  0  0  0  0  0  0  0  0  0
   -6.3027    2.7785   -0.3896 C   0  0  0  0  0  0  0  0  0  0  0  0
   -6.8116    3.4109   -1.5313 C   0  0  0  0  0  0  0  0  0  0  0  0
   -6.4853    2.9212   -2.7602 C   0  0  0  0  0  0  0  0  0  0  0  0
   -5.6662    1.8202   -2.8691 C   0  0  0  0  0  0  0  0  0  0  0  0
   -5.1545    1.1823   -1.7694 C   0  0  0  0  0  0  0  0  0  0  0  0
   -4.1345   -0.1875   -1.9221 S   0  0  0  0  0  0  0  0  0  0  0  0
   -4.6824   -1.3293   -1.1034 O   0  0  0  0  0  0  0  0  0  0  0  0
   -2.7102    0.0399   -1.4989 O   0  0  0  0  0  0  0  0  0  0  0  0
   -4.0490   -0.7926   -3.5969 C   0  0  0  0  0  0  0  0  0  0  0  0
   -2.8365   -1.6433   -3.7940 C   0  0  0  0  0  0  0  0  0  0  0  0
   -5.3310   -1.3823   -4.0823 C   0  0  0  0  0  0  0  0  0  0  0  0
   -3.7051    1.0819    7.5784 C   0  0  0  0  0  0  0  0  0  0  0  0
   -3.0857    0.3416    8.5686 C   0  0  0  0  0  0  0  0  0  0  0  0
   -2.8618   -1.0103    8.4325 C   0  0  0  0  0  0  0  0  0  0  0  0
   -3.2881   -1.5821    7.2584 C   0  0  0  0  0  0  0  0  0  0  0  0
   -3.9172   -0.8630    6.2372 C   0  0  0  0  0  0  0  0  0  0  0  0
   -4.1375    0.4840    6.3786 C   0  0  0  0  0  0  0  0  0  0  0  0
   -2.2266   -1.7641    9.4687 N   0  0  0  0  0  0  0  0  0  0  0  0
   -1.2310   -1.1235   10.2578 C   0  0  0  0  0  0  0  0  0  0  0  0
   -0.8527   -1.8208   11.5343 C   0  0  0  0  0  0  0  0  0  0  0  0
   -0.7010   -3.2994   11.4079 C   0  0  0  0  0  0  0  0  0  0  0  0
   -1.3174   -3.8514   10.1381 C   0  0  0  0  0  0  0  0  0  0  0  0
   -2.5633   -3.1437    9.7259 C   0  0  0  0  0  0  0  0  0  0  0  0
   -1.1077   -4.0913   12.4992 N   0  0  0  0  0  0  0  0  0  0  0  0
   -1.6238   -5.3755   12.2671 C   0  0  0  0  0  0  0  0  0  0  0  0
   -2.3412   -5.8753   13.5242 C   0  0  0  0  0  0  0  0  0  0  0  0
   -1.4992   -5.5700   14.6645 N   0  0  0  0  0  0  0  0  0  0  0  0
   -0.3170   -6.3664   14.7508 C   0  0  0  0  0  0  0  0  0  0  0  0
   -1.3183   -4.1699   14.8747 C   0  0  0  0  0  0  0  0  0  0  0  0
   -1.7149   -3.4211   13.6040 C   0  0  0  0  0  0  0  0  0  0  0  0
   -3.0999    3.1081    8.7298 C   0  0  0  0  0  0  0  0  0  0  0  0
   -3.8992    2.4395    7.7811 O   0  0  0  0  0  0  0  0  0  0  0  0
 43 44  1  0  0  0
 44 24  1  0  0  0
 24 25  2  0  0  0
 25 26  1  0  0  0
 26 27  2  0  0  0
 27 28  1  0  0  0
 28 29  2  0  0  0
 29  1  1  0  0  0
  1  3  1  0  0  0
  3  4  2  0  0  0
  4  5  1  0  0  0
  5  6  2  0  0  0
  6  7  1  0  0  0
  6  8  1  0  0  0
  8 10  1  0  0  0
 10 12  1  0  0  0
 12 13  2  0  0  0
 13 14  1  0  0  0
 14 15  2  0  0  0
 15 16  1  0  0  0
 16 17  2  0  0  0
 17 18  1  0  0  0
 18 19  2  0  0  0
 18 20  2  0  0  0
 18 21  1  0  0  0
 21 22  1  0  0  0
 21 23  1  0  0  0
  8  9  2  0  0  0
 26 30  1  0  0  0
 30 31  1  0  0  0
 31 32  1  0  0  0
 32 33  1  0  0  0
 33 34  1  0  0  0
 34 35  1  0  0  0
 33 36  1  0  0  0
 36 37  1  0  0  0
 37 38  1  0  0  0
 38 39  1  0  0  0
 39 40  1  0  0  0
 39 41  1  0  0  0
 41 42  1  0  0  0
 29 24  1  0  0  0
  9  3  1  0  0  0
 35 30  1  0  0  0
 42 36  1  0  0  0
 17 12  1  0  0  0
  1  2  1  0  0  0
 10 11  1  0  0  0
M  END
> <minimizedAffinity>
-3.15361

> <CNNscore>
0.3371627331

> <CNNaffinity>
6.1073937416

> <CNN_VS>
2.0591855049

> <CNNaffinity_variance>
0.5749549866

$$$$
[H]c1nc(N([H])c2c([H])c([H])c(N3C([H])([H])C([H])([H])C([H])(N4C([H])([H])C([H])([H])N(C([H])([H])[H])C([H])([H])C4([H])[H])C([H])([H])C3([H])[H])c([H])c2OC([H])([H])[H])nc(N([H])c2c([H])c([H])c([H])c([H])c2S(=O)(=O)C([H])(C([H])([H])[H])C([H])([H])[H])c1Cl


 44 48  0  0  0  0  0  0  0  0999 V2000
  -11.9595   -9.8758    7.8999 N   0  0  0  0  0  0  0  0  0  0  0  0
  -11.9657  -10.9326    8.1330 H   0  0  0  0  0  0  0  0  0  0  0  0
  -13.2255   -9.2331    7.8758 C   0  0  0  0  0  0  0  0  0  0  0  0
  -14.0388   -9.0529    8.9195 N   0  0  0  0  0  0  0  0  0  0  0  0
  -15.2227   -8.4347    8.8266 C   0  0  0  0  0  0  0  0  0  0  0  0
  -15.6495   -7.9511    7.6120 C   0  0  0  0  0  0  0  0  0  0  0  0
  -17.2035   -7.1352    7.4707 Cl  0  0  0  0  0  0  0  0  0  0  0  0
  -14.8090   -8.1287    6.4936 C   0  0  0  0  0  0  0  0  0  0  0  0
  -13.6482   -8.7577    6.6887 N   0  0  0  0  0  0  0  0  0  0  0  0
  -15.2670   -7.6244    5.2667 N   0  0  0  0  0  0  0  0  0  0  0  0
  -15.5907   -8.3752    4.5721 H   0  0  0  0  0  0  0  0  0  0  0  0
  -15.3791   -6.3125    4.7822 C   0  0  0  0  0  0  0  0  0  0  0  0
  -14.3756   -5.3988    5.0258 C   0  0  0  0  0  0  0  0  0  0  0  0
  -14.4734   -4.0848    4.5504 C   0  0  0  0  0  0  0  0  0  0  0  0
  -15.5774   -3.7180    3.8409 C   0  0  0  0  0  0  0  0  0  0  0  0
  -16.5775   -4.6325    3.5991 C   0  0  0  0  0  0  0  0  0  0  0  0
  -16.5078   -5.9239    4.0521 C   0  0  0  0  0  0  0  0  0  0  0  0
  -17.7618   -7.0513    3.7413 S   0  0  0  0  0  0  0  0  0  0  0  0
  -17.8294   -7.3497    2.2647 O   0  0  0  0  0  0  0  0  0  0  0  0
  -19.1282   -6.6083    4.1841 O   0  0  0  0  0  0  0  0  0  0  0  0
  -17.4822   -8.6214    4.5382 C   0  0  0  0  0  0  0  0  0  0  0  0
  -18.7508   -9.1570    5.1181 C   0  0  0  0  0  0  0  0  0  0  0  0
  -16.7040   -9.5822    3.7027 C   0  0  0  0  0  0  0  0  0  0  0  0
  -10.4404   -8.0323    8.1567 C   0  0  0  0  0  0  0  0  0  0  0  0
   -9.2171   -7.4165    7.9653 C   0  0  0  0  0  0  0  0  0  0  0  0
   -8.1913   -8.0341    7.2851 C   0  0  0  0  0  0  0  0  0  0  0  0
   -8.4510   -9.2958    6.8079 C   0  0  0  0  0  0  0  0  0  0  0  0
   -9.6760   -9.9470    6.9836 C   0  0  0  0  0  0  0  0  0  0  0  0
  -10.6946   -9.3264    7.6621 C   0  0  0  0  0  0  0  0  0  0  0  0
   -6.9290   -7.3872    7.1015 N   0  0  0  0  0  0  0  0  0  0  0  0
   -6.5492   -7.0069    5.7842 C   0  0  0  0  0  0  0  0  0  0  0  0
   -5.4074   -6.0349    5.6827 C   0  0  0  0  0  0  0  0  0  0  0  0
   -4.2724   -6.3176    6.6084 C   0  0  0  0  0  0  0  0  0  0  0  0
   -4.6401   -7.2809    7.7192 C   0  0  0  0  0  0  0  0  0  0  0  0
   -6.0400   -7.1195    8.2065 C   0  0  0  0  0  0  0  0  0  0  0  0
   -3.5930   -5.2148    7.1614 N   0  0  0  0  0  0  0  0  0  0  0  0
   -3.4926   -5.0930    8.5558 C   0  0  0  0  0  0  0  0  0  0  0  0
   -3.0727   -3.6655    8.9176 C   0  0  0  0  0  0  0  0  0  0  0  0
   -1.9975   -3.2812    8.0239 N   0  0  0  0  0  0  0  0  0  0  0  0
   -0.7598   -3.9480    8.2745 C   0  0  0  0  0  0  0  0  0  0  0  0
   -2.3971   -3.2129    6.6554 C   0  0  0  0  0  0  0  0  0  0  0  0
   -3.7162   -3.9636    6.4847 C   0  0  0  0  0  0  0  0  0  0  0  0
  -11.1049   -6.1367    9.4843 C   0  0  0  0  0  0  0  0  0  0  0  0
  -11.4295   -7.3530    8.8509 O   0  0  0  0  0  0  0  0  0  0  0  0
 43 44  1  0  0  0
 44 24  1  0  0  0
 24 25  2  0  0  0
 25 26  1  0  0  0
 26 27  2  0  0  0
 27 28  1  0  0  0
 28 29  2  0  0  0
 29  1  1  0  0  0
  1  3  1  0  0  0
  3  4  2  0  0  0
  4  5  1  0  0  0
  5  6  2  0  0  0
  6  7  1  0  0  0
  6  8  1  0  0  0
  8 10  1  0  0  0
 10 12  1  0  0  0
 12 13  2  0  0  0
 13 14  1  0  0  0
 14 15  2  0  0  0
 15 16  1  0  0  0
 16 17  2  0  0  0
 17 18  1  0  0  0
 18 19  2  0  0  0
 18 20  2  0  0  0
 18 21  1  0  0  0
 21 22  1  0  0  0
 21 23  1  0  0  0
  8  9  2  0  0  0
 26 30  1  0  0  0
 30 31  1  0  0  0
 31 32  1  0  0  0
 32 33  1  0  0  0
 33 34  1  0  0  0
 34 35  1  0  0  0
 33 36  1  0  0  0
 36 37  1  0  0  0
 37 38  1  0  0  0
 38 39  1  0  0  0
 39 40  1  0  0  0
 39 41  1  0  0  0
 41 42  1  0  0  0
 29 24  1  0  0  0
  9  3  1  0  0  0
 35 30  1  0  0  0
 42 36  1  0  0  0
 17 12  1  0  0  0
  1  2  1  0  0  0
 10 11  1  0  0  0
M  END
> <minimizedAffinity>
-8.35005

> <CNNscore>
0.2464750260

> <CNNaffinity>
7.7619657516

> <CNN_VS>
1.9131307602

> <CNNaffinity_variance>
0.1920362860

$$$$
[H]c1nc(N([H])c2c([H])c([H])c(N3C([H])([H])C([H])([H])C([H])(N4C([H])([H])C([H])([H])N(C([H])([H])[H])C([H])([H])C4([H])[H])C([H])([H])C3([H])[H])c([H])c2OC([H])([H])[H])nc(N([H])c2c([H])c([H])c([H])c([H])c2S(=O)(=O)C([H])(C([H])([H])[H])C([H])([H])[H])c1Cl


 44 48  0  0  0  0  0  0  0  0999 V2000
  -11.4619   -9.8862    8.0803 N   0  0  0  0  0  0  0  0  0  0  0  0
  -11.4040  -10.9228    8.3856 H   0  0  0  0  0  0  0  0  0  0  0  0
  -12.7641   -9.3228    8.0229 C   0  0  0  0  0  0  0  0  0  0  0  0
  -13.4492   -8.8131    9.0496 N   0  0  0  0  0  0  0  0  0  0  0  0
  -14.6772   -8.2945    8.9246 C   0  0  0  0  0  0  0  0  0  0  0  0
  -15.2888   -8.2710    7.6931 C   0  0  0  0  0  0  0  0  0  0  0  0
  -16.9034   -7.5927    7.5096 Cl  0  0  0  0  0  0  0  0  0  0  0  0
  -14.5864   -8.8032    6.5922 C   0  0  0  0  0  0  0  0  0  0  0  0
  -13.3676   -9.2973    6.8191 N   0  0  0  0  0  0  0  0  0  0  0  0
  -15.2319   -8.7653    5.3467 N   0  0  0  0  0  0  0  0  0  0  0  0
  -14.7237   -9.2998    4.5677 H   0  0  0  0  0  0  0  0  0  0  0  0
  -16.4253   -8.1537    4.9341 C   0  0  0  0  0  0  0  0  0  0  0  0
  -17.5808   -8.8983    4.8264 C   0  0  0  0  0  0  0  0  0  0  0  0
  -18.7799   -8.3029    4.4141 C   0  0  0  0  0  0  0  0  0  0  0  0
  -18.7912   -6.9726    4.1190 C   0  0  0  0  0  0  0  0  0  0  0  0
  -17.6360   -6.2319    4.2276 C   0  0  0  0  0  0  0  0  0  0  0  0
  -16.4497   -6.7884    4.6285 C   0  0  0  0  0  0  0  0  0  0  0  0
  -15.0196   -5.8515    4.7599 S   0  0  0  0  0  0  0  0  0  0  0  0
  -13.8775   -6.5596    4.0754 O   0  0  0  0  0  0  0  0  0  0  0  0
  -14.5945   -5.5489    6.1695 O   0  0  0  0  0  0  0  0  0  0  0  0
  -15.1618   -4.2702    3.9491 C   0  0  0  0  0  0  0  0  0  0  0  0
  -16.5379   -4.0753    3.4006 C   0  0  0  0  0  0  0  0  0  0  0  0
  -14.6288   -3.1362    4.7598 C   0  0  0  0  0  0  0  0  0  0  0  0
  -10.0742   -7.9260    8.1464 C   0  0  0  0  0  0  0  0  0  0  0  0
   -8.8922   -7.2524    7.8990 C   0  0  0  0  0  0  0  0  0  0  0  0
   -7.8165   -7.8686    7.2993 C   0  0  0  0  0  0  0  0  0  0  0  0
   -7.9834   -9.1895    6.9610 C   0  0  0  0  0  0  0  0  0  0  0  0
   -9.1645   -9.9001    7.1966 C   0  0  0  0  0  0  0  0  0  0  0  0
  -10.2331   -9.2806    7.7944 C   0  0  0  0  0  0  0  0  0  0  0  0
   -6.5978   -7.1606    7.0566 N   0  0  0  0  0  0  0  0  0  0  0  0
   -6.3328   -6.7031    5.7357 C   0  0  0  0  0  0  0  0  0  0  0  0
   -5.2407   -5.6797    5.5998 C   0  0  0  0  0  0  0  0  0  0  0  0
   -4.0293   -5.9569    6.4250 C   0  0  0  0  0  0  0  0  0  0  0  0
   -4.2749   -6.9860    7.5101 C   0  0  0  0  0  0  0  0  0  0  0  0
   -5.6395   -6.9074    8.1058 C   0  0  0  0  0  0  0  0  0  0  0  0
   -3.3539   -4.8533    6.9812 N   0  0  0  0  0  0  0  0  0  0  0  0
   -3.6452   -3.5603    6.5200 C   0  0  0  0  0  0  0  0  0  0  0  0
   -2.5461   -2.5944    6.9715 C   0  0  0  0  0  0  0  0  0  0  0  0
   -2.2547   -2.8762    8.3637 N   0  0  0  0  0  0  0  0  0  0  0  0
   -3.2850   -2.4814    9.2703 C   0  0  0  0  0  0  0  0  0  0  0  0
   -1.7110   -4.1789    8.5749 C   0  0  0  0  0  0  0  0  0  0  0  0
   -1.9848   -5.0377    7.3419 C   0  0  0  0  0  0  0  0  0  0  0  0
  -10.8454   -6.0298    9.4140 C   0  0  0  0  0  0  0  0  0  0  0  0
  -11.1176   -7.2446    8.7536 O   0  0  0  0  0  0  0  0  0  0  0  0
 43 44  1  0  0  0
 44 24  1  0  0  0
 24 25  2  0  0  0
 25 26  1  0  0  0
 26 27  2  0  0  0
 27 28  1  0  0  0
 28 29  2  0  0  0
 29  1  1  0  0  0
  1  3  1  0  0  0
  3  4  2  0  0  0
  4  5  1  0  0  0
  5  6  2  0  0  0
  6  7  1  0  0  0
  6  8  1  0  0  0
  8 10  1  0  0  0
 10 12  1  0  0  0
 12 13  2  0  0  0
 13 14  1  0  0  0
 14 15  2  0  0  0
 15 16  1  0  0  0
 16 17  2  0  0  0
 17 18  1  0  0  0
 18 19  2  0  0  0
 18 20  2  0  0  0
 18 21  1  0  0  0
 21 22  1  0  0  0
 21 23  1  0  0  0
  8  9  2  0  0  0
 26 30  1  0  0  0
 30 31  1  0  0  0
 31 32  1  0  0  0
 32 33  1  0  0  0
 33 34  1  0  0  0
 34 35  1  0  0  0
 33 36  1  0  0  0
 36 37  1  0  0  0
 37 38  1  0  0  0
 38 39  1  0  0  0
 39 40  1  0  0  0
 39 41  1  0  0  0
 41 42  1  0  0  0
 29 24  1  0  0  0
  9  3  1  0  0  0
 35 30  1  0  0  0
 42 36  1  0  0  0
 17 12  1  0  0  0
  1  2  1  0  0  0
 10 11  1  0  0  0
M  END
> <minimizedAffinity>
-7.96508

> <CNNscore>
0.2440696657

> <CNNaffinity>
7.5486421585

> <CNN_VS>
1.8423945904

> <CNNaffinity_variance>
0.3823916018

$$$$
[H]c1nc(N([H])c2c([H])c([H])c(N3C([H])([H])C([H])([H])C([H])(N4C([H])([H])C([H])([H])N(C([H])([H])[H])C([H])([H])C4([H])[H])C([H])([H])C3([H])[H])c([H])c2OC([H])([H])[H])nc(N([H])c2c([H])c([H])c([H])c([H])c2S(=O)(=O)C([H])(C([H])([H])[H])C([H])([H])[H])c1Cl


 44 48  0  0  0  0  0  0  0  0999 V2000
  -11.6454   -9.9350    7.9947 N   0  0  0  0  0  0  0  0  0  0  0  0
  -11.5993  -10.9900    8.2316 H   0  0  0  0  0  0  0  0  0  0  0  0
  -12.9403   -9.3523    7.9844 C   0  0  0  0  0  0  0  0  0  0  0  0
  -13.5672   -8.8043    9.0284 N   0  0  0  0  0  0  0  0  0  0  0  0
  -14.7919   -8.2693    8.9483 C   0  0  0  0  0  0  0  0  0  0  0  0
  -15.4620   -8.2689    7.7474 C   0  0  0  0  0  0  0  0  0  0  0  0
  -17.0733   -7.5697    7.6230 Cl  0  0  0  0  0  0  0  0  0  0  0  0
  -14.8218   -8.8417    6.6290 C   0  0  0  0  0  0  0  0  0  0  0  0
  -13.6010   -9.3493    6.8106 N   0  0  0  0  0  0  0  0  0  0  0  0
  -15.5263   -8.8267    5.4154 N   0  0  0  0  0  0  0  0  0  0  0  0
  -15.1903   -9.5512    4.6990 H   0  0  0  0  0  0  0  0  0  0  0  0
  -16.5938   -8.0341    4.9676 C   0  0  0  0  0  0  0  0  0  0  0  0
  -17.8417   -8.5933    4.7908 C   0  0  0  0  0  0  0  0  0  0  0  0
  -18.9173   -7.8158    4.3426 C   0  0  0  0  0  0  0  0  0  0  0  0
  -18.7150   -6.4938    4.0818 C   0  0  0  0  0  0  0  0  0  0  0  0
  -17.4681   -5.9383    4.2594 C   0  0  0  0  0  0  0  0  0  0  0  0
  -16.3987   -6.6752    4.6967 C   0  0  0  0  0  0  0  0  0  0  0  0
  -14.8519   -5.9678    4.9139 S   0  0  0  0  0  0  0  0  0  0  0  0
  -13.7862   -6.8883    4.3744 O   0  0  0  0  0  0  0  0  0  0  0  0
  -14.5032   -5.6465    6.3403 O   0  0  0  0  0  0  0  0  0  0  0  0
  -14.6677   -4.4385    4.0163 C   0  0  0  0  0  0  0  0  0  0  0  0
  -14.9400   -3.2660    4.9015 C   0  0  0  0  0  0  0  0  0  0  0  0
  -13.4060   -4.3628    3.2231 C   0  0  0  0  0  0  0  0  0  0  0  0
  -10.2523   -7.9817    8.1212 C   0  0  0  0  0  0  0  0  0  0  0  0
   -9.0646   -7.3073    7.9046 C   0  0  0  0  0  0  0  0  0  0  0  0
   -7.9826   -7.9149    7.3075 C   0  0  0  0  0  0  0  0  0  0  0  0
   -8.1491   -9.2279    6.9394 C   0  0  0  0  0  0  0  0  0  0  0  0
   -9.3358   -9.9389    7.1435 C   0  0  0  0  0  0  0  0  0  0  0  0
  -10.4107   -9.3281    7.7389 C   0  0  0  0  0  0  0  0  0  0  0  0
   -6.7582   -7.2064    7.0969 N   0  0  0  0  0  0  0  0  0  0  0  0
   -6.1585   -6.5477    8.2063 C   0  0  0  0  0  0  0  0  0  0  0  0
   -4.7267   -6.1272    8.0274 C   0  0  0  0  0  0  0  0  0  0  0  0
   -4.4225   -5.5242    6.6974 C   0  0  0  0  0  0  0  0  0  0  0  0
   -5.4981   -5.7950    5.6645 C   0  0  0  0  0  0  0  0  0  0  0  0
   -6.1274   -7.1398    5.8005 C   0  0  0  0  0  0  0  0  0  0  0  0
   -3.1618   -5.7969    6.1318 N   0  0  0  0  0  0  0  0  0  0  0  0
   -2.1168   -6.2435    6.9552 C   0  0  0  0  0  0  0  0  0  0  0  0
   -0.7834   -6.0990    6.2162 C   0  0  0  0  0  0  0  0  0  0  0  0
   -0.9719   -6.5885    4.8644 N   0  0  0  0  0  0  0  0  0  0  0  0
   -1.1272   -8.0049    4.7697 C   0  0  0  0  0  0  0  0  0  0  0  0
   -1.9000   -5.8127    4.1067 C   0  0  0  0  0  0  0  0  0  0  0  0
   -2.7287   -4.9564    5.0620 C   0  0  0  0  0  0  0  0  0  0  0  0
  -11.0271   -6.1403    9.4652 C   0  0  0  0  0  0  0  0  0  0  0  0
  -11.3019   -7.3093    8.7276 O   0  0  0  0  0  0  0  0  0  0  0  0
 43 44  1  0  0  0
 44 24  1  0  0  0
 24 25  2  0  0  0
 25 26  1  0  0  0
 26 27  2  0  0  0
 27 28  1  0  0  0
 28 29  2  0  0  0
 29  1  1  0  0  0
  1  3  1  0  0  0
  3  4  2  0  0  0
  4  5  1  0  0  0
  5  6  2  0  0  0
  6  7  1  0  0  0
  6  8  1  0  0  0
  8 10  1  0  0  0
 10 12  1  0  0  0
 12 13  2  0  0  0
 13 14  1  0  0  0
 14 15  2  0  0  0
 15 16  1  0  0  0
 16 17  2  0  0  0
 17 18  1  0  0  0
 18 19  2  0  0  0
 18 20  2  0  0  0
 18 21  1  0  0  0
 21 22  1  0  0  0
 21 23  1  0  0  0
  8  9  2  0  0  0
 26 30  1  0  0  0
 30 31  1  0  0  0
 31 32  1  0  0  0
 32 33  1  0  0  0
 33 34  1  0  0  0
 34 35  1  0  0  0
 33 36  1  0  0  0
 36 37  1  0  0  0
 37 38  1  0  0  0
 38 39  1  0  0  0
 39 40  1  0  0  0
 39 41  1  0  0  0
 41 42  1  0  0  0
 29 24  1  0  0  0
  9  3  1  0  0  0
 35 30  1  0  0  0
 42 36  1  0  0  0
 17 12  1  0  0  0
  1  2  1  0  0  0
 10 11  1  0  0  0
M  END
> <minimizedAffinity>
-7.27023

> <CNNscore>
0.2338366956

> <CNNaffinity>
7.5488724709

> <CNN_VS>
1.7652033567

> <CNNaffinity_variance>
0.3247708082

$$$$
[H]c1nc(N([H])c2c([H])c([H])c(N3C([H])([H])C([H])([H])C([H])(N4C([H])([H])C([H])([H])N(C([H])([H])[H])C([H])([H])C4([H])[H])C([H])([H])C3([H])[H])c([H])c2OC([H])([H])[H])nc(N([H])c2c([H])c([H])c([H])c([H])c2S(=O)(=O)C([H])(C([H])([H])[H])C([H])([H])[H])c1Cl


 44 48  0  0  0  0  0  0  0  0999 V2000
  -10.4815   -9.8413    7.2992 N   0  0  0  0  0  0  0  0  0  0  0  0
  -10.3875  -10.8933    7.0634 H   0  0  0  0  0  0  0  0  0  0  0  0
  -11.7904   -9.3836    7.6055 C   0  0  0  0  0  0  0  0  0  0  0  0
  -12.3253   -9.2814    8.8248 N   0  0  0  0  0  0  0  0  0  0  0  0
  -13.5699   -8.8389    9.0433 C   0  0  0  0  0  0  0  0  0  0  0  0
  -14.3599   -8.4642    7.9819 C   0  0  0  0  0  0  0  0  0  0  0  0
  -15.9991   -7.8797    8.2500 Cl  0  0  0  0  0  0  0  0  0  0  0  0
  -13.8185   -8.5626    6.6834 C   0  0  0  0  0  0  0  0  0  0  0  0
  -12.5683   -9.0153    6.5695 N   0  0  0  0  0  0  0  0  0  0  0  0
  -14.6445   -8.1721    5.6182 N   0  0  0  0  0  0  0  0  0  0  0  0
  -15.1082   -8.9863    5.0955 H   0  0  0  0  0  0  0  0  0  0  0  0
  -14.9754   -6.9064    5.1112 C   0  0  0  0  0  0  0  0  0  0  0  0
  -14.1403   -5.8328    5.3373 C   0  0  0  0  0  0  0  0  0  0  0  0
  -14.4574   -4.5624    4.8395 C   0  0  0  0  0  0  0  0  0  0  0  0
  -15.6066   -4.3990    4.1257 C   0  0  0  0  0  0  0  0  0  0  0  0
  -16.4382   -5.4729    3.9015 C   0  0  0  0  0  0  0  0  0  0  0  0
  -16.1525   -6.7261    4.3766 C   0  0  0  0  0  0  0  0  0  0  0  0
  -17.1984   -8.0538    4.0875 S   0  0  0  0  0  0  0  0  0  0  0  0
  -16.3979   -9.2485    3.6336 O   0  0  0  0  0  0  0  0  0  0  0  0
  -18.2670   -7.7994    3.0615 O   0  0  0  0  0  0  0  0  0  0  0  0
  -18.0577   -8.5797    5.5584 C   0  0  0  0  0  0  0  0  0  0  0  0
  -18.1100   -7.4781    6.5665 C   0  0  0  0  0  0  0  0  0  0  0  0
  -19.3593   -9.2535    5.2778 C   0  0  0  0  0  0  0  0  0  0  0  0
   -9.3432   -7.7460    7.5925 C   0  0  0  0  0  0  0  0  0  0  0  0
   -8.2090   -6.9551    7.5788 C   0  0  0  0  0  0  0  0  0  0  0  0
   -6.9737   -7.4620    7.2417 C   0  0  0  0  0  0  0  0  0  0  0  0
   -6.9314   -8.7968    6.9200 C   0  0  0  0  0  0  0  0  0  0  0  0
   -8.0586   -9.6245    6.9235 C   0  0  0  0  0  0  0  0  0  0  0  0
   -9.2869   -9.1136    7.2602 C   0  0  0  0  0  0  0  0  0  0  0  0
   -5.8083   -6.6330    7.2394 N   0  0  0  0  0  0  0  0  0  0  0  0
   -5.2791   -6.2136    5.9871 C   0  0  0  0  0  0  0  0  0  0  0  0
   -4.2927   -5.0807    6.0350 C   0  0  0  0  0  0  0  0  0  0  0  0
   -3.2947   -5.1780    7.1395 C   0  0  0  0  0  0  0  0  0  0  0  0
   -3.6921   -6.1741    8.2105 C   0  0  0  0  0  0  0  0  0  0  0  0
   -5.1610   -6.2217    8.4621 C   0  0  0  0  0  0  0  0  0  0  0  0
   -2.8854   -3.9790    7.7547 N   0  0  0  0  0  0  0  0  0  0  0  0
   -3.0594   -2.7612    7.0795 C   0  0  0  0  0  0  0  0  0  0  0  0
   -2.2104   -1.6770    7.7493 C   0  0  0  0  0  0  0  0  0  0  0  0
   -2.3840   -1.8029    9.1834 N   0  0  0  0  0  0  0  0  0  0  0  0
   -3.6707   -1.4024    9.6559 C   0  0  0  0  0  0  0  0  0  0  0  0
   -1.8891   -3.0352    9.7066 C   0  0  0  0  0  0  0  0  0  0  0  0
   -1.7060   -4.0250    8.5580 C   0  0  0  0  0  0  0  0  0  0  0  0
  -10.5977   -6.2799    9.0327 C   0  0  0  0  0  0  0  0  0  0  0  0
  -10.5552   -7.1708    7.9416 O   0  0  0  0  0  0  0  0  0  0  0  0
 43 44  1  0  0  0
 44 24  1  0  0  0
 24 25  2  0  0  0
 25 26  1  0  0  0
 26 27  2  0  0  0
 27 28  1  0  0  0
 28 29  2  0  0  0
 29  1  1  0  0  0
  1  3  1  0  0  0
  3  4  2  0  0  0
  4  5  1  0  0  0
  5  6  2  0  0  0
  6  7  1  0  0  0
  6  8  1  0  0  0
  8 10  1  0  0  0
 10 12  1  0  0  0
 12 13  2  0  0  0
 13 14  1  0  0  0
 14 15  2  0  0  0
 15 16  1  0  0  0
 16 17  2  0  0  0
 17 18  1  0  0  0
 18 19  2  0  0  0
 18 20  2  0  0  0
 18 21  1  0  0  0
 21 22  1  0  0  0
 21 23  1  0  0  0
  8  9  2  0  0  0
 26 30  1  0  0  0
 30 31  1  0  0  0
 31 32  1  0  0  0
 32 33  1  0  0  0
 33 34  1  0  0  0
 34 35  1  0  0  0
 33 36  1  0  0  0
 36 37  1  0  0  0
 37 38  1  0  0  0
 38 39  1  0  0  0
 39 40  1  0  0  0
 39 41  1  0  0  0
 41 42  1  0  0  0
 29 24  1  0  0  0
  9  3  1  0  0  0
 35 30  1  0  0  0
 42 36  1  0  0  0
 17 12  1  0  0  0
  1  2  1  0  0  0
 10 11  1  0  0  0
M  END
> <minimizedAffinity>
-8.41059

> <CNNscore>
0.2211203873

> <CNNaffinity>
7.5889215469

> <CNN_VS>
1.6780653000

> <CNNaffinity_variance>
0.1915950477

$$$$
[H]c1nc(N([H])c2c([H])c([H])c(N3C([H])([H])C([H])([H])C([H])(N4C([H])([H])C([H])([H])N(C([H])([H])[H])C([H])([H])C4([H])[H])C([H])([H])C3([H])[H])c([H])c2OC([H])([H])[H])nc(N([H])c2c([H])c([H])c([H])c([H])c2S(=O)(=O)C([H])(C([H])([H])[H])C([H])([H])[H])c1Cl


 44 48  0  0  0  0  0  0  0  0999 V2000
  -10.7600   -9.9492    7.6041 N   0  0  0  0  0  0  0  0  0  0  0  0
  -10.6857  -11.0288    7.6086 H   0  0  0  0  0  0  0  0  0  0  0  0
  -12.0653   -9.4114    7.7569 C   0  0  0  0  0  0  0  0  0  0  0  0
  -12.7221   -9.2493    8.9082 N   0  0  0  0  0  0  0  0  0  0  0  0
  -13.9551   -8.7325    8.9810 C   0  0  0  0  0  0  0  0  0  0  0  0
  -14.6023   -8.3404    7.8327 C   0  0  0  0  0  0  0  0  0  0  0  0
  -16.2239   -7.6584    7.9090 Cl  0  0  0  0  0  0  0  0  0  0  0  0
  -13.9303   -8.5009    6.6033 C   0  0  0  0  0  0  0  0  0  0  0  0
  -12.7037   -9.0257    6.6353 N   0  0  0  0  0  0  0  0  0  0  0  0
  -14.6119   -8.0911    5.4471 N   0  0  0  0  0  0  0  0  0  0  0  0
  -14.8864   -8.8914    4.7874 H   0  0  0  0  0  0  0  0  0  0  0  0
  -15.0011   -6.8209    4.9959 C   0  0  0  0  0  0  0  0  0  0  0  0
  -14.1910   -5.7290    5.2254 C   0  0  0  0  0  0  0  0  0  0  0  0
  -14.5663   -4.4540    4.7830 C   0  0  0  0  0  0  0  0  0  0  0  0
  -15.7473   -4.3045    4.1199 C   0  0  0  0  0  0  0  0  0  0  0  0
  -16.5539   -5.3965    3.8922 C   0  0  0  0  0  0  0  0  0  0  0  0
  -16.2114   -6.6547    4.3137 C   0  0  0  0  0  0  0  0  0  0  0  0
  -17.2269   -8.0049    4.0210 S   0  0  0  0  0  0  0  0  0  0  0  0
  -16.3979   -9.1839    3.5771 O   0  0  0  0  0  0  0  0  0  0  0  0
  -18.2927   -7.7764    2.9861 O   0  0  0  0  0  0  0  0  0  0  0  0
  -18.0862   -8.5443    5.4870 C   0  0  0  0  0  0  0  0  0  0  0  0
  -18.2063   -7.4289    6.4740 C   0  0  0  0  0  0  0  0  0  0  0  0
  -19.3504   -9.2824    5.1976 C   0  0  0  0  0  0  0  0  0  0  0  0
   -9.5240   -7.8940    7.7482 C   0  0  0  0  0  0  0  0  0  0  0  0
   -8.3663   -7.1486    7.6203 C   0  0  0  0  0  0  0  0  0  0  0  0
   -7.1833   -7.7109    7.1950 C   0  0  0  0  0  0  0  0  0  0  0  0
   -7.2178   -9.0533    6.9052 C   0  0  0  0  0  0  0  0  0  0  0  0
   -8.3707   -9.8359    7.0234 C   0  0  0  0  0  0  0  0  0  0  0  0
   -9.5465   -9.2699    7.4476 C   0  0  0  0  0  0  0  0  0  0  0  0
   -5.9922   -6.9285    7.0749 N   0  0  0  0  0  0  0  0  0  0  0  0
   -5.3245   -6.5260    8.2650 C   0  0  0  0  0  0  0  0  0  0  0  0
   -3.9186   -6.0232    8.0935 C   0  0  0  0  0  0  0  0  0  0  0  0
   -3.7262   -5.1152    6.9258 C   0  0  0  0  0  0  0  0  0  0  0  0
   -4.8703   -5.1762    5.9336 C   0  0  0  0  0  0  0  0  0  0  0  0
   -5.4612   -6.5377    5.7910 C   0  0  0  0  0  0  0  0  0  0  0  0
   -2.5061   -5.2018    6.2277 N   0  0  0  0  0  0  0  0  0  0  0  0
   -1.7272   -6.3638    6.3386 C   0  0  0  0  0  0  0  0  0  0  0  0
   -0.3106   -6.0828    5.8295 C   0  0  0  0  0  0  0  0  0  0  0  0
   -0.4258   -5.3391    4.5900 N   0  0  0  0  0  0  0  0  0  0  0  0
   -0.9107   -6.1071    3.4880 C   0  0  0  0  0  0  0  0  0  0  0  0
   -1.0205   -4.0523    4.7562 C   0  0  0  0  0  0  0  0  0  0  0  0
   -1.7361   -4.0057    6.1047 C   0  0  0  0  0  0  0  0  0  0  0  0
  -10.5788   -6.2422    9.1470 C   0  0  0  0  0  0  0  0  0  0  0  0
  -10.6802   -7.2641    8.1818 O   0  0  0  0  0  0  0  0  0  0  0  0
 43 44  1  0  0  0
 44 24  1  0  0  0
 24 25  2  0  0  0
 25 26  1  0  0  0
 26 27  2  0  0  0
 27 28  1  0  0  0
 28 29  2  0  0  0
 29  1  1  0  0  0
  1  3  1  0  0  0
  3  4  2  0  0  0
  4  5  1  0  0  0
  5  6  2  0  0  0
  6  7  1  0  0  0
  6  8  1  0  0  0
  8 10  1  0  0  0
 10 12  1  0  0  0
 12 13  2  0  0  0
 13 14  1  0  0  0
 14 15  2  0  0  0
 15 16  1  0  0  0
 16 17  2  0  0  0
 17 18  1  0  0  0
 18 19  2  0  0  0
 18 20  2  0  0  0
 18 21  1  0  0  0
 21 22  1  0  0  0
 21 23  1  0  0  0
  8  9  2  0  0  0
 26 30  1  0  0  0
 30 31  1  0  0  0
 31 32  1  0  0  0
 32 33  1  0  0  0
 33 34  1  0  0  0
 34 35  1  0  0  0
 33 36  1  0  0  0
 36 37  1  0  0  0
 37 38  1  0  0  0
 38 39  1  0  0  0
 39 40  1  0  0  0
 39 41  1  0  0  0
 41 42  1  0  0  0
 29 24  1  0  0  0
  9  3  1  0  0  0
 35 30  1  0  0  0
 42 36  1  0  0  0
 17 12  1  0  0  0
  1  2  1  0  0  0
 10 11  1  0  0  0
M  END
> <minimizedAffinity>
-8.00549

> <CNNscore>
0.1425688118

> <CNNaffinity>
7.4189872742

> <CNN_VS>
1.0577162504

> <CNNaffinity_variance>
0.2695407271

$$$$
[H]C1=C2C([H])([H])C([H])([H])[C@@]3([H])[C@]4([H])C([H])([H])C([H])([H])C(=O)[C@@]4(C([H])([H])[H])C([H])([H])C([H])([H])[C@]3([H])[C@@]2(C([H])([H])[H])C([H])([H])C([H])([H])C1=O


 21 24  0  0  0  0  0  0  0  0999 V2000
  -12.0413  -10.2114    8.7969 C   0  0  0  0  0  0  0  0  0  0  0  0
  -12.7772   -9.3843    7.7747 C   0  0  0  0  0  0  0  0  0  0  0  0
  -11.8804   -8.3788    7.1396 C   0  0  0  0  0  0  0  0  0  0  0  0
  -11.8150   -7.0536    7.7727 C   0  0  0  0  0  0  0  0  0  0  0  0
  -12.7414   -6.7176    8.8646 C   0  0  0  0  0  0  0  0  0  0  0  0
  -13.4496   -7.8884    9.5165 C   0  0  0  0  0  0  0  0  0  0  0  0
  -14.6200   -7.4269   10.3390 C   0  0  0  0  0  0  0  0  0  0  0  0
  -14.3356   -6.2921   11.2577 C   0  0  0  0  0  0  0  0  0  0  0  0
  -13.2778   -5.3670   10.7740 C   0  0  0  0  0  0  0  0  0  0  0  0
  -13.4280   -4.0874   11.1456 C   0  0  0  0  0  0  0  0  0  0  0  0
  -12.4868   -3.0654   10.7579 C   0  0  0  0  0  0  0  0  0  0  0  0
  -12.7117   -1.8500   10.8621 O   0  0  0  0  0  0  0  0  0  0  0  0
  -11.1859   -3.5069   10.2075 C   0  0  0  0  0  0  0  0  0  0  0  0
  -11.4835   -4.6570    9.2657 C   0  0  0  0  0  0  0  0  0  0  0  0
  -12.1371   -5.8231    9.9413 C   0  0  0  0  0  0  0  0  0  0  0  0
  -11.1016   -6.5530   10.7552 C   0  0  0  0  0  0  0  0  0  0  0  0
  -13.9835   -8.6788    8.3569 C   0  0  0  0  0  0  0  0  0  0  0  0
  -14.8755   -9.8111    8.7049 C   0  0  0  0  0  0  0  0  0  0  0  0
  -14.6837  -10.7521    7.5077 C   0  0  0  0  0  0  0  0  0  0  0  0
  -13.4471  -10.2981    6.8346 C   0  0  0  0  0  0  0  0  0  0  0  0
  -13.0566  -10.6071    5.7389 O   0  0  0  0  0  0  0  0  0  0  0  0
  2  1  1  0  0  0
  2  3  1  0  0  0
  3  4  1  0  0  0
  4  5  1  0  0  0
  5  6  1  0  0  0
  6  7  1  0  0  0
  7  8  1  0  0  0
  8  9  1  0  0  0
  9 10  2  0  0  0
 10 11  1  0  0  0
 11 12  2  0  0  0
 11 13  1  0  0  0
 13 14  1  0  0  0
 14 15  1  0  0  0
 15 16  1  0  0  0
  6 17  1  0  0  0
 17 18  1  0  0  0
 18 19  1  0  0  0
 19 20  1  0  0  0
 20 21  2  0  0  0
 17  2  1  0  0  0
 20  2  1  0  0  0
 15  5  1  0  0  0
 15  9  1  0  0  0
M  END
> <minimizedAffinity>
13.34320

> <CNNscore>
0.5448788404

> <CNNaffinity>
6.0221838951

> <CNN_VS>
3.2813606262

> <CNNaffinity_variance>
0.9058478475

$$$$
[H]C1=C2C([H])([H])C([H])([H])[C@@]3([H])[C@]4([H])C([H])([H])C([H])([H])C(=O)[C@@]4(C([H])([H])[H])C([H])([H])C([H])([H])[C@]3([H])[C@@]2(C([H])([H])[H])C([H])([H])C([H])([H])C1=O


 21 24  0  0  0  0  0  0  0  0999 V2000
  -11.7135   -4.4490    9.5280 C   0  0  0  0  0  0  0  0  0  0  0  0
  -11.6675   -5.5955   10.5048 C   0  0  0  0  0  0  0  0  0  0  0  0
  -10.2771   -6.0951   10.6931 C   0  0  0  0  0  0  0  0  0  0  0  0
   -9.8362   -7.1821    9.8069 C   0  0  0  0  0  0  0  0  0  0  0  0
  -10.8059   -7.8412    8.9189 C   0  0  0  0  0  0  0  0  0  0  0  0
  -12.1137   -7.1057    8.7036 C   0  0  0  0  0  0  0  0  0  0  0  0
  -13.1539   -8.0096    8.1035 C   0  0  0  0  0  0  0  0  0  0  0  0
  -12.6968   -8.8056    6.9330 C   0  0  0  0  0  0  0  0  0  0  0  0
  -11.2508   -9.1476    6.9560 C   0  0  0  0  0  0  0  0  0  0  0  0
  -10.9334  -10.3153    6.3782 C   0  0  0  0  0  0  0  0  0  0  0  0
   -9.5730  -10.7910    6.3178 C   0  0  0  0  0  0  0  0  0  0  0  0
   -9.2659  -11.9566    6.0248 O   0  0  0  0  0  0  0  0  0  0  0  0
   -8.4958   -9.8237    6.6244 C   0  0  0  0  0  0  0  0  0  0  0  0
   -8.9637   -9.0222    7.8231 C   0  0  0  0  0  0  0  0  0  0  0  0
  -10.2303   -8.2633    7.5716 C   0  0  0  0  0  0  0  0  0  0  0  0
   -9.9168   -7.0741    6.7026 C   0  0  0  0  0  0  0  0  0  0  0  0
  -12.5591   -6.7472   10.0920 C   0  0  0  0  0  0  0  0  0  0  0  0
  -13.9138   -6.1541   10.2010 C   0  0  0  0  0  0  0  0  0  0  0  0
  -13.7985   -5.3210   11.4849 C   0  0  0  0  0  0  0  0  0  0  0  0
  -12.3486   -5.1781   11.7415 C   0  0  0  0  0  0  0  0  0  0  0  0
  -11.8202   -4.7978   12.7538 O   0  0  0  0  0  0  0  0  0  0  0  0
  2  1  1  0  0  0
  2  3  1  0  0  0
  3  4  1  0  0  0
  4  5  1  0  0  0
  5  6  1  0  0  0
  6  7  1  0  0  0
  7  8  1  0  0  0
  8  9  1  0  0  0
  9 10  2  0  0  0
 10 11  1  0  0  0
 11 12  2  0  0  0
 11 13  1  0  0  0
 13 14  1  0  0  0
 14 15  1  0  0  0
 15 16  1  0  0  0
  6 17  1  0  0  0
 17 18  1  0  0  0
 18 19  1  0  0  0
 19 20  1  0  0  0
 20 21  2  0  0  0
 17  2  1  0  0  0
 20  2  1  0  0  0
 15  5  1  0  0  0
 15  9  1  0  0  0
M  END
> <minimizedAffinity>
3.93711

> <CNNscore>
0.4620513618

> <CNNaffinity>
5.6707696915

> <CNN_VS>
2.6201868057

> <CNNaffinity_variance>
0.3739676476

$$$$
[H]C1=C2C([H])([H])C([H])([H])[C@@]3([H])[C@]4([H])C([H])([H])C([H])([H])C(=O)[C@@]4(C([H])([H])[H])C([H])([H])C([H])([H])[C@]3([H])[C@@]2(C([H])([H])[H])C([H])([H])C([H])([H])C1=O


 21 24  0  0  0  0  0  0  0  0999 V2000
  -11.9539  -10.7702    7.9290 C   0  0  0  0  0  0  0  0  0  0  0  0
  -11.1542   -9.7470    7.1647 C   0  0  0  0  0  0  0  0  0  0  0  0
  -10.0727   -9.1621    8.0054 C   0  0  0  0  0  0  0  0  0  0  0  0
  -10.4039   -7.9462    8.7623 C   0  0  0  0  0  0  0  0  0  0  0  0
  -11.6884   -7.2676    8.5315 C   0  0  0  0  0  0  0  0  0  0  0  0
  -12.7432   -8.0760    7.8026 C   0  0  0  0  0  0  0  0  0  0  0  0
  -13.8509   -7.1948    7.2969 C   0  0  0  0  0  0  0  0  0  0  0  0
  -14.3938   -6.2320    8.2923 C   0  0  0  0  0  0  0  0  0  0  0  0
  -13.4043   -5.7791    9.3044 C   0  0  0  0  0  0  0  0  0  0  0  0
  -13.5844   -4.5296    9.7565 C   0  0  0  0  0  0  0  0  0  0  0  0
  -12.7095   -3.9415   10.7410 C   0  0  0  0  0  0  0  0  0  0  0  0
  -12.6839   -2.7285   10.9993 O   0  0  0  0  0  0  0  0  0  0  0  0
  -11.7986   -4.8479   11.4750 C   0  0  0  0  0  0  0  0  0  0  0  0
  -11.2420   -5.8204   10.4539 C   0  0  0  0  0  0  0  0  0  0  0  0
  -12.2974   -6.6444    9.7826 C   0  0  0  0  0  0  0  0  0  0  0  0
  -12.7794   -7.6935   10.7494 C   0  0  0  0  0  0  0  0  0  0  0  0
  -12.0148   -8.6306    6.6125 C   0  0  0  0  0  0  0  0  0  0  0  0
  -12.8537   -9.3401    5.6167 C   0  0  0  0  0  0  0  0  0  0  0  0
  -11.8472  -10.3067    4.9776 C   0  0  0  0  0  0  0  0  0  0  0  0
  -10.6976  -10.3610    5.9069 C   0  0  0  0  0  0  0  0  0  0  0  0
   -9.6039  -10.8140    5.6898 O   0  0  0  0  0  0  0  0  0  0  0  0
  2  1  1  0  0  0
  2  3  1  0  0  0
  3  4  1  0  0  0
  4  5  1  0  0  0
  5  6  1  0  0  0
  6  7  1  0  0  0
  7  8  1  0  0  0
  8  9  1  0  0  0
  9 10  2  0  0  0
 10 11  1  0  0  0
 11 12  2  0  0  0
 11 13  1  0  0  0
 13 14  1  0  0  0
 14 15  1  0  0  0
 15 16  1  0  0  0
  6 17  1  0  0  0
 17 18  1  0  0  0
 18 19  1  0  0  0
 19 20  1  0  0  0
 20 21  2  0  0  0
 17  2  1  0  0  0
 20  2  1  0  0  0
 15  5  1  0  0  0
 15  9  1  0  0  0
M  END
> <minimizedAffinity>
5.47758

> <CNNscore>
0.4215911031

> <CNNaffinity>
5.9725193977

> <CNN_VS>
2.5179610252

> <CNNaffinity_variance>
0.7047961950

$$$$
[H]C1=C2C([H])([H])C([H])([H])[C@@]3([H])[C@]4([H])C([H])([H])C([H])([H])C(=O)[C@@]4(C([H])([H])[H])C([H])([H])C([H])([H])[C@]3([H])[C@@]2(C([H])([H])[H])C([H])([H])C([H])([H])C1=O


 21 24  0  0  0  0  0  0  0  0999 V2000
   -6.3854   -6.0443    6.3830 C   0  0  0  0  0  0  0  0  0  0  0  0
   -6.3083   -7.2304    7.3092 C   0  0  0  0  0  0  0  0  0  0  0  0
   -6.8557   -6.9063    8.6560 C   0  0  0  0  0  0  0  0  0  0  0  0
   -5.9037   -6.4014    9.6559 C   0  0  0  0  0  0  0  0  0  0  0  0
   -4.4626   -6.4054    9.3619 C   0  0  0  0  0  0  0  0  0  0  0  0
   -4.0842   -6.5799    7.9045 C   0  0  0  0  0  0  0  0  0  0  0  0
   -2.6319   -6.9385    7.7585 C   0  0  0  0  0  0  0  0  0  0  0  0
   -1.6923   -6.0904    8.5399 C   0  0  0  0  0  0  0  0  0  0  0  0
   -2.2643   -5.5491    9.8002 C   0  0  0  0  0  0  0  0  0  0  0  0
   -1.3839   -5.3786   10.7972 C   0  0  0  0  0  0  0  0  0  0  0  0
   -1.7804   -4.8621   12.0843 C   0  0  0  0  0  0  0  0  0  0  0  0
   -1.0670   -4.9219   13.0972 O   0  0  0  0  0  0  0  0  0  0  0  0
   -3.1141   -4.2288   12.1859 C   0  0  0  0  0  0  0  0  0  0  0  0
   -4.0682   -5.1023   11.3955 C   0  0  0  0  0  0  0  0  0  0  0  0
   -3.7039   -5.2196    9.9474 C   0  0  0  0  0  0  0  0  0  0  0  0
   -4.0612   -3.9320    9.2532 C   0  0  0  0  0  0  0  0  0  0  0  0
   -4.8982   -7.7604    7.4589 C   0  0  0  0  0  0  0  0  0  0  0  0
   -4.6043   -8.2686    6.0972 C   0  0  0  0  0  0  0  0  0  0  0  0
   -5.9366   -8.9204    5.7021 C   0  0  0  0  0  0  0  0  0  0  0  0
   -6.9420   -8.3803    6.6431 C   0  0  0  0  0  0  0  0  0  0  0  0
   -8.0574   -8.7901    6.8344 O   0  0  0  0  0  0  0  0  0  0  0  0
  2  1  1  0  0  0
  2  3  1  0  0  0
  3  4  1  0  0  0
  4  5  1  0  0  0
  5  6  1  0  0  0
  6  7  1  0  0  0
  7  8  1  0  0  0
  8  9  1  0  0  0
  9 10  2  0  0  0
 10 11  1  0  0  0
 11 12  2  0  0  0
 11 13  1  0  0  0
 13 14  1  0  0  0
 14 15  1  0  0  0
 15 16  1  0  0  0
  6 17  1  0  0  0
 17 18  1  0  0  0
 18 19  1  0  0  0
 19 20  1  0  0  0
 20 21  2  0  0  0
 17  2  1  0  0  0
 20  2  1  0  0  0
 15  5  1  0  0  0
 15  9  1  0  0  0
M  END
> <minimizedAffinity>
-2.12412

> <CNNscore>
0.4061414599

> <CNNaffinity>
4.8086400032

> <CNN_VS>
1.9529880285

> <CNNaffinity_variance>
0.4845168591

$$$$
[H]C1=C2C([H])([H])C([H])([H])[C@@]3([H])[C@]4([H])C([H])([H])C([H])([H])C(=O)[C@@]4(C([H])([H])[H])C([H])([H])C([H])([H])[C@]3([H])[C@@]2(C([H])([H])[H])C([H])([H])C([H])([H])C1=O


 21 24  0  0  0  0  0  0  0  0999 V2000
   -3.4551   -9.0472    5.3907 C   0  0  0  0  0  0  0  0  0  0  0  0
   -3.3981   -8.0949    6.5571 C   0  0  0  0  0  0  0  0  0  0  0  0
   -3.9180   -8.7266    7.8018 C   0  0  0  0  0  0  0  0  0  0  0  0
   -5.3519   -8.5622    8.0812 C   0  0  0  0  0  0  0  0  0  0  0  0
   -6.1607   -7.6586    7.2489 C   0  0  0  0  0  0  0  0  0  0  0  0
   -5.5443   -7.2457    5.9271 C   0  0  0  0  0  0  0  0  0  0  0  0
   -6.2590   -6.0611    5.3398 C   0  0  0  0  0  0  0  0  0  0  0  0
   -7.7426   -6.1675    5.3192 C   0  0  0  0  0  0  0  0  0  0  0  0
   -8.3104   -6.9825    6.4246 C   0  0  0  0  0  0  0  0  0  0  0  0
   -9.5239   -6.5998    6.8480 C   0  0  0  0  0  0  0  0  0  0  0  0
  -10.2114   -7.2874    7.9134 C   0  0  0  0  0  0  0  0  0  0  0  0
  -11.2037   -6.8278    8.4989 O   0  0  0  0  0  0  0  0  0  0  0  0
   -9.6928   -8.6130    8.3187 C   0  0  0  0  0  0  0  0  0  0  0  0
   -8.1817   -8.4953    8.3465 C   0  0  0  0  0  0  0  0  0  0  0  0
   -7.5901   -8.1364    7.0181 C   0  0  0  0  0  0  0  0  0  0  0  0
   -7.6349   -9.3483    6.1255 C   0  0  0  0  0  0  0  0  0  0  0  0
   -4.1556   -6.8104    6.2965 C   0  0  0  0  0  0  0  0  0  0  0  0
   -3.3633   -6.1907    5.2070 C   0  0  0  0  0  0  0  0  0  0  0  0
   -1.9232   -6.4925    5.6440 C   0  0  0  0  0  0  0  0  0  0  0  0
   -2.0279   -7.5657    6.6567 C   0  0  0  0  0  0  0  0  0  0  0  0
   -1.1716   -7.9399    7.4152 O   0  0  0  0  0  0  0  0  0  0  0  0
  2  1  1  0  0  0
  2  3  1  0  0  0
  3  4  1  0  0  0
  4  5  1  0  0  0
  5  6  1  0  0  0
  6  7  1  0  0  0
  7  8  1  0  0  0
  8  9  1  0  0  0
  9 10  2  0  0  0
 10 11  1  0  0  0
 11 12  2  0  0  0
 11 13  1  0  0  0
 13 14  1  0  0  0
 14 15  1  0  0  0
 15 16  1  0  0  0
  6 17  1  0  0  0
 17 18  1  0  0  0
 18 19  1  0  0  0
 19 20  1  0  0  0
 20 21  2  0  0  0
 17  2  1  0  0  0
 20  2  1  0  0  0
 15  5  1  0  0  0
 15  9  1  0  0  0
M  END
> <minimizedAffinity>
-1.18919

> <CNNscore>
0.3757567406

> <CNNaffinity>
5.1504735947

> <CNN_VS>
1.9353251457

> <CNNaffinity_variance>
0.4075489938

$$$$
[H]C1=C2C([H])([H])C([H])([H])[C@@]3([H])[C@]4([H])C([H])([H])C([H])([H])C(=O)[C@@]4(C([H])([H])[H])C([H])([H])C([H])([H])[C@]3([H])[C@@]2(C([H])([H])[H])C([H])([H])C([H])([H])C1=O


 21 24  0  0  0  0  0  0  0  0999 V2000
   -8.6173   -6.9225    6.2634 C   0  0  0  0  0  0  0  0  0  0  0  0
   -8.4673   -7.8227    7.4625 C   0  0  0  0  0  0  0  0  0  0  0  0
   -8.3805   -7.0377    8.7254 C   0  0  0  0  0  0  0  0  0  0  0  0
   -7.0352   -6.6553    9.1785 C   0  0  0  0  0  0  0  0  0  0  0  0
   -5.8511   -7.1963    8.4938 C   0  0  0  0  0  0  0  0  0  0  0  0
   -6.0978   -7.8144    7.1320 C   0  0  0  0  0  0  0  0  0  0  0  0
   -4.9279   -8.6501    6.6937 C   0  0  0  0  0  0  0  0  0  0  0  0
   -3.5986   -7.9991    6.8413 C   0  0  0  0  0  0  0  0  0  0  0  0
   -3.5174   -7.0268    7.9622 C   0  0  0  0  0  0  0  0  0  0  0  0
   -2.3130   -6.9283    8.5435 C   0  0  0  0  0  0  0  0  0  0  0  0
   -2.0694   -6.0298    9.6453 C   0  0  0  0  0  0  0  0  0  0  0  0
   -1.0610   -6.0845   10.3656 O   0  0  0  0  0  0  0  0  0  0  0  0
   -3.0874   -4.9910    9.9187 C   0  0  0  0  0  0  0  0  0  0  0  0
   -4.4389   -5.6627    9.7757 C   0  0  0  0  0  0  0  0  0  0  0  0
   -4.6818   -6.2216    8.4074 C   0  0  0  0  0  0  0  0  0  0  0  0
   -4.9737   -5.0837    7.4652 C   0  0  0  0  0  0  0  0  0  0  0  0
   -7.2630   -8.7339    7.3585 C   0  0  0  0  0  0  0  0  0  0  0  0
   -7.6250   -9.6086    6.2170 C   0  0  0  0  0  0  0  0  0  0  0  0
   -9.1179   -9.8628    6.4667 C   0  0  0  0  0  0  0  0  0  0  0  0
   -9.5464   -8.8237    7.4283 C   0  0  0  0  0  0  0  0  0  0  0  0
  -10.5696   -8.7920    8.0613 O   0  0  0  0  0  0  0  0  0  0  0  0
  2  1  1  0  0  0
  2  3  1  0  0  0
  3  4  1  0  0  0
  4  5  1  0  0  0
  5  6  1  0  0  0
  6  7  1  0  0  0
  7  8  1  0  0  0
  8  9  1  0  0  0
  9 10  2  0  0  0
 10 11  1  0  0  0
 11 12  2  0  0  0
 11 13  1  0  0  0
 13 14  1  0  0  0
 14 15  1  0  0  0
 15 16  1  0  0  0
  6 17  1  0  0  0
 17 18  1  0  0  0
 18 19  1  0  0  0
 19 20  1  0  0  0
 20 21  2  0  0  0
 17  2  1  0  0  0
 20  2  1  0  0  0
 15  5  1  0  0  0
 15  9  1  0  0  0
M  END
> <minimizedAffinity>
-2.61218

> <CNNscore>
0.3537170291

> <CNNaffinity>
5.0080599785

> <CNN_VS>
1.7714360952

> <CNNaffinity_variance>
0.4159731269

$$$$
[H]C1=C2C([H])([H])C([H])([H])[C@@]3([H])[C@]4([H])C([H])([H])C([H])([H])C(=O)[C@@]4(C([H])([H])[H])C([H])([H])C([H])([H])[C@]3([H])[C@@]2(C([H])([H])[H])C([H])([H])C([H])([H])C1=O


 21 24  0  0  0  0  0  0  0  0999 V2000
  -15.6624   -8.8511    7.3817 C   0  0  0  0  0  0  0  0  0  0  0  0
  -14.9996   -8.3505    6.1244 C   0  0  0  0  0  0  0  0  0  0  0  0
  -14.1738   -9.4120    5.4843 C   0  0  0  0  0  0  0  0  0  0  0  0
  -12.7603   -9.4841    5.8820 C   0  0  0  0  0  0  0  0  0  0  0  0
  -12.1840   -8.4295    6.7301 C   0  0  0  0  0  0  0  0  0  0  0  0
  -13.1786   -7.5379    7.4464 C   0  0  0  0  0  0  0  0  0  0  0  0
  -12.5160   -6.2949    7.9708 C   0  0  0  0  0  0  0  0  0  0  0  0
  -11.2484   -6.5232    8.7149 C   0  0  0  0  0  0  0  0  0  0  0  0
  -10.4820   -7.7133    8.2624 C   0  0  0  0  0  0  0  0  0  0  0  0
   -9.1501   -7.6099    8.3782 C   0  0  0  0  0  0  0  0  0  0  0  0
   -8.2653   -8.6781    7.9827 C   0  0  0  0  0  0  0  0  0  0  0  0
   -7.0414   -8.5374    7.8375 O   0  0  0  0  0  0  0  0  0  0  0  0
   -8.8652  -10.0092    7.7409 C   0  0  0  0  0  0  0  0  0  0  0  0
  -10.1513   -9.7703    6.9747 C   0  0  0  0  0  0  0  0  0  0  0  0
  -11.1398   -8.9292    7.7223 C   0  0  0  0  0  0  0  0  0  0  0  0
  -11.7604   -9.7648    8.8105 C   0  0  0  0  0  0  0  0  0  0  0  0
  -14.1394   -7.1288    6.3675 C   0  0  0  0  0  0  0  0  0  0  0  0
  -15.1423   -6.1063    6.7515 C   0  0  0  0  0  0  0  0  0  0  0  0
  -16.2947   -6.4055    5.7829 C   0  0  0  0  0  0  0  0  0  0  0  0
  -16.0345   -7.7636    5.2573 C   0  0  0  0  0  0  0  0  0  0  0  0
  -16.5578   -8.2932    4.3116 O   0  0  0  0  0  0  0  0  0  0  0  0
  2  1  1  0  0  0
  2  3  1  0  0  0
  3  4  1  0  0  0
  4  5  1  0  0  0
  5  6  1  0  0  0
  6  7  1  0  0  0
  7  8  1  0  0  0
  8  9  1  0  0  0
  9 10  2  0  0  0
 10 11  1  0  0  0
 11 12  2  0  0  0
 11 13  1  0  0  0
 13 14  1  0  0  0
 14 15  1  0  0  0
 15 16  1  0  0  0
  6 17  1  0  0  0
 17 18  1  0  0  0
 18 19  1  0  0  0
 19 20  1  0  0  0
 20 21  2  0  0  0
 17  2  1  0  0  0
 20  2  1  0  0  0
 15  5  1  0  0  0
 15  9  1  0  0  0
M  END
> <minimizedAffinity>
-6.06916

> <CNNscore>
0.2556941509

> <CNNaffinity>
5.9222283363

> <CNN_VS>
1.5142791271

> <CNNaffinity_variance>
0.0456318632

$$$$
[H]C1=C2C([H])([H])C([H])([H])[C@@]3([H])[C@]4([H])C([H])([H])C([H])([H])C(=O)[C@@]4(C([H])([H])[H])C([H])([H])C([H])([H])[C@]3([H])[C@@]2(C([H])([H])[H])C([H])([H])C([H])([H])C1=O


 21 24  0  0  0  0  0  0  0  0999 V2000
   -4.3338   -5.0030   11.7369 C   0  0  0  0  0  0  0  0  0  0  0  0
   -3.1111   -4.1859   11.4084 C   0  0  0  0  0  0  0  0  0  0  0  0
   -3.4348   -3.0734   10.4724 C   0  0  0  0  0  0  0  0  0  0  0  0
   -3.3047   -3.3553    9.0354 C   0  0  0  0  0  0  0  0  0  0  0  0
   -2.7056   -4.6225    8.5896 C   0  0  0  0  0  0  0  0  0  0  0  0
   -2.6059   -5.7131    9.6374 C   0  0  0  0  0  0  0  0  0  0  0  0
   -1.6661   -6.8022    9.2016 C   0  0  0  0  0  0  0  0  0  0  0  0
   -1.8779   -7.2993    7.8157 C   0  0  0  0  0  0  0  0  0  0  0  0
   -2.4175   -6.2799    6.8786 C   0  0  0  0  0  0  0  0  0  0  0  0
   -2.0246   -6.4149    5.6036 C   0  0  0  0  0  0  0  0  0  0  0  0
   -2.4602   -5.5064    4.5714 C   0  0  0  0  0  0  0  0  0  0  0  0
   -1.9356   -5.4401    3.4493 O   0  0  0  0  0  0  0  0  0  0  0  0
   -3.5965   -4.6109    4.8832 C   0  0  0  0  0  0  0  0  0  0  0  0
   -3.3700   -4.1009    6.2927 C   0  0  0  0  0  0  0  0  0  0  0  0
   -3.3257   -5.1916    7.3183 C   0  0  0  0  0  0  0  0  0  0  0  0
   -4.7271   -5.6886    7.5564 C   0  0  0  0  0  0  0  0  0  0  0  0
   -1.9937   -5.0217   10.8213 C   0  0  0  0  0  0  0  0  0  0  0  0
   -1.6224   -5.8980   11.9585 C   0  0  0  0  0  0  0  0  0  0  0  0
   -1.6995   -4.9318   13.1485 C   0  0  0  0  0  0  0  0  0  0  0  0
   -2.4794   -3.7689   12.6712 C   0  0  0  0  0  0  0  0  0  0  0  0
   -2.5842   -2.6931   13.2005 O   0  0  0  0  0  0  0  0  0  0  0  0
  2  1  1  0  0  0
  2  3  1  0  0  0
  3  4  1  0  0  0
  4  5  1  0  0  0
  5  6  1  0  0  0
  6  7  1  0  0  0
  7  8  1  0  0  0
  8  9  1  0  0  0
  9 10  2  0  0  0
 10 11  1  0  0  0
 11 12  2  0  0  0
 11 13  1  0  0  0
 13 14  1  0  0  0
 14 15  1  0  0  0
 15 16  1  0  0  0
  6 17  1  0  0  0
 17 18  1  0  0  0
 18 19  1  0  0  0
 19 20  1  0  0  0
 20 21  2  0  0  0
 17  2  1  0  0  0
 20  2  1  0  0  0
 15  5  1  0  0  0
 15  9  1  0  0  0
M  END
> <minimizedAffinity>
-3.79176

> <CNNscore>
0.2506123483

> <CNNaffinity>
4.3665122986

> <CNN_VS>
1.0943019390

> <CNNaffinity_variance>
0.1967312545

$$$$
[H]C1=C2C([H])([H])C([H])([H])[C@@]3([H])[C@]4([H])C([H])([H])C([H])([H])C(=O)[C@@]4(C([H])([H])[H])C([H])([H])C([H])([H])[C@]3([H])[C@@]2(C([H])([H])[H])C([H])([H])C([H])([H])C1=O


 21 24  0  0  0  0  0  0  0  0999 V2000
   -7.4565   -7.9509    9.2210 C   0  0  0  0  0  0  0  0  0  0  0  0
   -7.6501   -7.3391    7.8576 C   0  0  0  0  0  0  0  0  0  0  0  0
   -8.5318   -6.1402    7.9188 C   0  0  0  0  0  0  0  0  0  0  0  0
   -9.9722   -6.3647    7.7286 C   0  0  0  0  0  0  0  0  0  0  0  0
  -10.4581   -7.6906    7.3173 C   0  0  0  0  0  0  0  0  0  0  0  0
   -9.4784   -8.8355    7.4812 C   0  0  0  0  0  0  0  0  0  0  0  0
   -9.9204  -10.0451    6.7061 C   0  0  0  0  0  0  0  0  0  0  0  0
  -11.3464  -10.4254    6.8917 C   0  0  0  0  0  0  0  0  0  0  0  0
  -12.2496   -9.2811    7.1806 C   0  0  0  0  0  0  0  0  0  0  0  0
  -13.5018   -9.4145    6.7198 C   0  0  0  0  0  0  0  0  0  0  0  0
  -14.4999   -8.3921    6.9177 C   0  0  0  0  0  0  0  0  0  0  0  0
  -15.5782   -8.3580    6.3056 O   0  0  0  0  0  0  0  0  0  0  0  0
  -14.2069   -7.3329    7.9089 C   0  0  0  0  0  0  0  0  0  0  0  0
  -12.7556   -6.9436    7.7085 C   0  0  0  0  0  0  0  0  0  0  0  0
  -11.8017   -8.0779    7.9251 C   0  0  0  0  0  0  0  0  0  0  0  0
  -11.6894   -8.3394    9.4038 C   0  0  0  0  0  0  0  0  0  0  0  0
   -8.2145   -8.3219    6.8541 C   0  0  0  0  0  0  0  0  0  0  0  0
   -7.1142   -9.3072    6.7220 C   0  0  0  0  0  0  0  0  0  0  0  0
   -5.8720   -8.4056    6.7270 C   0  0  0  0  0  0  0  0  0  0  0  0
   -6.3240   -7.1030    7.2632 C   0  0  0  0  0  0  0  0  0  0  0  0
   -5.7346   -6.0543    7.2268 O   0  0  0  0  0  0  0  0  0  0  0  0
  2  1  1  0  0  0
  2  3  1  0  0  0
  3  4  1  0  0  0
  4  5  1  0  0  0
  5  6  1  0  0  0
  6  7  1  0  0  0
  7  8  1  0  0  0
  8  9  1  0  0  0
  9 10  2  0  0  0
 10 11  1  0  0  0
 11 12  2  0  0  0
 11 13  1  0  0  0
 13 14  1  0  0  0
 14 15  1  0  0  0
 15 16  1  0  0  0
  6 17  1  0  0  0
 17 18  1  0  0  0
 18 19  1  0  0  0
 19 20  1  0  0  0
 20 21  2  0  0  0
 17  2  1  0  0  0
 20  2  1  0  0  0
 15  5  1  0  0  0
 15  9  1  0  0  0
M  END
> <minimizedAffinity>
-7.82006

> <CNNscore>
0.2188825160

> <CNNaffinity>
5.7935681343

> <CNN_VS>
1.2681107521

> <CNNaffinity_variance>
0.0496555455

$$$$
[H]c1c([H])c(C(=O)N2C([H])([H])C([H])([H])N([C@@]3([H])C([H])([H])[C@@]([H])(N([H])C(=O)c4c([H])c([H])c([H])c(C(F)(F)F)c4[H])C([H])([H])[C@@]3([H])C([H])([H])[H])C([H])([H])C2([H])[H])c([H])c(C(F)(F)F)c1[H]


 38 41  0  0  0  0  0  0  0  0999 V2000
  -10.7901   -7.3543    7.9272 C   0  0  0  0  0  0  0  0  0  0  0  0
   -9.8215   -6.5232    7.0234 C   0  0  0  0  0  0  0  0  0  0  0  0
   -8.5492   -7.0039    7.4493 C   0  0  0  0  0  0  0  0  0  0  0  0
   -8.7334   -6.9552    9.0529 C   0  0  0  0  0  0  0  0  0  0  0  0
  -10.1028   -7.4919    9.1979 C   0  0  0  0  0  0  0  0  0  0  0  0
  -10.7897   -6.8671   10.4030 C   0  0  0  0  0  0  0  0  0  0  0  0
  -15.6834   -8.0228    6.8373 C   0  0  0  0  0  0  0  0  0  0  0  0
  -15.8461   -8.9556    7.7049 O   0  0  0  0  0  0  0  0  0  0  0  0
  -14.7128   -7.0463    7.1111 N   0  0  0  0  0  0  0  0  0  0  0  0
  -14.3364   -6.8558    8.5422 C   0  0  0  0  0  0  0  0  0  0  0  0
  -12.9749   -7.3696    8.8199 C   0  0  0  0  0  0  0  0  0  0  0  0
  -12.1129   -6.9081    7.7928 N   0  0  0  0  0  0  0  0  0  0  0  0
  -12.5478   -6.0119    6.8428 C   0  0  0  0  0  0  0  0  0  0  0  0
  -13.8868   -6.3518    6.1842 C   0  0  0  0  0  0  0  0  0  0  0  0
  -17.7515   -6.5963    4.1541 C   0  0  0  0  0  0  0  0  0  0  0  0
  -18.6902   -7.5801    3.8861 C   0  0  0  0  0  0  0  0  0  0  0  0
  -18.5245   -8.7832    4.5262 C   0  0  0  0  0  0  0  0  0  0  0  0
  -17.4978   -9.0522    5.4065 C   0  0  0  0  0  0  0  0  0  0  0  0
  -16.5711   -8.0996    5.6867 C   0  0  0  0  0  0  0  0  0  0  0  0
  -16.7315   -6.8524    5.0195 C   0  0  0  0  0  0  0  0  0  0  0  0
  -19.1227   -4.6680    3.7558 F   0  0  0  0  0  0  0  0  0  0  0  0
  -17.8725   -5.1992    3.6446 C   0  0  0  0  0  0  0  0  0  0  0  0
  -16.8420   -4.4416    4.1324 F   0  0  0  0  0  0  0  0  0  0  0  0
  -17.6383   -5.3024    2.2618 F   0  0  0  0  0  0  0  0  0  0  0  0
   -7.3190   -6.1932    7.3940 N   0  0  0  0  0  0  0  0  0  0  0  0
   -6.3159   -6.7405    6.5506 C   0  0  0  0  0  0  0  0  0  0  0  0
   -6.5207   -7.7451    5.8015 O   0  0  0  0  0  0  0  0  0  0  0  0
   -7.2269   -5.3409    7.9076 H   0  0  0  0  0  0  0  0  0  0  0  0
   -4.9737   -6.2058    6.5354 C   0  0  0  0  0  0  0  0  0  0  0  0
   -4.5394   -5.8778    5.2187 C   0  0  0  0  0  0  0  0  0  0  0  0
   -3.4076   -5.1676    4.9903 C   0  0  0  0  0  0  0  0  0  0  0  0
   -2.6682   -4.7624    6.0884 C   0  0  0  0  0  0  0  0  0  0  0  0
   -3.0437   -5.0635    7.4032 C   0  0  0  0  0  0  0  0  0  0  0  0
   -4.2168   -5.7945    7.5671 C   0  0  0  0  0  0  0  0  0  0  0  0
   -2.2275   -4.5588    8.5267 C   0  0  0  0  0  0  0  0  0  0  0  0
   -0.8743   -4.5469    8.2476 F   0  0  0  0  0  0  0  0  0  0  0  0
   -2.5123   -5.2727    9.6879 F   0  0  0  0  0  0  0  0  0  0  0  0
   -2.6216   -3.2587    8.7794 F   0  0  0  0  0  0  0  0  0  0  0  0
 21 22  1  0  0  0
 22 23  1  0  0  0
 22 24  1  0  0  0
 22 15  1  0  0  0
 15 16  2  0  0  0
 16 17  1  0  0  0
 17 18  2  0  0  0
 18 19  1  0  0  0
 19 20  2  0  0  0
 19  7  1  0  0  0
  7  8  2  0  0  0
  7  9  1  0  0  0
  9 10  1  0  0  0
 10 11  1  0  0  0
 11 12  1  0  0  0
 12 13  1  0  0  0
 13 14  1  0  0  0
 12  1  1  0  0  0
  1  2  1  0  0  0
  2  3  1  0  0  0
  3 25  1  0  0  0
 25 26  1  0  0  0
 26 27  2  0  0  0
 26 29  1  0  0  0
 29 30  2  0  0  0
 30 31  1  0  0  0
 31 32  2  0  0  0
 32 33  1  0  0  0
 33 34  2  0  0  0
 33 35  1  0  0  0
 35 36  1  0  0  0
 35 37  1  0  0  0
 35 38  1  0  0  0
  3  4  1  0  0  0
  4  5  1  0  0  0
  5  6  1  0  0  0
 20 15  1  0  0  0
 14  9  1  0  0  0
  5  1  1  0  0  0
 34 29  1  0  0  0
 25 28  1  0  0  0
M  END
> <minimizedAffinity>
-1.00495

> <CNNscore>
0.4529978037

> <CNNaffinity>
6.9884519577

> <CNN_VS>
3.1657533646

> <CNNaffinity_variance>
1.6920154095

$$$$
[H]c1c([H])c(C(=O)N2C([H])([H])C([H])([H])N([C@@]3([H])C([H])([H])[C@@]([H])(N([H])C(=O)c4c([H])c([H])c([H])c(C(F)(F)F)c4[H])C([H])([H])[C@@]3([H])C([H])([H])[H])C([H])([H])C2([H])[H])c([H])c(C(F)(F)F)c1[H]


 38 41  0  0  0  0  0  0  0  0999 V2000
  -11.0794   -8.7247    7.1180 C   0  0  0  0  0  0  0  0  0  0  0  0
  -12.4428   -9.0790    7.7973 C   0  0  0  0  0  0  0  0  0  0  0  0
  -13.3250   -9.0937    6.6781 C   0  0  0  0  0  0  0  0  0  0  0  0
  -12.8860   -7.7293    5.9340 C   0  0  0  0  0  0  0  0  0  0  0  0
  -11.4142   -7.8057    6.0460 C   0  0  0  0  0  0  0  0  0  0  0  0
  -10.8196   -6.4093    6.1495 C   0  0  0  0  0  0  0  0  0  0  0  0
   -6.8608   -6.4785    8.7724 C   0  0  0  0  0  0  0  0  0  0  0  0
   -7.3228   -5.2895    8.6231 O   0  0  0  0  0  0  0  0  0  0  0  0
   -7.7809   -7.4992    9.0588 N   0  0  0  0  0  0  0  0  0  0  0  0
   -9.0777   -7.0834    9.6680 C   0  0  0  0  0  0  0  0  0  0  0  0
  -10.1983   -7.2200    8.7088 C   0  0  0  0  0  0  0  0  0  0  0  0
  -10.0851   -8.4849    8.0776 N   0  0  0  0  0  0  0  0  0  0  0  0
   -9.1463   -9.4057    8.4844 C   0  0  0  0  0  0  0  0  0  0  0  0
   -7.7259   -8.8627    8.6568 C   0  0  0  0  0  0  0  0  0  0  0  0
   -3.7548   -7.6852    7.2206 C   0  0  0  0  0  0  0  0  0  0  0  0
   -2.8242   -7.6516    8.2472 C   0  0  0  0  0  0  0  0  0  0  0  0
   -3.2284   -7.0827    9.4294 C   0  0  0  0  0  0  0  0  0  0  0  0
   -4.4869   -6.5612    9.6424 C   0  0  0  0  0  0  0  0  0  0  0  0
   -5.4149   -6.5896    8.6510 C   0  0  0  0  0  0  0  0  0  0  0  0
   -4.9997   -7.1699    7.4192 C   0  0  0  0  0  0  0  0  0  0  0  0
   -4.6450   -8.7009    5.2375 F   0  0  0  0  0  0  0  0  0  0  0  0
   -3.5120   -8.3901    5.9283 C   0  0  0  0  0  0  0  0  0  0  0  0
   -2.5295   -7.7421    5.2292 F   0  0  0  0  0  0  0  0  0  0  0  0
   -2.9545   -9.6276    6.2964 F   0  0  0  0  0  0  0  0  0  0  0  0
  -14.7620   -8.7793    6.7774 N   0  0  0  0  0  0  0  0  0  0  0  0
  -15.2387   -7.9610    5.7191 C   0  0  0  0  0  0  0  0  0  0  0  0
  -14.5298   -7.6616    4.7090 O   0  0  0  0  0  0  0  0  0  0  0  0
  -15.3258   -9.1253    7.5265 H   0  0  0  0  0  0  0  0  0  0  0  0
  -16.5593   -7.3762    5.7583 C   0  0  0  0  0  0  0  0  0  0  0  0
  -17.2789   -7.7487    6.9302 C   0  0  0  0  0  0  0  0  0  0  0  0
  -18.4442   -7.1507    7.2795 C   0  0  0  0  0  0  0  0  0  0  0  0
  -18.9291   -6.1514    6.4531 C   0  0  0  0  0  0  0  0  0  0  0  0
  -18.2677   -5.7510    5.2858 C   0  0  0  0  0  0  0  0  0  0  0  0
  -17.0760   -6.4049    4.9861 C   0  0  0  0  0  0  0  0  0  0  0  0
  -18.8233   -4.6463    4.4771 C   0  0  0  0  0  0  0  0  0  0  0  0
  -19.1808   -5.0386    3.2014 F   0  0  0  0  0  0  0  0  0  0  0  0
  -17.9405   -3.5694    4.4614 F   0  0  0  0  0  0  0  0  0  0  0  0
  -19.9601   -4.1902    5.1166 F   0  0  0  0  0  0  0  0  0  0  0  0
 21 22  1  0  0  0
 22 23  1  0  0  0
 22 24  1  0  0  0
 22 15  1  0  0  0
 15 16  2  0  0  0
 16 17  1  0  0  0
 17 18  2  0  0  0
 18 19  1  0  0  0
 19 20  2  0  0  0
 19  7  1  0  0  0
  7  8  2  0  0  0
  7  9  1  0  0  0
  9 10  1  0  0  0
 10 11  1  0  0  0
 11 12  1  0  0  0
 12 13  1  0  0  0
 13 14  1  0  0  0
 12  1  1  0  0  0
  1  2  1  0  0  0
  2  3  1  0  0  0
  3 25  1  0  0  0
 25 26  1  0  0  0
 26 27  2  0  0  0
 26 29  1  0  0  0
 29 30  2  0  0  0
 30 31  1  0  0  0
 31 32  2  0  0  0
 32 33  1  0  0  0
 33 34  2  0  0  0
 33 35  1  0  0  0
 35 36  1  0  0  0
 35 37  1  0  0  0
 35 38  1  0  0  0
  3  4  1  0  0  0
  4  5  1  0  0  0
  5  6  1  0  0  0
 20 15  1  0  0  0
 14  9  1  0  0  0
  5  1  1  0  0  0
 34 29  1  0  0  0
 25 28  1  0  0  0
M  END
> <minimizedAffinity>
16.88603

> <CNNscore>
0.4350057244

> <CNNaffinity>
7.2477340698

> <CNN_VS>
3.1528058052

> <CNNaffinity_variance>
4.4272317886

$$$$
[H]c1c([H])c(C(=O)N2C([H])([H])C([H])([H])N([C@@]3([H])C([H])([H])[C@@]([H])(N([H])C(=O)c4c([H])c([H])c([H])c(C(F)(F)F)c4[H])C([H])([H])[C@@]3([H])C([H])([H])[H])C([H])([H])C2([H])[H])c([H])c(C(F)(F)F)c1[H]


 38 41  0  0  0  0  0  0  0  0999 V2000
   -5.9144   -6.9338    6.6196 C   0  0  0  0  0  0  0  0  0  0  0  0
   -6.2189   -7.1381    5.0994 C   0  0  0  0  0  0  0  0  0  0  0  0
   -6.9050   -8.3873    5.1101 C   0  0  0  0  0  0  0  0  0  0  0  0
   -5.9404   -9.2492    6.0767 C   0  0  0  0  0  0  0  0  0  0  0  0
   -5.6464   -8.2628    7.1374 C   0  0  0  0  0  0  0  0  0  0  0  0
   -4.2527   -8.4942    7.7017 C   0  0  0  0  0  0  0  0  0  0  0  0
   -1.7686   -4.6963    8.4594 C   0  0  0  0  0  0  0  0  0  0  0  0
   -0.9583   -5.4853    7.8509 O   0  0  0  0  0  0  0  0  0  0  0  0
   -3.0083   -4.4462    7.8503 N   0  0  0  0  0  0  0  0  0  0  0  0
   -3.0886   -4.6626    6.3763 C   0  0  0  0  0  0  0  0  0  0  0  0
   -3.8909   -5.8632    6.0454 C   0  0  0  0  0  0  0  0  0  0  0  0
   -5.0768   -5.8273    6.8221 N   0  0  0  0  0  0  0  0  0  0  0  0
   -5.3920   -4.7336    7.5963 C   0  0  0  0  0  0  0  0  0  0  0  0
   -4.2602   -4.2090    8.4829 C   0  0  0  0  0  0  0  0  0  0  0  0
   -1.4044   -4.5523   12.1143 C   0  0  0  0  0  0  0  0  0  0  0  0
   -1.1028   -3.2251   12.3758 C   0  0  0  0  0  0  0  0  0  0  0  0
   -0.8861   -2.4148   11.2891 C   0  0  0  0  0  0  0  0  0  0  0  0
   -0.9584   -2.8451    9.9811 C   0  0  0  0  0  0  0  0  0  0  0  0
   -1.2581   -4.1405    9.7036 C   0  0  0  0  0  0  0  0  0  0  0  0
   -1.4751   -4.9887   10.8261 C   0  0  0  0  0  0  0  0  0  0  0  0
   -2.0878   -6.7706   12.7218 F   0  0  0  0  0  0  0  0  0  0  0  0
   -1.7986   -5.5198   13.1794 C   0  0  0  0  0  0  0  0  0  0  0  0
   -0.9148   -5.4406   14.2218 F   0  0  0  0  0  0  0  0  0  0  0  0
   -3.0141   -5.0216   13.6815 F   0  0  0  0  0  0  0  0  0  0  0  0
   -6.8915   -9.3266    3.9737 N   0  0  0  0  0  0  0  0  0  0  0  0
   -8.0238  -10.1827    3.9313 C   0  0  0  0  0  0  0  0  0  0  0  0
   -9.0196  -10.0442    4.7070 O   0  0  0  0  0  0  0  0  0  0  0  0
   -6.1462   -9.3365    3.3080 H   0  0  0  0  0  0  0  0  0  0  0  0
   -8.0838  -11.3042    3.0224 C   0  0  0  0  0  0  0  0  0  0  0  0
   -8.1628  -10.8909    1.6612 C   0  0  0  0  0  0  0  0  0  0  0  0
   -8.0120  -11.7630    0.6344 C   0  0  0  0  0  0  0  0  0  0  0  0
   -7.7770  -13.0912    0.9461 C   0  0  0  0  0  0  0  0  0  0  0  0
   -7.6977  -13.5538    2.2652 C   0  0  0  0  0  0  0  0  0  0  0  0
   -7.8604  -12.6060    3.2714 C   0  0  0  0  0  0  0  0  0  0  0  0
   -7.3999  -14.9783    2.5201 C   0  0  0  0  0  0  0  0  0  0  0  0
   -6.3540  -15.1608    3.4045 F   0  0  0  0  0  0  0  0  0  0  0  0
   -7.1870  -15.6486    1.3182 F   0  0  0  0  0  0  0  0  0  0  0  0
   -8.5299  -15.5497    3.0732 F   0  0  0  0  0  0  0  0  0  0  0  0
 21 22  1  0  0  0
 22 23  1  0  0  0
 22 24  1  0  0  0
 22 15  1  0  0  0
 15 16  2  0  0  0
 16 17  1  0  0  0
 17 18  2  0  0  0
 18 19  1  0  0  0
 19 20  2  0  0  0
 19  7  1  0  0  0
  7  8  2  0  0  0
  7  9  1  0  0  0
  9 10  1  0  0  0
 10 11  1  0  0  0
 11 12  1  0  0  0
 12 13  1  0  0  0
 13 14  1  0  0  0
 12  1  1  0  0  0
  1  2  1  0  0  0
  2  3  1  0  0  0
  3 25  1  0  0  0
 25 26  1  0  0  0
 26 27  2  0  0  0
 26 29  1  0  0  0
 29 30  2  0  0  0
 30 31  1  0  0  0
 31 32  2  0  0  0
 32 33  1  0  0  0
 33 34  2  0  0  0
 33 35  1  0  0  0
 35 36  1  0  0  0
 35 37  1  0  0  0
 35 38  1  0  0  0
  3  4  1  0  0  0
  4  5  1  0  0  0
  5  6  1  0  0  0
 20 15  1  0  0  0
 14  9  1  0  0  0
  5  1  1  0  0  0
 34 29  1  0  0  0
 25 28  1  0  0  0
M  END
> <minimizedAffinity>
10.87701

> <CNNscore>
0.4279042780

> <CNNaffinity>
5.9618835449

> <CNN_VS>
2.5511155128

> <CNNaffinity_variance>
1.7362190485

$$$$
[H]c1c([H])c(C(=O)N2C([H])([H])C([H])([H])N([C@@]3([H])C([H])([H])[C@@]([H])(N([H])C(=O)c4c([H])c([H])c([H])c(C(F)(F)F)c4[H])C([H])([H])[C@@]3([H])C([H])([H])[H])C([H])([H])C2([H])[H])c([H])c(C(F)(F)F)c1[H]


 38 41  0  0  0  0  0  0  0  0999 V2000
  -11.6688   -7.9886    9.1415 C   0  0  0  0  0  0  0  0  0  0  0  0
  -10.4286   -8.1285    8.1991 C   0  0  0  0  0  0  0  0  0  0  0  0
   -9.4747   -7.2978    8.8560 C   0  0  0  0  0  0  0  0  0  0  0  0
  -10.3755   -5.9928    9.1612 C   0  0  0  0  0  0  0  0  0  0  0  0
  -11.6357   -6.6173    9.6152 C   0  0  0  0  0  0  0  0  0  0  0  0
  -12.8236   -5.7470    9.2334 C   0  0  0  0  0  0  0  0  0  0  0  0
  -14.8652   -8.9250    5.3355 C   0  0  0  0  0  0  0  0  0  0  0  0
  -13.9519   -9.3803    4.5559 O   0  0  0  0  0  0  0  0  0  0  0  0
  -14.6783   -9.0899    6.7170 N   0  0  0  0  0  0  0  0  0  0  0  0
  -13.7623  -10.1871    7.1448 C   0  0  0  0  0  0  0  0  0  0  0  0
  -12.4899   -9.6544    7.6848 C   0  0  0  0  0  0  0  0  0  0  0  0
  -12.7998   -8.5999    8.5809 N   0  0  0  0  0  0  0  0  0  0  0  0
  -14.1009   -8.3172    8.9302 C   0  0  0  0  0  0  0  0  0  0  0  0
  -15.0868   -8.2177    7.7639 C   0  0  0  0  0  0  0  0  0  0  0  0
  -16.9624   -6.0983    4.2756 C   0  0  0  0  0  0  0  0  0  0  0  0
  -18.2155   -6.6569    4.0796 C   0  0  0  0  0  0  0  0  0  0  0  0
  -18.3047   -8.0236    4.1743 C   0  0  0  0  0  0  0  0  0  0  0  0
  -17.2352   -8.8475    4.4545 C   0  0  0  0  0  0  0  0  0  0  0  0
  -16.0001   -8.3192    4.6554 C   0  0  0  0  0  0  0  0  0  0  0  0
  -15.8985   -6.9031    4.5496 C   0  0  0  0  0  0  0  0  0  0  0  0
  -15.5622   -4.2672    4.9413 F   0  0  0  0  0  0  0  0  0  0  0  0
  -16.7317   -4.6257    4.3403 C   0  0  0  0  0  0  0  0  0  0  0  0
  -16.9852   -4.0669    3.1166 F   0  0  0  0  0  0  0  0  0  0  0  0
  -17.7443   -4.1431    5.1885 F   0  0  0  0  0  0  0  0  0  0  0  0
   -8.3904   -6.5949    8.1461 N   0  0  0  0  0  0  0  0  0  0  0  0
   -7.1572   -7.2992    8.1533 C   0  0  0  0  0  0  0  0  0  0  0  0
   -7.0454   -8.4849    8.5939 O   0  0  0  0  0  0  0  0  0  0  0  0
   -8.5368   -5.7095    7.7064 H   0  0  0  0  0  0  0  0  0  0  0  0
   -5.9349   -6.6780    7.6976 C   0  0  0  0  0  0  0  0  0  0  0  0
   -5.9136   -6.5039    6.2837 C   0  0  0  0  0  0  0  0  0  0  0  0
   -4.9693   -5.7534    5.6653 C   0  0  0  0  0  0  0  0  0  0  0  0
   -4.0059   -5.1500    6.4555 C   0  0  0  0  0  0  0  0  0  0  0  0
   -3.9743   -5.2936    7.8479 C   0  0  0  0  0  0  0  0  0  0  0  0
   -4.9735   -6.0764    8.4190 C   0  0  0  0  0  0  0  0  0  0  0  0
   -2.9412   -4.5829    8.6294 C   0  0  0  0  0  0  0  0  0  0  0  0
   -1.7852   -4.3502    7.9092 F   0  0  0  0  0  0  0  0  0  0  0  0
   -2.6850   -5.2611    9.8183 F   0  0  0  0  0  0  0  0  0  0  0  0
   -3.4652   -3.3594    9.0007 F   0  0  0  0  0  0  0  0  0  0  0  0
 21 22  1  0  0  0
 22 23  1  0  0  0
 22 24  1  0  0  0
 22 15  1  0  0  0
 15 16  2  0  0  0
 16 17  1  0  0  0
 17 18  2  0  0  0
 18 19  1  0  0  0
 19 20  2  0  0  0
 19  7  1  0  0  0
  7  8  2  0  0  0
  7  9  1  0  0  0
  9 10  1  0  0  0
 10 11  1  0  0  0
 11 12  1  0  0  0
 12 13  1  0  0  0
 13 14  1  0  0  0
 12  1  1  0  0  0
  1  2  1  0  0  0
  2  3  1  0  0  0
  3 25  1  0  0  0
 25 26  1  0  0  0
 26 27  2  0  0  0
 26 29  1  0  0  0
 29 30  2  0  0  0
 30 31  1  0  0  0
 31 32  2  0  0  0
 32 33  1  0  0  0
 33 34  2  0  0  0
 33 35  1  0  0  0
 35 36  1  0  0  0
 35 37  1  0  0  0
 35 38  1  0  0  0
  3  4  1  0  0  0
  4  5  1  0  0  0
  5  6  1  0  0  0
 20 15  1  0  0  0
 14  9  1  0  0  0
  5  1  1  0  0  0
 34 29  1  0  0  0
 25 28  1  0  0  0
M  END
> <minimizedAffinity>
-10.21012

> <CNNscore>
0.3850913048

> <CNNaffinity>
7.1784300804

> <CNN_VS>
2.7643508911

> <CNNaffinity_variance>
0.0487076268

$$$$
[H]c1c([H])c(C(=O)N2C([H])([H])C([H])([H])N([C@@]3([H])C([H])([H])[C@@]([H])(N([H])C(=O)c4c([H])c([H])c([H])c(C(F)(F)F)c4[H])C([H])([H])[C@@]3([H])C([H])([H])[H])C([H])([H])C2([H])[H])c([H])c(C(F)(F)F)c1[H]


 38 41  0  0  0  0  0  0  0  0999 V2000
  -16.7664   -7.6873    6.4659 C   0  0  0  0  0  0  0  0  0  0  0  0
  -16.5196   -6.2270    5.9637 C   0  0  0  0  0  0  0  0  0  0  0  0
  -17.8266   -5.8441    5.5434 C   0  0  0  0  0  0  0  0  0  0  0  0
  -18.2620   -7.1486    4.6969 C   0  0  0  0  0  0  0  0  0  0  0  0
  -17.7733   -8.2328    5.5745 C   0  0  0  0  0  0  0  0  0  0  0  0
  -17.3525   -9.4355    4.7434 C   0  0  0  0  0  0  0  0  0  0  0  0
  -12.1344   -7.8406    8.4909 C   0  0  0  0  0  0  0  0  0  0  0  0
  -12.5394   -7.5472    9.6738 O   0  0  0  0  0  0  0  0  0  0  0  0
  -13.0233   -8.5363    7.6564 N   0  0  0  0  0  0  0  0  0  0  0  0
  -14.1042   -9.3157    8.3273 C   0  0  0  0  0  0  0  0  0  0  0  0
  -15.4299   -8.6822    8.1377 C   0  0  0  0  0  0  0  0  0  0  0  0
  -15.5561   -8.3272    6.7706 N   0  0  0  0  0  0  0  0  0  0  0  0
  -14.6097   -8.7019    5.8439 C   0  0  0  0  0  0  0  0  0  0  0  0
  -13.1571   -8.4333    6.2439 C   0  0  0  0  0  0  0  0  0  0  0  0
   -8.6144   -8.4339    7.6140 C   0  0  0  0  0  0  0  0  0  0  0  0
   -7.9448   -7.3325    8.1233 C   0  0  0  0  0  0  0  0  0  0  0  0
   -8.7187   -6.3234    8.6404 C   0  0  0  0  0  0  0  0  0  0  0  0
  -10.0966   -6.3542    8.6826 C   0  0  0  0  0  0  0  0  0  0  0  0
  -10.7712   -7.4269    8.1938 C   0  0  0  0  0  0  0  0  0  0  0  0
   -9.9753   -8.4732    7.6476 C   0  0  0  0  0  0  0  0  0  0  0  0
   -6.8800   -9.4292    6.2879 F   0  0  0  0  0  0  0  0  0  0  0  0
   -7.9129   -9.6645    7.1454 C   0  0  0  0  0  0  0  0  0  0  0  0
   -7.6453  -10.4760    8.2149 F   0  0  0  0  0  0  0  0  0  0  0  0
   -8.8733  -10.3543    6.3840 F   0  0  0  0  0  0  0  0  0  0  0  0
  -18.0758   -4.8573    4.4767 N   0  0  0  0  0  0  0  0  0  0  0  0
  -17.2564   -5.0402    3.3312 C   0  0  0  0  0  0  0  0  0  0  0  0
  -16.4968   -6.0469    3.1833 O   0  0  0  0  0  0  0  0  0  0  0  0
  -18.7649   -4.1400    4.5740 H   0  0  0  0  0  0  0  0  0  0  0  0
  -17.2055   -4.0517    2.2787 C   0  0  0  0  0  0  0  0  0  0  0  0
  -18.1366   -4.3265    1.2359 C   0  0  0  0  0  0  0  0  0  0  0  0
  -18.4124   -3.4255    0.2615 C   0  0  0  0  0  0  0  0  0  0  0  0
  -17.7532   -2.2088    0.3033 C   0  0  0  0  0  0  0  0  0  0  0  0
  -16.8231   -1.8888    1.2997 C   0  0  0  0  0  0  0  0  0  0  0  0
  -16.5874   -2.8582    2.2703 C   0  0  0  0  0  0  0  0  0  0  0  0
  -16.1922   -0.5527    1.3041 C   0  0  0  0  0  0  0  0  0  0  0  0
  -15.2627   -0.3986    2.3148 F   0  0  0  0  0  0  0  0  0  0  0  0
  -17.1676    0.4405    1.3393 F   0  0  0  0  0  0  0  0  0  0  0  0
  -15.5389   -0.3943    0.0969 F   0  0  0  0  0  0  0  0  0  0  0  0
 21 22  1  0  0  0
 22 23  1  0  0  0
 22 24  1  0  0  0
 22 15  1  0  0  0
 15 16  2  0  0  0
 16 17  1  0  0  0
 17 18  2  0  0  0
 18 19  1  0  0  0
 19 20  2  0  0  0
 19  7  1  0  0  0
  7  8  2  0  0  0
  7  9  1  0  0  0
  9 10  1  0  0  0
 10 11  1  0  0  0
 11 12  1  0  0  0
 12 13  1  0  0  0
 13 14  1  0  0  0
 12  1  1  0  0  0
  1  2  1  0  0  0
  2  3  1  0  0  0
  3 25  1  0  0  0
 25 26  1  0  0  0
 26 27  2  0  0  0
 26 29  1  0  0  0
 29 30  2  0  0  0
 30 31  1  0  0  0
 31 32  2  0  0  0
 32 33  1  0  0  0
 33 34  2  0  0  0
 33 35  1  0  0  0
 35 36  1  0  0  0
 35 37  1  0  0  0
 35 38  1  0  0  0
  3  4  1  0  0  0
  4  5  1  0  0  0
  5  6  1  0  0  0
 20 15  1  0  0  0
 14  9  1  0  0  0
  5  1  1  0  0  0
 34 29  1  0  0  0
 25 28  1  0  0  0
M  END
> <minimizedAffinity>
17.22582

> <CNNscore>
0.3649332225

> <CNNaffinity>
6.9457015991

> <CNN_VS>
2.5347173214

> <CNNaffinity_variance>
0.3499147892

$$$$
[H]c1c([H])c(C(=O)N2C([H])([H])C([H])([H])N([C@@]3([H])C([H])([H])[C@@]([H])(N([H])C(=O)c4c([H])c([H])c([H])c(C(F)(F)F)c4[H])C([H])([H])[C@@]3([H])C([H])([H])[H])C([H])([H])C2([H])[H])c([H])c(C(F)(F)F)c1[H]


 38 41  0  0  0  0  0  0  0  0999 V2000
   -6.8094   -6.6108    6.6748 C   0  0  0  0  0  0  0  0  0  0  0  0
   -7.4303   -8.0399    6.8086 C   0  0  0  0  0  0  0  0  0  0  0  0
   -8.8189   -7.7654    6.6422 C   0  0  0  0  0  0  0  0  0  0  0  0
   -8.9898   -6.4892    7.6168 C   0  0  0  0  0  0  0  0  0  0  0  0
   -7.7733   -5.7165    7.2888 C   0  0  0  0  0  0  0  0  0  0  0  0
   -7.2916   -4.9472    8.5097 C   0  0  0  0  0  0  0  0  0  0  0  0
   -2.3328   -8.9021    7.2125 C   0  0  0  0  0  0  0  0  0  0  0  0
   -2.2951   -9.3204    5.9989 O   0  0  0  0  0  0  0  0  0  0  0  0
   -3.0247   -7.7069    7.4641 N   0  0  0  0  0  0  0  0  0  0  0  0
   -3.1977   -6.7754    6.3116 C   0  0  0  0  0  0  0  0  0  0  0  0
   -4.6035   -6.7415    5.8454 C   0  0  0  0  0  0  0  0  0  0  0  0
   -5.4413   -6.6243    6.9835 N   0  0  0  0  0  0  0  0  0  0  0  0
   -4.9168   -6.4239    8.2403 C   0  0  0  0  0  0  0  0  0  0  0  0
   -3.7646   -7.3542    8.6267 C   0  0  0  0  0  0  0  0  0  0  0  0
   -1.4424  -12.0866    8.8181 C   0  0  0  0  0  0  0  0  0  0  0  0
   -1.0064  -11.7221   10.0822 C   0  0  0  0  0  0  0  0  0  0  0  0
   -0.8855  -10.3772   10.3304 C   0  0  0  0  0  0  0  0  0  0  0  0
   -1.1757   -9.3948    9.4074 C   0  0  0  0  0  0  0  0  0  0  0  0
   -1.6097   -9.7312    8.1651 C   0  0  0  0  0  0  0  0  0  0  0  0
   -1.7286  -11.1244    7.8978 C   0  0  0  0  0  0  0  0  0  0  0  0
   -3.0790  -13.7451    8.2457 F   0  0  0  0  0  0  0  0  0  0  0  0
   -1.7535  -13.4966    8.4426 C   0  0  0  0  0  0  0  0  0  0  0  0
   -0.9020  -13.9066    7.4522 F   0  0  0  0  0  0  0  0  0  0  0  0
   -1.4016  -14.2531    9.5747 F   0  0  0  0  0  0  0  0  0  0  0  0
   -9.8833   -8.5865    7.2477 N   0  0  0  0  0  0  0  0  0  0  0  0
  -11.1827   -8.2775    6.7650 C   0  0  0  0  0  0  0  0  0  0  0  0
  -11.3848   -7.4811    5.7969 O   0  0  0  0  0  0  0  0  0  0  0  0
   -9.6822   -9.2903    7.9282 H   0  0  0  0  0  0  0  0  0  0  0  0
  -12.3655   -8.8231    7.3902 C   0  0  0  0  0  0  0  0  0  0  0  0
  -12.0493   -9.7563    8.4193 C   0  0  0  0  0  0  0  0  0  0  0  0
  -12.9871  -10.2256    9.2782 C   0  0  0  0  0  0  0  0  0  0  0  0
  -14.2854   -9.7691    9.1273 C   0  0  0  0  0  0  0  0  0  0  0  0
  -14.6536   -8.8589    8.1292 C   0  0  0  0  0  0  0  0  0  0  0  0
  -13.6420   -8.4162    7.2819 C   0  0  0  0  0  0  0  0  0  0  0  0
  -16.0506   -8.3830    8.0579 C   0  0  0  0  0  0  0  0  0  0  0  0
  -16.8819   -9.0130    8.9642 F   0  0  0  0  0  0  0  0  0  0  0  0
  -16.5292   -8.4871    6.7544 F   0  0  0  0  0  0  0  0  0  0  0  0
  -16.0481   -7.0324    8.3499 F   0  0  0  0  0  0  0  0  0  0  0  0
 21 22  1  0  0  0
 22 23  1  0  0  0
 22 24  1  0  0  0
 22 15  1  0  0  0
 15 16  2  0  0  0
 16 17  1  0  0  0
 17 18  2  0  0  0
 18 19  1  0  0  0
 19 20  2  0  0  0
 19  7  1  0  0  0
  7  8  2  0  0  0
  7  9  1  0  0  0
  9 10  1  0  0  0
 10 11  1  0  0  0
 11 12  1  0  0  0
 12 13  1  0  0  0
 13 14  1  0  0  0
 12  1  1  0  0  0
  1  2  1  0  0  0
  2  3  1  0  0  0
  3 25  1  0  0  0
 25 26  1  0  0  0
 26 27  2  0  0  0
 26 29  1  0  0  0
 29 30  2  0  0  0
 30 31  1  0  0  0
 31 32  2  0  0  0
 32 33  1  0  0  0
 33 34  2  0  0  0
 33 35  1  0  0  0
 35 36  1  0  0  0
 35 37  1  0  0  0
 35 38  1  0  0  0
  3  4  1  0  0  0
  4  5  1  0  0  0
  5  6  1  0  0  0
 20 15  1  0  0  0
 14  9  1  0  0  0
  5  1  1  0  0  0
 34 29  1  0  0  0
 25 28  1  0  0  0
M  END
> <minimizedAffinity>
7.71206

> <CNNscore>
0.3614869118

> <CNNaffinity>
6.0787467957

> <CNN_VS>
2.1973874569

> <CNNaffinity_variance>
1.4476025105

$$$$
[H]c1c([H])c(C(=O)N2C([H])([H])C([H])([H])N([C@@]3([H])C([H])([H])[C@@]([H])(N([H])C(=O)c4c([H])c([H])c([H])c(C(F)(F)F)c4[H])C([H])([H])[C@@]3([H])C([H])([H])[H])C([H])([H])C2([H])[H])c([H])c(C(F)(F)F)c1[H]


 38 41  0  0  0  0  0  0  0  0999 V2000
   -9.6800   -5.2288   12.4049 C   0  0  0  0  0  0  0  0  0  0  0  0
   -9.8349   -6.0331   11.0727 C   0  0  0  0  0  0  0  0  0  0  0  0
  -11.1680   -5.7025   10.6921 C   0  0  0  0  0  0  0  0  0  0  0  0
  -11.9387   -5.9066   12.0964 C   0  0  0  0  0  0  0  0  0  0  0  0
  -10.9852   -5.2818   13.0371 C   0  0  0  0  0  0  0  0  0  0  0  0
  -11.0475   -5.9748   14.3899 C   0  0  0  0  0  0  0  0  0  0  0  0
   -4.9745   -4.2034   13.9495 C   0  0  0  0  0  0  0  0  0  0  0  0
   -5.3201   -3.1637   14.6195 O   0  0  0  0  0  0  0  0  0  0  0  0
   -5.9191   -5.2338   13.8204 N   0  0  0  0  0  0  0  0  0  0  0  0
   -6.9950   -5.2921   14.8523 C   0  0  0  0  0  0  0  0  0  0  0  0
   -8.3067   -4.8891   14.2943 C   0  0  0  0  0  0  0  0  0  0  0  0
   -8.4788   -5.5522   13.0527 N   0  0  0  0  0  0  0  0  0  0  0  0
   -7.5843   -6.5052   12.6207 C   0  0  0  0  0  0  0  0  0  0  0  0
   -6.1085   -6.1118   12.7173 C   0  0  0  0  0  0  0  0  0  0  0  0
   -2.4246   -4.4614   11.3145 C   0  0  0  0  0  0  0  0  0  0  0  0
   -1.2687   -4.8182   11.9909 C   0  0  0  0  0  0  0  0  0  0  0  0
   -1.3340   -4.8309   13.3622 C   0  0  0  0  0  0  0  0  0  0  0  0
   -2.4682   -4.5196   14.0820 C   0  0  0  0  0  0  0  0  0  0  0  0
   -3.6126   -4.1731   13.4377 C   0  0  0  0  0  0  0  0  0  0  0  0
   -3.5495   -4.1489   12.0157 C   0  0  0  0  0  0  0  0  0  0  0  0
   -1.6840   -3.7272    9.1536 F   0  0  0  0  0  0  0  0  0  0  0  0
   -2.5505   -4.5333    9.8296 C   0  0  0  0  0  0  0  0  0  0  0  0
   -2.5989   -5.8434    9.4357 F   0  0  0  0  0  0  0  0  0  0  0  0
   -3.8278   -4.0130    9.5545 F   0  0  0  0  0  0  0  0  0  0  0  0
  -12.0263   -6.5975    9.8945 N   0  0  0  0  0  0  0  0  0  0  0  0
  -11.4570   -6.9670    8.6470 C   0  0  0  0  0  0  0  0  0  0  0  0
  -10.2634   -6.6783    8.3237 O   0  0  0  0  0  0  0  0  0  0  0  0
  -12.9183   -6.9037   10.2252 H   0  0  0  0  0  0  0  0  0  0  0  0
  -12.2321   -7.6596    7.6434 C   0  0  0  0  0  0  0  0  0  0  0  0
  -11.7281   -8.9659    7.3799 C   0  0  0  0  0  0  0  0  0  0  0  0
  -12.4183   -9.8677    6.6399 C   0  0  0  0  0  0  0  0  0  0  0  0
  -13.6479   -9.4810    6.1346 C   0  0  0  0  0  0  0  0  0  0  0  0
  -14.1874   -8.2081    6.3555 C   0  0  0  0  0  0  0  0  0  0  0  0
  -13.4277   -7.3312    7.1245 C   0  0  0  0  0  0  0  0  0  0  0  0
  -15.5259   -7.8824    5.8212 C   0  0  0  0  0  0  0  0  0  0  0  0
  -16.5214   -7.9600    6.7763 F   0  0  0  0  0  0  0  0  0  0  0  0
  -15.8076   -8.6749    4.7114 F   0  0  0  0  0  0  0  0  0  0  0  0
  -15.4850   -6.5828    5.3535 F   0  0  0  0  0  0  0  0  0  0  0  0
 21 22  1  0  0  0
 22 23  1  0  0  0
 22 24  1  0  0  0
 22 15  1  0  0  0
 15 16  2  0  0  0
 16 17  1  0  0  0
 17 18  2  0  0  0
 18 19  1  0  0  0
 19 20  2  0  0  0
 19  7  1  0  0  0
  7  8  2  0  0  0
  7  9  1  0  0  0
  9 10  1  0  0  0
 10 11  1  0  0  0
 11 12  1  0  0  0
 12 13  1  0  0  0
 13 14  1  0  0  0
 12  1  1  0  0  0
  1  2  1  0  0  0
  2  3  1  0  0  0
  3 25  1  0  0  0
 25 26  1  0  0  0
 26 27  2  0  0  0
 26 29  1  0  0  0
 29 30  2  0  0  0
 30 31  1  0  0  0
 31 32  2  0  0  0
 32 33  1  0  0  0
 33 34  2  0  0  0
 33 35  1  0  0  0
 35 36  1  0  0  0
 35 37  1  0  0  0
 35 38  1  0  0  0
  3  4  1  0  0  0
  4  5  1  0  0  0
  5  6  1  0  0  0
 20 15  1  0  0  0
 14  9  1  0  0  0
  5  1  1  0  0  0
 34 29  1  0  0  0
 25 28  1  0  0  0
M  END
> <minimizedAffinity>
5.15542

> <CNNscore>
0.3602678478

> <CNNaffinity>
6.1852450371

> <CNN_VS>
2.2283449173

> <CNNaffinity_variance>
0.9514988661

$$$$
[H]c1c([H])c(C(=O)N2C([H])([H])C([H])([H])N([C@@]3([H])C([H])([H])[C@@]([H])(N([H])C(=O)c4c([H])c([H])c([H])c(C(F)(F)F)c4[H])C([H])([H])[C@@]3([H])C([H])([H])[H])C([H])([H])C2([H])[H])c([H])c(C(F)(F)F)c1[H]


 38 41  0  0  0  0  0  0  0  0999 V2000
  -10.0228   -5.2514   11.9341 C   0  0  0  0  0  0  0  0  0  0  0  0
  -10.1201   -6.1330   10.6461 C   0  0  0  0  0  0  0  0  0  0  0  0
  -11.4016   -5.7643   10.1429 C   0  0  0  0  0  0  0  0  0  0  0  0
  -12.2848   -5.8386   11.4928 C   0  0  0  0  0  0  0  0  0  0  0  0
  -11.3726   -5.2001   12.4646 C   0  0  0  0  0  0  0  0  0  0  0  0
  -11.5725   -5.7992   13.8486 C   0  0  0  0  0  0  0  0  0  0  0  0
   -5.6794   -4.1562   14.2825 C   0  0  0  0  0  0  0  0  0  0  0  0
   -6.2068   -3.2681   15.0457 O   0  0  0  0  0  0  0  0  0  0  0  0
   -6.4973   -5.2169   13.8625 N   0  0  0  0  0  0  0  0  0  0  0  0
   -7.6894   -5.5211   14.7064 C   0  0  0  0  0  0  0  0  0  0  0  0
   -8.9484   -5.1278   14.0321 C   0  0  0  0  0  0  0  0  0  0  0  0
   -8.8922   -5.5891   12.6923 N   0  0  0  0  0  0  0  0  0  0  0  0
   -7.8627   -6.3913   12.2545 C   0  0  0  0  0  0  0  0  0  0  0  0
   -6.4562   -5.9136   12.6228 C   0  0  0  0  0  0  0  0  0  0  0  0
   -2.3368   -2.7651   14.9176 C   0  0  0  0  0  0  0  0  0  0  0  0
   -1.7465   -2.7080   13.6649 C   0  0  0  0  0  0  0  0  0  0  0  0
   -2.4423   -3.2772   12.6273 C   0  0  0  0  0  0  0  0  0  0  0  0
   -3.6732   -3.8829   12.7661 C   0  0  0  0  0  0  0  0  0  0  0  0
   -4.2710   -3.9441   13.9842 C   0  0  0  0  0  0  0  0  0  0  0  0
   -3.5509   -3.3639   15.0665 C   0  0  0  0  0  0  0  0  0  0  0  0
   -1.2655   -2.9149   17.0592 F   0  0  0  0  0  0  0  0  0  0  0  0
   -1.7714   -2.0744   16.1130 C   0  0  0  0  0  0  0  0  0  0  0  0
   -0.9584   -1.0496   15.7096 F   0  0  0  0  0  0  0  0  0  0  0  0
   -2.8770   -1.4560   16.7237 F   0  0  0  0  0  0  0  0  0  0  0  0
  -12.2440   -6.6673    9.3376 N   0  0  0  0  0  0  0  0  0  0  0  0
  -11.6186   -7.1119    8.1425 C   0  0  0  0  0  0  0  0  0  0  0  0
  -10.3995   -6.8766    7.8762 O   0  0  0  0  0  0  0  0  0  0  0  0
  -13.1632   -6.9294    9.6295 H   0  0  0  0  0  0  0  0  0  0  0  0
  -12.3595   -7.8250    7.1276 C   0  0  0  0  0  0  0  0  0  0  0  0
  -11.9405   -9.1814    7.0076 C   0  0  0  0  0  0  0  0  0  0  0  0
  -12.6358  -10.0875    6.2775 C   0  0  0  0  0  0  0  0  0  0  0  0
  -13.7842   -9.6544    5.6369 C   0  0  0  0  0  0  0  0  0  0  0  0
  -14.2376   -8.3320    5.7138 C   0  0  0  0  0  0  0  0  0  0  0  0
  -13.4777   -7.4536    6.4808 C   0  0  0  0  0  0  0  0  0  0  0  0
  -15.4966   -7.9541    5.0392 C   0  0  0  0  0  0  0  0  0  0  0  0
  -16.2181   -9.0450    4.5933 F   0  0  0  0  0  0  0  0  0  0  0  0
  -15.2406   -7.0465    4.0145 F   0  0  0  0  0  0  0  0  0  0  0  0
  -16.2753   -7.2746    5.9563 F   0  0  0  0  0  0  0  0  0  0  0  0
 21 22  1  0  0  0
 22 23  1  0  0  0
 22 24  1  0  0  0
 22 15  1  0  0  0
 15 16  2  0  0  0
 16 17  1  0  0  0
 17 18  2  0  0  0
 18 19  1  0  0  0
 19 20  2  0  0  0
 19  7  1  0  0  0
  7  8  2  0  0  0
  7  9  1  0  0  0
  9 10  1  0  0  0
 10 11  1  0  0  0
 11 12  1  0  0  0
 12 13  1  0  0  0
 13 14  1  0  0  0
 12  1  1  0  0  0
  1  2  1  0  0  0
  2  3  1  0  0  0
  3 25  1  0  0  0
 25 26  1  0  0  0
 26 27  2  0  0  0
 26 29  1  0  0  0
 29 30  2  0  0  0
 30 31  1  0  0  0
 31 32  2  0  0  0
 32 33  1  0  0  0
 33 34  2  0  0  0
 33 35  1  0  0  0
 35 36  1  0  0  0
 35 37  1  0  0  0
 35 38  1  0  0  0
  3  4  1  0  0  0
  4  5  1  0  0  0
  5  6  1  0  0  0
 20 15  1  0  0  0
 14  9  1  0  0  0
  5  1  1  0  0  0
 34 29  1  0  0  0
 25 28  1  0  0  0
M  END
> <minimizedAffinity>
5.86606

> <CNNscore>
0.3579254150

> <CNNaffinity>
6.0613355637

> <CNN_VS>
2.1695060730

> <CNNaffinity_variance>
1.1860892773

$$$$
[H]c1c([H])c(C(=O)N2C([H])([H])C([H])([H])N([C@@]3([H])C([H])([H])[C@@]([H])(N([H])C(=O)c4c([H])c([H])c([H])c(C(F)(F)F)c4[H])C([H])([H])[C@@]3([H])C([H])([H])[H])C([H])([H])C2([H])[H])c([H])c(C(F)(F)F)c1[H]


 38 41  0  0  0  0  0  0  0  0999 V2000
  -16.4609   -7.5775    6.2860 C   0  0  0  0  0  0  0  0  0  0  0  0
  -16.5027   -6.1204    5.7195 C   0  0  0  0  0  0  0  0  0  0  0  0
  -17.8918   -5.8160    5.8145 C   0  0  0  0  0  0  0  0  0  0  0  0
  -18.5353   -7.1632    5.1989 C   0  0  0  0  0  0  0  0  0  0  0  0
  -17.6941   -8.1972    5.8374 C   0  0  0  0  0  0  0  0  0  0  0  0
  -17.5445   -9.3987    4.9164 C   0  0  0  0  0  0  0  0  0  0  0  0
  -11.5912   -8.1635    7.5194 C   0  0  0  0  0  0  0  0  0  0  0  0
  -11.8424   -8.5170    8.7282 O   0  0  0  0  0  0  0  0  0  0  0  0
  -12.5513   -8.4705    6.5424 N   0  0  0  0  0  0  0  0  0  0  0  0
  -13.4885   -9.5899    6.8497 C   0  0  0  0  0  0  0  0  0  0  0  0
  -14.8576   -9.0942    7.1225 C   0  0  0  0  0  0  0  0  0  0  0  0
  -15.1896   -8.1465    6.1212 N   0  0  0  0  0  0  0  0  0  0  0  0
  -14.3633   -7.9261    5.0426 C   0  0  0  0  0  0  0  0  0  0  0  0
  -12.8845   -7.7216    5.3797 C   0  0  0  0  0  0  0  0  0  0  0  0
   -7.9199   -8.0008    7.6027 C   0  0  0  0  0  0  0  0  0  0  0  0
   -7.6404   -6.6500    7.7370 C   0  0  0  0  0  0  0  0  0  0  0  0
   -8.7055   -5.7875    7.6562 C   0  0  0  0  0  0  0  0  0  0  0  0
  -10.0093   -6.1903    7.4591 C   0  0  0  0  0  0  0  0  0  0  0  0
  -10.3047   -7.5099    7.3309 C   0  0  0  0  0  0  0  0  0  0  0  0
   -9.2038   -8.4094    7.4044 C   0  0  0  0  0  0  0  0  0  0  0  0
   -6.9949  -10.1119    6.9359 F   0  0  0  0  0  0  0  0  0  0  0  0
   -6.8939   -9.0653    7.8031 C   0  0  0  0  0  0  0  0  0  0  0  0
   -5.6566   -8.4931    7.9275 F   0  0  0  0  0  0  0  0  0  0  0  0
   -7.1842   -9.6066    9.0683 F   0  0  0  0  0  0  0  0  0  0  0  0
  -18.5760   -4.8721    4.9119 N   0  0  0  0  0  0  0  0  0  0  0  0
  -17.9963   -4.8031    3.6172 C   0  0  0  0  0  0  0  0  0  0  0  0
  -17.0777   -5.5910    3.2326 O   0  0  0  0  0  0  0  0  0  0  0  0
  -19.3727   -4.3458    5.2067 H   0  0  0  0  0  0  0  0  0  0  0  0
  -18.3922   -3.7862    2.6703 C   0  0  0  0  0  0  0  0  0  0  0  0
  -17.6593   -3.8703    1.4514 C   0  0  0  0  0  0  0  0  0  0  0  0
  -18.0098   -3.1612    0.3506 C   0  0  0  0  0  0  0  0  0  0  0  0
  -19.1174   -2.3355    0.4414 C   0  0  0  0  0  0  0  0  0  0  0  0
  -19.8691   -2.2083    1.6157 C   0  0  0  0  0  0  0  0  0  0  0  0
  -19.4557   -2.9651    2.7083 C   0  0  0  0  0  0  0  0  0  0  0  0
  -21.0653   -1.3410    1.6236 C   0  0  0  0  0  0  0  0  0  0  0  0
  -21.8069   -1.4345    0.4615 F   0  0  0  0  0  0  0  0  0  0  0  0
  -20.7050   -0.0258    1.9057 F   0  0  0  0  0  0  0  0  0  0  0  0
  -21.8674   -1.7438    2.6742 F   0  0  0  0  0  0  0  0  0  0  0  0
 21 22  1  0  0  0
 22 23  1  0  0  0
 22 24  1  0  0  0
 22 15  1  0  0  0
 15 16  2  0  0  0
 16 17  1  0  0  0
 17 18  2  0  0  0
 18 19  1  0  0  0
 19 20  2  0  0  0
 19  7  1  0  0  0
  7  8  2  0  0  0
  7  9  1  0  0  0
  9 10  1  0  0  0
 10 11  1  0  0  0
 11 12  1  0  0  0
 12 13  1  0  0  0
 13 14  1  0  0  0
 12  1  1  0  0  0
  1  2  1  0  0  0
  2  3  1  0  0  0
  3 25  1  0  0  0
 25 26  1  0  0  0
 26 27  2  0  0  0
 26 29  1  0  0  0
 29 30  2  0  0  0
 30 31  1  0  0  0
 31 32  2  0  0  0
 32 33  1  0  0  0
 33 34  2  0  0  0
 33 35  1  0  0  0
 35 36  1  0  0  0
 35 37  1  0  0  0
 35 38  1  0  0  0
  3  4  1  0  0  0
  4  5  1  0  0  0
  5  6  1  0  0  0
 20 15  1  0  0  0
 14  9  1  0  0  0
  5  1  1  0  0  0
 34 29  1  0  0  0
 25 28  1  0  0  0
M  END
> <minimizedAffinity>
27.82992

> <CNNscore>
0.3524524271

> <CNNaffinity>
6.8294882774

> <CNN_VS>
2.4070696831

> <CNNaffinity_variance>
0.8142144084

$$$$
[H]OC([H])([H])[C@]1(C([H])([H])N([H])C(=O)c2c([H])c([H])c(N([H])C([H])([H])C([H])([H])OC([H])([H])[H])c([H])c2[H])OC([H])([H])C(=O)[C@]([H])(C([H])([H])c2c([H])c([H])c3c(c2[H])OC([H])([H])O3)N([H])C(=O)C([H])=C([H])C(C([H])([H])[H])=C([H])C1([H])[H]


 46 49  0  0  0  0  0  0  0  0999 V2000
  -12.9539   -9.6935    7.1615 C   0  0  0  0  0  0  0  0  0  0  0  0
  -12.8448   -8.3627    6.3901 C   0  0  0  0  0  0  0  0  0  0  0  0
  -13.9156   -7.4348    6.7888 C   0  0  0  0  0  0  0  0  0  0  0  0
  -13.9286   -6.2528    7.2972 C   0  0  0  0  0  0  0  0  0  0  0  0
  -15.3593   -5.7166    7.5274 C   0  0  0  0  0  0  0  0  0  0  0  0
  -12.8692   -5.3361    7.6735 C   0  0  0  0  0  0  0  0  0  0  0  0
  -11.7408   -5.4355    8.2830 C   0  0  0  0  0  0  0  0  0  0  0  0
  -10.9852   -6.5005    8.8848 C   0  0  0  0  0  0  0  0  0  0  0  0
   -9.7091   -6.4676    8.5615 O   0  0  0  0  0  0  0  0  0  0  0  0
  -11.2922   -7.5517    9.7254 N   0  0  0  0  0  0  0  0  0  0  0  0
  -12.2393   -7.6649   10.8045 C   0  0  0  0  0  0  0  0  0  0  0  0
  -13.3428   -8.5014   10.3567 C   0  0  0  0  0  0  0  0  0  0  0  0
  -14.5311   -8.3721   10.5446 O   0  0  0  0  0  0  0  0  0  0  0  0
  -13.0014   -9.7340    9.5250 C   0  0  0  0  0  0  0  0  0  0  0  0
  -13.5934   -9.5422    8.3359 O   0  0  0  0  0  0  0  0  0  0  0  0
  -10.7212   -8.4531    9.5631 H   0  0  0  0  0  0  0  0  0  0  0  0
  -13.9126  -10.5559    6.2994 C   0  0  0  0  0  0  0  0  0  0  0  0
  -14.2870   -9.8810    5.1550 O   0  0  0  0  0  0  0  0  0  0  0  0
  -13.9837  -10.4303    4.3816 H   0  0  0  0  0  0  0  0  0  0  0  0
  -11.6562  -10.4023    7.1307 C   0  0  0  0  0  0  0  0  0  0  0  0
   -9.1826   -9.9977    7.1984 C   0  0  0  0  0  0  0  0  0  0  0  0
   -9.0043  -11.2650    7.1578 O   0  0  0  0  0  0  0  0  0  0  0  0
  -10.5122   -9.4878    7.1878 N   0  0  0  0  0  0  0  0  0  0  0  0
  -10.6218   -8.4612    7.2249 H   0  0  0  0  0  0  0  0  0  0  0  0
   -5.7208   -7.4474    7.2585 C   0  0  0  0  0  0  0  0  0  0  0  0
   -6.3058   -7.8876    6.0842 C   0  0  0  0  0  0  0  0  0  0  0  0
   -7.4140   -8.7042    6.0780 C   0  0  0  0  0  0  0  0  0  0  0  0
   -8.0116   -9.1354    7.2541 C   0  0  0  0  0  0  0  0  0  0  0  0
   -7.4415   -8.7060    8.4269 C   0  0  0  0  0  0  0  0  0  0  0  0
   -6.3128   -7.8740    8.4229 C   0  0  0  0  0  0  0  0  0  0  0  0
   -4.5872   -6.5952    7.2246 N   0  0  0  0  0  0  0  0  0  0  0  0
   -3.6924   -7.0264    6.8368 H   0  0  0  0  0  0  0  0  0  0  0  0
   -4.5696   -5.2472    7.6578 C   0  0  0  0  0  0  0  0  0  0  0  0
   -3.9859   -4.9554    8.9988 C   0  0  0  0  0  0  0  0  0  0  0  0
   -4.4393   -4.7733   11.3026 C   0  0  0  0  0  0  0  0  0  0  0  0
   -4.6818   -5.3272   10.1008 O   0  0  0  0  0  0  0  0  0  0  0  0
  -12.5218   -6.3878   11.4863 C   0  0  0  0  0  0  0  0  0  0  0  0
  -11.5082   -5.8365   12.3721 C   0  0  0  0  0  0  0  0  0  0  0  0
  -11.8518   -5.0931   13.4808 C   0  0  0  0  0  0  0  0  0  0  0  0
  -10.9354   -4.5770   14.3636 C   0  0  0  0  0  0  0  0  0  0  0  0
   -9.5968   -4.7928   14.1630 C   0  0  0  0  0  0  0  0  0  0  0  0
   -8.4351   -4.4092   14.8660 O   0  0  0  0  0  0  0  0  0  0  0  0
   -7.3465   -5.1853   14.3809 C   0  0  0  0  0  0  0  0  0  0  0  0
   -7.8229   -5.5893   13.1128 O   0  0  0  0  0  0  0  0  0  0  0  0
   -9.2119   -5.5310   13.0666 C   0  0  0  0  0  0  0  0  0  0  0  0
  -10.1626   -6.0448   12.1841 C   0  0  0  0  0  0  0  0  0  0  0  0
 35 36  1  0  0  0
 36 34  1  0  0  0
 34 33  1  0  0  0
 33 31  1  0  0  0
 31 25  1  0  0  0
 25 26  2  0  0  0
 26 27  1  0  0  0
 27 28  2  0  0  0
 28 29  1  0  0  0
 29 30  2  0  0  0
 28 21  1  0  0  0
 21 22  2  0  0  0
 21 23  1  0  0  0
 23 20  1  0  0  0
  1 20  1  0  0  0
  1 17  1  0  0  0
 17 18  1  0  0  0
  1  2  1  0  0  0
  2  3  1  0  0  0
  3  4  2  0  0  0
  4  5  1  0  0  0
  4  6  1  0  0  0
  6  7  2  0  0  0
  7  8  1  0  0  0
  8  9  2  0  0  0
  8 10  1  0  0  0
 10 11  1  0  0  0
 11 37  1  0  0  0
 37 38  1  0  0  0
 38 39  2  0  0  0
 39 40  1  0  0  0
 40 41  2  0  0  0
 41 42  1  0  0  0
 42 43  1  0  0  0
 43 44  1  0  0  0
 44 45  1  0  0  0
 45 46  2  0  0  0
 11 12  1  0  0  0
 12 13  2  0  0  0
 12 14  1  0  0  0
 14 15  1  0  0  0
 30 25  1  0  0  0
 15  1  1  0  0  0
 46 38  1  0  0  0
 45 41  1  0  0  0
 31 32  1  0  0  0
 23 24  1  0  0  0
 18 19  1  0  0  0
 10 16  1  0  0  0
M  END
> <minimizedAffinity>
10.98906

> <CNNscore>
0.4512678087

> <CNNaffinity>
6.6505584717

> <CNN_VS>
3.0011830330

> <CNNaffinity_variance>
0.3105075061

$$$$
[H]OC([H])([H])[C@]1(C([H])([H])N([H])C(=O)c2c([H])c([H])c(N([H])C([H])([H])C([H])([H])OC([H])([H])[H])c([H])c2[H])OC([H])([H])C(=O)[C@]([H])(C([H])([H])c2c([H])c([H])c3c(c2[H])OC([H])([H])O3)N([H])C(=O)C([H])=C([H])C(C([H])([H])[H])=C([H])C1([H])[H]


 46 49  0  0  0  0  0  0  0  0999 V2000
  -12.6283   -9.5638    7.1948 C   0  0  0  0  0  0  0  0  0  0  0  0
  -12.6652   -8.1913    6.4927 C   0  0  0  0  0  0  0  0  0  0  0  0
  -13.8427   -7.4161    6.9158 C   0  0  0  0  0  0  0  0  0  0  0  0
  -14.0011   -6.2714    7.4819 C   0  0  0  0  0  0  0  0  0  0  0  0
  -15.4877   -5.9179    7.7103 C   0  0  0  0  0  0  0  0  0  0  0  0
  -13.0616   -5.2584    7.9240 C   0  0  0  0  0  0  0  0  0  0  0  0
  -11.9377   -5.2571    8.5497 C   0  0  0  0  0  0  0  0  0  0  0  0
  -11.0709   -6.2567    9.1126 C   0  0  0  0  0  0  0  0  0  0  0  0
   -9.8031   -6.0590    8.8164 O   0  0  0  0  0  0  0  0  0  0  0  0
  -11.2640   -7.3783    9.8939 N   0  0  0  0  0  0  0  0  0  0  0  0
  -12.2060   -7.6564   10.9472 C   0  0  0  0  0  0  0  0  0  0  0  0
  -13.1977   -8.5914   10.4369 C   0  0  0  0  0  0  0  0  0  0  0  0
  -14.3955   -8.6110   10.6077 O   0  0  0  0  0  0  0  0  0  0  0  0
  -12.7029   -9.7314    9.5520 C   0  0  0  0  0  0  0  0  0  0  0  0
  -13.2971   -9.5487    8.3624 O   0  0  0  0  0  0  0  0  0  0  0  0
  -10.5892   -8.1977    9.6982 H   0  0  0  0  0  0  0  0  0  0  0  0
  -13.4674  -10.4863    6.2724 C   0  0  0  0  0  0  0  0  0  0  0  0
  -14.3420   -9.7473    5.5013 O   0  0  0  0  0  0  0  0  0  0  0  0
  -14.1115   -9.9258    4.5490 H   0  0  0  0  0  0  0  0  0  0  0  0
  -11.2561  -10.1143    7.1543 C   0  0  0  0  0  0  0  0  0  0  0  0
   -8.8749   -9.3695    7.4035 C   0  0  0  0  0  0  0  0  0  0  0  0
   -8.5683  -10.5643    7.7468 O   0  0  0  0  0  0  0  0  0  0  0  0
  -10.2305   -9.0693    7.0872 N   0  0  0  0  0  0  0  0  0  0  0  0
  -10.4453   -8.0955    6.8172 H   0  0  0  0  0  0  0  0  0  0  0  0
   -5.7274   -6.4398    7.3544 C   0  0  0  0  0  0  0  0  0  0  0  0
   -6.0445   -7.1790    8.4805 C   0  0  0  0  0  0  0  0  0  0  0  0
   -7.0547   -8.1140    8.4838 C   0  0  0  0  0  0  0  0  0  0  0  0
   -7.8174   -8.3710    7.3531 C   0  0  0  0  0  0  0  0  0  0  0  0
   -7.5135   -7.6449    6.2282 C   0  0  0  0  0  0  0  0  0  0  0  0
   -6.4823   -6.6947    6.2348 C   0  0  0  0  0  0  0  0  0  0  0  0
   -4.6701   -5.4947    7.3858 N   0  0  0  0  0  0  0  0  0  0  0  0
   -4.7578   -4.7225    8.1158 H   0  0  0  0  0  0  0  0  0  0  0  0
   -3.5377   -5.5123    6.5359 C   0  0  0  0  0  0  0  0  0  0  0  0
   -3.6727   -4.8961    5.1846 C   0  0  0  0  0  0  0  0  0  0  0  0
   -4.0209   -2.9409    3.9186 C   0  0  0  0  0  0  0  0  0  0  0  0
   -3.9694   -3.5761    5.1035 O   0  0  0  0  0  0  0  0  0  0  0  0
  -12.6455   -6.4577   11.6859 C   0  0  0  0  0  0  0  0  0  0  0  0
  -11.6959   -5.8038   12.5728 C   0  0  0  0  0  0  0  0  0  0  0  0
  -10.3742   -6.1920   12.6206 C   0  0  0  0  0  0  0  0  0  0  0  0
   -9.4330   -5.5878   13.4173 C   0  0  0  0  0  0  0  0  0  0  0  0
   -9.7914   -4.5379   14.2222 C   0  0  0  0  0  0  0  0  0  0  0  0
   -9.0822   -3.7254   15.1320 O   0  0  0  0  0  0  0  0  0  0  0  0
   -9.8869   -2.5927   15.4357 C   0  0  0  0  0  0  0  0  0  0  0  0
  -11.1787   -3.0585   15.1001 O   0  0  0  0  0  0  0  0  0  0  0  0
  -11.1027   -4.1192   14.2035 C   0  0  0  0  0  0  0  0  0  0  0  0
  -12.0403   -4.7498   13.3851 C   0  0  0  0  0  0  0  0  0  0  0  0
 35 36  1  0  0  0
 36 34  1  0  0  0
 34 33  1  0  0  0
 33 31  1  0  0  0
 31 25  1  0  0  0
 25 26  2  0  0  0
 26 27  1  0  0  0
 27 28  2  0  0  0
 28 29  1  0  0  0
 29 30  2  0  0  0
 28 21  1  0  0  0
 21 22  2  0  0  0
 21 23  1  0  0  0
 23 20  1  0  0  0
  1 20  1  0  0  0
  1 17  1  0  0  0
 17 18  1  0  0  0
  1  2  1  0  0  0
  2  3  1  0  0  0
  3  4  2  0  0  0
  4  5  1  0  0  0
  4  6  1  0  0  0
  6  7  2  0  0  0
  7  8  1  0  0  0
  8  9  2  0  0  0
  8 10  1  0  0  0
 10 11  1  0  0  0
 11 37  1  0  0  0
 37 38  1  0  0  0
 38 39  2  0  0  0
 39 40  1  0  0  0
 40 41  2  0  0  0
 41 42  1  0  0  0
 42 43  1  0  0  0
 43 44  1  0  0  0
 44 45  1  0  0  0
 45 46  2  0  0  0
 11 12  1  0  0  0
 12 13  2  0  0  0
 12 14  1  0  0  0
 14 15  1  0  0  0
 30 25  1  0  0  0
 15  1  1  0  0  0
 46 38  1  0  0  0
 45 41  1  0  0  0
 31 32  1  0  0  0
 23 24  1  0  0  0
 18 19  1  0  0  0
 10 16  1  0  0  0
M  END
> <minimizedAffinity>
11.49136

> <CNNscore>
0.4408436716

> <CNNaffinity>
6.6341147423

> <CNN_VS>
2.9246075153

> <CNNaffinity_variance>
0.3406283855

$$$$
[H]OC([H])([H])[C@]1(C([H])([H])N([H])C(=O)c2c([H])c([H])c(N([H])C([H])([H])C([H])([H])OC([H])([H])[H])c([H])c2[H])OC([H])([H])C(=O)[C@]([H])(C([H])([H])c2c([H])c([H])c3c(c2[H])OC([H])([H])O3)N([H])C(=O)C([H])=C([H])C(C([H])([H])[H])=C([H])C1([H])[H]


 46 49  0  0  0  0  0  0  0  0999 V2000
  -13.5038   -9.4928    5.5968 C   0  0  0  0  0  0  0  0  0  0  0  0
  -13.2823   -8.0044    5.2597 C   0  0  0  0  0  0  0  0  0  0  0  0
  -14.4831   -7.2112    5.5687 C   0  0  0  0  0  0  0  0  0  0  0  0
  -14.7161   -6.2091    6.3415 C   0  0  0  0  0  0  0  0  0  0  0  0
  -16.1892   -5.7458    6.2923 C   0  0  0  0  0  0  0  0  0  0  0  0
  -13.8653   -5.4336    7.2240 C   0  0  0  0  0  0  0  0  0  0  0  0
  -12.9407   -5.6997    8.0778 C   0  0  0  0  0  0  0  0  0  0  0  0
  -12.3046   -6.8918    8.5696 C   0  0  0  0  0  0  0  0  0  0  0  0
  -10.9942   -6.7809    8.6370 O   0  0  0  0  0  0  0  0  0  0  0  0
  -12.7543   -8.1281    8.9878 N   0  0  0  0  0  0  0  0  0  0  0  0
  -13.9486   -8.5213    9.6902 C   0  0  0  0  0  0  0  0  0  0  0  0
  -14.8279   -9.2001    8.7500 C   0  0  0  0  0  0  0  0  0  0  0  0
  -16.0286   -9.1189    8.6241 O   0  0  0  0  0  0  0  0  0  0  0  0
  -14.1884  -10.1662    7.7574 C   0  0  0  0  0  0  0  0  0  0  0  0
  -14.4471   -9.6586    6.5421 O   0  0  0  0  0  0  0  0  0  0  0  0
  -12.0993   -8.9563    8.7640 H   0  0  0  0  0  0  0  0  0  0  0  0
  -14.1298  -10.0863    4.3077 C   0  0  0  0  0  0  0  0  0  0  0  0
  -15.4463   -9.6935    4.1739 O   0  0  0  0  0  0  0  0  0  0  0  0
  -15.5138   -9.1914    3.3164 H   0  0  0  0  0  0  0  0  0  0  0  0
  -12.2004  -10.1751    5.7483 C   0  0  0  0  0  0  0  0  0  0  0  0
   -9.9216   -9.8463    6.7415 C   0  0  0  0  0  0  0  0  0  0  0  0
   -9.7119  -11.1016    6.6010 O   0  0  0  0  0  0  0  0  0  0  0  0
  -11.1720   -9.3055    6.3269 N   0  0  0  0  0  0  0  0  0  0  0  0
  -11.3109   -8.2901    6.4570 H   0  0  0  0  0  0  0  0  0  0  0  0
   -6.8323   -7.3524    8.3933 C   0  0  0  0  0  0  0  0  0  0  0  0
   -7.6886   -6.9213    7.3954 C   0  0  0  0  0  0  0  0  0  0  0  0
   -8.6738   -7.7293    6.8744 C   0  0  0  0  0  0  0  0  0  0  0  0
   -8.8664   -9.0290    7.3216 C   0  0  0  0  0  0  0  0  0  0  0  0
   -8.0238   -9.4700    8.3118 C   0  0  0  0  0  0  0  0  0  0  0  0
   -7.0234   -8.6391    8.8362 C   0  0  0  0  0  0  0  0  0  0  0  0
   -5.8377   -6.4858    8.9148 N   0  0  0  0  0  0  0  0  0  0  0  0
   -5.8804   -6.3073    9.9652 H   0  0  0  0  0  0  0  0  0  0  0  0
   -4.8201   -5.8630    8.1521 C   0  0  0  0  0  0  0  0  0  0  0  0
   -3.7285   -5.1632    8.8889 C   0  0  0  0  0  0  0  0  0  0  0  0
   -2.3504   -3.2838    8.5501 C   0  0  0  0  0  0  0  0  0  0  0  0
   -2.7893   -4.4983    8.1729 O   0  0  0  0  0  0  0  0  0  0  0  0
  -14.4939   -7.4725   10.5724 C   0  0  0  0  0  0  0  0  0  0  0  0
  -13.5650   -6.5568   11.2161 C   0  0  0  0  0  0  0  0  0  0  0  0
  -13.5863   -5.2053   10.9457 C   0  0  0  0  0  0  0  0  0  0  0  0
  -12.7521   -4.2964   11.5485 C   0  0  0  0  0  0  0  0  0  0  0  0
  -11.8353   -4.7201   12.4751 C   0  0  0  0  0  0  0  0  0  0  0  0
  -10.8619   -4.0568   13.2519 O   0  0  0  0  0  0  0  0  0  0  0  0
  -10.4253   -4.9477   14.2711 C   0  0  0  0  0  0  0  0  0  0  0  0
  -10.7791   -6.2036   13.7272 O   0  0  0  0  0  0  0  0  0  0  0  0
  -11.7820   -6.0630   12.7737 C   0  0  0  0  0  0  0  0  0  0  0  0
  -12.6408   -6.9667   12.1473 C   0  0  0  0  0  0  0  0  0  0  0  0
 35 36  1  0  0  0
 36 34  1  0  0  0
 34 33  1  0  0  0
 33 31  1  0  0  0
 31 25  1  0  0  0
 25 26  2  0  0  0
 26 27  1  0  0  0
 27 28  2  0  0  0
 28 29  1  0  0  0
 29 30  2  0  0  0
 28 21  1  0  0  0
 21 22  2  0  0  0
 21 23  1  0  0  0
 23 20  1  0  0  0
  1 20  1  0  0  0
  1 17  1  0  0  0
 17 18  1  0  0  0
  1  2  1  0  0  0
  2  3  1  0  0  0
  3  4  2  0  0  0
  4  5  1  0  0  0
  4  6  1  0  0  0
  6  7  2  0  0  0
  7  8  1  0  0  0
  8  9  2  0  0  0
  8 10  1  0  0  0
 10 11  1  0  0  0
 11 37  1  0  0  0
 37 38  1  0  0  0
 38 39  2  0  0  0
 39 40  1  0  0  0
 40 41  2  0  0  0
 41 42  1  0  0  0
 42 43  1  0  0  0
 43 44  1  0  0  0
 44 45  1  0  0  0
 45 46  2  0  0  0
 11 12  1  0  0  0
 12 13  2  0  0  0
 12 14  1  0  0  0
 14 15  1  0  0  0
 30 25  1  0  0  0
 15  1  1  0  0  0
 46 38  1  0  0  0
 45 41  1  0  0  0
 31 32  1  0  0  0
 23 24  1  0  0  0
 18 19  1  0  0  0
 10 16  1  0  0  0
M  END
> <minimizedAffinity>
9.89951

> <CNNscore>
0.4321126938

> <CNNaffinity>
6.9246721268

> <CNN_VS>
2.9922387600

> <CNNaffinity_variance>
0.4378724992

$$$$
[H]OC([H])([H])[C@]1(C([H])([H])N([H])C(=O)c2c([H])c([H])c(N([H])C([H])([H])C([H])([H])OC([H])([H])[H])c([H])c2[H])OC([H])([H])C(=O)[C@]([H])(C([H])([H])c2c([H])c([H])c3c(c2[H])OC([H])([H])O3)N([H])C(=O)C([H])=C([H])C(C([H])([H])[H])=C([H])C1([H])[H]


 46 49  0  0  0  0  0  0  0  0999 V2000
  -15.4117   -5.5566    6.0508 C   0  0  0  0  0  0  0  0  0  0  0  0
  -16.9172   -5.5967    5.7190 C   0  0  0  0  0  0  0  0  0  0  0  0
  -17.1599   -5.1822    4.3277 C   0  0  0  0  0  0  0  0  0  0  0  0
  -17.7037   -5.7504    3.3092 C   0  0  0  0  0  0  0  0  0  0  0  0
  -17.7030   -4.8521    2.0521 C   0  0  0  0  0  0  0  0  0  0  0  0
  -18.3231   -7.0493    3.1265 C   0  0  0  0  0  0  0  0  0  0  0  0
  -18.0505   -8.2558    3.4795 C   0  0  0  0  0  0  0  0  0  0  0  0
  -17.0023   -8.8994    4.2243 C   0  0  0  0  0  0  0  0  0  0  0  0
  -17.4583   -9.7749    5.0958 O   0  0  0  0  0  0  0  0  0  0  0  0
  -15.6248   -8.8092    4.2347 N   0  0  0  0  0  0  0  0  0  0  0  0
  -14.6763   -8.5728    3.1770 C   0  0  0  0  0  0  0  0  0  0  0  0
  -14.1551   -7.2222    3.3253 C   0  0  0  0  0  0  0  0  0  0  0  0
  -13.9223   -6.3904    2.4779 O   0  0  0  0  0  0  0  0  0  0  0  0
  -13.8405   -6.7386    4.7376 C   0  0  0  0  0  0  0  0  0  0  0  0
  -14.6509   -5.6897    4.9488 O   0  0  0  0  0  0  0  0  0  0  0  0
  -15.1614   -8.9484    5.1996 H   0  0  0  0  0  0  0  0  0  0  0  0
  -15.1651   -4.1007    6.5259 C   0  0  0  0  0  0  0  0  0  0  0  0
  -14.7009   -3.3166    5.4890 O   0  0  0  0  0  0  0  0  0  0  0  0
  -15.3601   -2.5805    5.3640 H   0  0  0  0  0  0  0  0  0  0  0  0
  -15.1322   -6.4050    7.2295 C   0  0  0  0  0  0  0  0  0  0  0  0
  -12.8616   -6.5429    8.2842 C   0  0  0  0  0  0  0  0  0  0  0  0
  -13.2739   -5.7539    9.2045 O   0  0  0  0  0  0  0  0  0  0  0  0
  -13.7588   -6.9169    7.2435 N   0  0  0  0  0  0  0  0  0  0  0  0
  -13.3942   -7.5518    6.5147 H   0  0  0  0  0  0  0  0  0  0  0  0
   -8.8287   -8.0311    8.3994 C   0  0  0  0  0  0  0  0  0  0  0  0
   -9.8160   -8.6041    7.6171 C   0  0  0  0  0  0  0  0  0  0  0  0
  -11.1037   -8.1186    7.5889 C   0  0  0  0  0  0  0  0  0  0  0  0
  -11.4886   -7.0215    8.3467 C   0  0  0  0  0  0  0  0  0  0  0  0
  -10.5190   -6.4427    9.1276 C   0  0  0  0  0  0  0  0  0  0  0  0
   -9.2099   -6.9445    9.1493 C   0  0  0  0  0  0  0  0  0  0  0  0
   -7.5091   -8.5514    8.3916 N   0  0  0  0  0  0  0  0  0  0  0  0
   -6.9311   -8.3671    9.2685 H   0  0  0  0  0  0  0  0  0  0  0  0
   -6.9283   -9.2804    7.3256 C   0  0  0  0  0  0  0  0  0  0  0  0
   -6.2608   -8.5090    6.2379 C   0  0  0  0  0  0  0  0  0  0  0  0
   -5.3631   -6.3439    6.0078 C   0  0  0  0  0  0  0  0  0  0  0  0
   -5.3548   -7.5611    6.5808 O   0  0  0  0  0  0  0  0  0  0  0  0
  -15.1313   -9.0381    1.8532 C   0  0  0  0  0  0  0  0  0  0  0  0
  -14.1290   -9.4297    0.8746 C   0  0  0  0  0  0  0  0  0  0  0  0
  -13.8924  -10.7555    0.5811 C   0  0  0  0  0  0  0  0  0  0  0  0
  -12.9800  -11.1755   -0.3552 C   0  0  0  0  0  0  0  0  0  0  0  0
  -12.2462  -10.2539   -1.0558 C   0  0  0  0  0  0  0  0  0  0  0  0
  -11.2568  -10.3578   -2.0563 O   0  0  0  0  0  0  0  0  0  0  0  0
  -11.0827   -9.0739   -2.6429 C   0  0  0  0  0  0  0  0  0  0  0  0
  -11.5892   -8.2243   -1.6330 O   0  0  0  0  0  0  0  0  0  0  0  0
  -12.4529   -8.9185   -0.7923 C   0  0  0  0  0  0  0  0  0  0  0  0
  -13.3861   -8.5172    0.1641 C   0  0  0  0  0  0  0  0  0  0  0  0
 35 36  1  0  0  0
 36 34  1  0  0  0
 34 33  1  0  0  0
 33 31  1  0  0  0
 31 25  1  0  0  0
 25 26  2  0  0  0
 26 27  1  0  0  0
 27 28  2  0  0  0
 28 29  1  0  0  0
 29 30  2  0  0  0
 28 21  1  0  0  0
 21 22  2  0  0  0
 21 23  1  0  0  0
 23 20  1  0  0  0
  1 20  1  0  0  0
  1 17  1  0  0  0
 17 18  1  0  0  0
  1  2  1  0  0  0
  2  3  1  0  0  0
  3  4  2  0  0  0
  4  5  1  0  0  0
  4  6  1  0  0  0
  6  7  2  0  0  0
  7  8  1  0  0  0
  8  9  2  0  0  0
  8 10  1  0  0  0
 10 11  1  0  0  0
 11 37  1  0  0  0
 37 38  1  0  0  0
 38 39  2  0  0  0
 39 40  1  0  0  0
 40 41  2  0  0  0
 41 42  1  0  0  0
 42 43  1  0  0  0
 43 44  1  0  0  0
 44 45  1  0  0  0
 45 46  2  0  0  0
 11 12  1  0  0  0
 12 13  2  0  0  0
 12 14  1  0  0  0
 14 15  1  0  0  0
 30 25  1  0  0  0
 15  1  1  0  0  0
 46 38  1  0  0  0
 45 41  1  0  0  0
 31 32  1  0  0  0
 23 24  1  0  0  0
 18 19  1  0  0  0
 10 16  1  0  0  0
M  END
> <minimizedAffinity>
26.97272

> <CNNscore>
0.3454692066

> <CNNaffinity>
6.6001920700

> <CNN_VS>
2.2801630497

> <CNNaffinity_variance>
0.1904577613

$$$$
[H]OC([H])([H])[C@]1(C([H])([H])N([H])C(=O)c2c([H])c([H])c(N([H])C([H])([H])C([H])([H])OC([H])([H])[H])c([H])c2[H])OC([H])([H])C(=O)[C@]([H])(C([H])([H])c2c([H])c([H])c3c(c2[H])OC([H])([H])O3)N([H])C(=O)C([H])=C([H])C(C([H])([H])[H])=C([H])C1([H])[H]


 46 49  0  0  0  0  0  0  0  0999 V2000
  -10.5165   -6.8741    8.2268 C   0  0  0  0  0  0  0  0  0  0  0  0
  -10.8204   -7.9653    9.2733 C   0  0  0  0  0  0  0  0  0  0  0  0
  -12.1463   -7.7587    9.8781 C   0  0  0  0  0  0  0  0  0  0  0  0
  -13.2147   -8.4721    9.9511 C   0  0  0  0  0  0  0  0  0  0  0  0
  -14.3538   -7.7659   10.7198 C   0  0  0  0  0  0  0  0  0  0  0  0
  -13.5405   -9.8011    9.4696 C   0  0  0  0  0  0  0  0  0  0  0  0
  -13.3414  -10.4597    8.3828 C   0  0  0  0  0  0  0  0  0  0  0  0
  -12.7011  -10.1980    7.1222 C   0  0  0  0  0  0  0  0  0  0  0  0
  -11.9327  -11.1905    6.7238 O   0  0  0  0  0  0  0  0  0  0  0  0
  -12.7076   -9.1425    6.2326 N   0  0  0  0  0  0  0  0  0  0  0  0
  -13.7479   -8.2220    5.8521 C   0  0  0  0  0  0  0  0  0  0  0  0
  -13.4480   -6.9258    6.4420 C   0  0  0  0  0  0  0  0  0  0  0  0
  -14.1932   -6.1263    6.9612 O   0  0  0  0  0  0  0  0  0  0  0  0
  -11.9942   -6.4634    6.4274 C   0  0  0  0  0  0  0  0  0  0  0  0
  -11.6416   -6.3405    7.7166 O   0  0  0  0  0  0  0  0  0  0  0  0
  -11.7761   -8.9707    5.7149 H   0  0  0  0  0  0  0  0  0  0  0  0
   -9.8741   -5.7263    9.0489 C   0  0  0  0  0  0  0  0  0  0  0  0
  -10.8422   -4.9717    9.6804 O   0  0  0  0  0  0  0  0  0  0  0  0
  -10.6646   -5.0314   10.6586 H   0  0  0  0  0  0  0  0  0  0  0  0
   -9.4549   -7.3383    7.3077 C   0  0  0  0  0  0  0  0  0  0  0  0
   -6.9868   -7.1054    6.9316 C   0  0  0  0  0  0  0  0  0  0  0  0
   -7.0076   -8.2202    6.3022 O   0  0  0  0  0  0  0  0  0  0  0  0
   -8.2018   -6.5958    7.4719 N   0  0  0  0  0  0  0  0  0  0  0  0
   -8.1504   -5.6960    7.9768 H   0  0  0  0  0  0  0  0  0  0  0  0
   -3.2360   -5.0621    7.4300 C   0  0  0  0  0  0  0  0  0  0  0  0
   -3.9715   -5.5475    8.4970 C   0  0  0  0  0  0  0  0  0  0  0  0
   -5.1713   -6.1999    8.3246 C   0  0  0  0  0  0  0  0  0  0  0  0
   -5.7155   -6.4097    7.0653 C   0  0  0  0  0  0  0  0  0  0  0  0
   -4.9962   -5.9335    5.9973 C   0  0  0  0  0  0  0  0  0  0  0  0
   -3.7747   -5.2704    6.1831 C   0  0  0  0  0  0  0  0  0  0  0  0
   -1.9966   -4.4069    7.6466 N   0  0  0  0  0  0  0  0  0  0  0  0
   -1.1480   -4.8495    7.1764 H   0  0  0  0  0  0  0  0  0  0  0  0
   -1.8202   -3.2356    8.4225 C   0  0  0  0  0  0  0  0  0  0  0  0
   -2.2567   -1.9378    7.8316 C   0  0  0  0  0  0  0  0  0  0  0  0
   -3.5635   -1.3701    9.7068 C   0  0  0  0  0  0  0  0  0  0  0  0
   -2.8140   -1.0112    8.6487 O   0  0  0  0  0  0  0  0  0  0  0  0
  -15.1087   -8.7792    5.9681 C   0  0  0  0  0  0  0  0  0  0  0  0
  -16.2091   -8.0534    5.3532 C   0  0  0  0  0  0  0  0  0  0  0  0
  -17.1958   -8.7087    4.6483 C   0  0  0  0  0  0  0  0  0  0  0  0
  -18.2701   -8.0735    4.0756 C   0  0  0  0  0  0  0  0  0  0  0  0
  -18.4013   -6.7141    4.1908 C   0  0  0  0  0  0  0  0  0  0  0  0
  -19.3615   -5.7885    3.7304 O   0  0  0  0  0  0  0  0  0  0  0  0
  -19.1605   -4.5608    4.4198 C   0  0  0  0  0  0  0  0  0  0  0  0
  -17.8180   -4.6852    4.8446 O   0  0  0  0  0  0  0  0  0  0  0  0
  -17.4364   -6.0221    4.8877 C   0  0  0  0  0  0  0  0  0  0  0  0
  -16.3541   -6.6907    5.4606 C   0  0  0  0  0  0  0  0  0  0  0  0
 35 36  1  0  0  0
 36 34  1  0  0  0
 34 33  1  0  0  0
 33 31  1  0  0  0
 31 25  1  0  0  0
 25 26  2  0  0  0
 26 27  1  0  0  0
 27 28  2  0  0  0
 28 29  1  0  0  0
 29 30  2  0  0  0
 28 21  1  0  0  0
 21 22  2  0  0  0
 21 23  1  0  0  0
 23 20  1  0  0  0
  1 20  1  0  0  0
  1 17  1  0  0  0
 17 18  1  0  0  0
  1  2  1  0  0  0
  2  3  1  0  0  0
  3  4  2  0  0  0
  4  5  1  0  0  0
  4  6  1  0  0  0
  6  7  2  0  0  0
  7  8  1  0  0  0
  8  9  2  0  0  0
  8 10  1  0  0  0
 10 11  1  0  0  0
 11 37  1  0  0  0
 37 38  1  0  0  0
 38 39  2  0  0  0
 39 40  1  0  0  0
 40 41  2  0  0  0
 41 42  1  0  0  0
 42 43  1  0  0  0
 43 44  1  0  0  0
 44 45  1  0  0  0
 45 46  2  0  0  0
 11 12  1  0  0  0
 12 13  2  0  0  0
 12 14  1  0  0  0
 14 15  1  0  0  0
 30 25  1  0  0  0
 15  1  1  0  0  0
 46 38  1  0  0  0
 45 41  1  0  0  0
 31 32  1  0  0  0
 23 24  1  0  0  0
 18 19  1  0  0  0
 10 16  1  0  0  0
M  END
> <minimizedAffinity>
-1.19753

> <CNNscore>
0.3183656335

> <CNNaffinity>
6.6662034988

> <CNN_VS>
2.1222901344

> <CNNaffinity_variance>
0.3331963122

$$$$
[H]OC([H])([H])[C@]1(C([H])([H])N([H])C(=O)c2c([H])c([H])c(N([H])C([H])([H])C([H])([H])OC([H])([H])[H])c([H])c2[H])OC([H])([H])C(=O)[C@]([H])(C([H])([H])c2c([H])c([H])c3c(c2[H])OC([H])([H])O3)N([H])C(=O)C([H])=C([H])C(C([H])([H])[H])=C([H])C1([H])[H]


 46 49  0  0  0  0  0  0  0  0999 V2000
  -15.1863   -8.8657    7.9968 C   0  0  0  0  0  0  0  0  0  0  0  0
  -15.0228   -8.3748    6.5441 C   0  0  0  0  0  0  0  0  0  0  0  0
  -15.4176   -6.9624    6.4191 C   0  0  0  0  0  0  0  0  0  0  0  0
  -14.8079   -5.8959    6.0362 C   0  0  0  0  0  0  0  0  0  0  0  0
  -15.7047   -4.6393    6.0984 C   0  0  0  0  0  0  0  0  0  0  0  0
  -13.4626   -5.6578    5.5485 C   0  0  0  0  0  0  0  0  0  0  0  0
  -12.2822   -6.0472    5.8796 C   0  0  0  0  0  0  0  0  0  0  0  0
  -11.7261   -6.9049    6.8908 C   0  0  0  0  0  0  0  0  0  0  0  0
  -10.8150   -7.7292    6.4171 O   0  0  0  0  0  0  0  0  0  0  0  0
  -11.9294   -7.0622    8.2472 N   0  0  0  0  0  0  0  0  0  0  0  0
  -12.2442   -6.1104    9.2813 C   0  0  0  0  0  0  0  0  0  0  0  0
  -13.6330   -6.3034    9.6712 C   0  0  0  0  0  0  0  0  0  0  0  0
  -14.4821   -5.4795    9.9247 O   0  0  0  0  0  0  0  0  0  0  0  0
  -14.1391   -7.7376    9.7915 C   0  0  0  0  0  0  0  0  0  0  0  0
  -15.1175   -7.8527    8.8800 O   0  0  0  0  0  0  0  0  0  0  0  0
  -11.8276   -8.0722    8.6141 H   0  0  0  0  0  0  0  0  0  0  0  0
  -16.6569   -9.3533    8.0709 C   0  0  0  0  0  0  0  0  0  0  0  0
  -17.5226   -8.2871    8.2087 O   0  0  0  0  0  0  0  0  0  0  0  0
  -18.1338   -8.3058    7.4226 H   0  0  0  0  0  0  0  0  0  0  0  0
  -14.3623  -10.0740    8.2167 C   0  0  0  0  0  0  0  0  0  0  0  0
  -11.8904   -9.7918    8.5291 C   0  0  0  0  0  0  0  0  0  0  0  0
  -12.0830   -9.7701    9.7948 O   0  0  0  0  0  0  0  0  0  0  0  0
  -13.0111   -9.9440    7.6637 N   0  0  0  0  0  0  0  0  0  0  0  0
  -12.8222   -9.9542    6.6481 H   0  0  0  0  0  0  0  0  0  0  0  0
   -7.8466   -9.3299    7.1416 C   0  0  0  0  0  0  0  0  0  0  0  0
   -8.3515   -8.6293    8.2228 C   0  0  0  0  0  0  0  0  0  0  0  0
   -9.6482   -8.7857    8.6575 C   0  0  0  0  0  0  0  0  0  0  0  0
  -10.5285   -9.6588    8.0339 C   0  0  0  0  0  0  0  0  0  0  0  0
  -10.0407  -10.3608    6.9595 C   0  0  0  0  0  0  0  0  0  0  0  0
   -8.7181  -10.1947    6.5245 C   0  0  0  0  0  0  0  0  0  0  0  0
   -6.5002   -9.1520    6.7316 N   0  0  0  0  0  0  0  0  0  0  0  0
   -5.7872   -9.8062    7.1794 H   0  0  0  0  0  0  0  0  0  0  0  0
   -6.0564   -8.1909    5.7912 C   0  0  0  0  0  0  0  0  0  0  0  0
   -5.1814   -7.0884    6.2839 C   0  0  0  0  0  0  0  0  0  0  0  0
   -5.3064   -6.3694    8.5231 C   0  0  0  0  0  0  0  0  0  0  0  0
   -5.6687   -6.2521    7.2327 O   0  0  0  0  0  0  0  0  0  0  0  0
  -11.7447   -4.7491    9.0108 C   0  0  0  0  0  0  0  0  0  0  0  0
  -12.5085   -3.6183    9.5142 C   0  0  0  0  0  0  0  0  0  0  0  0
  -12.5577   -3.3281   10.8608 C   0  0  0  0  0  0  0  0  0  0  0  0
  -13.2386   -2.2560   11.3828 C   0  0  0  0  0  0  0  0  0  0  0  0
  -13.9180   -1.4063   10.5491 C   0  0  0  0  0  0  0  0  0  0  0  0
  -14.6932   -0.2474   10.7653 O   0  0  0  0  0  0  0  0  0  0  0  0
  -14.8811    0.4005    9.5132 C   0  0  0  0  0  0  0  0  0  0  0  0
  -14.6524   -0.6575    8.6039 O   0  0  0  0  0  0  0  0  0  0  0  0
  -13.8936   -1.6613    9.1964 C   0  0  0  0  0  0  0  0  0  0  0  0
  -13.1942   -2.7575    8.6906 C   0  0  0  0  0  0  0  0  0  0  0  0
 35 36  1  0  0  0
 36 34  1  0  0  0
 34 33  1  0  0  0
 33 31  1  0  0  0
 31 25  1  0  0  0
 25 26  2  0  0  0
 26 27  1  0  0  0
 27 28  2  0  0  0
 28 29  1  0  0  0
 29 30  2  0  0  0
 28 21  1  0  0  0
 21 22  2  0  0  0
 21 23  1  0  0  0
 23 20  1  0  0  0
  1 20  1  0  0  0
  1 17  1  0  0  0
 17 18  1  0  0  0
  1  2  1  0  0  0
  2  3  1  0  0  0
  3  4  2  0  0  0
  4  5  1  0  0  0
  4  6  1  0  0  0
  6  7  2  0  0  0
  7  8  1  0  0  0
  8  9  2  0  0  0
  8 10  1  0  0  0
 10 11  1  0  0  0
 11 37  1  0  0  0
 37 38  1  0  0  0
 38 39  2  0  0  0
 39 40  1  0  0  0
 40 41  2  0  0  0
 41 42  1  0  0  0
 42 43  1  0  0  0
 43 44  1  0  0  0
 44 45  1  0  0  0
 45 46  2  0  0  0
 11 12  1  0  0  0
 12 13  2  0  0  0
 12 14  1  0  0  0
 14 15  1  0  0  0
 30 25  1  0  0  0
 15  1  1  0  0  0
 46 38  1  0  0  0
 45 41  1  0  0  0
 31 32  1  0  0  0
 23 24  1  0  0  0
 18 19  1  0  0  0
 10 16  1  0  0  0
M  END
> <minimizedAffinity>
32.32724

> <CNNscore>
0.3034946620

> <CNNaffinity>
6.2265386581

> <CNN_VS>
1.8897212744

> <CNNaffinity_variance>
0.6317442060

$$$$
[H]OC([H])([H])[C@]1(C([H])([H])N([H])C(=O)c2c([H])c([H])c(N([H])C([H])([H])C([H])([H])OC([H])([H])[H])c([H])c2[H])OC([H])([H])C(=O)[C@]([H])(C([H])([H])c2c([H])c([H])c3c(c2[H])OC([H])([H])O3)N([H])C(=O)C([H])=C([H])C(C([H])([H])[H])=C([H])C1([H])[H]


 46 49  0  0  0  0  0  0  0  0999 V2000
  -11.0674   -6.2317   10.1896 C   0  0  0  0  0  0  0  0  0  0  0  0
  -10.7997   -7.7360    9.9816 C   0  0  0  0  0  0  0  0  0  0  0  0
  -11.8717   -8.5483   10.5796 C   0  0  0  0  0  0  0  0  0  0  0  0
  -12.7003   -9.4152   10.1132 C   0  0  0  0  0  0  0  0  0  0  0  0
  -13.6425   -9.9853   11.1968 C   0  0  0  0  0  0  0  0  0  0  0  0
  -12.9019   -9.9623    8.7849 C   0  0  0  0  0  0  0  0  0  0  0  0
  -12.9426   -9.4859    7.5907 C   0  0  0  0  0  0  0  0  0  0  0  0
  -12.8082   -8.1837    6.9959 C   0  0  0  0  0  0  0  0  0  0  0  0
  -12.0343   -8.1861    5.9305 O   0  0  0  0  0  0  0  0  0  0  0  0
  -13.3057   -6.9293    7.2869 N   0  0  0  0  0  0  0  0  0  0  0  0
  -14.5699   -6.5076    7.8330 C   0  0  0  0  0  0  0  0  0  0  0  0
  -14.3509   -6.0676    9.2028 C   0  0  0  0  0  0  0  0  0  0  0  0
  -15.0270   -6.2561   10.1884 O   0  0  0  0  0  0  0  0  0  0  0  0
  -13.0981   -5.2449    9.4877 C   0  0  0  0  0  0  0  0  0  0  0  0
  -12.3776   -5.9730   10.3550 O   0  0  0  0  0  0  0  0  0  0  0  0
  -12.6437   -6.1074    7.0605 H   0  0  0  0  0  0  0  0  0  0  0  0
  -10.4273   -5.9178   11.5672 C   0  0  0  0  0  0  0  0  0  0  0  0
   -9.0499   -5.9725   11.4938 O   0  0  0  0  0  0  0  0  0  0  0  0
   -8.7097   -5.0714   11.7471 H   0  0  0  0  0  0  0  0  0  0  0  0
  -10.2923   -5.4411    9.2091 C   0  0  0  0  0  0  0  0  0  0  0  0
   -8.4694   -6.5759    7.9142 C   0  0  0  0  0  0  0  0  0  0  0  0
   -7.6318   -6.1659    8.7916 O   0  0  0  0  0  0  0  0  0  0  0  0
   -9.8454   -6.2417    8.0655 N   0  0  0  0  0  0  0  0  0  0  0  0
  -10.4947   -6.5848    7.3390 H   0  0  0  0  0  0  0  0  0  0  0  0
   -6.9227   -8.8453    4.6053 C   0  0  0  0  0  0  0  0  0  0  0  0
   -6.3535   -7.6574    5.0294 C   0  0  0  0  0  0  0  0  0  0  0  0
   -6.8580   -6.9397    6.0901 C   0  0  0  0  0  0  0  0  0  0  0  0
   -7.9719   -7.3675    6.7990 C   0  0  0  0  0  0  0  0  0  0  0  0
   -8.5469   -8.5449    6.3891 C   0  0  0  0  0  0  0  0  0  0  0  0
   -8.0253   -9.2690    5.3076 C   0  0  0  0  0  0  0  0  0  0  0  0
   -6.3659   -9.5640    3.5164 N   0  0  0  0  0  0  0  0  0  0  0  0
   -5.3056   -9.6772    3.5271 H   0  0  0  0  0  0  0  0  0  0  0  0
   -7.1068  -10.1263    2.4487 C   0  0  0  0  0  0  0  0  0  0  0  0
   -7.9617  -11.3120    2.7443 C   0  0  0  0  0  0  0  0  0  0  0  0
   -7.7799  -12.0418    0.5125 C   0  0  0  0  0  0  0  0  0  0  0  0
   -8.0658  -12.2833    1.8048 O   0  0  0  0  0  0  0  0  0  0  0  0
  -15.6855   -7.4240    7.5306 C   0  0  0  0  0  0  0  0  0  0  0  0
  -16.2627   -7.3958    6.1957 C   0  0  0  0  0  0  0  0  0  0  0  0
  -16.7913   -8.5304    5.6185 C   0  0  0  0  0  0  0  0  0  0  0  0
  -17.3740   -8.5496    4.3753 C   0  0  0  0  0  0  0  0  0  0  0  0
  -17.4519   -7.3961    3.6391 C   0  0  0  0  0  0  0  0  0  0  0  0
  -17.9745   -7.0907    2.3646 O   0  0  0  0  0  0  0  0  0  0  0  0
  -18.0713   -5.6761    2.2522 C   0  0  0  0  0  0  0  0  0  0  0  0
  -17.1481   -5.2452    3.2322 O   0  0  0  0  0  0  0  0  0  0  0  0
  -16.9354   -6.2404    4.1804 C   0  0  0  0  0  0  0  0  0  0  0  0
  -16.3482   -6.2469    5.4460 C   0  0  0  0  0  0  0  0  0  0  0  0
 35 36  1  0  0  0
 36 34  1  0  0  0
 34 33  1  0  0  0
 33 31  1  0  0  0
 31 25  1  0  0  0
 25 26  2  0  0  0
 26 27  1  0  0  0
 27 28  2  0  0  0
 28 29  1  0  0  0
 29 30  2  0  0  0
 28 21  1  0  0  0
 21 22  2  0  0  0
 21 23  1  0  0  0
 23 20  1  0  0  0
  1 20  1  0  0  0
  1 17  1  0  0  0
 17 18  1  0  0  0
  1  2  1  0  0  0
  2  3  1  0  0  0
  3  4  2  0  0  0
  4  5  1  0  0  0
  4  6  1  0  0  0
  6  7  2  0  0  0
  7  8  1  0  0  0
  8  9  2  0  0  0
  8 10  1  0  0  0
 10 11  1  0  0  0
 11 37  1  0  0  0
 37 38  1  0  0  0
 38 39  2  0  0  0
 39 40  1  0  0  0
 40 41  2  0  0  0
 41 42  1  0  0  0
 42 43  1  0  0  0
 43 44  1  0  0  0
 44 45  1  0  0  0
 45 46  2  0  0  0
 11 12  1  0  0  0
 12 13  2  0  0  0
 12 14  1  0  0  0
 14 15  1  0  0  0
 30 25  1  0  0  0
 15  1  1  0  0  0
 46 38  1  0  0  0
 45 41  1  0  0  0
 31 32  1  0  0  0
 23 24  1  0  0  0
 18 19  1  0  0  0
 10 16  1  0  0  0
M  END
> <minimizedAffinity>
15.62138

> <CNNscore>
0.3007428050

> <CNNaffinity>
6.5102791786

> <CNN_VS>
1.9579195976

> <CNNaffinity_variance>
0.1817923635

$$$$
[H]OC([H])([H])[C@]1(C([H])([H])N([H])C(=O)c2c([H])c([H])c(N([H])C([H])([H])C([H])([H])OC([H])([H])[H])c([H])c2[H])OC([H])([H])C(=O)[C@]([H])(C([H])([H])c2c([H])c([H])c3c(c2[H])OC([H])([H])O3)N([H])C(=O)C([H])=C([H])C(C([H])([H])[H])=C([H])C1([H])[H]


 46 49  0  0  0  0  0  0  0  0999 V2000
  -13.3785   -7.6334    8.5823 C   0  0  0  0  0  0  0  0  0  0  0  0
  -13.5250   -6.1367    8.2410 C   0  0  0  0  0  0  0  0  0  0  0  0
  -13.9731   -5.3712    9.4156 C   0  0  0  0  0  0  0  0  0  0  0  0
  -13.4811   -4.3839   10.0781 C   0  0  0  0  0  0  0  0  0  0  0  0
  -14.3788   -3.9489   11.2580 C   0  0  0  0  0  0  0  0  0  0  0  0
  -12.2689   -3.6034    9.9181 C   0  0  0  0  0  0  0  0  0  0  0  0
  -11.0363   -3.8625    9.6569 C   0  0  0  0  0  0  0  0  0  0  0  0
  -10.2652   -5.0482    9.3979 C   0  0  0  0  0  0  0  0  0  0  0  0
   -9.4479   -4.9126    8.3744 O   0  0  0  0  0  0  0  0  0  0  0  0
  -10.1858   -6.2984    9.9779 N   0  0  0  0  0  0  0  0  0  0  0  0
  -10.3093   -6.7239   11.3483 C   0  0  0  0  0  0  0  0  0  0  0  0
  -11.5851   -7.4075   11.5002 C   0  0  0  0  0  0  0  0  0  0  0  0
  -12.3863   -7.3481   12.4050 O   0  0  0  0  0  0  0  0  0  0  0  0
  -12.0193   -8.3479   10.3802 C   0  0  0  0  0  0  0  0  0  0  0  0
  -13.1586   -7.8298    9.8953 O   0  0  0  0  0  0  0  0  0  0  0  0
   -9.9859   -7.1107    9.2957 H   0  0  0  0  0  0  0  0  0  0  0  0
  -14.7907   -8.2222    8.3273 C   0  0  0  0  0  0  0  0  0  0  0  0
  -14.7189   -9.3433    7.5251 O   0  0  0  0  0  0  0  0  0  0  0  0
  -15.0997  -10.0999    8.0490 H   0  0  0  0  0  0  0  0  0  0  0  0
  -12.4962   -8.2919    7.5948 C   0  0  0  0  0  0  0  0  0  0  0  0
  -10.0018   -8.4938    7.4388 C   0  0  0  0  0  0  0  0  0  0  0  0
  -10.1360   -9.7670    7.4165 O   0  0  0  0  0  0  0  0  0  0  0  0
  -11.1663   -7.6792    7.5290 N   0  0  0  0  0  0  0  0  0  0  0  0
  -11.0235   -6.6562    7.5482 H   0  0  0  0  0  0  0  0  0  0  0  0
   -6.0129   -6.8908    7.3325 C   0  0  0  0  0  0  0  0  0  0  0  0
   -6.5094   -7.5913    8.4177 C   0  0  0  0  0  0  0  0  0  0  0  0
   -7.7885   -8.0995    8.4400 C   0  0  0  0  0  0  0  0  0  0  0  0
   -8.6584   -7.9382    7.3707 C   0  0  0  0  0  0  0  0  0  0  0  0
   -8.1789   -7.2452    6.2868 C   0  0  0  0  0  0  0  0  0  0  0  0
   -6.8742   -6.7316    6.2736 C   0  0  0  0  0  0  0  0  0  0  0  0
   -4.6843   -6.3939    7.3410 N   0  0  0  0  0  0  0  0  0  0  0  0
   -4.3449   -5.9577    6.4291 H   0  0  0  0  0  0  0  0  0  0  0  0
   -3.8067   -6.4368    8.4514 C   0  0  0  0  0  0  0  0  0  0  0  0
   -3.7613   -5.2462    9.3483 C   0  0  0  0  0  0  0  0  0  0  0  0
   -2.8848   -4.2834   11.3108 C   0  0  0  0  0  0  0  0  0  0  0  0
   -2.8556   -5.2313   10.3564 O   0  0  0  0  0  0  0  0  0  0  0  0
   -9.9101   -5.6975   12.3295 C   0  0  0  0  0  0  0  0  0  0  0  0
   -8.5374   -5.6958   12.8104 C   0  0  0  0  0  0  0  0  0  0  0  0
   -7.5292   -6.3170   12.1050 C   0  0  0  0  0  0  0  0  0  0  0  0
   -6.2142   -6.3180   12.5003 C   0  0  0  0  0  0  0  0  0  0  0  0
   -5.8470   -5.6761   13.6543 C   0  0  0  0  0  0  0  0  0  0  0  0
   -4.6139   -5.4979   14.3164 O   0  0  0  0  0  0  0  0  0  0  0  0
   -4.7782   -4.4773   15.2932 C   0  0  0  0  0  0  0  0  0  0  0  0
   -6.1784   -4.4868   15.4872 O   0  0  0  0  0  0  0  0  0  0  0  0
   -6.8246   -5.0428   14.3882 C   0  0  0  0  0  0  0  0  0  0  0  0
   -8.1541   -5.0562   13.9652 C   0  0  0  0  0  0  0  0  0  0  0  0
 35 36  1  0  0  0
 36 34  1  0  0  0
 34 33  1  0  0  0
 33 31  1  0  0  0
 31 25  1  0  0  0
 25 26  2  0  0  0
 26 27  1  0  0  0
 27 28  2  0  0  0
 28 29  1  0  0  0
 29 30  2  0  0  0
 28 21  1  0  0  0
 21 22  2  0  0  0
 21 23  1  0  0  0
 23 20  1  0  0  0
  1 20  1  0  0  0
  1 17  1  0  0  0
 17 18  1  0  0  0
  1  2  1  0  0  0
  2  3  1  0  0  0
  3  4  2  0  0  0
  4  5  1  0  0  0
  4  6  1  0  0  0
  6  7  2  0  0  0
  7  8  1  0  0  0
  8  9  2  0  0  0
  8 10  1  0  0  0
 10 11  1  0  0  0
 11 37  1  0  0  0
 37 38  1  0  0  0
 38 39  2  0  0  0
 39 40  1  0  0  0
 40 41  2  0  0  0
 41 42  1  0  0  0
 42 43  1  0  0  0
 43 44  1  0  0  0
 44 45  1  0  0  0
 45 46  2  0  0  0
 11 12  1  0  0  0
 12 13  2  0  0  0
 12 14  1  0  0  0
 14 15  1  0  0  0
 30 25  1  0  0  0
 15  1  1  0  0  0
 46 38  1  0  0  0
 45 41  1  0  0  0
 31 32  1  0  0  0
 23 24  1  0  0  0
 18 19  1  0  0  0
 10 16  1  0  0  0
M  END
> <minimizedAffinity>
16.32170

> <CNNscore>
0.2837261260

> <CNNaffinity>
6.0945401192

> <CNN_VS>
1.7291802168

> <CNNaffinity_variance>
0.3881951272

$$$$
[H]OC([H])([H])[C@]1(C([H])([H])N([H])C(=O)c2c([H])c([H])c(N([H])C([H])([H])C([H])([H])OC([H])([H])[H])c([H])c2[H])OC([H])([H])C(=O)[C@]([H])(C([H])([H])c2c([H])c([H])c3c(c2[H])OC([H])([H])O3)N([H])C(=O)C([H])=C([H])C(C([H])([H])[H])=C([H])C1([H])[H]


 46 49  0  0  0  0  0  0  0  0999 V2000
  -18.0071   -8.5332    6.8315 C   0  0  0  0  0  0  0  0  0  0  0  0
  -17.8136   -9.3703    5.5510 C   0  0  0  0  0  0  0  0  0  0  0  0
  -18.0600   -8.5569    4.3492 C   0  0  0  0  0  0  0  0  0  0  0  0
  -17.3474   -8.2369    3.3267 C   0  0  0  0  0  0  0  0  0  0  0  0
  -18.1066   -7.3365    2.3267 C   0  0  0  0  0  0  0  0  0  0  0  0
  -15.9916   -8.5712    2.9338 C   0  0  0  0  0  0  0  0  0  0  0  0
  -14.8539   -8.6468    3.5293 C   0  0  0  0  0  0  0  0  0  0  0  0
  -14.3765   -8.4371    4.8693 C   0  0  0  0  0  0  0  0  0  0  0  0
  -13.5635   -9.3894    5.2769 O   0  0  0  0  0  0  0  0  0  0  0  0
  -14.5760   -7.4640    5.8279 N   0  0  0  0  0  0  0  0  0  0  0  0
  -14.7748   -6.0419    5.7167 C   0  0  0  0  0  0  0  0  0  0  0  0
  -16.1705   -5.7522    6.0101 C   0  0  0  0  0  0  0  0  0  0  0  0
  -16.9249   -4.9763    5.4690 O   0  0  0  0  0  0  0  0  0  0  0  0
  -16.8223   -6.5136    7.1602 C   0  0  0  0  0  0  0  0  0  0  0  0
  -17.8201   -7.2197    6.6059 O   0  0  0  0  0  0  0  0  0  0  0  0
  -14.5754   -7.8158    6.8484 H   0  0  0  0  0  0  0  0  0  0  0  0
  -19.5195   -8.6667    7.1490 C   0  0  0  0  0  0  0  0  0  0  0  0
  -19.8264   -8.0560    8.3483 O   0  0  0  0  0  0  0  0  0  0  0  0
  -20.4930   -7.3433    8.1489 H   0  0  0  0  0  0  0  0  0  0  0  0
  -17.3111   -9.1784    7.9659 C   0  0  0  0  0  0  0  0  0  0  0  0
  -14.9104   -8.7598    8.5565 C   0  0  0  0  0  0  0  0  0  0  0  0
  -14.6188   -9.9007    8.0537 O   0  0  0  0  0  0  0  0  0  0  0  0
  -16.2674   -8.3279    8.5452 N   0  0  0  0  0  0  0  0  0  0  0  0
  -16.4697   -7.4043    8.9615 H   0  0  0  0  0  0  0  0  0  0  0  0
  -11.8049   -6.3237   10.2631 C   0  0  0  0  0  0  0  0  0  0  0  0
  -13.1504   -6.0714   10.4653 C   0  0  0  0  0  0  0  0  0  0  0  0
  -14.1355   -6.8586    9.9133 C   0  0  0  0  0  0  0  0  0  0  0  0
  -13.8353   -7.9558    9.1183 C   0  0  0  0  0  0  0  0  0  0  0  0
  -12.5040   -8.2181    8.9093 C   0  0  0  0  0  0  0  0  0  0  0  0
  -11.5078   -7.4104    9.4762 C   0  0  0  0  0  0  0  0  0  0  0  0
  -10.8181   -5.4978   10.8601 N   0  0  0  0  0  0  0  0  0  0  0  0
   -9.9415   -5.3253   10.2781 H   0  0  0  0  0  0  0  0  0  0  0  0
  -10.9212   -4.9033   12.1411 C   0  0  0  0  0  0  0  0  0  0  0  0
  -10.8506   -5.7992   13.3312 C   0  0  0  0  0  0  0  0  0  0  0  0
  -10.8777   -3.9319   14.7660 C   0  0  0  0  0  0  0  0  0  0  0  0
  -10.6502   -5.2401   14.5495 O   0  0  0  0  0  0  0  0  0  0  0  0
  -14.1393   -5.4422    4.5283 C   0  0  0  0  0  0  0  0  0  0  0  0
  -14.6044   -4.1400    4.0769 C   0  0  0  0  0  0  0  0  0  0  0  0
  -14.3287   -2.9930    4.7899 C   0  0  0  0  0  0  0  0  0  0  0  0
  -14.7185   -1.7382    4.3912 C   0  0  0  0  0  0  0  0  0  0  0  0
  -15.4219   -1.5793    3.2256 C   0  0  0  0  0  0  0  0  0  0  0  0
  -15.9535   -0.4560    2.5574 O   0  0  0  0  0  0  0  0  0  0  0  0
  -16.2987   -0.8489    1.2348 C   0  0  0  0  0  0  0  0  0  0  0  0
  -16.4245   -2.2500    1.3739 O   0  0  0  0  0  0  0  0  0  0  0  0
  -15.7174   -2.7007    2.4837 C   0  0  0  0  0  0  0  0  0  0  0  0
  -15.3100   -3.9650    2.9104 C   0  0  0  0  0  0  0  0  0  0  0  0
 35 36  1  0  0  0
 36 34  1  0  0  0
 34 33  1  0  0  0
 33 31  1  0  0  0
 31 25  1  0  0  0
 25 26  2  0  0  0
 26 27  1  0  0  0
 27 28  2  0  0  0
 28 29  1  0  0  0
 29 30  2  0  0  0
 28 21  1  0  0  0
 21 22  2  0  0  0
 21 23  1  0  0  0
 23 20  1  0  0  0
  1 20  1  0  0  0
  1 17  1  0  0  0
 17 18  1  0  0  0
  1  2  1  0  0  0
  2  3  1  0  0  0
  3  4  2  0  0  0
  4  5  1  0  0  0
  4  6  1  0  0  0
  6  7  2  0  0  0
  7  8  1  0  0  0
  8  9  2  0  0  0
  8 10  1  0  0  0
 10 11  1  0  0  0
 11 37  1  0  0  0
 37 38  1  0  0  0
 38 39  2  0  0  0
 39 40  1  0  0  0
 40 41  2  0  0  0
 41 42  1  0  0  0
 42 43  1  0  0  0
 43 44  1  0  0  0
 44 45  1  0  0  0
 45 46  2  0  0  0
 11 12  1  0  0  0
 12 13  2  0  0  0
 12 14  1  0  0  0
 14 15  1  0  0  0
 30 25  1  0  0  0
 15  1  1  0  0  0
 46 38  1  0  0  0
 45 41  1  0  0  0
 31 32  1  0  0  0
 23 24  1  0  0  0
 18 19  1  0  0  0
 10 16  1  0  0  0
M  END
> <minimizedAffinity>
19.49386

> <CNNscore>
0.2772388160

> <CNNaffinity>
6.8478708267

> <CNN_VS>
1.8984955549

> <CNNaffinity_variance>
0.2907726169

$$$$
[H]O[C@@]1([H])C([H])([H])C([H])([H])[C@@]2([H])[C@]3([H])C([H])([H])C([H])([H])C4=C([H])C(=O)C([H])=C([H])[C@]4(C([H])([H])[H])[C@@]3([H])C([H])([H])C([H])([H])[C@@]12C([H])([H])[H]


 22 25  0  0  0  0  0  0  0  0999 V2000
  -15.0137   -7.8986    3.0952 C   0  0  0  0  0  0  0  0  0  0  0  0
  -15.4729   -8.0745    4.5213 C   0  0  0  0  0  0  0  0  0  0  0  0
  -15.0976   -9.4256    5.0785 C   0  0  0  0  0  0  0  0  0  0  0  0
  -13.6609   -9.5013    5.5085 C   0  0  0  0  0  0  0  0  0  0  0  0
  -13.1616   -8.3180    6.2539 C   0  0  0  0  0  0  0  0  0  0  0  0
  -14.3591   -7.4906    6.6925 C   0  0  0  0  0  0  0  0  0  0  0  0
  -13.9949   -6.2774    7.4876 C   0  0  0  0  0  0  0  0  0  0  0  0
  -13.3573   -6.7564    8.7990 C   0  0  0  0  0  0  0  0  0  0  0  0
  -12.1370   -7.5122    8.3331 C   0  0  0  0  0  0  0  0  0  0  0  0
  -10.9699   -7.1044    8.7579 C   0  0  0  0  0  0  0  0  0  0  0  0
   -9.7168   -7.7417    8.3784 C   0  0  0  0  0  0  0  0  0  0  0  0
   -8.5928   -7.3716    8.7719 O   0  0  0  0  0  0  0  0  0  0  0  0
   -9.8174   -8.8761    7.4845 C   0  0  0  0  0  0  0  0  0  0  0  0
  -11.0266   -9.2701    7.0694 C   0  0  0  0  0  0  0  0  0  0  0  0
  -12.2858   -8.6550    7.4425 C   0  0  0  0  0  0  0  0  0  0  0  0
  -13.0233   -9.7396    8.2780 C   0  0  0  0  0  0  0  0  0  0  0  0
  -14.9812   -6.9670    5.3891 C   0  0  0  0  0  0  0  0  0  0  0  0
  -16.1801   -6.1400    5.7899 C   0  0  0  0  0  0  0  0  0  0  0  0
  -17.2619   -6.4740    4.7918 C   0  0  0  0  0  0  0  0  0  0  0  0
  -16.9826   -7.9539    4.5448 C   0  0  0  0  0  0  0  0  0  0  0  0
  -17.5747   -8.7433    5.5064 O   0  0  0  0  0  0  0  0  0  0  0  0
  -18.3599   -8.2748    5.8939 H   0  0  0  0  0  0  0  0  0  0  0  0
  2  1  1  0  0  0
  2  3  1  0  0  0
  3  4  1  0  0  0
  4  5  1  0  0  0
  5  6  1  0  0  0
  6  7  1  0  0  0
  7  8  1  0  0  0
  8  9  1  0  0  0
  9 10  2  0  0  0
 10 11  1  0  0  0
 11 12  2  0  0  0
 11 13  1  0  0  0
 13 14  2  0  0  0
 14 15  1  0  0  0
 15 16  1  0  0  0
  6 17  1  0  0  0
 17 18  1  0  0  0
 18 19  1  0  0  0
 19 20  1  0  0  0
 20 21  1  0  0  0
 17  2  1  0  0  0
 20  2  1  0  0  0
 15  5  1  0  0  0
 15  9  1  0  0  0
 21 22  1  0  0  0
M  END
> <minimizedAffinity>
-9.38524

> <CNNscore>
0.4917941391

> <CNNaffinity>
6.5766334534

> <CNN_VS>
3.2343497276

> <CNNaffinity_variance>
0.3939207196

$$$$
[H]O[C@@]1([H])C([H])([H])C([H])([H])[C@@]2([H])[C@]3([H])C([H])([H])C([H])([H])C4=C([H])C(=O)C([H])=C([H])[C@]4(C([H])([H])[H])[C@@]3([H])C([H])([H])C([H])([H])[C@@]12C([H])([H])[H]


 22 25  0  0  0  0  0  0  0  0999 V2000
  -12.7174   -9.7810    4.3557 C   0  0  0  0  0  0  0  0  0  0  0  0
  -12.9575   -8.9535    5.5940 C   0  0  0  0  0  0  0  0  0  0  0  0
  -12.6239   -7.4975    5.3802 C   0  0  0  0  0  0  0  0  0  0  0  0
  -13.7020   -6.7530    4.6468 C   0  0  0  0  0  0  0  0  0  0  0  0
  -15.0883   -7.0551    5.0851 C   0  0  0  0  0  0  0  0  0  0  0  0
  -15.0191   -7.7841    6.4174 C   0  0  0  0  0  0  0  0  0  0  0  0
  -16.3587   -8.1206    6.9907 C   0  0  0  0  0  0  0  0  0  0  0  0
  -17.0710   -6.7995    7.3117 C   0  0  0  0  0  0  0  0  0  0  0  0
  -17.1867   -6.1335    5.9626 C   0  0  0  0  0  0  0  0  0  0  0  0
  -18.3845   -5.8373    5.5310 C   0  0  0  0  0  0  0  0  0  0  0  0
  -18.6331   -5.1999    4.2455 C   0  0  0  0  0  0  0  0  0  0  0  0
  -19.7658   -4.9068    3.8138 O   0  0  0  0  0  0  0  0  0  0  0  0
  -17.4678   -4.9004    3.4404 C   0  0  0  0  0  0  0  0  0  0  0  0
  -16.2555   -5.2140    3.9113 C   0  0  0  0  0  0  0  0  0  0  0  0
  -15.9864   -5.8404    5.1913 C   0  0  0  0  0  0  0  0  0  0  0  0
  -15.2217   -4.7597    6.0073 C   0  0  0  0  0  0  0  0  0  0  0  0
  -14.3477   -9.1293    6.1016 C   0  0  0  0  0  0  0  0  0  0  0  0
  -14.2602   -9.8806    7.4092 C   0  0  0  0  0  0  0  0  0  0  0  0
  -12.9035  -10.5417    7.4133 C   0  0  0  0  0  0  0  0  0  0  0  0
  -12.0648   -9.4887    6.6943 C   0  0  0  0  0  0  0  0  0  0  0  0
  -11.6324   -8.5120    7.5648 O   0  0  0  0  0  0  0  0  0  0  0  0
  -11.5868   -8.8759    8.4878 H   0  0  0  0  0  0  0  0  0  0  0  0
  2  1  1  0  0  0
  2  3  1  0  0  0
  3  4  1  0  0  0
  4  5  1  0  0  0
  5  6  1  0  0  0
  6  7  1  0  0  0
  7  8  1  0  0  0
  8  9  1  0  0  0
  9 10  2  0  0  0
 10 11  1  0  0  0
 11 12  2  0  0  0
 11 13  1  0  0  0
 13 14  2  0  0  0
 14 15  1  0  0  0
 15 16  1  0  0  0
  6 17  1  0  0  0
 17 18  1  0  0  0
 18 19  1  0  0  0
 19 20  1  0  0  0
 20 21  1  0  0  0
 17  2  1  0  0  0
 20  2  1  0  0  0
 15  5  1  0  0  0
 15  9  1  0  0  0
 21 22  1  0  0  0
M  END
> <minimizedAffinity>
5.53054

> <CNNscore>
0.4462851286

> <CNNaffinity>
6.0594453812

> <CNN_VS>
2.7042403221

> <CNNaffinity_variance>
0.4471389353

$$$$
[H]O[C@@]1([H])C([H])([H])C([H])([H])[C@@]2([H])[C@]3([H])C([H])([H])C([H])([H])C4=C([H])C(=O)C([H])=C([H])[C@]4(C([H])([H])[H])[C@@]3([H])C([H])([H])C([H])([H])[C@@]12C([H])([H])[H]


 22 25  0  0  0  0  0  0  0  0999 V2000
  -15.4078   -8.5145    3.1670 C   0  0  0  0  0  0  0  0  0  0  0  0
  -15.9825   -7.6624    4.2712 C   0  0  0  0  0  0  0  0  0  0  0  0
  -17.3529   -7.1323    3.9278 C   0  0  0  0  0  0  0  0  0  0  0  0
  -18.4383   -8.1520    4.1197 C   0  0  0  0  0  0  0  0  0  0  0  0
  -18.3347   -8.9584    5.3624 C   0  0  0  0  0  0  0  0  0  0  0  0
  -17.3393   -8.2798    6.2896 C   0  0  0  0  0  0  0  0  0  0  0  0
  -17.1645   -8.9774    7.6008 C   0  0  0  0  0  0  0  0  0  0  0  0
  -18.5021   -8.8996    8.3495 C   0  0  0  0  0  0  0  0  0  0  0  0
  -19.4504   -9.6405    7.4390 C   0  0  0  0  0  0  0  0  0  0  0  0
  -20.0667  -10.6864    7.9238 C   0  0  0  0  0  0  0  0  0  0  0  0
  -21.0008  -11.4909    7.1486 C   0  0  0  0  0  0  0  0  0  0  0  0
  -21.6011  -12.4910    7.5898 O   0  0  0  0  0  0  0  0  0  0  0  0
  -21.2248  -11.0757    5.7799 C   0  0  0  0  0  0  0  0  0  0  0  0
  -20.5804   -9.9997    5.3144 C   0  0  0  0  0  0  0  0  0  0  0  0
  -19.6540   -9.1808    6.0721 C   0  0  0  0  0  0  0  0  0  0  0  0
  -20.3588   -7.8003    6.1986 C   0  0  0  0  0  0  0  0  0  0  0  0
  -15.9857   -8.3908    5.5715 C   0  0  0  0  0  0  0  0  0  0  0  0
  -14.9704   -7.7212    6.4675 C   0  0  0  0  0  0  0  0  0  0  0  0
  -14.0646   -6.9381    5.5488 C   0  0  0  0  0  0  0  0  0  0  0  0
  -15.0562   -6.4827    4.4818 C   0  0  0  0  0  0  0  0  0  0  0  0
  -15.7168   -5.3367    4.8677 O   0  0  0  0  0  0  0  0  0  0  0  0
  -15.1625   -4.8271    5.5153 H   0  0  0  0  0  0  0  0  0  0  0  0
  2  1  1  0  0  0
  2  3  1  0  0  0
  3  4  1  0  0  0
  4  5  1  0  0  0
  5  6  1  0  0  0
  6  7  1  0  0  0
  7  8  1  0  0  0
  8  9  1  0  0  0
  9 10  2  0  0  0
 10 11  1  0  0  0
 11 12  2  0  0  0
 11 13  1  0  0  0
 13 14  2  0  0  0
 14 15  1  0  0  0
 15 16  1  0  0  0
  6 17  1  0  0  0
 17 18  1  0  0  0
 18 19  1  0  0  0
 19 20  1  0  0  0
 20 21  1  0  0  0
 17  2  1  0  0  0
 20  2  1  0  0  0
 15  5  1  0  0  0
 15  9  1  0  0  0
 21 22  1  0  0  0
M  END
> <minimizedAffinity>
10.50292

> <CNNscore>
0.3676986396

> <CNNaffinity>
5.7509813309

> <CNN_VS>
2.1146280766

> <CNNaffinity_variance>
0.2195169032

$$$$
[H]O[C@@]1([H])C([H])([H])C([H])([H])[C@@]2([H])[C@]3([H])C([H])([H])C([H])([H])C4=C([H])C(=O)C([H])=C([H])[C@]4(C([H])([H])[H])[C@@]3([H])C([H])([H])C([H])([H])[C@@]12C([H])([H])[H]


 22 25  0  0  0  0  0  0  0  0999 V2000
  -12.1736   -7.8289   10.1238 C   0  0  0  0  0  0  0  0  0  0  0  0
  -11.9753   -7.9119    8.6307 C   0  0  0  0  0  0  0  0  0  0  0  0
  -11.5255   -6.5977    8.0413 C   0  0  0  0  0  0  0  0  0  0  0  0
  -10.0605   -6.3381    8.2437 C   0  0  0  0  0  0  0  0  0  0  0  0
   -9.1736   -7.5055    8.0074 C   0  0  0  0  0  0  0  0  0  0  0  0
   -9.9717   -8.5693    7.2708 C   0  0  0  0  0  0  0  0  0  0  0  0
   -9.1811   -9.7947    6.9396 C   0  0  0  0  0  0  0  0  0  0  0  0
   -8.0822   -9.3841    5.9498 C   0  0  0  0  0  0  0  0  0  0  0  0
   -7.2688   -8.3833    6.7333 C   0  0  0  0  0  0  0  0  0  0  0  0
   -6.0005   -8.6408    6.9172 C   0  0  0  0  0  0  0  0  0  0  0  0
   -5.1084   -7.7611    7.6595 C   0  0  0  0  0  0  0  0  0  0  0  0
   -3.8959   -7.9850    7.8464 O   0  0  0  0  0  0  0  0  0  0  0  0
   -5.6994   -6.5564    8.2032 C   0  0  0  0  0  0  0  0  0  0  0  0
   -6.9998   -6.3207    7.9956 C   0  0  0  0  0  0  0  0  0  0  0  0
   -7.9021   -7.1788    7.2524 C   0  0  0  0  0  0  0  0  0  0  0  0
   -8.2990   -6.3456    6.0007 C   0  0  0  0  0  0  0  0  0  0  0  0
  -11.0489   -9.0218    8.2683 C   0  0  0  0  0  0  0  0  0  0  0  0
  -11.8650  -10.0807    7.5648 C   0  0  0  0  0  0  0  0  0  0  0  0
  -13.3014   -9.8093    7.9402 C   0  0  0  0  0  0  0  0  0  0  0  0
  -13.3024   -8.2845    8.0028 C   0  0  0  0  0  0  0  0  0  0  0  0
  -13.4856   -7.7315    6.7541 O   0  0  0  0  0  0  0  0  0  0  0  0
  -13.9723   -8.3691    6.1685 H   0  0  0  0  0  0  0  0  0  0  0  0
  2  1  1  0  0  0
  2  3  1  0  0  0
  3  4  1  0  0  0
  4  5  1  0  0  0
  5  6  1  0  0  0
  6  7  1  0  0  0
  7  8  1  0  0  0
  8  9  1  0  0  0
  9 10  2  0  0  0
 10 11  1  0  0  0
 11 12  2  0  0  0
 11 13  1  0  0  0
 13 14  2  0  0  0
 14 15  1  0  0  0
 15 16  1  0  0  0
  6 17  1  0  0  0
 17 18  1  0  0  0
 18 19  1  0  0  0
 19 20  1  0  0  0
 20 21  1  0  0  0
 17  2  1  0  0  0
 20  2  1  0  0  0
 15  5  1  0  0  0
 15  9  1  0  0  0
 21 22  1  0  0  0
M  END
> <minimizedAffinity>
-6.27853

> <CNNscore>
0.2840869427

> <CNNaffinity>
5.6048450470

> <CNN_VS>
1.5922633410

> <CNNaffinity_variance>
0.1438008100

$$$$
[H]O[C@@]1([H])C([H])([H])C([H])([H])[C@@]2([H])[C@]3([H])C([H])([H])C([H])([H])C4=C([H])C(=O)C([H])=C([H])[C@]4(C([H])([H])[H])[C@@]3([H])C([H])([H])C([H])([H])[C@@]12C([H])([H])[H]


 22 25  0  0  0  0  0  0  0  0999 V2000
  -13.0544   -4.3204    9.8600 C   0  0  0  0  0  0  0  0  0  0  0  0
  -12.7265   -5.7824   10.0350 C   0  0  0  0  0  0  0  0  0  0  0  0
  -13.9568   -6.6146   10.3013 C   0  0  0  0  0  0  0  0  0  0  0  0
  -14.7384   -6.9163    9.0553 C   0  0  0  0  0  0  0  0  0  0  0  0
  -13.9228   -7.3025    7.8760 C   0  0  0  0  0  0  0  0  0  0  0  0
  -12.5189   -7.6347    8.3552 C   0  0  0  0  0  0  0  0  0  0  0  0
  -11.5971   -8.0739    7.2627 C   0  0  0  0  0  0  0  0  0  0  0  0
  -12.1365   -9.3982    6.7049 C   0  0  0  0  0  0  0  0  0  0  0  0
  -13.4981   -9.0202    6.1755 C   0  0  0  0  0  0  0  0  0  0  0  0
  -13.7355   -9.2241    4.9063 C   0  0  0  0  0  0  0  0  0  0  0  0
  -15.0043   -8.8976    4.2706 C   0  0  0  0  0  0  0  0  0  0  0  0
  -15.2540   -9.0844    3.0631 O   0  0  0  0  0  0  0  0  0  0  0  0
  -16.0210   -8.3197    5.1241 C   0  0  0  0  0  0  0  0  0  0  0  0
  -15.7477   -8.1256    6.4192 C   0  0  0  0  0  0  0  0  0  0  0  0
  -14.4948   -8.4518    7.0727 C   0  0  0  0  0  0  0  0  0  0  0  0
  -14.8536   -9.5901    8.0697 C   0  0  0  0  0  0  0  0  0  0  0  0
  -11.9501   -6.3058    8.8754 C   0  0  0  0  0  0  0  0  0  0  0  0
  -10.5516   -6.6017    9.3641 C   0  0  0  0  0  0  0  0  0  0  0  0
  -10.3892   -5.8185   10.6439 C   0  0  0  0  0  0  0  0  0  0  0  0
  -11.7975   -5.9142   11.2240 C   0  0  0  0  0  0  0  0  0  0  0  0
  -11.9736   -7.0892   11.9219 O   0  0  0  0  0  0  0  0  0  0  0  0
  -11.0984   -7.4215   12.2535 H   0  0  0  0  0  0  0  0  0  0  0  0
  2  1  1  0  0  0
  2  3  1  0  0  0
  3  4  1  0  0  0
  4  5  1  0  0  0
  5  6  1  0  0  0
  6  7  1  0  0  0
  7  8  1  0  0  0
  8  9  1  0  0  0
  9 10  2  0  0  0
 10 11  1  0  0  0
 11 12  2  0  0  0
 11 13  1  0  0  0
 13 14  2  0  0  0
 14 15  1  0  0  0
 15 16  1  0  0  0
  6 17  1  0  0  0
 17 18  1  0  0  0
 18 19  1  0  0  0
 19 20  1  0  0  0
 20 21  1  0  0  0
 17  2  1  0  0  0
 20  2  1  0  0  0
 15  5  1  0  0  0
 15  9  1  0  0  0
 21 22  1  0  0  0
M  END
> <minimizedAffinity>
-3.63183

> <CNNscore>
0.2649230361

> <CNNaffinity>
5.9007253647

> <CNN_VS>
1.5632380247

> <CNNaffinity_variance>
0.1569244862

$$$$
[H]O[C@@]1([H])C([H])([H])C([H])([H])[C@@]2([H])[C@]3([H])C([H])([H])C([H])([H])C4=C([H])C(=O)C([H])=C([H])[C@]4(C([H])([H])[H])[C@@]3([H])C([H])([H])C([H])([H])[C@@]12C([H])([H])[H]


 22 25  0  0  0  0  0  0  0  0999 V2000
  -13.0139   -9.2465    5.5653 C   0  0  0  0  0  0  0  0  0  0  0  0
  -12.4057   -9.4106    6.9360 C   0  0  0  0  0  0  0  0  0  0  0  0
  -11.3722  -10.5094    6.9732 C   0  0  0  0  0  0  0  0  0  0  0  0
  -10.0464  -10.0831    6.4118 C   0  0  0  0  0  0  0  0  0  0  0  0
   -9.5894   -8.7327    6.8273 C   0  0  0  0  0  0  0  0  0  0  0  0
  -10.4360   -8.2850    8.0079 C   0  0  0  0  0  0  0  0  0  0  0  0
  -10.0549   -6.9440    8.5489 C   0  0  0  0  0  0  0  0  0  0  0  0
   -8.6336   -7.0597    9.1167 C   0  0  0  0  0  0  0  0  0  0  0  0
   -7.8097   -7.4353    7.9096 C   0  0  0  0  0  0  0  0  0  0  0  0
   -6.8307   -6.6386    7.5694 C   0  0  0  0  0  0  0  0  0  0  0  0
   -5.9661   -6.8832    6.4235 C   0  0  0  0  0  0  0  0  0  0  0  0
   -5.0259   -6.1389    6.0809 O   0  0  0  0  0  0  0  0  0  0  0  0
   -6.2428   -8.0770    5.6526 C   0  0  0  0  0  0  0  0  0  0  0  0
   -7.2503   -8.8730    6.0280 C   0  0  0  0  0  0  0  0  0  0  0  0
   -8.1165   -8.6519    7.1699 C   0  0  0  0  0  0  0  0  0  0  0  0
   -7.7948   -9.8219    8.1426 C   0  0  0  0  0  0  0  0  0  0  0  0
  -11.8549   -8.1215    7.4421 C   0  0  0  0  0  0  0  0  0  0  0  0
  -12.7259   -7.6786    8.5941 C   0  0  0  0  0  0  0  0  0  0  0  0
  -14.0218   -8.4378    8.4450 C   0  0  0  0  0  0  0  0  0  0  0  0
  -13.5167   -9.7710    7.9004 C   0  0  0  0  0  0  0  0  0  0  0  0
  -13.1031  -10.6036    8.9174 O   0  0  0  0  0  0  0  0  0  0  0  0
  -13.5734  -10.3697    9.7602 H   0  0  0  0  0  0  0  0  0  0  0  0
  2  1  1  0  0  0
  2  3  1  0  0  0
  3  4  1  0  0  0
  4  5  1  0  0  0
  5  6  1  0  0  0
  6  7  1  0  0  0
  7  8  1  0  0  0
  8  9  1  0  0  0
  9 10  2  0  0  0
 10 11  1  0  0  0
 11 12  2  0  0  0
 11 13  1  0  0  0
 13 14  2  0  0  0
 14 15  1  0  0  0
 15 16  1  0  0  0
  6 17  1  0  0  0
 17 18  1  0  0  0
 18 19  1  0  0  0
 19 20  1  0  0  0
 20 21  1  0  0  0
 17  2  1  0  0  0
 20  2  1  0  0  0
 15  5  1  0  0  0
 15  9  1  0  0  0
 21 22  1  0  0  0
M  END
> <minimizedAffinity>
-7.44341

> <CNNscore>
0.2386556864

> <CNNaffinity>
5.8257489204

> <CNN_VS>
1.3903480768

> <CNNaffinity_variance>
0.0842025727

$$$$
[H]O[C@@]1([H])C([H])([H])C([H])([H])[C@@]2([H])[C@]3([H])C([H])([H])C([H])([H])C4=C([H])C(=O)C([H])=C([H])[C@]4(C([H])([H])[H])[C@@]3([H])C([H])([H])C([H])([H])[C@@]12C([H])([H])[H]


 22 25  0  0  0  0  0  0  0  0999 V2000
  -13.2087   -9.8696    9.0516 C   0  0  0  0  0  0  0  0  0  0  0  0
  -12.6529   -8.9684    7.9771 C   0  0  0  0  0  0  0  0  0  0  0  0
  -12.6494   -9.6322    6.6219 C   0  0  0  0  0  0  0  0  0  0  0  0
  -13.9988   -9.6219    5.9634 C   0  0  0  0  0  0  0  0  0  0  0  0
  -14.7437   -8.3417    6.0695 C   0  0  0  0  0  0  0  0  0  0  0  0
  -13.7734   -7.2613    6.5191 C   0  0  0  0  0  0  0  0  0  0  0  0
  -14.3928   -5.9051    6.6352 C   0  0  0  0  0  0  0  0  0  0  0  0
  -14.8265   -5.4713    5.2282 C   0  0  0  0  0  0  0  0  0  0  0  0
  -15.8381   -6.5216    4.8401 C   0  0  0  0  0  0  0  0  0  0  0  0
  -17.0487   -6.1225    4.5502 C   0  0  0  0  0  0  0  0  0  0  0  0
  -18.1179   -7.0341    4.1676 C   0  0  0  0  0  0  0  0  0  0  0  0
  -19.2789   -6.6768    3.8854 O   0  0  0  0  0  0  0  0  0  0  0  0
  -17.7777   -8.4406    4.1215 C   0  0  0  0  0  0  0  0  0  0  0  0
  -16.5294   -8.8166    4.4216 C   0  0  0  0  0  0  0  0  0  0  0  0
  -15.4492   -7.9245    4.7961 C   0  0  0  0  0  0  0  0  0  0  0  0
  -14.4237   -8.0350    3.6322 C   0  0  0  0  0  0  0  0  0  0  0  0
  -13.3656   -7.6599    7.9456 C   0  0  0  0  0  0  0  0  0  0  0  0
  -12.3956   -6.6049    8.4233 C   0  0  0  0  0  0  0  0  0  0  0  0
  -11.3132   -7.3485    9.1672 C   0  0  0  0  0  0  0  0  0  0  0  0
  -11.2227   -8.6304    8.3439 C   0  0  0  0  0  0  0  0  0  0  0  0
  -10.4061   -8.4649    7.2465 O   0  0  0  0  0  0  0  0  0  0  0  0
   -9.7465   -7.7430    7.4199 H   0  0  0  0  0  0  0  0  0  0  0  0
  2  1  1  0  0  0
  2  3  1  0  0  0
  3  4  1  0  0  0
  4  5  1  0  0  0
  5  6  1  0  0  0
  6  7  1  0  0  0
  7  8  1  0  0  0
  8  9  1  0  0  0
  9 10  2  0  0  0
 10 11  1  0  0  0
 11 12  2  0  0  0
 11 13  1  0  0  0
 13 14  2  0  0  0
 14 15  1  0  0  0
 15 16  1  0  0  0
  6 17  1  0  0  0
 17 18  1  0  0  0
 18 19  1  0  0  0
 19 20  1  0  0  0
 20 21  1  0  0  0
 17  2  1  0  0  0
 20  2  1  0  0  0
 15  5  1  0  0  0
 15  9  1  0  0  0
 21 22  1  0  0  0
M  END
> <minimizedAffinity>
-8.91735

> <CNNscore>
0.1814419627

> <CNNaffinity>
5.8866033554

> <CNN_VS>
1.0680768490

> <CNNaffinity_variance>
0.0397175774

$$$$
[H]O[C@@]1([H])C([H])([H])C([H])([H])[C@@]2([H])[C@]3([H])C([H])([H])C([H])([H])C4=C([H])C(=O)C([H])=C([H])[C@]4(C([H])([H])[H])[C@@]3([H])C([H])([H])C([H])([H])[C@@]12C([H])([H])[H]


 22 25  0  0  0  0  0  0  0  0999 V2000
   -7.2036  -10.5298    8.1305 C   0  0  0  0  0  0  0  0  0  0  0  0
   -7.6724   -9.2649    7.4552 C   0  0  0  0  0  0  0  0  0  0  0  0
   -8.7859   -9.5237    6.4702 C   0  0  0  0  0  0  0  0  0  0  0  0
  -10.1232   -9.6924    7.1318 C   0  0  0  0  0  0  0  0  0  0  0  0
  -10.4160   -8.7252    8.2200 C   0  0  0  0  0  0  0  0  0  0  0  0
   -9.4121   -7.5872    8.1294 C   0  0  0  0  0  0  0  0  0  0  0  0
   -9.6169   -6.5194    9.1562 C   0  0  0  0  0  0  0  0  0  0  0  0
  -10.9735   -5.8590    8.8743 C   0  0  0  0  0  0  0  0  0  0  0  0
  -11.9516   -6.9959    9.0406 C   0  0  0  0  0  0  0  0  0  0  0  0
  -12.8900   -6.8643    9.9412 C   0  0  0  0  0  0  0  0  0  0  0  0
  -13.8907   -7.8889   10.2046 C   0  0  0  0  0  0  0  0  0  0  0  0
  -14.7954   -7.7851   11.0567 O   0  0  0  0  0  0  0  0  0  0  0  0
  -13.8015   -9.0946    9.4081 C   0  0  0  0  0  0  0  0  0  0  0  0
  -12.8309   -9.1976    8.4932 C   0  0  0  0  0  0  0  0  0  0  0  0
  -11.8311   -8.1861    8.2098 C   0  0  0  0  0  0  0  0  0  0  0  0
  -12.1448   -7.7151    6.7612 C   0  0  0  0  0  0  0  0  0  0  0  0
   -8.0536   -8.2268    8.4543 C   0  0  0  0  0  0  0  0  0  0  0  0
   -7.0290   -7.1200    8.3699 C   0  0  0  0  0  0  0  0  0  0  0  0
   -5.8262   -7.7246    7.6876 C   0  0  0  0  0  0  0  0  0  0  0  0
   -6.4989   -8.6749    6.7010 C   0  0  0  0  0  0  0  0  0  0  0  0
   -6.8701   -8.0195    5.5472 O   0  0  0  0  0  0  0  0  0  0  0  0
   -6.2935   -7.2228    5.4088 H   0  0  0  0  0  0  0  0  0  0  0  0
  2  1  1  0  0  0
  2  3  1  0  0  0
  3  4  1  0  0  0
  4  5  1  0  0  0
  5  6  1  0  0  0
  6  7  1  0  0  0
  7  8  1  0  0  0
  8  9  1  0  0  0
  9 10  2  0  0  0
 10 11  1  0  0  0
 11 12  2  0  0  0
 11 13  1  0  0  0
 13 14  2  0  0  0
 14 15  1  0  0  0
 15 16  1  0  0  0
  6 17  1  0  0  0
 17 18  1  0  0  0
 18 19  1  0  0  0
 19 20  1  0  0  0
 20 21  1  0  0  0
 17  2  1  0  0  0
 20  2  1  0  0  0
 15  5  1  0  0  0
 15  9  1  0  0  0
 21 22  1  0  0  0
M  END
> <minimizedAffinity>
-6.16280

> <CNNscore>
0.1697233021

> <CNNaffinity>
5.3962616920

> <CNN_VS>
0.9158713818

> <CNNaffinity_variance>
0.0876922384

$$$$
[H]O[C@@]1([H])C([H])([H])C([H])([H])[C@@]2([H])[C@]3([H])C([H])([H])C([H])([H])C4=C([H])C(=O)C([H])=C([H])[C@]4(C([H])([H])[H])[C@@]3([H])C([H])([H])C([H])([H])[C@@]12C([H])([H])[H]


 22 25  0  0  0  0  0  0  0  0999 V2000
   -8.0776   -6.2496    6.7702 C   0  0  0  0  0  0  0  0  0  0  0  0
   -8.4982   -7.3462    7.7168 C   0  0  0  0  0  0  0  0  0  0  0  0
   -9.2524   -6.8117    8.9094 C   0  0  0  0  0  0  0  0  0  0  0  0
  -10.6878   -6.4981    8.5998 C   0  0  0  0  0  0  0  0  0  0  0  0
  -11.3918   -7.5116    7.7738 C   0  0  0  0  0  0  0  0  0  0  0  0
  -10.5559   -8.7813    7.7622 C   0  0  0  0  0  0  0  0  0  0  0  0
  -11.1720   -9.9015    6.9863 C   0  0  0  0  0  0  0  0  0  0  0  0
  -12.4699  -10.3020    7.7010 C   0  0  0  0  0  0  0  0  0  0  0  0
  -13.3024   -9.0452    7.6338 C   0  0  0  0  0  0  0  0  0  0  0  0
  -14.4625   -9.1152    7.0353 C   0  0  0  0  0  0  0  0  0  0  0  0
  -15.3577   -7.9750    6.8972 C   0  0  0  0  0  0  0  0  0  0  0  0
  -16.4687   -8.0181    6.3323 O   0  0  0  0  0  0  0  0  0  0  0  0
  -14.8980   -6.7243    7.4634 C   0  0  0  0  0  0  0  0  0  0  0  0
  -13.7069   -6.6861    8.0713 C   0  0  0  0  0  0  0  0  0  0  0  0
  -12.8054   -7.8113    8.2269 C   0  0  0  0  0  0  0  0  0  0  0  0
  -12.7625   -8.0746    9.7590 C   0  0  0  0  0  0  0  0  0  0  0  0
   -9.2708   -8.4060    7.0087 C   0  0  0  0  0  0  0  0  0  0  0  0
   -8.4129   -9.6492    6.9814 C   0  0  0  0  0  0  0  0  0  0  0  0
   -7.0012   -9.1799    7.2355 C   0  0  0  0  0  0  0  0  0  0  0  0
   -7.2468   -8.0375    8.2171 C   0  0  0  0  0  0  0  0  0  0  0  0
   -7.3641   -8.5028    9.5088 O   0  0  0  0  0  0  0  0  0  0  0  0
   -6.8784   -9.3637    9.6050 H   0  0  0  0  0  0  0  0  0  0  0  0
  2  1  1  0  0  0
  2  3  1  0  0  0
  3  4  1  0  0  0
  4  5  1  0  0  0
  5  6  1  0  0  0
  6  7  1  0  0  0
  7  8  1  0  0  0
  8  9  1  0  0  0
  9 10  2  0  0  0
 10 11  1  0  0  0
 11 12  2  0  0  0
 11 13  1  0  0  0
 13 14  2  0  0  0
 14 15  1  0  0  0
 15 16  1  0  0  0
  6 17  1  0  0  0
 17 18  1  0  0  0
 18 19  1  0  0  0
 19 20  1  0  0  0
 20 21  1  0  0  0
 17  2  1  0  0  0
 20  2  1  0  0  0
 15  5  1  0  0  0
 15  9  1  0  0  0
 21 22  1  0  0  0
M  END
> <minimizedAffinity>
-8.70789

> <CNNscore>
0.1587645411

> <CNNaffinity>
5.7529964447

> <CNN_VS>
0.9133718610

> <CNNaffinity_variance>
0.0431978218

$$$$
[H]OC(=O)C([H])([H])[C@]1([H])C([H])([H])C([H])([H])[C@@]([H])(c2nc(-c3c([H])c([H])c(C(F)(F)F)c([H])c3[H])c([H])n2[H])C([H])([H])C1([H])[H]


 27 29  0  0  0  0  0  0  0  0999 V2000
  -11.8419   -9.7988    6.2314 C   0  0  0  0  0  0  0  0  0  0  0  0
  -11.4304   -9.0397    7.2964 N   0  0  0  0  0  0  0  0  0  0  0  0
  -12.3612   -8.1218    7.5889 C   0  0  0  0  0  0  0  0  0  0  0  0
  -13.4120   -8.3262    6.6562 C   0  0  0  0  0  0  0  0  0  0  0  0
  -13.0508   -9.3462    5.8636 N   0  0  0  0  0  0  0  0  0  0  0  0
  -13.6080   -9.7253    5.0626 H   0  0  0  0  0  0  0  0  0  0  0  0
   -8.5617  -12.3389    5.0505 C   0  0  0  0  0  0  0  0  0  0  0  0
   -9.3166  -11.5846    4.0063 C   0  0  0  0  0  0  0  0  0  0  0  0
   -9.9724  -10.3334    4.6354 C   0  0  0  0  0  0  0  0  0  0  0  0
  -11.0890  -10.8500    5.5301 C   0  0  0  0  0  0  0  0  0  0  0  0
  -10.5302  -11.9058    6.4435 C   0  0  0  0  0  0  0  0  0  0  0  0
   -9.0226  -11.9375    6.4336 C   0  0  0  0  0  0  0  0  0  0  0  0
   -8.7232  -13.8300    4.9627 C   0  0  0  0  0  0  0  0  0  0  0  0
   -8.2166  -13.9271    2.5880 O   0  0  0  0  0  0  0  0  0  0  0  0
   -8.0378  -14.4648    3.8291 C   0  0  0  0  0  0  0  0  0  0  0  0
   -7.2873  -15.4833    3.9594 O   0  0  0  0  0  0  0  0  0  0  0  0
   -8.0230  -14.3964    1.7098 H   0  0  0  0  0  0  0  0  0  0  0  0
  -12.3839   -7.1021    8.6093 C   0  0  0  0  0  0  0  0  0  0  0  0
  -13.6169   -6.8144    9.2108 C   0  0  0  0  0  0  0  0  0  0  0  0
  -13.7805   -5.8880   10.1995 C   0  0  0  0  0  0  0  0  0  0  0  0
  -12.6794   -5.1823   10.6562 C   0  0  0  0  0  0  0  0  0  0  0  0
  -11.4727   -5.4115   10.1235 C   0  0  0  0  0  0  0  0  0  0  0  0
  -11.3318   -6.3706    9.0994 C   0  0  0  0  0  0  0  0  0  0  0  0
  -12.9233   -4.1660   11.7409 C   0  0  0  0  0  0  0  0  0  0  0  0
  -12.2639   -4.4341   12.9146 F   0  0  0  0  0  0  0  0  0  0  0  0
  -14.2618   -4.0803   12.0794 F   0  0  0  0  0  0  0  0  0  0  0  0
  -12.5508   -2.9044   11.2385 F   0  0  0  0  0  0  0  0  0  0  0  0
 14 15  1  0  0  0
 15 16  2  0  0  0
 15 13  1  0  0  0
 13  7  1  0  0  0
  7  8  1  0  0  0
  8  9  1  0  0  0
  9 10  1  0  0  0
 10 11  1  0  0  0
 11 12  1  0  0  0
 10  1  1  0  0  0
  1  2  2  0  0  0
  2  3  1  0  0  0
  3  4  2  0  0  0
  4  5  1  0  0  0
  3 18  1  0  0  0
 18 19  2  0  0  0
 19 20  1  0  0  0
 20 21  2  0  0  0
 21 22  1  0  0  0
 22 23  2  0  0  0
 21 24  1  0  0  0
 24 25  1  0  0  0
 24 26  1  0  0  0
 24 27  1  0  0  0
 12  7  1  0  0  0
  5  1  1  0  0  0
 23 18  1  0  0  0
 14 17  1  0  0  0
  5  6  1  0  0  0
M  END
> <minimizedAffinity>
16.77135

> <CNNscore>
0.5123032331

> <CNNaffinity>
6.1237020493

> <CNN_VS>
3.1371922493

> <CNNaffinity_variance>
1.6678459644

$$$$
[H]OC(=O)C([H])([H])[C@]1([H])C([H])([H])C([H])([H])[C@@]([H])(c2nc(-c3c([H])c([H])c(C(F)(F)F)c([H])c3[H])c([H])n2[H])C([H])([H])C1([H])[H]


 27 29  0  0  0  0  0  0  0  0999 V2000
  -11.5597   -8.9454    7.7376 C   0  0  0  0  0  0  0  0  0  0  0  0
  -12.3257   -7.9142    7.2583 N   0  0  0  0  0  0  0  0  0  0  0  0
  -13.5446   -8.3646    6.9328 C   0  0  0  0  0  0  0  0  0  0  0  0
  -13.5362   -9.7526    7.2317 C   0  0  0  0  0  0  0  0  0  0  0  0
  -12.3206  -10.0508    7.7136 N   0  0  0  0  0  0  0  0  0  0  0  0
  -11.9957  -11.0015    8.0078 H   0  0  0  0  0  0  0  0  0  0  0  0
   -7.3122   -8.2308    7.5041 C   0  0  0  0  0  0  0  0  0  0  0  0
   -7.8077   -9.6025    7.8242 C   0  0  0  0  0  0  0  0  0  0  0  0
   -9.2370   -9.7871    7.2637 C   0  0  0  0  0  0  0  0  0  0  0  0
  -10.1395   -8.9108    8.1190 C   0  0  0  0  0  0  0  0  0  0  0  0
   -9.5609   -7.5238    8.1722 C   0  0  0  0  0  0  0  0  0  0  0  0
   -8.4656   -7.3168    7.1566 C   0  0  0  0  0  0  0  0  0  0  0  0
   -6.5697   -7.5716    8.6316 C   0  0  0  0  0  0  0  0  0  0  0  0
   -5.0909   -5.7088    9.1300 O   0  0  0  0  0  0  0  0  0  0  0  0
   -5.5205   -6.6297    8.2196 C   0  0  0  0  0  0  0  0  0  0  0  0
   -4.9985   -6.6429    7.0600 O   0  0  0  0  0  0  0  0  0  0  0  0
   -4.5781   -4.8610    8.9124 H   0  0  0  0  0  0  0  0  0  0  0  0
  -14.6860   -7.6700    6.3884 C   0  0  0  0  0  0  0  0  0  0  0  0
  -14.4386   -6.5948    5.5238 C   0  0  0  0  0  0  0  0  0  0  0  0
  -15.4216   -5.8620    4.9245 C   0  0  0  0  0  0  0  0  0  0  0  0
  -16.7478   -6.1828    5.1637 C   0  0  0  0  0  0  0  0  0  0  0  0
  -17.0510   -7.2003    5.9793 C   0  0  0  0  0  0  0  0  0  0  0  0
  -16.0162   -7.9385    6.5900 C   0  0  0  0  0  0  0  0  0  0  0  0
  -17.7882   -5.3322    4.4833 C   0  0  0  0  0  0  0  0  0  0  0  0
  -18.8628   -6.0409    4.0063 F   0  0  0  0  0  0  0  0  0  0  0  0
  -17.2734   -4.6597    3.3896 F   0  0  0  0  0  0  0  0  0  0  0  0
  -18.2080   -4.3510    5.4017 F   0  0  0  0  0  0  0  0  0  0  0  0
 14 15  1  0  0  0
 15 16  2  0  0  0
 15 13  1  0  0  0
 13  7  1  0  0  0
  7  8  1  0  0  0
  8  9  1  0  0  0
  9 10  1  0  0  0
 10 11  1  0  0  0
 11 12  1  0  0  0
 10  1  1  0  0  0
  1  2  2  0  0  0
  2  3  1  0  0  0
  3  4  2  0  0  0
  4  5  1  0  0  0
  3 18  1  0  0  0
 18 19  2  0  0  0
 19 20  1  0  0  0
 20 21  2  0  0  0
 21 22  1  0  0  0
 22 23  2  0  0  0
 21 24  1  0  0  0
 24 25  1  0  0  0
 24 26  1  0  0  0
 24 27  1  0  0  0
 12  7  1  0  0  0
  5  1  1  0  0  0
 23 18  1  0  0  0
 14 17  1  0  0  0
  5  6  1  0  0  0
M  END
> <minimizedAffinity>
-10.45943

> <CNNscore>
0.4926346838

> <CNNaffinity>
6.5714430809

> <CNN_VS>
3.2373209000

> <CNNaffinity_variance>
0.1700503975

$$$$
[H]OC(=O)C([H])([H])[C@]1([H])C([H])([H])C([H])([H])[C@@]([H])(c2nc(-c3c([H])c([H])c(C(F)(F)F)c([H])c3[H])c([H])n2[H])C([H])([H])C1([H])[H]


 27 29  0  0  0  0  0  0  0  0999 V2000
  -11.5911   -8.7658    7.6568 C   0  0  0  0  0  0  0  0  0  0  0  0
  -12.2457   -7.7083    7.0799 N   0  0  0  0  0  0  0  0  0  0  0  0
  -13.4867   -8.0745    6.7330 C   0  0  0  0  0  0  0  0  0  0  0  0
  -13.6109   -9.4346    7.1212 C   0  0  0  0  0  0  0  0  0  0  0  0
  -12.4446   -9.8016    7.6724 N   0  0  0  0  0  0  0  0  0  0  0  0
  -12.2152  -10.7542    8.0409 H   0  0  0  0  0  0  0  0  0  0  0  0
   -7.2965   -8.3695    7.5815 C   0  0  0  0  0  0  0  0  0  0  0  0
   -7.9042   -9.6933    7.9096 C   0  0  0  0  0  0  0  0  0  0  0  0
   -9.3203   -9.7861    7.2954 C   0  0  0  0  0  0  0  0  0  0  0  0
  -10.1882   -8.8262    8.0950 C   0  0  0  0  0  0  0  0  0  0  0  0
   -9.5110   -7.4843    8.1429 C   0  0  0  0  0  0  0  0  0  0  0  0
   -8.3646   -7.3821    7.1685 C   0  0  0  0  0  0  0  0  0  0  0  0
   -6.5518   -7.7398    8.7244 C   0  0  0  0  0  0  0  0  0  0  0  0
   -5.1932   -5.7956    9.2529 O   0  0  0  0  0  0  0  0  0  0  0  0
   -5.5431   -6.7445    8.3373 C   0  0  0  0  0  0  0  0  0  0  0  0
   -4.9851   -6.7366    7.1945 O   0  0  0  0  0  0  0  0  0  0  0  0
   -4.7209   -4.9224    9.0444 H   0  0  0  0  0  0  0  0  0  0  0  0
  -14.5422   -7.3242    6.0970 C   0  0  0  0  0  0  0  0  0  0  0  0
  -15.8126   -7.9138    6.0394 C   0  0  0  0  0  0  0  0  0  0  0  0
  -16.9037   -7.3111    5.4840 C   0  0  0  0  0  0  0  0  0  0  0  0
  -16.7759   -6.0416    4.9445 C   0  0  0  0  0  0  0  0  0  0  0  0
  -15.5887   -5.4231    4.9693 C   0  0  0  0  0  0  0  0  0  0  0  0
  -14.4757   -6.0701    5.5447 C   0  0  0  0  0  0  0  0  0  0  0  0
  -18.0116   -5.4319    4.3362 C   0  0  0  0  0  0  0  0  0  0  0  0
  -18.6358   -4.5138    5.1437 F   0  0  0  0  0  0  0  0  0  0  0  0
  -18.9718   -6.3850    4.0482 F   0  0  0  0  0  0  0  0  0  0  0  0
  -17.6421   -4.8456    3.1105 F   0  0  0  0  0  0  0  0  0  0  0  0
 14 15  1  0  0  0
 15 16  2  0  0  0
 15 13  1  0  0  0
 13  7  1  0  0  0
  7  8  1  0  0  0
  8  9  1  0  0  0
  9 10  1  0  0  0
 10 11  1  0  0  0
 11 12  1  0  0  0
 10  1  1  0  0  0
  1  2  2  0  0  0
  2  3  1  0  0  0
  3  4  2  0  0  0
  4  5  1  0  0  0
  3 18  1  0  0  0
 18 19  2  0  0  0
 19 20  1  0  0  0
 20 21  2  0  0  0
 21 22  1  0  0  0
 22 23  2  0  0  0
 21 24  1  0  0  0
 24 25  1  0  0  0
 24 26  1  0  0  0
 24 27  1  0  0  0
 12  7  1  0  0  0
  5  1  1  0  0  0
 23 18  1  0  0  0
 14 17  1  0  0  0
  5  6  1  0  0  0
M  END
> <minimizedAffinity>
-9.95621

> <CNNscore>
0.4518032968

> <CNNaffinity>
6.5015401840

> <CNN_VS>
2.9374172688

> <CNNaffinity_variance>
0.1661742926

$$$$
[H]OC(=O)C([H])([H])[C@]1([H])C([H])([H])C([H])([H])[C@@]([H])(c2nc(-c3c([H])c([H])c(C(F)(F)F)c([H])c3[H])c([H])n2[H])C([H])([H])C1([H])[H]


 27 29  0  0  0  0  0  0  0  0999 V2000
  -12.8935   -7.4500   10.0661 C   0  0  0  0  0  0  0  0  0  0  0  0
  -11.8443   -7.8303    9.2697 N   0  0  0  0  0  0  0  0  0  0  0  0
  -12.2910   -8.5829    8.2555 C   0  0  0  0  0  0  0  0  0  0  0  0
  -13.6975   -8.6702    8.4294 C   0  0  0  0  0  0  0  0  0  0  0  0
  -14.0086   -7.9714    9.5310 N   0  0  0  0  0  0  0  0  0  0  0  0
  -14.9682   -7.8613    9.9348 H   0  0  0  0  0  0  0  0  0  0  0  0
  -11.3206   -5.7052   13.6838 C   0  0  0  0  0  0  0  0  0  0  0  0
  -12.5273   -6.5814   13.7577 C   0  0  0  0  0  0  0  0  0  0  0  0
  -12.5434   -7.5532   12.5550 C   0  0  0  0  0  0  0  0  0  0  0  0
  -12.8391   -6.7004   11.3305 C   0  0  0  0  0  0  0  0  0  0  0  0
  -11.8835   -5.5395   11.3051 C   0  0  0  0  0  0  0  0  0  0  0  0
  -10.7486   -5.7055   12.2840 C   0  0  0  0  0  0  0  0  0  0  0  0
  -11.5866   -4.2691   14.0361 C   0  0  0  0  0  0  0  0  0  0  0  0
  -12.2987   -3.7209   11.7784 O   0  0  0  0  0  0  0  0  0  0  0  0
  -11.6137   -3.3431   12.8961 C   0  0  0  0  0  0  0  0  0  0  0  0
  -11.0333   -2.2117   12.9127 O   0  0  0  0  0  0  0  0  0  0  0  0
  -12.1902   -3.3133   10.8558 H   0  0  0  0  0  0  0  0  0  0  0  0
  -11.5778   -9.2148    7.1722 C   0  0  0  0  0  0  0  0  0  0  0  0
  -10.2486   -9.5941    7.4052 C   0  0  0  0  0  0  0  0  0  0  0  0
   -9.4636  -10.2153    6.4777 C   0  0  0  0  0  0  0  0  0  0  0  0
   -9.9888  -10.5036    5.2288 C   0  0  0  0  0  0  0  0  0  0  0  0
  -11.2532  -10.1683    4.9435 C   0  0  0  0  0  0  0  0  0  0  0  0
  -12.0416   -9.5225    5.9182 C   0  0  0  0  0  0  0  0  0  0  0  0
   -9.0721  -11.1801    4.2435 C   0  0  0  0  0  0  0  0  0  0  0  0
   -9.5317  -11.1607    2.9501 F   0  0  0  0  0  0  0  0  0  0  0  0
   -8.8791  -12.5157    4.5478 F   0  0  0  0  0  0  0  0  0  0  0  0
   -7.8120  -10.5580    4.3326 F   0  0  0  0  0  0  0  0  0  0  0  0
 14 15  1  0  0  0
 15 16  2  0  0  0
 15 13  1  0  0  0
 13  7  1  0  0  0
  7  8  1  0  0  0
  8  9  1  0  0  0
  9 10  1  0  0  0
 10 11  1  0  0  0
 11 12  1  0  0  0
 10  1  1  0  0  0
  1  2  2  0  0  0
  2  3  1  0  0  0
  3  4  2  0  0  0
  4  5  1  0  0  0
  3 18  1  0  0  0
 18 19  2  0  0  0
 19 20  1  0  0  0
 20 21  2  0  0  0
 21 22  1  0  0  0
 22 23  2  0  0  0
 21 24  1  0  0  0
 24 25  1  0  0  0
 24 26  1  0  0  0
 24 27  1  0  0  0
 12  7  1  0  0  0
  5  1  1  0  0  0
 23 18  1  0  0  0
 14 17  1  0  0  0
  5  6  1  0  0  0
M  END
> <minimizedAffinity>
26.95564

> <CNNscore>
0.4501543939

> <CNNaffinity>
5.6386423111

> <CNN_VS>
2.5382595062

> <CNNaffinity_variance>
1.3094439507

$$$$
[H]OC(=O)C([H])([H])[C@]1([H])C([H])([H])C([H])([H])[C@@]([H])(c2nc(-c3c([H])c([H])c(C(F)(F)F)c([H])c3[H])c([H])n2[H])C([H])([H])C1([H])[H]


 27 29  0  0  0  0  0  0  0  0999 V2000
  -11.4091   -7.5871    8.2681 C   0  0  0  0  0  0  0  0  0  0  0  0
  -12.2217   -7.5471    7.1645 N   0  0  0  0  0  0  0  0  0  0  0  0
  -13.4747   -7.2477    7.5314 C   0  0  0  0  0  0  0  0  0  0  0  0
  -13.4367   -7.0877    8.9417 C   0  0  0  0  0  0  0  0  0  0  0  0
  -12.1722   -7.3012    9.3346 N   0  0  0  0  0  0  0  0  0  0  0  0
  -11.8258   -7.2744   10.3221 H   0  0  0  0  0  0  0  0  0  0  0  0
   -7.3338   -8.2625    7.0262 C   0  0  0  0  0  0  0  0  0  0  0  0
   -8.1020   -9.3774    7.6558 C   0  0  0  0  0  0  0  0  0  0  0  0
   -9.6177   -9.1515    7.4486 C   0  0  0  0  0  0  0  0  0  0  0  0
   -9.9894   -7.9673    8.3281 C   0  0  0  0  0  0  0  0  0  0  0  0
   -9.0463   -6.8323    8.0384 C   0  0  0  0  0  0  0  0  0  0  0  0
   -8.2285   -7.0659    6.7932 C   0  0  0  0  0  0  0  0  0  0  0  0
   -6.1767   -7.7762    7.8519 C   0  0  0  0  0  0  0  0  0  0  0  0
   -4.1006   -8.1535    6.6467 O   0  0  0  0  0  0  0  0  0  0  0  0
   -5.0360   -7.2613    7.0829 C   0  0  0  0  0  0  0  0  0  0  0  0
   -4.8909   -6.0285    6.8061 O   0  0  0  0  0  0  0  0  0  0  0  0
   -3.1620   -7.9200    6.3408 H   0  0  0  0  0  0  0  0  0  0  0  0
  -14.6725   -7.0986    6.7411 C   0  0  0  0  0  0  0  0  0  0  0  0
  -14.5793   -6.3543    5.5570 C   0  0  0  0  0  0  0  0  0  0  0  0
  -15.6265   -6.1481    4.7065 C   0  0  0  0  0  0  0  0  0  0  0  0
  -16.8613   -6.7003    5.0052 C   0  0  0  0  0  0  0  0  0  0  0  0
  -17.0160   -7.4234    6.1213 C   0  0  0  0  0  0  0  0  0  0  0  0
  -15.9189   -7.6172    6.9859 C   0  0  0  0  0  0  0  0  0  0  0  0
  -17.9815   -6.4300    4.0351 C   0  0  0  0  0  0  0  0  0  0  0  0
  -17.5635   -6.2249    2.7438 F   0  0  0  0  0  0  0  0  0  0  0  0
  -18.7002   -5.2983    4.3758 F   0  0  0  0  0  0  0  0  0  0  0  0
  -18.8775   -7.5143    4.1013 F   0  0  0  0  0  0  0  0  0  0  0  0
 14 15  1  0  0  0
 15 16  2  0  0  0
 15 13  1  0  0  0
 13  7  1  0  0  0
  7  8  1  0  0  0
  8  9  1  0  0  0
  9 10  1  0  0  0
 10 11  1  0  0  0
 11 12  1  0  0  0
 10  1  1  0  0  0
  1  2  2  0  0  0
  2  3  1  0  0  0
  3  4  2  0  0  0
  4  5  1  0  0  0
  3 18  1  0  0  0
 18 19  2  0  0  0
 19 20  1  0  0  0
 20 21  2  0  0  0
 21 22  1  0  0  0
 22 23  2  0  0  0
 21 24  1  0  0  0
 24 25  1  0  0  0
 24 26  1  0  0  0
 24 27  1  0  0  0
 12  7  1  0  0  0
  5  1  1  0  0  0
 23 18  1  0  0  0
 14 17  1  0  0  0
  5  6  1  0  0  0
M  END
> <minimizedAffinity>
-9.54838

> <CNNscore>
0.4463364482

> <CNNaffinity>
6.5210938454

> <CNN_VS>
2.9106018543

> <CNNaffinity_variance>
0.0637072921

$$$$
[H]OC(=O)C([H])([H])[C@]1([H])C([H])([H])C([H])([H])[C@@]([H])(c2nc(-c3c([H])c([H])c(C(F)(F)F)c([H])c3[H])c([H])n2[H])C([H])([H])C1([H])[H]


 27 29  0  0  0  0  0  0  0  0999 V2000
  -13.4960   -7.5690    6.3116 C   0  0  0  0  0  0  0  0  0  0  0  0
  -12.5016   -7.0498    7.1000 N   0  0  0  0  0  0  0  0  0  0  0  0
  -11.3432   -7.6706    6.8408 C   0  0  0  0  0  0  0  0  0  0  0  0
  -11.6339   -8.6253    5.8309 C   0  0  0  0  0  0  0  0  0  0  0  0
  -12.9408   -8.5227    5.5476 N   0  0  0  0  0  0  0  0  0  0  0  0
  -13.4642   -9.1076    4.8548 H   0  0  0  0  0  0  0  0  0  0  0  0
  -17.6977   -7.6643    5.3407 C   0  0  0  0  0  0  0  0  0  0  0  0
  -16.9645   -6.3644    5.2943 C   0  0  0  0  0  0  0  0  0  0  0  0
  -15.4584   -6.6209    5.0555 C   0  0  0  0  0  0  0  0  0  0  0  0
  -14.9301   -7.2430    6.3392 C   0  0  0  0  0  0  0  0  0  0  0  0
  -15.8078   -8.4057    6.7124 C   0  0  0  0  0  0  0  0  0  0  0  0
  -16.7397   -8.8060    5.5964 C   0  0  0  0  0  0  0  0  0  0  0  0
  -18.7446   -7.7364    6.4160 C   0  0  0  0  0  0  0  0  0  0  0  0
  -20.2117   -9.3046    5.2786 O   0  0  0  0  0  0  0  0  0  0  0  0
  -19.5477   -8.9663    6.4214 C   0  0  0  0  0  0  0  0  0  0  0  0
  -19.6429   -9.7234    7.4389 O   0  0  0  0  0  0  0  0  0  0  0  0
  -20.9829   -9.9608    5.2183 H   0  0  0  0  0  0  0  0  0  0  0  0
  -10.0312   -7.4831    7.4111 C   0  0  0  0  0  0  0  0  0  0  0  0
   -9.2473   -8.6257    7.6230 C   0  0  0  0  0  0  0  0  0  0  0  0
   -7.9838   -8.5936    8.1378 C   0  0  0  0  0  0  0  0  0  0  0  0
   -7.4191   -7.3739    8.4729 C   0  0  0  0  0  0  0  0  0  0  0  0
   -8.1157   -6.2448    8.2934 C   0  0  0  0  0  0  0  0  0  0  0  0
   -9.4214   -6.3060    7.7644 C   0  0  0  0  0  0  0  0  0  0  0  0
   -6.0265   -7.4022    9.0464 C   0  0  0  0  0  0  0  0  0  0  0  0
   -5.9882   -7.3837   10.4185 F   0  0  0  0  0  0  0  0  0  0  0  0
   -5.2766   -6.3130    8.6403 F   0  0  0  0  0  0  0  0  0  0  0  0
   -5.3797   -8.5487    8.5465 F   0  0  0  0  0  0  0  0  0  0  0  0
 14 15  1  0  0  0
 15 16  2  0  0  0
 15 13  1  0  0  0
 13  7  1  0  0  0
  7  8  1  0  0  0
  8  9  1  0  0  0
  9 10  1  0  0  0
 10 11  1  0  0  0
 11 12  1  0  0  0
 10  1  1  0  0  0
  1  2  2  0  0  0
  2  3  1  0  0  0
  3  4  2  0  0  0
  4  5  1  0  0  0
  3 18  1  0  0  0
 18 19  2  0  0  0
 19 20  1  0  0  0
 20 21  2  0  0  0
 21 22  1  0  0  0
 22 23  2  0  0  0
 21 24  1  0  0  0
 24 25  1  0  0  0
 24 26  1  0  0  0
 24 27  1  0  0  0
 12  7  1  0  0  0
  5  1  1  0  0  0
 23 18  1  0  0  0
 14 17  1  0  0  0
  5  6  1  0  0  0
M  END
> <minimizedAffinity>
4.12814

> <CNNscore>
0.4311510026

> <CNNaffinity>
6.8808860779

> <CNN_VS>
2.9667010307

> <CNNaffinity_variance>
3.8992676735

$$$$
[H]OC(=O)C([H])([H])[C@]1([H])C([H])([H])C([H])([H])[C@@]([H])(c2nc(-c3c([H])c([H])c(C(F)(F)F)c([H])c3[H])c([H])n2[H])C([H])([H])C1([H])[H]


 27 29  0  0  0  0  0  0  0  0999 V2000
  -10.6532   -6.3886    6.2395 C   0  0  0  0  0  0  0  0  0  0  0  0
  -11.7645   -7.1772    6.3912 N   0  0  0  0  0  0  0  0  0  0  0  0
  -12.7733   -6.6897    5.6568 C   0  0  0  0  0  0  0  0  0  0  0  0
  -12.2573   -5.5365    5.0087 C   0  0  0  0  0  0  0  0  0  0  0  0
  -10.9792   -5.4004    5.3917 N   0  0  0  0  0  0  0  0  0  0  0  0
  -10.3316   -4.6319    5.0990 H   0  0  0  0  0  0  0  0  0  0  0  0
   -7.3596   -8.1366    8.4082 C   0  0  0  0  0  0  0  0  0  0  0  0
   -8.0222   -6.9112    8.9454 C   0  0  0  0  0  0  0  0  0  0  0  0
   -9.4732   -6.8263    8.4176 C   0  0  0  0  0  0  0  0  0  0  0  0
   -9.3622   -6.5083    6.9342 C   0  0  0  0  0  0  0  0  0  0  0  0
   -8.4206   -7.4919    6.2959 C   0  0  0  0  0  0  0  0  0  0  0  0
   -8.1045   -8.6571    7.1996 C   0  0  0  0  0  0  0  0  0  0  0  0
   -5.9378   -7.9207    7.9731 C   0  0  0  0  0  0  0  0  0  0  0  0
   -5.9449   -5.9098    9.3374 O   0  0  0  0  0  0  0  0  0  0  0  0
   -5.3760   -6.6063    8.3115 C   0  0  0  0  0  0  0  0  0  0  0  0
   -4.3859   -6.0998    7.6944 O   0  0  0  0  0  0  0  0  0  0  0  0
   -5.8338   -4.9158    9.5069 H   0  0  0  0  0  0  0  0  0  0  0  0
  -14.1272   -7.1607    5.4942 C   0  0  0  0  0  0  0  0  0  0  0  0
  -15.1400   -6.4692    6.1730 C   0  0  0  0  0  0  0  0  0  0  0  0
  -16.4632   -6.7941    6.0957 C   0  0  0  0  0  0  0  0  0  0  0  0
  -16.8542   -7.8608    5.3030 C   0  0  0  0  0  0  0  0  0  0  0  0
  -15.9349   -8.5616    4.6275 C   0  0  0  0  0  0  0  0  0  0  0  0
  -14.5735   -8.2082    4.7287 C   0  0  0  0  0  0  0  0  0  0  0  0
  -18.3261   -8.1785    5.2654 C   0  0  0  0  0  0  0  0  0  0  0  0
  -18.7457   -8.7379    4.0841 F   0  0  0  0  0  0  0  0  0  0  0  0
  -19.1048   -7.0482    5.4371 F   0  0  0  0  0  0  0  0  0  0  0  0
  -18.6084   -9.0334    6.3481 F   0  0  0  0  0  0  0  0  0  0  0  0
 14 15  1  0  0  0
 15 16  2  0  0  0
 15 13  1  0  0  0
 13  7  1  0  0  0
  7  8  1  0  0  0
  8  9  1  0  0  0
  9 10  1  0  0  0
 10 11  1  0  0  0
 11 12  1  0  0  0
 10  1  1  0  0  0
  1  2  2  0  0  0
  2  3  1  0  0  0
  3  4  2  0  0  0
  4  5  1  0  0  0
  3 18  1  0  0  0
 18 19  2  0  0  0
 19 20  1  0  0  0
 20 21  2  0  0  0
 21 22  1  0  0  0
 22 23  2  0  0  0
 21 24  1  0  0  0
 24 25  1  0  0  0
 24 26  1  0  0  0
 24 27  1  0  0  0
 12  7  1  0  0  0
  5  1  1  0  0  0
 23 18  1  0  0  0
 14 17  1  0  0  0
  5  6  1  0  0  0
M  END
> <minimizedAffinity>
14.51111

> <CNNscore>
0.3946462870

> <CNNaffinity>
5.8968977928

> <CNN_VS>
2.3271887302

> <CNNaffinity_variance>
0.7034764290

$$$$
[H]OC(=O)C([H])([H])[C@]1([H])C([H])([H])C([H])([H])[C@@]([H])(c2nc(-c3c([H])c([H])c(C(F)(F)F)c([H])c3[H])c([H])n2[H])C([H])([H])C1([H])[H]


 27 29  0  0  0  0  0  0  0  0999 V2000
  -13.5784   -8.4859    6.4900 C   0  0  0  0  0  0  0  0  0  0  0  0
  -12.5622   -7.7001    6.9690 N   0  0  0  0  0  0  0  0  0  0  0  0
  -11.4095   -8.3821    6.9477 C   0  0  0  0  0  0  0  0  0  0  0  0
  -11.7273   -9.6616    6.4207 C   0  0  0  0  0  0  0  0  0  0  0  0
  -13.0430   -9.6719    6.1609 N   0  0  0  0  0  0  0  0  0  0  0  0
  -13.5851  -10.4829    5.7811 H   0  0  0  0  0  0  0  0  0  0  0  0
  -17.2468   -6.4947    5.4015 C   0  0  0  0  0  0  0  0  0  0  0  0
  -16.9109   -6.6734    6.8453 C   0  0  0  0  0  0  0  0  0  0  0  0
  -15.3799   -6.8101    7.0139 C   0  0  0  0  0  0  0  0  0  0  0  0
  -15.0126   -8.1649    6.4277 C   0  0  0  0  0  0  0  0  0  0  0  0
  -15.5969   -8.2707    5.0460 C   0  0  0  0  0  0  0  0  0  0  0  0
  -16.0972   -6.9455    4.5287 C   0  0  0  0  0  0  0  0  0  0  0  0
  -18.4525   -7.2719    4.9547 C   0  0  0  0  0  0  0  0  0  0  0  0
  -18.3772   -9.6948    5.1240 O   0  0  0  0  0  0  0  0  0  0  0  0
  -18.1626   -8.5841    4.3615 C   0  0  0  0  0  0  0  0  0  0  0  0
  -17.7286   -8.7235    3.1742 O   0  0  0  0  0  0  0  0  0  0  0  0
  -17.9903  -10.6153    4.9450 H   0  0  0  0  0  0  0  0  0  0  0  0
  -10.0810   -7.9905    7.3520 C   0  0  0  0  0  0  0  0  0  0  0  0
   -9.1029   -8.9922    7.4213 C   0  0  0  0  0  0  0  0  0  0  0  0
   -7.8043   -8.7610    7.7714 C   0  0  0  0  0  0  0  0  0  0  0  0
   -7.4034   -7.4702    8.0747 C   0  0  0  0  0  0  0  0  0  0  0  0
   -8.2897   -6.4679    8.0259 C   0  0  0  0  0  0  0  0  0  0  0  0
   -9.6268   -6.7346    7.6661 C   0  0  0  0  0  0  0  0  0  0  0  0
   -5.9611   -7.2783    8.4644 C   0  0  0  0  0  0  0  0  0  0  0  0
   -5.5047   -5.9943    8.2981 F   0  0  0  0  0  0  0  0  0  0  0  0
   -5.1118   -8.0730    7.7155 F   0  0  0  0  0  0  0  0  0  0  0  0
   -5.8208   -7.6860    9.8048 F   0  0  0  0  0  0  0  0  0  0  0  0
 14 15  1  0  0  0
 15 16  2  0  0  0
 15 13  1  0  0  0
 13  7  1  0  0  0
  7  8  1  0  0  0
  8  9  1  0  0  0
  9 10  1  0  0  0
 10 11  1  0  0  0
 11 12  1  0  0  0
 10  1  1  0  0  0
  1  2  2  0  0  0
  2  3  1  0  0  0
  3  4  2  0  0  0
  4  5  1  0  0  0
  3 18  1  0  0  0
 18 19  2  0  0  0
 19 20  1  0  0  0
 20 21  2  0  0  0
 21 22  1  0  0  0
 22 23  2  0  0  0
 21 24  1  0  0  0
 24 25  1  0  0  0
 24 26  1  0  0  0
 24 27  1  0  0  0
 12  7  1  0  0  0
  5  1  1  0  0  0
 23 18  1  0  0  0
 14 17  1  0  0  0
  5  6  1  0  0  0
M  END
> <minimizedAffinity>
-4.57364

> <CNNscore>
0.3827116191

> <CNNaffinity>
6.5601873398

> <CNN_VS>
2.5106599331

> <CNNaffinity_variance>
0.9282952547

$$$$
[H]OC(=O)C([H])([H])[C@]1([H])C([H])([H])C([H])([H])[C@@]([H])(c2nc(-c3c([H])c([H])c(C(F)(F)F)c([H])c3[H])c([H])n2[H])C([H])([H])C1([H])[H]


 27 29  0  0  0  0  0  0  0  0999 V2000
  -13.5167   -7.9207    6.4210 C   0  0  0  0  0  0  0  0  0  0  0  0
  -12.3638   -7.2016    6.6037 N   0  0  0  0  0  0  0  0  0  0  0  0
  -11.4102   -7.9910    7.1155 C   0  0  0  0  0  0  0  0  0  0  0  0
  -12.0032   -9.2737    7.2533 C   0  0  0  0  0  0  0  0  0  0  0  0
  -13.2692   -9.1778    6.8209 N   0  0  0  0  0  0  0  0  0  0  0  0
  -13.9731   -9.9526    6.8132 H   0  0  0  0  0  0  0  0  0  0  0  0
  -16.8493   -7.0370    3.8289 C   0  0  0  0  0  0  0  0  0  0  0  0
  -16.2210   -5.9346    4.6157 C   0  0  0  0  0  0  0  0  0  0  0  0
  -14.7559   -6.2991    4.9504 C   0  0  0  0  0  0  0  0  0  0  0  0
  -14.8264   -7.4242    5.9718 C   0  0  0  0  0  0  0  0  0  0  0  0
  -15.7340   -8.5016    5.4456 C   0  0  0  0  0  0  0  0  0  0  0  0
  -16.0606   -8.3177    3.9849 C   0  0  0  0  0  0  0  0  0  0  0  0
  -18.2601   -7.3518    4.2385 C   0  0  0  0  0  0  0  0  0  0  0  0
  -17.9615   -8.0818    6.5370 O   0  0  0  0  0  0  0  0  0  0  0  0
  -18.3916   -8.3818    5.2775 C   0  0  0  0  0  0  0  0  0  0  0  0
  -18.8910   -9.5295    5.0517 O   0  0  0  0  0  0  0  0  0  0  0  0
  -17.7575   -8.7573    7.2658 H   0  0  0  0  0  0  0  0  0  0  0  0
  -10.0465   -7.6962    7.4827 C   0  0  0  0  0  0  0  0  0  0  0  0
   -9.1626   -8.7761    7.6141 C   0  0  0  0  0  0  0  0  0  0  0  0
   -7.8438   -8.6416    7.9385 C   0  0  0  0  0  0  0  0  0  0  0  0
   -7.3233   -7.3753    8.1494 C   0  0  0  0  0  0  0  0  0  0  0  0
   -8.1154   -6.3017    8.0378 C   0  0  0  0  0  0  0  0  0  0  0  0
   -9.4759   -6.4687    7.7065 C   0  0  0  0  0  0  0  0  0  0  0  0
   -5.8646   -7.2902    8.5149 C   0  0  0  0  0  0  0  0  0  0  0  0
   -5.2448   -6.1478    8.0730 F   0  0  0  0  0  0  0  0  0  0  0  0
   -5.1348   -8.3374    7.9816 F   0  0  0  0  0  0  0  0  0  0  0  0
   -5.7660   -7.3993    9.9153 F   0  0  0  0  0  0  0  0  0  0  0  0
 14 15  1  0  0  0
 15 16  2  0  0  0
 15 13  1  0  0  0
 13  7  1  0  0  0
  7  8  1  0  0  0
  8  9  1  0  0  0
  9 10  1  0  0  0
 10 11  1  0  0  0
 11 12  1  0  0  0
 10  1  1  0  0  0
  1  2  2  0  0  0
  2  3  1  0  0  0
  3  4  2  0  0  0
  4  5  1  0  0  0
  3 18  1  0  0  0
 18 19  2  0  0  0
 19 20  1  0  0  0
 20 21  2  0  0  0
 21 22  1  0  0  0
 22 23  2  0  0  0
 21 24  1  0  0  0
 24 25  1  0  0  0
 24 26  1  0  0  0
 24 27  1  0  0  0
 12  7  1  0  0  0
  5  1  1  0  0  0
 23 18  1  0  0  0
 14 17  1  0  0  0
  5  6  1  0  0  0
M  END
> <minimizedAffinity>
-5.98807

> <CNNscore>
0.3282344341

> <CNNaffinity>
6.4422731400

> <CNN_VS>
2.1145758629

> <CNNaffinity_variance>
0.4765565395

$$$$
[H]N=C(N([H])[H])N([H])C([H])([H])C([H])([H])C([H])([H])[C@@]([H])(C(=O)N([H])[C@]([H])(C(=O)N([H])[H])C([H])([H])c1c([H])c([H])c([H])c([H])c1[H])N([H])C(=O)[C@@]([H])(N([H])C(=O)[C@@]([H])(N([H])C(=O)[C@@]([H])(N([H])C(=O)[C@@]([H])(N([H])C(=O)[C@@]([H])(N([H])[H])C([H])([H])C([H])([H])C(=O)O[H])C([H])([H])C([H])([H])C(=O)N([H])[H])C([H])([H])C([H])([H])C(=O)O[H])C([H])([H])C([H])([H])C(=O)O[H])C([H])([H])C([H])([H])C(=O)O[H]


 88 88  0  0  0  0  0  0  0  0999 V2000
   -5.9867   -6.6293    7.5302 N   0  0  0  0  0  0  0  0  0  0  0  0
   -4.8541   -6.0461    6.9382 C   0  0  0  0  0  0  0  0  0  0  0  0
   -4.8768   -5.5940    5.7506 O   0  0  0  0  0  0  0  0  0  0  0  0
   -5.9381   -7.0281    8.4734 H   0  0  0  0  0  0  0  0  0  0  0  0
   -7.2994   -6.7350    6.8437 C   0  0  0  0  0  0  0  0  0  0  0  0
   -9.7159   -6.7300    7.6763 N   0  0  0  0  0  0  0  0  0  0  0  0
   -8.3242   -6.8756    7.8423 C   0  0  0  0  0  0  0  0  0  0  0  0
   -7.9378   -7.1597    9.0468 O   0  0  0  0  0  0  0  0  0  0  0  0
  -10.1494   -6.5208    6.7644 H   0  0  0  0  0  0  0  0  0  0  0  0
  -10.6040   -6.8830    8.8408 C   0  0  0  0  0  0  0  0  0  0  0  0
  -11.8713   -7.4983    8.4416 C   0  0  0  0  0  0  0  0  0  0  0  0
  -11.9579   -8.7337    8.3388 O   0  0  0  0  0  0  0  0  0  0  0  0
  -12.9861   -6.6831    8.1787 N   0  0  0  0  0  0  0  0  0  0  0  0
  -12.8422   -5.6336    8.3048 H   0  0  0  0  0  0  0  0  0  0  0  0
  -14.3046   -7.1119    7.7592 C   0  0  0  0  0  0  0  0  0  0  0  0
  -14.9384   -7.8710    8.8393 C   0  0  0  0  0  0  0  0  0  0  0  0
  -16.0775   -8.6759    8.6644 N   0  0  0  0  0  0  0  0  0  0  0  0
  -14.4351   -7.7918    9.9951 O   0  0  0  0  0  0  0  0  0  0  0  0
  -16.1457   -9.6409    9.0461 H   0  0  0  0  0  0  0  0  0  0  0  0
  -16.9090   -8.3206    8.1363 H   0  0  0  0  0  0  0  0  0  0  0  0
  -14.2122   -7.8565    6.4334 C   0  0  0  0  0  0  0  0  0  0  0  0
  -15.2084   -7.4358    5.4407 C   0  0  0  0  0  0  0  0  0  0  0  0
  -15.7469   -6.1615    5.4610 C   0  0  0  0  0  0  0  0  0  0  0  0
  -16.6411   -5.7311    4.5399 C   0  0  0  0  0  0  0  0  0  0  0  0
  -17.0396   -6.5672    3.5464 C   0  0  0  0  0  0  0  0  0  0  0  0
  -16.5063   -7.8661    3.5068 C   0  0  0  0  0  0  0  0  0  0  0  0
  -15.6058   -8.2901    4.4407 C   0  0  0  0  0  0  0  0  0  0  0  0
  -10.8240   -5.5054    9.4605 C   0  0  0  0  0  0  0  0  0  0  0  0
  -11.9136   -5.5384   10.4870 C   0  0  0  0  0  0  0  0  0  0  0  0
  -11.4524   -6.1894   11.7566 C   0  0  0  0  0  0  0  0  0  0  0  0
  -11.5488   -5.2791   12.8606 N   0  0  0  0  0  0  0  0  0  0  0  0
  -12.4081   -4.6506   12.9047 H   0  0  0  0  0  0  0  0  0  0  0  0
  -10.9160   -4.2091   14.9233 N   0  0  0  0  0  0  0  0  0  0  0  0
  -10.5956   -5.1487   13.9068 C   0  0  0  0  0  0  0  0  0  0  0  0
   -9.5026   -5.7719   14.0199 N   0  0  0  0  0  0  0  0  0  0  0  0
  -10.5524   -4.3440   15.8782 H   0  0  0  0  0  0  0  0  0  0  0  0
  -11.5105   -3.3902   14.7018 H   0  0  0  0  0  0  0  0  0  0  0  0
   -9.1158   -6.4997   13.3460 H   0  0  0  0  0  0  0  0  0  0  0  0
   -7.1416   -7.7941    5.8124 C   0  0  0  0  0  0  0  0  0  0  0  0
   -6.9549   -9.1945    6.2334 C   0  0  0  0  0  0  0  0  0  0  0  0
   -7.9987   -9.7767    7.0711 C   0  0  0  0  0  0  0  0  0  0  0  0
   -9.3580   -9.7243    6.7443 O   0  0  0  0  0  0  0  0  0  0  0  0
   -7.6419  -10.3522    8.1473 O   0  0  0  0  0  0  0  0  0  0  0  0
   -9.9875  -10.4611    7.0183 H   0  0  0  0  0  0  0  0  0  0  0  0
   -3.5817   -5.9343    7.6685 C   0  0  0  0  0  0  0  0  0  0  0  0
   -3.5786   -4.9095    8.6276 N   0  0  0  0  0  0  0  0  0  0  0  0
   -4.1534   -4.7673    9.8950 C   0  0  0  0  0  0  0  0  0  0  0  0
   -4.8505   -5.6555   10.4026 O   0  0  0  0  0  0  0  0  0  0  0  0
   -2.9920   -4.0405    8.3170 H   0  0  0  0  0  0  0  0  0  0  0  0
   -3.9019   -3.4957   10.6400 C   0  0  0  0  0  0  0  0  0  0  0  0
   -2.9786   -3.5468   11.7199 N   0  0  0  0  0  0  0  0  0  0  0  0
   -3.3750   -3.8966   13.0433 C   0  0  0  0  0  0  0  0  0  0  0  0
   -4.5675   -4.1893   13.2463 O   0  0  0  0  0  0  0  0  0  0  0  0
   -1.9944   -3.3105   11.5427 H   0  0  0  0  0  0  0  0  0  0  0  0
   -2.4187   -3.9199   14.2164 C   0  0  0  0  0  0  0  0  0  0  0  0
   -2.6545   -2.8368   15.1122 N   0  0  0  0  0  0  0  0  0  0  0  0
   -2.8359   -1.4836   14.9503 C   0  0  0  0  0  0  0  0  0  0  0  0
   -2.8219   -0.9632   13.7882 O   0  0  0  0  0  0  0  0  0  0  0  0
   -2.6322   -3.1641   16.1668 H   0  0  0  0  0  0  0  0  0  0  0  0
   -3.0473   -0.5581   16.0915 C   0  0  0  0  0  0  0  0  0  0  0  0
   -3.2634    0.8153   15.6852 N   0  0  0  0  0  0  0  0  0  0  0  0
   -3.5906    0.8522   14.7054 H   0  0  0  0  0  0  0  0  0  0  0  0
   -3.8551    1.2695   16.3793 H   0  0  0  0  0  0  0  0  0  0  0  0
   -4.2320   -0.9272   16.9426 C   0  0  0  0  0  0  0  0  0  0  0  0
   -5.5665   -0.8139   16.3119 C   0  0  0  0  0  0  0  0  0  0  0  0
   -6.0598   -2.2068   16.0265 C   0  0  0  0  0  0  0  0  0  0  0  0
   -7.1185   -2.3101   15.1237 O   0  0  0  0  0  0  0  0  0  0  0  0
   -5.5621   -3.2396   16.5559 O   0  0  0  0  0  0  0  0  0  0  0  0
   -7.2688   -3.2205   14.6874 H   0  0  0  0  0  0  0  0  0  0  0  0
   -2.3646   -5.2231   14.9339 C   0  0  0  0  0  0  0  0  0  0  0  0
   -2.1996   -6.4523   14.0980 C   0  0  0  0  0  0  0  0  0  0  0  0
   -3.3070   -7.4294   14.3718 C   0  0  0  0  0  0  0  0  0  0  0  0
   -4.6549   -7.0218   14.5326 N   0  0  0  0  0  0  0  0  0  0  0  0
   -3.0338   -8.6667   14.4720 O   0  0  0  0  0  0  0  0  0  0  0  0
   -5.3428   -7.3229   13.8139 H   0  0  0  0  0  0  0  0  0  0  0  0
   -4.9074   -6.4329   15.3520 H   0  0  0  0  0  0  0  0  0  0  0  0
   -3.3340   -2.5547    9.5400 C   0  0  0  0  0  0  0  0  0  0  0  0
   -3.6334   -1.1427    9.9463 C   0  0  0  0  0  0  0  0  0  0  0  0
   -2.3926   -0.3574   10.1420 C   0  0  0  0  0  0  0  0  0  0  0  0
   -2.2058    0.9459    9.6992 O   0  0  0  0  0  0  0  0  0  0  0  0
   -1.4515   -0.9285   10.7563 O   0  0  0  0  0  0  0  0  0  0  0  0
   -2.5852    1.2823    8.8325 H   0  0  0  0  0  0  0  0  0  0  0  0
   -3.1864   -7.2950    8.2515 C   0  0  0  0  0  0  0  0  0  0  0  0
   -1.7730   -7.6970    7.9750 C   0  0  0  0  0  0  0  0  0  0  0  0
   -1.3549   -7.5814    6.5735 C   0  0  0  0  0  0  0  0  0  0  0  0
   -0.3523   -6.6655    6.2472 O   0  0  0  0  0  0  0  0  0  0  0  0
   -1.8060   -8.2246    5.5980 O   0  0  0  0  0  0  0  0  0  0  0  0
    0.5824   -6.9952    6.1714 H   0  0  0  0  0  0  0  0  0  0  0  0
 33 34  1  0  0  0
 34 35  2  0  0  0
 34 31  1  0  0  0
 31 30  1  0  0  0
 30 29  1  0  0  0
 29 28  1  0  0  0
 28 10  1  0  0  0
 10  6  1  0  0  0
  6  7  1  0  0  0
  7  8  2  0  0  0
  7  5  1  0  0  0
  5 39  1  0  0  0
 39 40  1  0  0  0
 40 41  1  0  0  0
 41 42  1  0  0  0
 41 43  2  0  0  0
  5  1  1  0  0  0
  1  2  1  0  0  0
  2  3  2  0  0  0
  2 45  1  0  0  0
 45 83  1  0  0  0
 83 84  1  0  0  0
 84 85  1  0  0  0
 85 86  1  0  0  0
 85 87  2  0  0  0
 45 46  1  0  0  0
 46 47  1  0  0  0
 47 48  2  0  0  0
 47 50  1  0  0  0
 50 77  1  0  0  0
 77 78  1  0  0  0
 78 79  1  0  0  0
 79 80  1  0  0  0
 79 81  2  0  0  0
 50 51  1  0  0  0
 51 52  1  0  0  0
 52 53  2  0  0  0
 52 55  1  0  0  0
 55 70  1  0  0  0
 70 71  1  0  0  0
 71 72  1  0  0  0
 72 73  1  0  0  0
 72 74  2  0  0  0
 55 56  1  0  0  0
 56 57  1  0  0  0
 57 58  2  0  0  0
 57 60  1  0  0  0
 60 61  1  0  0  0
 60 64  1  0  0  0
 64 65  1  0  0  0
 65 66  1  0  0  0
 66 67  1  0  0  0
 66 68  2  0  0  0
 10 11  1  0  0  0
 11 12  2  0  0  0
 11 13  1  0  0  0
 13 15  1  0  0  0
 15 21  1  0  0  0
 21 22  1  0  0  0
 22 23  2  0  0  0
 23 24  1  0  0  0
 24 25  2  0  0  0
 25 26  1  0  0  0
 26 27  2  0  0  0
 15 16  1  0  0  0
 16 17  1  0  0  0
 16 18  2  0  0  0
 27 22  1  0  0  0
 33 36  1  0  0  0
 33 37  1  0  0  0
 35 38  1  0  0  0
 31 32  1  0  0  0
  6  9  1  0  0  0
 42 44  1  0  0  0
  1  4  1  0  0  0
 86 88  1  0  0  0
 46 49  1  0  0  0
 80 82  1  0  0  0
 51 54  1  0  0  0
 73 75  1  0  0  0
 73 76  1  0  0  0
 56 59  1  0  0  0
 61 62  1  0  0  0
 61 63  1  0  0  0
 67 69  1  0  0  0
 13 14  1  0  0  0
 17 19  1  0  0  0
 17 20  1  0  0  0
M  END
> <minimizedAffinity>
-5.09714

> <CNNscore>
0.2812475860

> <CNNaffinity>
7.3972220421

> <CNN_VS>
2.0804507732

> <CNNaffinity_variance>
0.3076605201

$$$$
[H]N=C(N([H])[H])N([H])C([H])([H])C([H])([H])C([H])([H])[C@@]([H])(C(=O)N([H])[C@]([H])(C(=O)N([H])[H])C([H])([H])c1c([H])c([H])c([H])c([H])c1[H])N([H])C(=O)[C@@]([H])(N([H])C(=O)[C@@]([H])(N([H])C(=O)[C@@]([H])(N([H])C(=O)[C@@]([H])(N([H])C(=O)[C@@]([H])(N([H])[H])C([H])([H])C([H])([H])C(=O)O[H])C([H])([H])C([H])([H])C(=O)N([H])[H])C([H])([H])C([H])([H])C(=O)O[H])C([H])([H])C([H])([H])C(=O)O[H])C([H])([H])C([H])([H])C(=O)O[H]


 88 88  0  0  0  0  0  0  0  0999 V2000
   -5.4301   -6.4812    8.5360 N   0  0  0  0  0  0  0  0  0  0  0  0
   -4.5553   -5.4190    8.2537 C   0  0  0  0  0  0  0  0  0  0  0  0
   -4.4919   -4.8923    7.0987 O   0  0  0  0  0  0  0  0  0  0  0  0
   -5.4368   -6.9226    9.4612 H   0  0  0  0  0  0  0  0  0  0  0  0
   -6.3684   -7.0498    7.5349 C   0  0  0  0  0  0  0  0  0  0  0  0
   -8.8623   -6.7184    7.9857 N   0  0  0  0  0  0  0  0  0  0  0  0
   -7.6139   -7.3385    8.1924 C   0  0  0  0  0  0  0  0  0  0  0  0
   -7.6021   -8.2707    9.0934 O   0  0  0  0  0  0  0  0  0  0  0  0
   -9.0060   -5.9749    7.2859 H   0  0  0  0  0  0  0  0  0  0  0  0
  -10.0217   -7.1388    8.7902 C   0  0  0  0  0  0  0  0  0  0  0  0
  -10.9904   -7.8551    7.9580 C   0  0  0  0  0  0  0  0  0  0  0  0
  -10.6029   -8.7313    7.1666 O   0  0  0  0  0  0  0  0  0  0  0  0
  -12.3579   -7.5463    8.0628 N   0  0  0  0  0  0  0  0  0  0  0  0
  -12.6179   -6.7963    8.7757 H   0  0  0  0  0  0  0  0  0  0  0  0
  -13.4483   -8.1350    7.3128 C   0  0  0  0  0  0  0  0  0  0  0  0
  -13.2201   -9.5742    7.1670 C   0  0  0  0  0  0  0  0  0  0  0  0
  -13.1060  -10.4609    8.2517 N   0  0  0  0  0  0  0  0  0  0  0  0
  -13.1137  -10.0430    5.9990 O   0  0  0  0  0  0  0  0  0  0  0  0
  -13.6099  -11.3699    8.2879 H   0  0  0  0  0  0  0  0  0  0  0  0
  -12.4965  -10.2297    9.0713 H   0  0  0  0  0  0  0  0  0  0  0  0
  -13.6381   -7.3889    5.9982 C   0  0  0  0  0  0  0  0  0  0  0  0
  -14.9988   -7.4731    5.4540 C   0  0  0  0  0  0  0  0  0  0  0  0
  -15.2702   -8.2055    4.3121 C   0  0  0  0  0  0  0  0  0  0  0  0
  -16.5191   -8.3317    3.8043 C   0  0  0  0  0  0  0  0  0  0  0  0
  -17.5629   -7.7233    4.4248 C   0  0  0  0  0  0  0  0  0  0  0  0
  -17.3103   -6.9736    5.5856 C   0  0  0  0  0  0  0  0  0  0  0  0
  -16.0474   -6.8524    6.0889 C   0  0  0  0  0  0  0  0  0  0  0  0
  -10.6420   -5.8960    9.4234 C   0  0  0  0  0  0  0  0  0  0  0  0
  -10.4734   -5.9018   10.9113 C   0  0  0  0  0  0  0  0  0  0  0  0
  -11.7461   -5.5257   11.6094 C   0  0  0  0  0  0  0  0  0  0  0  0
  -11.6484   -5.7773   13.0180 N   0  0  0  0  0  0  0  0  0  0  0  0
  -12.4120   -6.3715   13.4644 H   0  0  0  0  0  0  0  0  0  0  0  0
  -10.9405   -4.1840   14.6794 N   0  0  0  0  0  0  0  0  0  0  0  0
  -10.6133   -5.3047   13.8696 C   0  0  0  0  0  0  0  0  0  0  0  0
   -9.4439   -5.7709   13.9738 N   0  0  0  0  0  0  0  0  0  0  0  0
  -10.4627   -4.0478   15.5824 H   0  0  0  0  0  0  0  0  0  0  0  0
  -11.6550   -3.5056   14.3592 H   0  0  0  0  0  0  0  0  0  0  0  0
   -9.0416   -6.5979   13.4375 H   0  0  0  0  0  0  0  0  0  0  0  0
   -5.6329   -8.1507    6.8588 C   0  0  0  0  0  0  0  0  0  0  0  0
   -4.4144   -7.8431    6.0883 C   0  0  0  0  0  0  0  0  0  0  0  0
   -3.1630   -8.4147    6.5758 C   0  0  0  0  0  0  0  0  0  0  0  0
   -2.2895   -9.1454    5.7632 O   0  0  0  0  0  0  0  0  0  0  0  0
   -2.8673   -8.2357    7.7995 O   0  0  0  0  0  0  0  0  0  0  0  0
   -1.2956   -9.1330    5.9252 H   0  0  0  0  0  0  0  0  0  0  0  0
   -3.6652   -4.8665    9.2867 C   0  0  0  0  0  0  0  0  0  0  0  0
   -2.9245   -3.7577    8.8483 N   0  0  0  0  0  0  0  0  0  0  0  0
   -3.0391   -2.3774    9.0446 C   0  0  0  0  0  0  0  0  0  0  0  0
   -3.9503   -1.8846    9.7223 O   0  0  0  0  0  0  0  0  0  0  0  0
   -2.0695   -4.0383    8.2270 H   0  0  0  0  0  0  0  0  0  0  0  0
   -2.0165   -1.4917    8.4081 C   0  0  0  0  0  0  0  0  0  0  0  0
   -2.3969   -0.8089    7.2205 N   0  0  0  0  0  0  0  0  0  0  0  0
   -2.4598   -1.4615    5.9552 C   0  0  0  0  0  0  0  0  0  0  0  0
   -2.1947   -2.6764    5.9018 O   0  0  0  0  0  0  0  0  0  0  0  0
   -2.6210    0.1925    7.2742 H   0  0  0  0  0  0  0  0  0  0  0  0
   -2.8238   -0.7474    4.6711 C   0  0  0  0  0  0  0  0  0  0  0  0
   -2.8052   -1.6297    3.5521 N   0  0  0  0  0  0  0  0  0  0  0  0
   -2.5958   -1.4605    2.2038 C   0  0  0  0  0  0  0  0  0  0  0  0
   -2.3423   -0.3069    1.7279 O   0  0  0  0  0  0  0  0  0  0  0  0
   -3.0696   -2.6628    3.8394 H   0  0  0  0  0  0  0  0  0  0  0  0
   -2.6570   -2.5820    1.2332 C   0  0  0  0  0  0  0  0  0  0  0  0
   -2.3014   -3.8619    1.8107 N   0  0  0  0  0  0  0  0  0  0  0  0
   -2.4231   -3.8385    2.8370 H   0  0  0  0  0  0  0  0  0  0  0  0
   -2.8032   -4.5941    1.3103 H   0  0  0  0  0  0  0  0  0  0  0  0
   -4.0219   -2.7682    0.6276 C   0  0  0  0  0  0  0  0  0  0  0  0
   -4.0695   -3.2016   -0.7870 C   0  0  0  0  0  0  0  0  0  0  0  0
   -5.2435   -2.5203   -1.4372 C   0  0  0  0  0  0  0  0  0  0  0  0
   -5.9868   -1.6669   -0.6213 O   0  0  0  0  0  0  0  0  0  0  0  0
   -5.5589   -2.6901   -2.6481 O   0  0  0  0  0  0  0  0  0  0  0  0
   -6.5782   -0.9780   -1.0878 H   0  0  0  0  0  0  0  0  0  0  0  0
   -4.0955    0.0233    4.7407 C   0  0  0  0  0  0  0  0  0  0  0  0
   -3.9833    1.5117    4.8359 C   0  0  0  0  0  0  0  0  0  0  0  0
   -4.3981    1.9861    6.1992 C   0  0  0  0  0  0  0  0  0  0  0  0
   -5.1665    1.1841    7.0796 N   0  0  0  0  0  0  0  0  0  0  0  0
   -4.0590    3.1496    6.5825 O   0  0  0  0  0  0  0  0  0  0  0  0
   -4.7172    0.8602    7.9592 H   0  0  0  0  0  0  0  0  0  0  0  0
   -6.1425    0.9407    6.8150 H   0  0  0  0  0  0  0  0  0  0  0  0
   -1.7265   -0.4420    9.5180 C   0  0  0  0  0  0  0  0  0  0  0  0
   -1.6398    0.9043    8.8634 C   0  0  0  0  0  0  0  0  0  0  0  0
   -2.4248    1.9206    9.6019 C   0  0  0  0  0  0  0  0  0  0  0  0
   -1.8953    3.0838   10.1463 O   0  0  0  0  0  0  0  0  0  0  0  0
   -3.6583    1.6972    9.7348 O   0  0  0  0  0  0  0  0  0  0  0  0
   -0.9807    3.1202   10.5590 H   0  0  0  0  0  0  0  0  0  0  0  0
   -4.4556   -4.5839   10.5684 C   0  0  0  0  0  0  0  0  0  0  0  0
   -3.7843   -5.0475   11.8216 C   0  0  0  0  0  0  0  0  0  0  0  0
   -2.9360   -4.0483   12.4805 C   0  0  0  0  0  0  0  0  0  0  0  0
   -3.3573   -2.7169   12.4949 O   0  0  0  0  0  0  0  0  0  0  0  0
   -1.8386   -4.2502   13.0496 O   0  0  0  0  0  0  0  0  0  0  0  0
   -3.8360   -2.3814   13.2988 H   0  0  0  0  0  0  0  0  0  0  0  0
 33 34  1  0  0  0
 34 35  2  0  0  0
 34 31  1  0  0  0
 31 30  1  0  0  0
 30 29  1  0  0  0
 29 28  1  0  0  0
 28 10  1  0  0  0
 10  6  1  0  0  0
  6  7  1  0  0  0
  7  8  2  0  0  0
  7  5  1  0  0  0
  5 39  1  0  0  0
 39 40  1  0  0  0
 40 41  1  0  0  0
 41 42  1  0  0  0
 41 43  2  0  0  0
  5  1  1  0  0  0
  1  2  1  0  0  0
  2  3  2  0  0  0
  2 45  1  0  0  0
 45 83  1  0  0  0
 83 84  1  0  0  0
 84 85  1  0  0  0
 85 86  1  0  0  0
 85 87  2  0  0  0
 45 46  1  0  0  0
 46 47  1  0  0  0
 47 48  2  0  0  0
 47 50  1  0  0  0
 50 77  1  0  0  0
 77 78  1  0  0  0
 78 79  1  0  0  0
 79 80  1  0  0  0
 79 81  2  0  0  0
 50 51  1  0  0  0
 51 52  1  0  0  0
 52 53  2  0  0  0
 52 55  1  0  0  0
 55 70  1  0  0  0
 70 71  1  0  0  0
 71 72  1  0  0  0
 72 73  1  0  0  0
 72 74  2  0  0  0
 55 56  1  0  0  0
 56 57  1  0  0  0
 57 58  2  0  0  0
 57 60  1  0  0  0
 60 61  1  0  0  0
 60 64  1  0  0  0
 64 65  1  0  0  0
 65 66  1  0  0  0
 66 67  1  0  0  0
 66 68  2  0  0  0
 10 11  1  0  0  0
 11 12  2  0  0  0
 11 13  1  0  0  0
 13 15  1  0  0  0
 15 21  1  0  0  0
 21 22  1  0  0  0
 22 23  2  0  0  0
 23 24  1  0  0  0
 24 25  2  0  0  0
 25 26  1  0  0  0
 26 27  2  0  0  0
 15 16  1  0  0  0
 16 17  1  0  0  0
 16 18  2  0  0  0
 27 22  1  0  0  0
 33 36  1  0  0  0
 33 37  1  0  0  0
 35 38  1  0  0  0
 31 32  1  0  0  0
  6  9  1  0  0  0
 42 44  1  0  0  0
  1  4  1  0  0  0
 86 88  1  0  0  0
 46 49  1  0  0  0
 80 82  1  0  0  0
 51 54  1  0  0  0
 73 75  1  0  0  0
 73 76  1  0  0  0
 56 59  1  0  0  0
 61 62  1  0  0  0
 61 63  1  0  0  0
 67 69  1  0  0  0
 13 14  1  0  0  0
 17 19  1  0  0  0
 17 20  1  0  0  0
M  END
> <minimizedAffinity>
-4.86444

> <CNNscore>
0.2116716504

> <CNNaffinity>
7.3230237961

> <CNN_VS>
1.5500764847

> <CNNaffinity_variance>
0.6122065187

$$$$
[H]N=C(N([H])[H])N([H])C([H])([H])C([H])([H])C([H])([H])[C@@]([H])(C(=O)N([H])[C@]([H])(C(=O)N([H])[H])C([H])([H])c1c([H])c([H])c([H])c([H])c1[H])N([H])C(=O)[C@@]([H])(N([H])C(=O)[C@@]([H])(N([H])C(=O)[C@@]([H])(N([H])C(=O)[C@@]([H])(N([H])C(=O)[C@@]([H])(N([H])[H])C([H])([H])C([H])([H])C(=O)O[H])C([H])([H])C([H])([H])C(=O)N([H])[H])C([H])([H])C([H])([H])C(=O)O[H])C([H])([H])C([H])([H])C(=O)O[H])C([H])([H])C([H])([H])C(=O)O[H]


 88 88  0  0  0  0  0  0  0  0999 V2000
   -5.2514   -5.9387    6.9296 N   0  0  0  0  0  0  0  0  0  0  0  0
   -4.6337   -5.0693    6.0152 C   0  0  0  0  0  0  0  0  0  0  0  0
   -4.6355   -5.3001    4.7654 O   0  0  0  0  0  0  0  0  0  0  0  0
   -5.2026   -5.7595    7.9378 H   0  0  0  0  0  0  0  0  0  0  0  0
   -5.9799   -7.1662    6.5193 C   0  0  0  0  0  0  0  0  0  0  0  0
   -8.4587   -7.4906    7.0514 N   0  0  0  0  0  0  0  0  0  0  0  0
   -7.1014   -7.3448    7.4010 C   0  0  0  0  0  0  0  0  0  0  0  0
   -6.8529   -7.3658    8.6733 O   0  0  0  0  0  0  0  0  0  0  0  0
   -8.7833   -7.5070    6.0729 H   0  0  0  0  0  0  0  0  0  0  0  0
   -9.4690   -7.6305    8.1134 C   0  0  0  0  0  0  0  0  0  0  0  0
  -10.5559   -8.5079    7.6744 C   0  0  0  0  0  0  0  0  0  0  0  0
  -10.3035   -9.6533    7.2637 O   0  0  0  0  0  0  0  0  0  0  0  0
  -11.8831   -8.0467    7.7234 N   0  0  0  0  0  0  0  0  0  0  0  0
  -12.0249   -7.0601    8.1040 H   0  0  0  0  0  0  0  0  0  0  0  0
  -13.0745   -8.7634    7.3172 C   0  0  0  0  0  0  0  0  0  0  0  0
  -13.2082   -9.9825    8.1176 C   0  0  0  0  0  0  0  0  0  0  0  0
  -12.7004  -10.1208    9.4211 N   0  0  0  0  0  0  0  0  0  0  0  0
  -13.8088  -10.9674    7.6033 O   0  0  0  0  0  0  0  0  0  0  0  0
  -13.2596  -10.5222   10.2006 H   0  0  0  0  0  0  0  0  0  0  0  0
  -11.7240   -9.8201    9.6508 H   0  0  0  0  0  0  0  0  0  0  0  0
  -13.0546   -8.9949    5.8117 C   0  0  0  0  0  0  0  0  0  0  0  0
  -14.1591   -8.3485    5.0927 C   0  0  0  0  0  0  0  0  0  0  0  0
  -14.9104   -9.0414    4.1602 C   0  0  0  0  0  0  0  0  0  0  0  0
  -15.9569   -8.4850    3.5054 C   0  0  0  0  0  0  0  0  0  0  0  0
  -16.3012   -7.1958    3.7588 C   0  0  0  0  0  0  0  0  0  0  0  0
  -15.5515   -6.4728    4.7014 C   0  0  0  0  0  0  0  0  0  0  0  0
  -14.4979   -7.0431    5.3555 C   0  0  0  0  0  0  0  0  0  0  0  0
   -9.9855   -6.2391    8.4702 C   0  0  0  0  0  0  0  0  0  0  0  0
  -10.4951   -6.1923    9.8775 C   0  0  0  0  0  0  0  0  0  0  0  0
  -11.4334   -5.0410   10.0836 C   0  0  0  0  0  0  0  0  0  0  0  0
  -12.6764   -5.4897   10.6408 N   0  0  0  0  0  0  0  0  0  0  0  0
  -12.9886   -5.0512   11.5603 H   0  0  0  0  0  0  0  0  0  0  0  0
  -14.1161   -6.1228    8.8169 N   0  0  0  0  0  0  0  0  0  0  0  0
  -13.5319   -6.4680   10.0653 C   0  0  0  0  0  0  0  0  0  0  0  0
  -13.8266   -7.5973   10.5484 N   0  0  0  0  0  0  0  0  0  0  0  0
  -14.3701   -6.8646    8.1480 H   0  0  0  0  0  0  0  0  0  0  0  0
  -14.2882   -5.1282    8.5838 H   0  0  0  0  0  0  0  0  0  0  0  0
  -13.4803   -8.0018   11.4703 H   0  0  0  0  0  0  0  0  0  0  0  0
   -4.9564   -8.2399    6.4212 C   0  0  0  0  0  0  0  0  0  0  0  0
   -3.7980   -8.2234    7.3328 C   0  0  0  0  0  0  0  0  0  0  0  0
   -2.4741   -8.2426    6.7186 C   0  0  0  0  0  0  0  0  0  0  0  0
   -2.1263   -7.4376    5.6286 O   0  0  0  0  0  0  0  0  0  0  0  0
   -1.6072   -9.0357    7.2047 O   0  0  0  0  0  0  0  0  0  0  0  0
   -1.1836   -7.1043    5.5081 H   0  0  0  0  0  0  0  0  0  0  0  0
   -3.9499   -3.8467    6.4651 C   0  0  0  0  0  0  0  0  0  0  0  0
   -3.0694   -4.0635    7.5365 N   0  0  0  0  0  0  0  0  0  0  0  0
   -2.7258   -3.3235    8.6728 C   0  0  0  0  0  0  0  0  0  0  0  0
   -3.2208   -2.2132    8.9070 O   0  0  0  0  0  0  0  0  0  0  0  0
   -2.5484   -5.0226    7.4692 H   0  0  0  0  0  0  0  0  0  0  0  0
   -1.7301   -3.9138    9.6190 C   0  0  0  0  0  0  0  0  0  0  0  0
   -2.1158   -4.0243   10.9830 N   0  0  0  0  0  0  0  0  0  0  0  0
   -3.3736   -4.5668   11.3759 C   0  0  0  0  0  0  0  0  0  0  0  0
   -4.1442   -4.9777   10.4891 O   0  0  0  0  0  0  0  0  0  0  0  0
   -1.4710   -3.6891   11.7095 H   0  0  0  0  0  0  0  0  0  0  0  0
   -3.8227   -4.6587   12.8185 C   0  0  0  0  0  0  0  0  0  0  0  0
   -3.7749   -3.3914   13.4688 N   0  0  0  0  0  0  0  0  0  0  0  0
   -2.7925   -2.6906   14.1277 C   0  0  0  0  0  0  0  0  0  0  0  0
   -1.6185   -3.1712   14.2389 O   0  0  0  0  0  0  0  0  0  0  0  0
   -4.7639   -2.9001   13.4834 H   0  0  0  0  0  0  0  0  0  0  0  0
   -3.0292   -1.3621   14.7462 C   0  0  0  0  0  0  0  0  0  0  0  0
   -3.7170   -0.4351   13.8711 N   0  0  0  0  0  0  0  0  0  0  0  0
   -4.2331   -0.9497   13.1381 H   0  0  0  0  0  0  0  0  0  0  0  0
   -4.2615    0.2081   14.4438 H   0  0  0  0  0  0  0  0  0  0  0  0
   -3.8539   -1.4316   16.0028 C   0  0  0  0  0  0  0  0  0  0  0  0
   -5.1537   -0.7233   15.9866 C   0  0  0  0  0  0  0  0  0  0  0  0
   -6.2424   -1.7590   16.0708 C   0  0  0  0  0  0  0  0  0  0  0  0
   -7.2881   -1.4800   16.9514 O   0  0  0  0  0  0  0  0  0  0  0  0
   -6.2375   -2.8253   15.3943 O   0  0  0  0  0  0  0  0  0  0  0  0
   -8.1610   -1.9901   16.8111 H   0  0  0  0  0  0  0  0  0  0  0  0
   -5.1422   -5.3218   13.0059 C   0  0  0  0  0  0  0  0  0  0  0  0
   -5.1653   -6.5659   13.8359 C   0  0  0  0  0  0  0  0  0  0  0  0
   -4.7846   -6.2600   15.2562 C   0  0  0  0  0  0  0  0  0  0  0  0
   -5.5944   -5.4626   16.1031 N   0  0  0  0  0  0  0  0  0  0  0  0
   -3.6956   -6.7220   15.7213 O   0  0  0  0  0  0  0  0  0  0  0  0
   -6.0363   -5.9204   16.9251 H   0  0  0  0  0  0  0  0  0  0  0  0
   -5.7259   -4.4571   15.8715 H   0  0  0  0  0  0  0  0  0  0  0  0
   -1.5082   -5.3415    9.0443 C   0  0  0  0  0  0  0  0  0  0  0  0
   -0.2761   -5.9067    9.6854 C   0  0  0  0  0  0  0  0  0  0  0  0
   -0.5702   -7.1582   10.4215 C   0  0  0  0  0  0  0  0  0  0  0  0
   -0.4262   -8.4355    9.8948 O   0  0  0  0  0  0  0  0  0  0  0  0
   -0.9781   -7.0353   11.6079 O   0  0  0  0  0  0  0  0  0  0  0  0
   -0.6300   -8.6512    8.9356 H   0  0  0  0  0  0  0  0  0  0  0  0
   -3.2796   -3.1492    5.2770 C   0  0  0  0  0  0  0  0  0  0  0  0
   -2.0675   -2.3500    5.6349 C   0  0  0  0  0  0  0  0  0  0  0  0
   -2.2738   -0.8989    5.6972 C   0  0  0  0  0  0  0  0  0  0  0  0
   -3.1674   -0.3896    6.6420 O   0  0  0  0  0  0  0  0  0  0  0  0
   -1.7292   -0.0297    4.9784 O   0  0  0  0  0  0  0  0  0  0  0  0
   -2.8040   -0.0588    7.5060 H   0  0  0  0  0  0  0  0  0  0  0  0
 33 34  1  0  0  0
 34 35  2  0  0  0
 34 31  1  0  0  0
 31 30  1  0  0  0
 30 29  1  0  0  0
 29 28  1  0  0  0
 28 10  1  0  0  0
 10  6  1  0  0  0
  6  7  1  0  0  0
  7  8  2  0  0  0
  7  5  1  0  0  0
  5 39  1  0  0  0
 39 40  1  0  0  0
 40 41  1  0  0  0
 41 42  1  0  0  0
 41 43  2  0  0  0
  5  1  1  0  0  0
  1  2  1  0  0  0
  2  3  2  0  0  0
  2 45  1  0  0  0
 45 83  1  0  0  0
 83 84  1  0  0  0
 84 85  1  0  0  0
 85 86  1  0  0  0
 85 87  2  0  0  0
 45 46  1  0  0  0
 46 47  1  0  0  0
 47 48  2  0  0  0
 47 50  1  0  0  0
 50 77  1  0  0  0
 77 78  1  0  0  0
 78 79  1  0  0  0
 79 80  1  0  0  0
 79 81  2  0  0  0
 50 51  1  0  0  0
 51 52  1  0  0  0
 52 53  2  0  0  0
 52 55  1  0  0  0
 55 70  1  0  0  0
 70 71  1  0  0  0
 71 72  1  0  0  0
 72 73  1  0  0  0
 72 74  2  0  0  0
 55 56  1  0  0  0
 56 57  1  0  0  0
 57 58  2  0  0  0
 57 60  1  0  0  0
 60 61  1  0  0  0
 60 64  1  0  0  0
 64 65  1  0  0  0
 65 66  1  0  0  0
 66 67  1  0  0  0
 66 68  2  0  0  0
 10 11  1  0  0  0
 11 12  2  0  0  0
 11 13  1  0  0  0
 13 15  1  0  0  0
 15 21  1  0  0  0
 21 22  1  0  0  0
 22 23  2  0  0  0
 23 24  1  0  0  0
 24 25  2  0  0  0
 25 26  1  0  0  0
 26 27  2  0  0  0
 15 16  1  0  0  0
 16 17  1  0  0  0
 16 18  2  0  0  0
 27 22  1  0  0  0
 33 36  1  0  0  0
 33 37  1  0  0  0
 35 38  1  0  0  0
 31 32  1  0  0  0
  6  9  1  0  0  0
 42 44  1  0  0  0
  1  4  1  0  0  0
 86 88  1  0  0  0
 46 49  1  0  0  0
 80 82  1  0  0  0
 51 54  1  0  0  0
 73 75  1  0  0  0
 73 76  1  0  0  0
 56 59  1  0  0  0
 61 62  1  0  0  0
 61 63  1  0  0  0
 67 69  1  0  0  0
 13 14  1  0  0  0
 17 19  1  0  0  0
 17 20  1  0  0  0
M  END
> <minimizedAffinity>
-5.62669

> <CNNscore>
0.1898244023

> <CNNaffinity>
7.3593544960

> <CNN_VS>
1.3969850540

> <CNNaffinity_variance>
0.1750469953

$$$$
[H]N=C(N([H])[H])N([H])C([H])([H])C([H])([H])C([H])([H])[C@@]([H])(C(=O)N([H])[C@]([H])(C(=O)N([H])[H])C([H])([H])c1c([H])c([H])c([H])c([H])c1[H])N([H])C(=O)[C@@]([H])(N([H])C(=O)[C@@]([H])(N([H])C(=O)[C@@]([H])(N([H])C(=O)[C@@]([H])(N([H])C(=O)[C@@]([H])(N([H])[H])C([H])([H])C([H])([H])C(=O)O[H])C([H])([H])C([H])([H])C(=O)N([H])[H])C([H])([H])C([H])([H])C(=O)O[H])C([H])([H])C([H])([H])C(=O)O[H])C([H])([H])C([H])([H])C(=O)O[H]


 88 88  0  0  0  0  0  0  0  0999 V2000
   -5.5328   -6.6261    8.6641 N   0  0  0  0  0  0  0  0  0  0  0  0
   -4.6720   -5.5455    8.4098 C   0  0  0  0  0  0  0  0  0  0  0  0
   -4.6161   -4.9875    7.2693 O   0  0  0  0  0  0  0  0  0  0  0  0
   -5.5332   -7.0920    9.5772 H   0  0  0  0  0  0  0  0  0  0  0  0
   -6.4645   -7.1797    7.6485 C   0  0  0  0  0  0  0  0  0  0  0  0
   -8.9524   -6.7679    8.0651 N   0  0  0  0  0  0  0  0  0  0  0  0
   -7.7295   -7.4333    8.2830 C   0  0  0  0  0  0  0  0  0  0  0  0
   -7.7640   -8.3765    9.1719 O   0  0  0  0  0  0  0  0  0  0  0  0
   -9.0593   -6.0113    7.3728 H   0  0  0  0  0  0  0  0  0  0  0  0
  -10.1382   -7.1579    8.8461 C   0  0  0  0  0  0  0  0  0  0  0  0
  -11.1082   -7.8491    7.9946 C   0  0  0  0  0  0  0  0  0  0  0  0
  -10.7241   -8.7149    7.1902 O   0  0  0  0  0  0  0  0  0  0  0  0
  -12.4732   -7.5281    8.0956 N   0  0  0  0  0  0  0  0  0  0  0  0
  -12.7306   -6.7884    8.8201 H   0  0  0  0  0  0  0  0  0  0  0  0
  -13.5643   -8.0920    7.3276 C   0  0  0  0  0  0  0  0  0  0  0  0
  -13.2945   -9.5066    7.0614 C   0  0  0  0  0  0  0  0  0  0  0  0
  -13.2396  -10.4930    8.0613 N   0  0  0  0  0  0  0  0  0  0  0  0
  -13.0936   -9.8576    5.8648 O   0  0  0  0  0  0  0  0  0  0  0  0
  -13.7247  -11.4086    7.9724 H   0  0  0  0  0  0  0  0  0  0  0  0
  -12.6962  -10.3338    8.9422 H   0  0  0  0  0  0  0  0  0  0  0  0
  -13.8131   -7.2508    6.0821 C   0  0  0  0  0  0  0  0  0  0  0  0
  -15.1245   -7.4747    5.4617 C   0  0  0  0  0  0  0  0  0  0  0  0
  -16.2656   -7.6211    6.2302 C   0  0  0  0  0  0  0  0  0  0  0  0
  -17.4945   -7.7940    5.6886 C   0  0  0  0  0  0  0  0  0  0  0  0
  -17.6363   -7.8280    4.3382 C   0  0  0  0  0  0  0  0  0  0  0  0
  -16.4909   -7.6823    3.5382 C   0  0  0  0  0  0  0  0  0  0  0  0
  -15.2566   -7.5089    4.0945 C   0  0  0  0  0  0  0  0  0  0  0  0
  -10.7386   -5.8992    9.4670 C   0  0  0  0  0  0  0  0  0  0  0  0
  -10.4775   -5.8416   10.9403 C   0  0  0  0  0  0  0  0  0  0  0  0
  -11.7303   -5.5438   11.7087 C   0  0  0  0  0  0  0  0  0  0  0  0
  -11.5578   -5.8426   13.1008 N   0  0  0  0  0  0  0  0  0  0  0  0
  -12.1344   -6.6417   13.5062 H   0  0  0  0  0  0  0  0  0  0  0  0
   -9.3529   -5.6785   14.0556 N   0  0  0  0  0  0  0  0  0  0  0  0
  -10.6760   -5.1650   13.9859 C   0  0  0  0  0  0  0  0  0  0  0  0
  -10.9478   -4.1681   14.7124 N   0  0  0  0  0  0  0  0  0  0  0  0
   -8.5722   -5.0507   14.2975 H   0  0  0  0  0  0  0  0  0  0  0  0
   -9.1770   -6.6818   13.8670 H   0  0  0  0  0  0  0  0  0  0  0  0
  -11.8868   -3.6711   14.7804 H   0  0  0  0  0  0  0  0  0  0  0  0
   -5.7425   -8.3033    6.9955 C   0  0  0  0  0  0  0  0  0  0  0  0
   -4.7387   -8.0136    5.9555 C   0  0  0  0  0  0  0  0  0  0  0  0
   -3.3369   -8.0630    6.3589 C   0  0  0  0  0  0  0  0  0  0  0  0
   -2.8144   -9.0651    7.1835 O   0  0  0  0  0  0  0  0  0  0  0  0
   -2.5665   -7.1436    5.9369 O   0  0  0  0  0  0  0  0  0  0  0  0
   -1.8595   -9.3709    7.0892 H   0  0  0  0  0  0  0  0  0  0  0  0
   -3.7882   -5.0094    9.4569 C   0  0  0  0  0  0  0  0  0  0  0  0
   -3.0330   -3.9038    9.0356 N   0  0  0  0  0  0  0  0  0  0  0  0
   -3.1089   -2.5287    9.2809 C   0  0  0  0  0  0  0  0  0  0  0  0
   -3.9896   -2.0383    9.9995 O   0  0  0  0  0  0  0  0  0  0  0  0
   -2.2019   -4.1829    8.3820 H   0  0  0  0  0  0  0  0  0  0  0  0
   -2.0827   -1.6459    8.6465 C   0  0  0  0  0  0  0  0  0  0  0  0
   -2.4571   -0.9660    7.4553 N   0  0  0  0  0  0  0  0  0  0  0  0
   -2.3913   -1.5855    6.1736 C   0  0  0  0  0  0  0  0  0  0  0  0
   -2.0154   -2.7701    6.1071 O   0  0  0  0  0  0  0  0  0  0  0  0
   -2.7730    0.0097    7.5194 H   0  0  0  0  0  0  0  0  0  0  0  0
   -2.7469   -0.8703    4.8878 C   0  0  0  0  0  0  0  0  0  0  0  0
   -2.5500   -1.7028    3.7480 N   0  0  0  0  0  0  0  0  0  0  0  0
   -3.2617   -2.7342    3.1821 C   0  0  0  0  0  0  0  0  0  0  0  0
   -4.3642   -3.1160    3.6921 O   0  0  0  0  0  0  0  0  0  0  0  0
   -1.5853   -1.4971    3.2512 H   0  0  0  0  0  0  0  0  0  0  0  0
   -2.8011   -3.4607    1.9723 C   0  0  0  0  0  0  0  0  0  0  0  0
   -2.7340   -2.6252    0.7910 N   0  0  0  0  0  0  0  0  0  0  0  0
   -2.6617   -1.6296    1.0595 H   0  0  0  0  0  0  0  0  0  0  0  0
   -2.0022   -2.9854    0.1803 H   0  0  0  0  0  0  0  0  0  0  0  0
   -1.4315   -4.0641    2.1286 C   0  0  0  0  0  0  0  0  0  0  0  0
   -1.3660   -5.4290    2.6978 C   0  0  0  0  0  0  0  0  0  0  0  0
   -0.3483   -5.4162    3.8065 C   0  0  0  0  0  0  0  0  0  0  0  0
   -0.1586   -4.1936    4.4514 O   0  0  0  0  0  0  0  0  0  0  0  0
    0.3079   -6.4371    4.1558 O   0  0  0  0  0  0  0  0  0  0  0  0
    0.2787   -4.2187    5.3734 H   0  0  0  0  0  0  0  0  0  0  0  0
   -4.1010   -0.2519    4.8877 C   0  0  0  0  0  0  0  0  0  0  0  0
   -4.1744    1.2224    4.6465 C   0  0  0  0  0  0  0  0  0  0  0  0
   -4.3794    1.9592    5.9391 C   0  0  0  0  0  0  0  0  0  0  0  0
   -5.0803    1.3914    7.0323 N   0  0  0  0  0  0  0  0  0  0  0  0
   -3.9180    3.1370    6.0633 O   0  0  0  0  0  0  0  0  0  0  0  0
   -4.5447    1.1858    7.8991 H   0  0  0  0  0  0  0  0  0  0  0  0
   -6.0961    1.1927    6.9293 H   0  0  0  0  0  0  0  0  0  0  0  0
   -1.7965   -0.5933    9.7547 C   0  0  0  0  0  0  0  0  0  0  0  0
   -2.1589    0.7556    9.2094 C   0  0  0  0  0  0  0  0  0  0  0  0
   -3.2989    1.3518    9.9441 C   0  0  0  0  0  0  0  0  0  0  0  0
   -4.0272    0.7016   10.9322 O   0  0  0  0  0  0  0  0  0  0  0  0
   -3.6150    2.5331    9.6377 O   0  0  0  0  0  0  0  0  0  0  0  0
   -4.2356   -0.2798   10.8932 H   0  0  0  0  0  0  0  0  0  0  0  0
   -4.5900   -4.7300   10.7323 C   0  0  0  0  0  0  0  0  0  0  0  0
   -3.8836   -5.0982   11.9977 C   0  0  0  0  0  0  0  0  0  0  0  0
   -4.7258   -5.1176   13.1987 C   0  0  0  0  0  0  0  0  0  0  0  0
   -5.5656   -6.2133   13.4100 O   0  0  0  0  0  0  0  0  0  0  0  0
   -4.7884   -4.2382   14.0884 O   0  0  0  0  0  0  0  0  0  0  0  0
   -5.2478   -6.9449   14.0031 H   0  0  0  0  0  0  0  0  0  0  0  0
 33 34  1  0  0  0
 34 35  2  0  0  0
 34 31  1  0  0  0
 31 30  1  0  0  0
 30 29  1  0  0  0
 29 28  1  0  0  0
 28 10  1  0  0  0
 10  6  1  0  0  0
  6  7  1  0  0  0
  7  8  2  0  0  0
  7  5  1  0  0  0
  5 39  1  0  0  0
 39 40  1  0  0  0
 40 41  1  0  0  0
 41 42  1  0  0  0
 41 43  2  0  0  0
  5  1  1  0  0  0
  1  2  1  0  0  0
  2  3  2  0  0  0
  2 45  1  0  0  0
 45 83  1  0  0  0
 83 84  1  0  0  0
 84 85  1  0  0  0
 85 86  1  0  0  0
 85 87  2  0  0  0
 45 46  1  0  0  0
 46 47  1  0  0  0
 47 48  2  0  0  0
 47 50  1  0  0  0
 50 77  1  0  0  0
 77 78  1  0  0  0
 78 79  1  0  0  0
 79 80  1  0  0  0
 79 81  2  0  0  0
 50 51  1  0  0  0
 51 52  1  0  0  0
 52 53  2  0  0  0
 52 55  1  0  0  0
 55 70  1  0  0  0
 70 71  1  0  0  0
 71 72  1  0  0  0
 72 73  1  0  0  0
 72 74  2  0  0  0
 55 56  1  0  0  0
 56 57  1  0  0  0
 57 58  2  0  0  0
 57 60  1  0  0  0
 60 61  1  0  0  0
 60 64  1  0  0  0
 64 65  1  0  0  0
 65 66  1  0  0  0
 66 67  1  0  0  0
 66 68  2  0  0  0
 10 11  1  0  0  0
 11 12  2  0  0  0
 11 13  1  0  0  0
 13 15  1  0  0  0
 15 21  1  0  0  0
 21 22  1  0  0  0
 22 23  2  0  0  0
 23 24  1  0  0  0
 24 25  2  0  0  0
 25 26  1  0  0  0
 26 27  2  0  0  0
 15 16  1  0  0  0
 16 17  1  0  0  0
 16 18  2  0  0  0
 27 22  1  0  0  0
 33 36  1  0  0  0
 33 37  1  0  0  0
 35 38  1  0  0  0
 31 32  1  0  0  0
  6  9  1  0  0  0
 42 44  1  0  0  0
  1  4  1  0  0  0
 86 88  1  0  0  0
 46 49  1  0  0  0
 80 82  1  0  0  0
 51 54  1  0  0  0
 73 75  1  0  0  0
 73 76  1  0  0  0
 56 59  1  0  0  0
 61 62  1  0  0  0
 61 63  1  0  0  0
 67 69  1  0  0  0
 13 14  1  0  0  0
 17 19  1  0  0  0
 17 20  1  0  0  0
M  END
> <minimizedAffinity>
-4.74182

> <CNNscore>
0.1639461368

> <CNNaffinity>
6.9816770554

> <CNN_VS>
1.1446189880

> <CNNaffinity_variance>
0.6120261550

$$$$
[H]N=C(N([H])[H])N([H])C([H])([H])C([H])([H])C([H])([H])[C@@]([H])(C(=O)N([H])[C@]([H])(C(=O)N([H])[H])C([H])([H])c1c([H])c([H])c([H])c([H])c1[H])N([H])C(=O)[C@@]([H])(N([H])C(=O)[C@@]([H])(N([H])C(=O)[C@@]([H])(N([H])C(=O)[C@@]([H])(N([H])C(=O)[C@@]([H])(N([H])[H])C([H])([H])C([H])([H])C(=O)O[H])C([H])([H])C([H])([H])C(=O)N([H])[H])C([H])([H])C([H])([H])C(=O)O[H])C([H])([H])C([H])([H])C(=O)O[H])C([H])([H])C([H])([H])C(=O)O[H]


 88 88  0  0  0  0  0  0  0  0999 V2000
   -5.6791   -5.9301    7.4361 N   0  0  0  0  0  0  0  0  0  0  0  0
   -4.5914   -5.2314    6.8864 C   0  0  0  0  0  0  0  0  0  0  0  0
   -4.3338   -5.2644    5.6423 O   0  0  0  0  0  0  0  0  0  0  0  0
   -5.8462   -5.9275    8.4476 H   0  0  0  0  0  0  0  0  0  0  0  0
   -6.6295   -6.7275    6.6196 C   0  0  0  0  0  0  0  0  0  0  0  0
   -9.1281   -6.9521    7.1090 N   0  0  0  0  0  0  0  0  0  0  0  0
   -7.7626   -7.0620    7.4390 C   0  0  0  0  0  0  0  0  0  0  0  0
   -7.5160   -7.5096    8.6306 O   0  0  0  0  0  0  0  0  0  0  0  0
   -9.4538   -6.6251    6.1870 H   0  0  0  0  0  0  0  0  0  0  0  0
  -10.1462   -7.3184    8.1077 C   0  0  0  0  0  0  0  0  0  0  0  0
  -11.2863   -7.9716    7.4616 C   0  0  0  0  0  0  0  0  0  0  0  0
  -11.2291   -9.1783    7.1707 O   0  0  0  0  0  0  0  0  0  0  0  0
  -12.4432   -7.2256    7.1760 N   0  0  0  0  0  0  0  0  0  0  0  0
  -12.4268   -6.2002    7.4704 H   0  0  0  0  0  0  0  0  0  0  0  0
  -13.6513   -7.6965    6.5302 C   0  0  0  0  0  0  0  0  0  0  0  0
  -13.6113   -9.1565    6.4239 C   0  0  0  0  0  0  0  0  0  0  0  0
  -13.8850  -10.0255    7.4944 N   0  0  0  0  0  0  0  0  0  0  0  0
  -13.3070   -9.6623    5.3073 O   0  0  0  0  0  0  0  0  0  0  0  0
  -14.5125  -10.8495    7.4009 H   0  0  0  0  0  0  0  0  0  0  0  0
  -13.4554   -9.8678    8.4363 H   0  0  0  0  0  0  0  0  0  0  0  0
  -13.8493   -6.9716    5.2051 C   0  0  0  0  0  0  0  0  0  0  0  0
  -15.2530   -6.6868    4.8833 C   0  0  0  0  0  0  0  0  0  0  0  0
  -16.0821   -7.6651    4.3640 C   0  0  0  0  0  0  0  0  0  0  0  0
  -17.3895   -7.4448    4.0891 C   0  0  0  0  0  0  0  0  0  0  0  0
  -17.9303   -6.2213    4.3251 C   0  0  0  0  0  0  0  0  0  0  0  0
  -17.1065   -5.2126    4.8514 C   0  0  0  0  0  0  0  0  0  0  0  0
  -15.7895   -5.4452    5.1245 C   0  0  0  0  0  0  0  0  0  0  0  0
  -10.5734   -6.0513    8.8439 C   0  0  0  0  0  0  0  0  0  0  0  0
  -11.2775   -6.3774   10.1246 C   0  0  0  0  0  0  0  0  0  0  0  0
  -12.3776   -5.3994   10.4107 C   0  0  0  0  0  0  0  0  0  0  0  0
  -13.6305   -6.0766   10.5799 N   0  0  0  0  0  0  0  0  0  0  0  0
  -14.4077   -5.5514   11.0853 H   0  0  0  0  0  0  0  0  0  0  0  0
  -13.0418   -8.4118   10.5647 N   0  0  0  0  0  0  0  0  0  0  0  0
  -13.9254   -7.3900   10.1239 C   0  0  0  0  0  0  0  0  0  0  0  0
  -14.8786   -7.7359    9.3707 N   0  0  0  0  0  0  0  0  0  0  0  0
  -13.3847   -9.3790   10.6603 H   0  0  0  0  0  0  0  0  0  0  0  0
  -12.0558   -8.1832   10.7853 H   0  0  0  0  0  0  0  0  0  0  0  0
  -15.6197   -7.0962    8.9526 H   0  0  0  0  0  0  0  0  0  0  0  0
   -5.8301   -7.8205    6.0062 C   0  0  0  0  0  0  0  0  0  0  0  0
   -5.0012   -8.6839    6.8668 C   0  0  0  0  0  0  0  0  0  0  0  0
   -3.5537   -8.5409    6.7471 C   0  0  0  0  0  0  0  0  0  0  0  0
   -2.8532   -8.8235    5.5696 O   0  0  0  0  0  0  0  0  0  0  0  0
   -2.9113   -8.1435    7.7701 O   0  0  0  0  0  0  0  0  0  0  0  0
   -2.0138   -8.3210    5.3305 H   0  0  0  0  0  0  0  0  0  0  0  0
   -3.6937   -4.4276    7.7307 C   0  0  0  0  0  0  0  0  0  0  0  0
   -2.4484   -5.0351    7.9550 N   0  0  0  0  0  0  0  0  0  0  0  0
   -1.7837   -5.4877    9.0996 C   0  0  0  0  0  0  0  0  0  0  0  0
   -2.2789   -5.3849   10.2296 O   0  0  0  0  0  0  0  0  0  0  0  0
   -1.8831   -5.1954    7.0328 H   0  0  0  0  0  0  0  0  0  0  0  0
   -0.4366   -6.1128    8.9267 C   0  0  0  0  0  0  0  0  0  0  0  0
   -0.3809   -7.5324    8.8732 N   0  0  0  0  0  0  0  0  0  0  0  0
    0.0868   -8.3168    9.9672 C   0  0  0  0  0  0  0  0  0  0  0  0
    0.4332   -7.7319   11.0098 O   0  0  0  0  0  0  0  0  0  0  0  0
   -0.6752   -8.0083    8.0113 H   0  0  0  0  0  0  0  0  0  0  0  0
    0.1923   -9.8261    9.9201 C   0  0  0  0  0  0  0  0  0  0  0  0
   -0.7381  -10.4488   10.8020 N   0  0  0  0  0  0  0  0  0  0  0  0
   -0.6729  -10.8976   12.1000 C   0  0  0  0  0  0  0  0  0  0  0  0
    0.4010  -10.7765   12.7734 O   0  0  0  0  0  0  0  0  0  0  0  0
   -1.7010  -10.6566   10.3027 H   0  0  0  0  0  0  0  0  0  0  0  0
   -1.8191  -11.5451   12.7858 C   0  0  0  0  0  0  0  0  0  0  0  0
   -2.2329  -12.7870   12.1657 N   0  0  0  0  0  0  0  0  0  0  0  0
   -1.4602  -13.1822   11.6041 H   0  0  0  0  0  0  0  0  0  0  0  0
   -2.6282  -13.3921   12.8838 H   0  0  0  0  0  0  0  0  0  0  0  0
   -1.5375  -11.8775   14.2260 C   0  0  0  0  0  0  0  0  0  0  0  0
   -1.4013  -13.3123   14.5642 C   0  0  0  0  0  0  0  0  0  0  0  0
   -1.8491  -13.4930   15.9897 C   0  0  0  0  0  0  0  0  0  0  0  0
   -0.9919  -12.9927   16.9703 O   0  0  0  0  0  0  0  0  0  0  0  0
   -2.9327  -14.0575   16.3088 O   0  0  0  0  0  0  0  0  0  0  0  0
   -1.3915  -12.8271   17.8948 H   0  0  0  0  0  0  0  0  0  0  0  0
    0.1171  -10.4007    8.5489 C   0  0  0  0  0  0  0  0  0  0  0  0
   -1.1103  -11.1841    8.2071 C   0  0  0  0  0  0  0  0  0  0  0  0
   -1.0073  -11.7471    6.8185 C   0  0  0  0  0  0  0  0  0  0  0  0
   -0.8182  -13.1302    6.5734 N   0  0  0  0  0  0  0  0  0  0  0  0
   -1.0838  -10.9619    5.8220 O   0  0  0  0  0  0  0  0  0  0  0  0
   -1.5883  -13.6514    6.1089 H   0  0  0  0  0  0  0  0  0  0  0  0
    0.0730  -13.5761    6.8717 H   0  0  0  0  0  0  0  0  0  0  0  0
    0.0393   -5.5413    7.5612 C   0  0  0  0  0  0  0  0  0  0  0  0
    0.4400   -6.6982    6.6954 C   0  0  0  0  0  0  0  0  0  0  0  0
   -0.4240   -6.8065    5.4969 C   0  0  0  0  0  0  0  0  0  0  0  0
   -1.5448   -6.0212    5.2589 O   0  0  0  0  0  0  0  0  0  0  0  0
   -0.1033   -7.6777    4.6440 O   0  0  0  0  0  0  0  0  0  0  0  0
   -2.1637   -5.7254    5.9921 H   0  0  0  0  0  0  0  0  0  0  0  0
   -3.5695   -3.0083    7.1672 C   0  0  0  0  0  0  0  0  0  0  0  0
   -2.1945   -2.6471    6.7036 C   0  0  0  0  0  0  0  0  0  0  0  0
   -2.0814   -2.3300    5.2757 C   0  0  0  0  0  0  0  0  0  0  0  0
   -1.5266   -3.2840    4.4198 O   0  0  0  0  0  0  0  0  0  0  0  0
   -2.4314   -1.2685    4.7105 O   0  0  0  0  0  0  0  0  0  0  0  0
   -2.1411   -3.8820    3.9170 H   0  0  0  0  0  0  0  0  0  0  0  0
 33 34  1  0  0  0
 34 35  2  0  0  0
 34 31  1  0  0  0
 31 30  1  0  0  0
 30 29  1  0  0  0
 29 28  1  0  0  0
 28 10  1  0  0  0
 10  6  1  0  0  0
  6  7  1  0  0  0
  7  8  2  0  0  0
  7  5  1  0  0  0
  5 39  1  0  0  0
 39 40  1  0  0  0
 40 41  1  0  0  0
 41 42  1  0  0  0
 41 43  2  0  0  0
  5  1  1  0  0  0
  1  2  1  0  0  0
  2  3  2  0  0  0
  2 45  1  0  0  0
 45 83  1  0  0  0
 83 84  1  0  0  0
 84 85  1  0  0  0
 85 86  1  0  0  0
 85 87  2  0  0  0
 45 46  1  0  0  0
 46 47  1  0  0  0
 47 48  2  0  0  0
 47 50  1  0  0  0
 50 77  1  0  0  0
 77 78  1  0  0  0
 78 79  1  0  0  0
 79 80  1  0  0  0
 79 81  2  0  0  0
 50 51  1  0  0  0
 51 52  1  0  0  0
 52 53  2  0  0  0
 52 55  1  0  0  0
 55 70  1  0  0  0
 70 71  1  0  0  0
 71 72  1  0  0  0
 72 73  1  0  0  0
 72 74  2  0  0  0
 55 56  1  0  0  0
 56 57  1  0  0  0
 57 58  2  0  0  0
 57 60  1  0  0  0
 60 61  1  0  0  0
 60 64  1  0  0  0
 64 65  1  0  0  0
 65 66  1  0  0  0
 66 67  1  0  0  0
 66 68  2  0  0  0
 10 11  1  0  0  0
 11 12  2  0  0  0
 11 13  1  0  0  0
 13 15  1  0  0  0
 15 21  1  0  0  0
 21 22  1  0  0  0
 22 23  2  0  0  0
 23 24  1  0  0  0
 24 25  2  0  0  0
 25 26  1  0  0  0
 26 27  2  0  0  0
 15 16  1  0  0  0
 16 17  1  0  0  0
 16 18  2  0  0  0
 27 22  1  0  0  0
 33 36  1  0  0  0
 33 37  1  0  0  0
 35 38  1  0  0  0
 31 32  1  0  0  0
  6  9  1  0  0  0
 42 44  1  0  0  0
  1  4  1  0  0  0
 86 88  1  0  0  0
 46 49  1  0  0  0
 80 82  1  0  0  0
 51 54  1  0  0  0
 73 75  1  0  0  0
 73 76  1  0  0  0
 56 59  1  0  0  0
 61 62  1  0  0  0
 61 63  1  0  0  0
 67 69  1  0  0  0
 13 14  1  0  0  0
 17 19  1  0  0  0
 17 20  1  0  0  0
M  END
> <minimizedAffinity>
-5.26730

> <CNNscore>
0.1577030569

> <CNNaffinity>
6.9018068314

> <CNN_VS>
1.0884360075

> <CNNaffinity_variance>
0.5833347440

$$$$
[H]N=C(N([H])[H])N([H])C([H])([H])C([H])([H])C([H])([H])[C@@]([H])(C(=O)N([H])[C@]([H])(C(=O)N([H])[H])C([H])([H])c1c([H])c([H])c([H])c([H])c1[H])N([H])C(=O)[C@@]([H])(N([H])C(=O)[C@@]([H])(N([H])C(=O)[C@@]([H])(N([H])C(=O)[C@@]([H])(N([H])C(=O)[C@@]([H])(N([H])[H])C([H])([H])C([H])([H])C(=O)O[H])C([H])([H])C([H])([H])C(=O)N([H])[H])C([H])([H])C([H])([H])C(=O)O[H])C([H])([H])C([H])([H])C(=O)O[H])C([H])([H])C([H])([H])C(=O)O[H]


 88 88  0  0  0  0  0  0  0  0999 V2000
   -6.6921   -6.4389    7.4843 N   0  0  0  0  0  0  0  0  0  0  0  0
   -5.5526   -6.0449    6.7635 C   0  0  0  0  0  0  0  0  0  0  0  0
   -5.5191   -6.0772    5.4934 O   0  0  0  0  0  0  0  0  0  0  0  0
   -6.6864   -6.4478    8.5095 H   0  0  0  0  0  0  0  0  0  0  0  0
   -7.9503   -6.8870    6.8348 C   0  0  0  0  0  0  0  0  0  0  0  0
  -10.3326   -7.1980    7.7069 N   0  0  0  0  0  0  0  0  0  0  0  0
   -8.9342   -7.1137    7.8583 C   0  0  0  0  0  0  0  0  0  0  0  0
   -8.5005   -7.2481    9.0727 O   0  0  0  0  0  0  0  0  0  0  0  0
  -10.7992   -7.1239    6.7904 H   0  0  0  0  0  0  0  0  0  0  0  0
  -11.1785   -7.4040    8.8945 C   0  0  0  0  0  0  0  0  0  0  0  0
  -12.3300   -8.2458    8.5638 C   0  0  0  0  0  0  0  0  0  0  0  0
  -12.4939   -9.3320    9.1448 O   0  0  0  0  0  0  0  0  0  0  0  0
  -13.2469   -7.8157    7.5887 N   0  0  0  0  0  0  0  0  0  0  0  0
  -13.0515   -6.8652    7.1453 H   0  0  0  0  0  0  0  0  0  0  0  0
  -14.4248   -8.5191    7.1240 C   0  0  0  0  0  0  0  0  0  0  0  0
  -14.1841   -9.0380    5.7759 C   0  0  0  0  0  0  0  0  0  0  0  0
  -15.2003   -9.2547    4.8291 N   0  0  0  0  0  0  0  0  0  0  0  0
  -12.9953   -9.3122    5.4489 O   0  0  0  0  0  0  0  0  0  0  0  0
  -15.1218   -8.9403    3.8409 H   0  0  0  0  0  0  0  0  0  0  0  0
  -16.0835   -9.7507    5.0946 H   0  0  0  0  0  0  0  0  0  0  0  0
  -15.6491   -7.6208    7.2459 C   0  0  0  0  0  0  0  0  0  0  0  0
  -15.7984   -6.6609    6.1454 C   0  0  0  0  0  0  0  0  0  0  0  0
  -17.0167   -6.4747    5.5167 C   0  0  0  0  0  0  0  0  0  0  0  0
  -17.1960   -5.5732    4.5225 C   0  0  0  0  0  0  0  0  0  0  0  0
  -16.1514   -4.8095    4.1097 C   0  0  0  0  0  0  0  0  0  0  0  0
  -14.9047   -4.9823    4.7335 C   0  0  0  0  0  0  0  0  0  0  0  0
  -14.7347   -5.8945    5.7345 C   0  0  0  0  0  0  0  0  0  0  0  0
  -11.6177   -6.0372    9.4132 C   0  0  0  0  0  0  0  0  0  0  0  0
  -12.4018   -6.1635   10.6827 C   0  0  0  0  0  0  0  0  0  0  0  0
  -11.9387   -5.1786   11.7143 C   0  0  0  0  0  0  0  0  0  0  0  0
  -11.3753   -5.8539   12.8472 N   0  0  0  0  0  0  0  0  0  0  0  0
  -11.5188   -6.9078   12.9115 H   0  0  0  0  0  0  0  0  0  0  0  0
   -9.2819   -5.6503   14.0204 N   0  0  0  0  0  0  0  0  0  0  0  0
  -10.6347   -5.2353   13.8907 C   0  0  0  0  0  0  0  0  0  0  0  0
  -11.0540   -4.3687   14.7084 N   0  0  0  0  0  0  0  0  0  0  0  0
   -8.5831   -5.0024   14.4129 H   0  0  0  0  0  0  0  0  0  0  0  0
   -9.0025   -6.6027   13.7238 H   0  0  0  0  0  0  0  0  0  0  0  0
  -12.0358   -3.9589   14.7492 H   0  0  0  0  0  0  0  0  0  0  0  0
   -7.5725   -8.0057    5.9315 C   0  0  0  0  0  0  0  0  0  0  0  0
   -7.1237   -9.2852    6.5100 C   0  0  0  0  0  0  0  0  0  0  0  0
   -8.0438   -9.9556    7.4233 C   0  0  0  0  0  0  0  0  0  0  0  0
   -7.6760  -10.3750    8.7063 O   0  0  0  0  0  0  0  0  0  0  0  0
   -9.2312  -10.1654    7.0195 O   0  0  0  0  0  0  0  0  0  0  0  0
   -8.3450  -10.3939    9.4589 H   0  0  0  0  0  0  0  0  0  0  0  0
   -4.3379   -5.5774    7.4495 C   0  0  0  0  0  0  0  0  0  0  0  0
   -3.8892   -4.3268    6.9968 N   0  0  0  0  0  0  0  0  0  0  0  0
   -2.9471   -3.9222    6.0452 C   0  0  0  0  0  0  0  0  0  0  0  0
   -2.2831   -4.7373    5.3917 O   0  0  0  0  0  0  0  0  0  0  0  0
   -4.3937   -3.4917    7.4907 H   0  0  0  0  0  0  0  0  0  0  0  0
   -2.7563   -2.4554    5.8276 C   0  0  0  0  0  0  0  0  0  0  0  0
   -3.4428   -1.8663    4.7308 N   0  0  0  0  0  0  0  0  0  0  0  0
   -2.7562   -1.2167    3.6643 C   0  0  0  0  0  0  0  0  0  0  0  0
   -1.5122   -1.1902    3.6902 O   0  0  0  0  0  0  0  0  0  0  0  0
   -4.4698   -1.8984    4.7133 H   0  0  0  0  0  0  0  0  0  0  0  0
   -3.4661   -0.5484    2.5064 C   0  0  0  0  0  0  0  0  0  0  0  0
   -3.8152   -1.4839    1.4895 N   0  0  0  0  0  0  0  0  0  0  0  0
   -3.5071   -1.6058    0.1551 C   0  0  0  0  0  0  0  0  0  0  0  0
   -2.7393   -0.7626   -0.4115 O   0  0  0  0  0  0  0  0  0  0  0  0
   -4.5314   -2.2404    1.8561 H   0  0  0  0  0  0  0  0  0  0  0  0
   -4.0413   -2.6973   -0.6974 C   0  0  0  0  0  0  0  0  0  0  0  0
   -5.2394   -3.3106   -0.1621 N   0  0  0  0  0  0  0  0  0  0  0  0
   -5.7074   -2.6671    0.4979 H   0  0  0  0  0  0  0  0  0  0  0  0
   -5.8027   -3.6537   -0.9387 H   0  0  0  0  0  0  0  0  0  0  0  0
   -4.3962   -2.2442   -2.0876 C   0  0  0  0  0  0  0  0  0  0  0  0
   -5.8118   -1.8855   -2.3303 C   0  0  0  0  0  0  0  0  0  0  0  0
   -5.8623   -0.4216   -2.6760 C   0  0  0  0  0  0  0  0  0  0  0  0
   -5.3298    0.4518   -1.7271 O   0  0  0  0  0  0  0  0  0  0  0  0
   -6.3492    0.0187   -3.7547 O   0  0  0  0  0  0  0  0  0  0  0  0
   -5.0757    1.3867   -2.0484 H   0  0  0  0  0  0  0  0  0  0  0  0
   -4.6311    0.2880    2.9054 C   0  0  0  0  0  0  0  0  0  0  0  0
   -5.1704    1.2346    1.8807 C   0  0  0  0  0  0  0  0  0  0  0  0
   -4.0875    2.1508    1.3868 C   0  0  0  0  0  0  0  0  0  0  0  0
   -3.6080    2.1081    0.0538 N   0  0  0  0  0  0  0  0  0  0  0  0
   -3.5717    2.9922    2.1878 O   0  0  0  0  0  0  0  0  0  0  0  0
   -3.7886    2.9316   -0.5544 H   0  0  0  0  0  0  0  0  0  0  0  0
   -3.1038    1.2587   -0.2719 H   0  0  0  0  0  0  0  0  0  0  0  0
   -3.2958   -1.8349    7.1474 C   0  0  0  0  0  0  0  0  0  0  0  0
   -2.9960   -0.3659    7.1185 C   0  0  0  0  0  0  0  0  0  0  0  0
   -4.2369    0.4432    7.1112 C   0  0  0  0  0  0  0  0  0  0  0  0
   -4.4111    1.6267    7.8174 O   0  0  0  0  0  0  0  0  0  0  0  0
   -5.1906    0.0118    6.4087 O   0  0  0  0  0  0  0  0  0  0  0  0
   -4.0157    1.7764    8.7281 H   0  0  0  0  0  0  0  0  0  0  0  0
   -4.5386   -5.6226    8.9678 C   0  0  0  0  0  0  0  0  0  0  0  0
   -3.9467   -4.4627    9.7028 C   0  0  0  0  0  0  0  0  0  0  0  0
   -3.8432   -4.6331   11.1562 C   0  0  0  0  0  0  0  0  0  0  0  0
   -2.5753   -4.6325   11.7419 O   0  0  0  0  0  0  0  0  0  0  0  0
   -4.7870   -4.7879   11.9650 O   0  0  0  0  0  0  0  0  0  0  0  0
   -2.2359   -3.7840   12.1329 H   0  0  0  0  0  0  0  0  0  0  0  0
 33 34  1  0  0  0
 34 35  2  0  0  0
 34 31  1  0  0  0
 31 30  1  0  0  0
 30 29  1  0  0  0
 29 28  1  0  0  0
 28 10  1  0  0  0
 10  6  1  0  0  0
  6  7  1  0  0  0
  7  8  2  0  0  0
  7  5  1  0  0  0
  5 39  1  0  0  0
 39 40  1  0  0  0
 40 41  1  0  0  0
 41 42  1  0  0  0
 41 43  2  0  0  0
  5  1  1  0  0  0
  1  2  1  0  0  0
  2  3  2  0  0  0
  2 45  1  0  0  0
 45 83  1  0  0  0
 83 84  1  0  0  0
 84 85  1  0  0  0
 85 86  1  0  0  0
 85 87  2  0  0  0
 45 46  1  0  0  0
 46 47  1  0  0  0
 47 48  2  0  0  0
 47 50  1  0  0  0
 50 77  1  0  0  0
 77 78  1  0  0  0
 78 79  1  0  0  0
 79 80  1  0  0  0
 79 81  2  0  0  0
 50 51  1  0  0  0
 51 52  1  0  0  0
 52 53  2  0  0  0
 52 55  1  0  0  0
 55 70  1  0  0  0
 70 71  1  0  0  0
 71 72  1  0  0  0
 72 73  1  0  0  0
 72 74  2  0  0  0
 55 56  1  0  0  0
 56 57  1  0  0  0
 57 58  2  0  0  0
 57 60  1  0  0  0
 60 61  1  0  0  0
 60 64  1  0  0  0
 64 65  1  0  0  0
 65 66  1  0  0  0
 66 67  1  0  0  0
 66 68  2  0  0  0
 10 11  1  0  0  0
 11 12  2  0  0  0
 11 13  1  0  0  0
 13 15  1  0  0  0
 15 21  1  0  0  0
 21 22  1  0  0  0
 22 23  2  0  0  0
 23 24  1  0  0  0
 24 25  2  0  0  0
 25 26  1  0  0  0
 26 27  2  0  0  0
 15 16  1  0  0  0
 16 17  1  0  0  0
 16 18  2  0  0  0
 27 22  1  0  0  0
 33 36  1  0  0  0
 33 37  1  0  0  0
 35 38  1  0  0  0
 31 32  1  0  0  0
  6  9  1  0  0  0
 42 44  1  0  0  0
  1  4  1  0  0  0
 86 88  1  0  0  0
 46 49  1  0  0  0
 80 82  1  0  0  0
 51 54  1  0  0  0
 73 75  1  0  0  0
 73 76  1  0  0  0
 56 59  1  0  0  0
 61 62  1  0  0  0
 61 63  1  0  0  0
 67 69  1  0  0  0
 13 14  1  0  0  0
 17 19  1  0  0  0
 17 20  1  0  0  0
M  END
> <minimizedAffinity>
-5.92514

> <CNNscore>
0.1404967010

> <CNNaffinity>
7.1560158730

> <CNN_VS>
1.0053966045

> <CNNaffinity_variance>
0.2682181895

$$$$
[H]N=C(N([H])[H])N([H])C([H])([H])C([H])([H])C([H])([H])[C@@]([H])(C(=O)N([H])[C@]([H])(C(=O)N([H])[H])C([H])([H])c1c([H])c([H])c([H])c([H])c1[H])N([H])C(=O)[C@@]([H])(N([H])C(=O)[C@@]([H])(N([H])C(=O)[C@@]([H])(N([H])C(=O)[C@@]([H])(N([H])C(=O)[C@@]([H])(N([H])[H])C([H])([H])C([H])([H])C(=O)O[H])C([H])([H])C([H])([H])C(=O)N([H])[H])C([H])([H])C([H])([H])C(=O)O[H])C([H])([H])C([H])([H])C(=O)O[H])C([H])([H])C([H])([H])C(=O)O[H]


 88 88  0  0  0  0  0  0  0  0999 V2000
   -5.4992   -6.5562    8.5278 N   0  0  0  0  0  0  0  0  0  0  0  0
   -4.6075   -5.5163    8.2165 C   0  0  0  0  0  0  0  0  0  0  0  0
   -4.5008   -5.0560    7.0367 O   0  0  0  0  0  0  0  0  0  0  0  0
   -5.5407   -6.9446    9.4756 H   0  0  0  0  0  0  0  0  0  0  0  0
   -6.4069   -7.1752    7.5284 C   0  0  0  0  0  0  0  0  0  0  0  0
   -8.9608   -7.1035    7.5998 N   0  0  0  0  0  0  0  0  0  0  0  0
   -7.6903   -7.3772    8.1442 C   0  0  0  0  0  0  0  0  0  0  0  0
   -7.6966   -7.8581    9.3483 O   0  0  0  0  0  0  0  0  0  0  0  0
   -9.0904   -6.7345    6.6457 H   0  0  0  0  0  0  0  0  0  0  0  0
  -10.1648   -7.3519    8.4103 C   0  0  0  0  0  0  0  0  0  0  0  0
  -11.2040   -7.9921    7.6016 C   0  0  0  0  0  0  0  0  0  0  0  0
  -10.9792   -9.0824    7.0493 O   0  0  0  0  0  0  0  0  0  0  0  0
  -12.4549   -7.3667    7.4573 N   0  0  0  0  0  0  0  0  0  0  0  0
  -12.5814   -6.4421    7.9744 H   0  0  0  0  0  0  0  0  0  0  0  0
  -13.5869   -7.8406    6.6878 C   0  0  0  0  0  0  0  0  0  0  0  0
  -13.5754   -9.3046    6.6525 C   0  0  0  0  0  0  0  0  0  0  0  0
  -13.7868  -10.1149    7.7815 N   0  0  0  0  0  0  0  0  0  0  0  0
  -13.3565   -9.8699    5.5444 O   0  0  0  0  0  0  0  0  0  0  0  0
  -14.4311  -10.9312    7.7726 H   0  0  0  0  0  0  0  0  0  0  0  0
  -13.2908   -9.9189    8.6826 H   0  0  0  0  0  0  0  0  0  0  0  0
  -13.5995   -7.1755    5.3173 C   0  0  0  0  0  0  0  0  0  0  0  0
  -14.9301   -6.7396    4.8765 C   0  0  0  0  0  0  0  0  0  0  0  0
  -15.3943   -5.4654    5.1503 C   0  0  0  0  0  0  0  0  0  0  0  0
  -16.6017   -5.0209    4.7283 C   0  0  0  0  0  0  0  0  0  0  0  0
  -17.4064   -5.8423    4.0052 C   0  0  0  0  0  0  0  0  0  0  0  0
  -16.9556   -7.1409    3.7163 C   0  0  0  0  0  0  0  0  0  0  0  0
  -15.7368   -7.5791    4.1469 C   0  0  0  0  0  0  0  0  0  0  0  0
  -10.6434   -6.0186    8.9791 C   0  0  0  0  0  0  0  0  0  0  0  0
  -11.1398   -6.1731   10.3834 C   0  0  0  0  0  0  0  0  0  0  0  0
  -12.4266   -5.4330   10.5953 C   0  0  0  0  0  0  0  0  0  0  0  0
  -13.5166   -6.1124    9.9571 N   0  0  0  0  0  0  0  0  0  0  0  0
  -14.1158   -5.5499    9.2789 H   0  0  0  0  0  0  0  0  0  0  0  0
  -15.2259   -7.8087    9.9271 N   0  0  0  0  0  0  0  0  0  0  0  0
  -13.8620   -7.4777   10.1490 C   0  0  0  0  0  0  0  0  0  0  0  0
  -13.0898   -8.4142   10.4983 N   0  0  0  0  0  0  0  0  0  0  0  0
  -15.4788   -8.7602    9.6222 H   0  0  0  0  0  0  0  0  0  0  0  0
  -15.9620   -7.0950   10.0753 H   0  0  0  0  0  0  0  0  0  0  0  0
  -12.0490   -8.3325   10.7071 H   0  0  0  0  0  0  0  0  0  0  0  0
   -5.6753   -8.3454    6.9758 C   0  0  0  0  0  0  0  0  0  0  0  0
   -4.6806   -8.1405    5.9072 C   0  0  0  0  0  0  0  0  0  0  0  0
   -3.2757   -8.1493    6.3025 C   0  0  0  0  0  0  0  0  0  0  0  0
   -2.4211   -7.0587    6.1089 O   0  0  0  0  0  0  0  0  0  0  0  0
   -2.8194   -9.2056    6.8437 O   0  0  0  0  0  0  0  0  0  0  0  0
   -1.6625   -6.8731    6.7448 H   0  0  0  0  0  0  0  0  0  0  0  0
   -3.7491   -4.9112    9.2470 C   0  0  0  0  0  0  0  0  0  0  0  0
   -3.0385   -3.7898    8.7914 N   0  0  0  0  0  0  0  0  0  0  0  0
   -3.1640   -2.4125    9.0017 C   0  0  0  0  0  0  0  0  0  0  0  0
   -4.0574   -1.9365    9.7143 O   0  0  0  0  0  0  0  0  0  0  0  0
   -2.2021   -4.0548    8.1388 H   0  0  0  0  0  0  0  0  0  0  0  0
   -2.1757   -1.5090    8.3367 C   0  0  0  0  0  0  0  0  0  0  0  0
   -1.8758   -1.7667    6.9711 N   0  0  0  0  0  0  0  0  0  0  0  0
   -2.8936   -1.9494    5.9905 C   0  0  0  0  0  0  0  0  0  0  0  0
   -4.0825   -1.8543    6.3463 O   0  0  0  0  0  0  0  0  0  0  0  0
   -0.8917   -1.8369    6.6840 H   0  0  0  0  0  0  0  0  0  0  0  0
   -2.5999   -2.2634    4.5391 C   0  0  0  0  0  0  0  0  0  0  0  0
   -3.4153   -1.4966    3.6569 N   0  0  0  0  0  0  0  0  0  0  0  0
   -3.5548   -0.1513    3.4097 C   0  0  0  0  0  0  0  0  0  0  0  0
   -2.8454    0.6992    4.0380 O   0  0  0  0  0  0  0  0  0  0  0  0
   -4.1202   -2.1325    3.0927 H   0  0  0  0  0  0  0  0  0  0  0  0
   -4.5237    0.3891    2.4234 C   0  0  0  0  0  0  0  0  0  0  0  0
   -4.7747    1.8068    2.5817 N   0  0  0  0  0  0  0  0  0  0  0  0
   -3.9930    2.2550    3.0884 H   0  0  0  0  0  0  0  0  0  0  0  0
   -5.0096    2.1982    1.6708 H   0  0  0  0  0  0  0  0  0  0  0  0
   -4.0821    0.2056    0.9967 C   0  0  0  0  0  0  0  0  0  0  0  0
   -5.0939   -0.3104    0.0473 C   0  0  0  0  0  0  0  0  0  0  0  0
   -4.6515   -1.6786   -0.3972 C   0  0  0  0  0  0  0  0  0  0  0  0
   -3.2884   -1.9516   -0.2782 O   0  0  0  0  0  0  0  0  0  0  0  0
   -5.4452   -2.5490   -0.8522 O   0  0  0  0  0  0  0  0  0  0  0  0
   -3.0105   -2.9337   -0.2787 H   0  0  0  0  0  0  0  0  0  0  0  0
   -1.1597   -2.1711    4.1741 C   0  0  0  0  0  0  0  0  0  0  0  0
   -0.5882   -3.2982    3.3741 C   0  0  0  0  0  0  0  0  0  0  0  0
   -1.0967   -3.2538    1.9615 C   0  0  0  0  0  0  0  0  0  0  0  0
   -1.9293   -4.2667    1.4234 N   0  0  0  0  0  0  0  0  0  0  0  0
   -0.7677   -2.2810    1.2126 O   0  0  0  0  0  0  0  0  0  0  0  0
   -2.9059   -4.0121    1.1747 H   0  0  0  0  0  0  0  0  0  0  0  0
   -1.5421   -5.2248    1.3044 H   0  0  0  0  0  0  0  0  0  0  0  0
   -2.8522   -0.1132    8.4460 C   0  0  0  0  0  0  0  0  0  0  0  0
   -1.9533    0.7687    9.2600 C   0  0  0  0  0  0  0  0  0  0  0  0
   -2.6061    1.1987   10.5184 C   0  0  0  0  0  0  0  0  0  0  0  0
   -3.9282    0.9333   10.8519 O   0  0  0  0  0  0  0  0  0  0  0  0
   -1.8958    1.8495   11.3316 O   0  0  0  0  0  0  0  0  0  0  0  0
   -4.6668    0.9273   10.1718 H   0  0  0  0  0  0  0  0  0  0  0  0
   -4.5649   -4.6241   10.5117 C   0  0  0  0  0  0  0  0  0  0  0  0
   -3.8422   -4.9087   11.7894 C   0  0  0  0  0  0  0  0  0  0  0  0
   -4.7028   -5.2122   12.9380 C   0  0  0  0  0  0  0  0  0  0  0  0
   -5.7811   -4.3669   13.2088 O   0  0  0  0  0  0  0  0  0  0  0  0
   -4.5824   -6.1697   13.7365 O   0  0  0  0  0  0  0  0  0  0  0  0
   -6.6791   -4.6225   12.8679 H   0  0  0  0  0  0  0  0  0  0  0  0
 33 34  1  0  0  0
 34 35  2  0  0  0
 34 31  1  0  0  0
 31 30  1  0  0  0
 30 29  1  0  0  0
 29 28  1  0  0  0
 28 10  1  0  0  0
 10  6  1  0  0  0
  6  7  1  0  0  0
  7  8  2  0  0  0
  7  5  1  0  0  0
  5 39  1  0  0  0
 39 40  1  0  0  0
 40 41  1  0  0  0
 41 42  1  0  0  0
 41 43  2  0  0  0
  5  1  1  0  0  0
  1  2  1  0  0  0
  2  3  2  0  0  0
  2 45  1  0  0  0
 45 83  1  0  0  0
 83 84  1  0  0  0
 84 85  1  0  0  0
 85 86  1  0  0  0
 85 87  2  0  0  0
 45 46  1  0  0  0
 46 47  1  0  0  0
 47 48  2  0  0  0
 47 50  1  0  0  0
 50 77  1  0  0  0
 77 78  1  0  0  0
 78 79  1  0  0  0
 79 80  1  0  0  0
 79 81  2  0  0  0
 50 51  1  0  0  0
 51 52  1  0  0  0
 52 53  2  0  0  0
 52 55  1  0  0  0
 55 70  1  0  0  0
 70 71  1  0  0  0
 71 72  1  0  0  0
 72 73  1  0  0  0
 72 74  2  0  0  0
 55 56  1  0  0  0
 56 57  1  0  0  0
 57 58  2  0  0  0
 57 60  1  0  0  0
 60 61  1  0  0  0
 60 64  1  0  0  0
 64 65  1  0  0  0
 65 66  1  0  0  0
 66 67  1  0  0  0
 66 68  2  0  0  0
 10 11  1  0  0  0
 11 12  2  0  0  0
 11 13  1  0  0  0
 13 15  1  0  0  0
 15 21  1  0  0  0
 21 22  1  0  0  0
 22 23  2  0  0  0
 23 24  1  0  0  0
 24 25  2  0  0  0
 25 26  1  0  0  0
 26 27  2  0  0  0
 15 16  1  0  0  0
 16 17  1  0  0  0
 16 18  2  0  0  0
 27 22  1  0  0  0
 33 36  1  0  0  0
 33 37  1  0  0  0
 35 38  1  0  0  0
 31 32  1  0  0  0
  6  9  1  0  0  0
 42 44  1  0  0  0
  1  4  1  0  0  0
 86 88  1  0  0  0
 46 49  1  0  0  0
 80 82  1  0  0  0
 51 54  1  0  0  0
 73 75  1  0  0  0
 73 76  1  0  0  0
 56 59  1  0  0  0
 61 62  1  0  0  0
 61 63  1  0  0  0
 67 69  1  0  0  0
 13 14  1  0  0  0
 17 19  1  0  0  0
 17 20  1  0  0  0
M  END
> <minimizedAffinity>
-5.50576

> <CNNscore>
0.1371129602

> <CNNaffinity>
7.1667761803

> <CNN_VS>
0.9826579094

> <CNNaffinity_variance>
0.5965238810

$$$$
[H]N=C(N([H])[H])N([H])C([H])([H])C([H])([H])C([H])([H])[C@@]([H])(C(=O)N([H])[C@]([H])(C(=O)N([H])[H])C([H])([H])c1c([H])c([H])c([H])c([H])c1[H])N([H])C(=O)[C@@]([H])(N([H])C(=O)[C@@]([H])(N([H])C(=O)[C@@]([H])(N([H])C(=O)[C@@]([H])(N([H])C(=O)[C@@]([H])(N([H])[H])C([H])([H])C([H])([H])C(=O)O[H])C([H])([H])C([H])([H])C(=O)N([H])[H])C([H])([H])C([H])([H])C(=O)O[H])C([H])([H])C([H])([H])C(=O)O[H])C([H])([H])C([H])([H])C(=O)O[H]


 88 88  0  0  0  0  0  0  0  0999 V2000
   -4.2440   -6.3147    6.7527 N   0  0  0  0  0  0  0  0  0  0  0  0
   -2.9503   -6.7212    6.3861 C   0  0  0  0  0  0  0  0  0  0  0  0
   -2.3086   -7.5936    7.0514 O   0  0  0  0  0  0  0  0  0  0  0  0
   -4.7296   -5.5784    6.2301 H   0  0  0  0  0  0  0  0  0  0  0  0
   -4.9781   -6.8855    7.9108 C   0  0  0  0  0  0  0  0  0  0  0  0
   -7.4911   -7.1928    8.2617 N   0  0  0  0  0  0  0  0  0  0  0  0
   -6.3137   -7.2083    7.4876 C   0  0  0  0  0  0  0  0  0  0  0  0
   -6.4691   -7.5689    6.2520 O   0  0  0  0  0  0  0  0  0  0  0  0
   -7.5025   -6.9085    9.2528 H   0  0  0  0  0  0  0  0  0  0  0  0
   -8.7677   -7.5920    7.6461 C   0  0  0  0  0  0  0  0  0  0  0  0
   -9.8391   -6.6794    8.0501 C   0  0  0  0  0  0  0  0  0  0  0  0
   -9.6614   -5.4506    8.0003 O   0  0  0  0  0  0  0  0  0  0  0  0
  -11.0671   -7.2028    8.4912 N   0  0  0  0  0  0  0  0  0  0  0  0
  -11.1533   -8.2662    8.4903 H   0  0  0  0  0  0  0  0  0  0  0  0
  -12.2246   -6.4580    8.9426 C   0  0  0  0  0  0  0  0  0  0  0  0
  -11.8853   -5.7182   10.1600 C   0  0  0  0  0  0  0  0  0  0  0  0
  -10.6512   -5.8301   10.8238 N   0  0  0  0  0  0  0  0  0  0  0  0
  -12.7548   -4.9401   10.6437 O   0  0  0  0  0  0  0  0  0  0  0  0
  -10.1109   -5.0018   11.1456 H   0  0  0  0  0  0  0  0  0  0  0  0
  -10.2312   -6.7691   11.0201 H   0  0  0  0  0  0  0  0  0  0  0  0
  -13.4211   -7.3905    9.0827 C   0  0  0  0  0  0  0  0  0  0  0  0
  -14.4102   -7.2598    8.0059 C   0  0  0  0  0  0  0  0  0  0  0  0
  -15.6435   -7.8816    8.0860 C   0  0  0  0  0  0  0  0  0  0  0  0
  -16.5906   -7.7530    7.1269 C   0  0  0  0  0  0  0  0  0  0  0  0
  -16.3415   -6.9872    6.0331 C   0  0  0  0  0  0  0  0  0  0  0  0
  -15.0953   -6.3471    5.9305 C   0  0  0  0  0  0  0  0  0  0  0  0
  -14.1474   -6.4838    6.9030 C   0  0  0  0  0  0  0  0  0  0  0  0
   -9.0724   -9.0286    8.0628 C   0  0  0  0  0  0  0  0  0  0  0  0
   -9.1533   -9.9345    6.8733 C   0  0  0  0  0  0  0  0  0  0  0  0
  -10.4496  -10.6878    6.8441 C   0  0  0  0  0  0  0  0  0  0  0  0
  -11.5511   -9.7984    6.6149 N   0  0  0  0  0  0  0  0  0  0  0  0
  -11.3246   -8.8145    6.2743 H   0  0  0  0  0  0  0  0  0  0  0  0
  -13.7922   -9.7606    5.7338 N   0  0  0  0  0  0  0  0  0  0  0  0
  -12.9230  -10.1214    6.7984 C   0  0  0  0  0  0  0  0  0  0  0  0
  -13.4424  -10.6848    7.8026 N   0  0  0  0  0  0  0  0  0  0  0  0
  -14.6546  -10.3010    5.5714 H   0  0  0  0  0  0  0  0  0  0  0  0
  -13.5590   -8.9543    5.1266 H   0  0  0  0  0  0  0  0  0  0  0  0
  -12.9342  -11.0106    8.6795 H   0  0  0  0  0  0  0  0  0  0  0  0
   -4.7838   -5.9306    9.0335 C   0  0  0  0  0  0  0  0  0  0  0  0
   -3.9996   -4.7019    8.8133 C   0  0  0  0  0  0  0  0  0  0  0  0
   -3.2575   -4.1786    9.9559 C   0  0  0  0  0  0  0  0  0  0  0  0
   -2.0666   -3.4559    9.8269 O   0  0  0  0  0  0  0  0  0  0  0  0
   -3.7247   -4.4007   11.1175 O   0  0  0  0  0  0  0  0  0  0  0  0
   -1.8193   -2.7386   10.4891 H   0  0  0  0  0  0  0  0  0  0  0  0
   -2.2737   -6.1503    5.2110 C   0  0  0  0  0  0  0  0  0  0  0  0
   -2.2561   -4.7468    5.2060 N   0  0  0  0  0  0  0  0  0  0  0  0
   -1.6674   -3.7827    6.0310 C   0  0  0  0  0  0  0  0  0  0  0  0
   -0.9959   -4.0909    7.0244 O   0  0  0  0  0  0  0  0  0  0  0  0
   -2.8172   -4.3191    4.3706 H   0  0  0  0  0  0  0  0  0  0  0  0
   -1.8679   -2.3432    5.6803 C   0  0  0  0  0  0  0  0  0  0  0  0
   -2.0780   -2.0315    4.3092 N   0  0  0  0  0  0  0  0  0  0  0  0
   -1.2013   -1.1758    3.5811 C   0  0  0  0  0  0  0  0  0  0  0  0
   -0.2071   -0.7097    4.1670 O   0  0  0  0  0  0  0  0  0  0  0  0
   -2.8973   -2.4258    3.8307 H   0  0  0  0  0  0  0  0  0  0  0  0
   -1.4254   -0.7980    2.1325 C   0  0  0  0  0  0  0  0  0  0  0  0
   -1.4803    0.6153    1.9572 N   0  0  0  0  0  0  0  0  0  0  0  0
   -2.3492    1.4668    1.3166 C   0  0  0  0  0  0  0  0  0  0  0  0
   -3.3778    1.0126    0.7189 O   0  0  0  0  0  0  0  0  0  0  0  0
   -0.5981    1.1174    2.3923 H   0  0  0  0  0  0  0  0  0  0  0  0
   -2.1486    2.9369    1.2721 C   0  0  0  0  0  0  0  0  0  0  0  0
   -2.6096    3.5428    0.0399 N   0  0  0  0  0  0  0  0  0  0  0  0
   -3.3064    2.9336   -0.4205 H   0  0  0  0  0  0  0  0  0  0  0  0
   -2.9020    4.4985    0.2381 H   0  0  0  0  0  0  0  0  0  0  0  0
   -2.8584    3.6660    2.3806 C   0  0  0  0  0  0  0  0  0  0  0  0
   -3.5601    2.8332    3.3833 C   0  0  0  0  0  0  0  0  0  0  0  0
   -5.0359    3.0941    3.2457 C   0  0  0  0  0  0  0  0  0  0  0  0
   -5.6652    2.4984    2.1522 O   0  0  0  0  0  0  0  0  0  0  0  0
   -5.6922    3.8039    4.0582 O   0  0  0  0  0  0  0  0  0  0  0  0
   -6.6804    2.4020    2.1972 H   0  0  0  0  0  0  0  0  0  0  0  0
   -0.4711   -1.4318    1.1818 C   0  0  0  0  0  0  0  0  0  0  0  0
   -0.2407   -2.9022    1.3298 C   0  0  0  0  0  0  0  0  0  0  0  0
   -1.3301   -3.6784    0.6467 C   0  0  0  0  0  0  0  0  0  0  0  0
   -1.7509   -4.9536    1.1001 N   0  0  0  0  0  0  0  0  0  0  0  0
   -1.8950   -3.1854   -0.3797 O   0  0  0  0  0  0  0  0  0  0  0  0
   -2.7149   -5.0411    1.4790 H   0  0  0  0  0  0  0  0  0  0  0  0
   -1.0846   -5.7506    1.0477 H   0  0  0  0  0  0  0  0  0  0  0  0
   -3.1460   -1.9650    6.4812 C   0  0  0  0  0  0  0  0  0  0  0  0
   -3.2556   -0.4695    6.4887 C   0  0  0  0  0  0  0  0  0  0  0  0
   -4.5692   -0.0170    5.9743 C   0  0  0  0  0  0  0  0  0  0  0  0
   -5.4224   -0.7924    5.1993 O   0  0  0  0  0  0  0  0  0  0  0  0
   -4.9204    1.1566    6.2716 O   0  0  0  0  0  0  0  0  0  0  0  0
   -5.0876   -1.4384    4.5075 H   0  0  0  0  0  0  0  0  0  0  0  0
   -0.8778   -6.7627    5.0563 C   0  0  0  0  0  0  0  0  0  0  0  0
   -0.8018   -7.8824    4.0682 C   0  0  0  0  0  0  0  0  0  0  0  0
    0.0027   -7.6055    2.8731 C   0  0  0  0  0  0  0  0  0  0  0  0
    0.4031   -8.6773    2.0723 O   0  0  0  0  0  0  0  0  0  0  0  0
    0.3913   -6.4849    2.4704 O   0  0  0  0  0  0  0  0  0  0  0  0
   -0.1417   -8.8975    1.2705 H   0  0  0  0  0  0  0  0  0  0  0  0
 33 34  1  0  0  0
 34 35  2  0  0  0
 34 31  1  0  0  0
 31 30  1  0  0  0
 30 29  1  0  0  0
 29 28  1  0  0  0
 28 10  1  0  0  0
 10  6  1  0  0  0
  6  7  1  0  0  0
  7  8  2  0  0  0
  7  5  1  0  0  0
  5 39  1  0  0  0
 39 40  1  0  0  0
 40 41  1  0  0  0
 41 42  1  0  0  0
 41 43  2  0  0  0
  5  1  1  0  0  0
  1  2  1  0  0  0
  2  3  2  0  0  0
  2 45  1  0  0  0
 45 83  1  0  0  0
 83 84  1  0  0  0
 84 85  1  0  0  0
 85 86  1  0  0  0
 85 87  2  0  0  0
 45 46  1  0  0  0
 46 47  1  0  0  0
 47 48  2  0  0  0
 47 50  1  0  0  0
 50 77  1  0  0  0
 77 78  1  0  0  0
 78 79  1  0  0  0
 79 80  1  0  0  0
 79 81  2  0  0  0
 50 51  1  0  0  0
 51 52  1  0  0  0
 52 53  2  0  0  0
 52 55  1  0  0  0
 55 70  1  0  0  0
 70 71  1  0  0  0
 71 72  1  0  0  0
 72 73  1  0  0  0
 72 74  2  0  0  0
 55 56  1  0  0  0
 56 57  1  0  0  0
 57 58  2  0  0  0
 57 60  1  0  0  0
 60 61  1  0  0  0
 60 64  1  0  0  0
 64 65  1  0  0  0
 65 66  1  0  0  0
 66 67  1  0  0  0
 66 68  2  0  0  0
 10 11  1  0  0  0
 11 12  2  0  0  0
 11 13  1  0  0  0
 13 15  1  0  0  0
 15 21  1  0  0  0
 21 22  1  0  0  0
 22 23  2  0  0  0
 23 24  1  0  0  0
 24 25  2  0  0  0
 25 26  1  0  0  0
 26 27  2  0  0  0
 15 16  1  0  0  0
 16 17  1  0  0  0
 16 18  2  0  0  0
 27 22  1  0  0  0
 33 36  1  0  0  0
 33 37  1  0  0  0
 35 38  1  0  0  0
 31 32  1  0  0  0
  6  9  1  0  0  0
 42 44  1  0  0  0
  1  4  1  0  0  0
 86 88  1  0  0  0
 46 49  1  0  0  0
 80 82  1  0  0  0
 51 54  1  0  0  0
 73 75  1  0  0  0
 73 76  1  0  0  0
 56 59  1  0  0  0
 61 62  1  0  0  0
 61 63  1  0  0  0
 67 69  1  0  0  0
 13 14  1  0  0  0
 17 19  1  0  0  0
 17 20  1  0  0  0
M  END
> <minimizedAffinity>
-5.29319

> <CNNscore>
0.1286900789

> <CNNaffinity>
6.7790994644

> <CNN_VS>
0.8724028468

> <CNNaffinity_variance>
0.6046627164

$$$$
[H]N=C(N([H])[H])N([H])C([H])([H])C([H])([H])C([H])([H])[C@@]([H])(C(=O)N([H])[C@]([H])(C(=O)N([H])[H])C([H])([H])c1c([H])c([H])c([H])c([H])c1[H])N([H])C(=O)[C@@]([H])(N([H])C(=O)[C@@]([H])(N([H])C(=O)[C@@]([H])(N([H])C(=O)[C@@]([H])(N([H])C(=O)[C@@]([H])(N([H])[H])C([H])([H])C([H])([H])C(=O)O[H])C([H])([H])C([H])([H])C(=O)N([H])[H])C([H])([H])C([H])([H])C(=O)O[H])C([H])([H])C([H])([H])C(=O)O[H])C([H])([H])C([H])([H])C(=O)O[H]


 88 88  0  0  0  0  0  0  0  0999 V2000
   -6.0128   -6.4822    7.5143 N   0  0  0  0  0  0  0  0  0  0  0  0
   -4.9390   -5.8876    6.8312 C   0  0  0  0  0  0  0  0  0  0  0  0
   -4.8453   -5.9294    5.5644 O   0  0  0  0  0  0  0  0  0  0  0  0
   -6.0496   -6.4765    8.5388 H   0  0  0  0  0  0  0  0  0  0  0  0
   -7.1339   -7.1703    6.8247 C   0  0  0  0  0  0  0  0  0  0  0  0
   -9.6184   -7.1008    7.4209 N   0  0  0  0  0  0  0  0  0  0  0  0
   -8.2501   -7.2378    7.7285 C   0  0  0  0  0  0  0  0  0  0  0  0
   -7.9823   -7.4375    8.9812 O   0  0  0  0  0  0  0  0  0  0  0  0
   -9.9614   -6.9551    6.4595 H   0  0  0  0  0  0  0  0  0  0  0  0
  -10.6143   -7.1694    8.5033 C   0  0  0  0  0  0  0  0  0  0  0  0
  -11.8661   -7.7486    8.0120 C   0  0  0  0  0  0  0  0  0  0  0  0
  -12.2059   -8.8895    8.3687 O   0  0  0  0  0  0  0  0  0  0  0  0
  -12.6790   -7.0054    7.1383 N   0  0  0  0  0  0  0  0  0  0  0  0
  -12.3323   -6.0275    6.8900 H   0  0  0  0  0  0  0  0  0  0  0  0
  -13.9324   -7.4206    6.5426 C   0  0  0  0  0  0  0  0  0  0  0  0
  -13.9472   -8.8781    6.4013 C   0  0  0  0  0  0  0  0  0  0  0  0
  -14.5769   -9.7449    7.3114 N   0  0  0  0  0  0  0  0  0  0  0  0
  -13.3542   -9.3843    5.4075 O   0  0  0  0  0  0  0  0  0  0  0  0
  -15.1948  -10.5242    7.0072 H   0  0  0  0  0  0  0  0  0  0  0  0
  -14.4386   -9.6315    8.3431 H   0  0  0  0  0  0  0  0  0  0  0  0
  -14.1701   -6.6575    5.2457 C   0  0  0  0  0  0  0  0  0  0  0  0
  -15.5856   -6.5280    4.8791 C   0  0  0  0  0  0  0  0  0  0  0  0
  -16.2545   -5.3246    5.0159 C   0  0  0  0  0  0  0  0  0  0  0  0
  -17.5494   -5.1629    4.6547 C   0  0  0  0  0  0  0  0  0  0  0  0
  -18.2392   -6.2110    4.1346 C   0  0  0  0  0  0  0  0  0  0  0  0
  -17.5802   -7.4428    3.9875 C   0  0  0  0  0  0  0  0  0  0  0  0
  -16.2746   -7.5951    4.3553 C   0  0  0  0  0  0  0  0  0  0  0  0
  -10.8284   -5.7595    9.0479 C   0  0  0  0  0  0  0  0  0  0  0  0
  -11.4608   -5.7908   10.4049 C   0  0  0  0  0  0  0  0  0  0  0  0
  -12.8772   -5.3002   10.3620 C   0  0  0  0  0  0  0  0  0  0  0  0
  -13.7652   -6.2531   10.9621 N   0  0  0  0  0  0  0  0  0  0  0  0
  -14.2041   -5.9934   11.8977 H   0  0  0  0  0  0  0  0  0  0  0  0
  -13.3846   -8.6305   10.9019 N   0  0  0  0  0  0  0  0  0  0  0  0
  -14.1148   -7.5153   10.4099 C   0  0  0  0  0  0  0  0  0  0  0  0
  -14.9943   -7.7424    9.5322 N   0  0  0  0  0  0  0  0  0  0  0  0
  -13.8195   -9.5648   10.9081 H   0  0  0  0  0  0  0  0  0  0  0  0
  -12.4172   -8.5025   11.2496 H   0  0  0  0  0  0  0  0  0  0  0  0
  -15.6198   -7.0213    9.0607 H   0  0  0  0  0  0  0  0  0  0  0  0
   -6.5686   -8.4306    6.2750 C   0  0  0  0  0  0  0  0  0  0  0  0
   -7.4633   -9.5719    6.0096 C   0  0  0  0  0  0  0  0  0  0  0  0
   -8.1823  -10.1267    7.1520 C   0  0  0  0  0  0  0  0  0  0  0  0
   -7.5489  -10.5168    8.3369 O   0  0  0  0  0  0  0  0  0  0  0  0
   -9.4429  -10.2598    7.0505 O   0  0  0  0  0  0  0  0  0  0  0  0
   -8.0196  -10.4498    9.2247 H   0  0  0  0  0  0  0  0  0  0  0  0
   -3.8658   -5.1882    7.5550 C   0  0  0  0  0  0  0  0  0  0  0  0
   -3.5317   -3.9468    6.9916 N   0  0  0  0  0  0  0  0  0  0  0  0
   -2.4486   -3.4862    6.2356 C   0  0  0  0  0  0  0  0  0  0  0  0
   -1.5009   -4.2223    5.9311 O   0  0  0  0  0  0  0  0  0  0  0  0
   -4.2879   -3.1794    7.1789 H   0  0  0  0  0  0  0  0  0  0  0  0
   -2.4600   -2.0585    5.7921 C   0  0  0  0  0  0  0  0  0  0  0  0
   -2.5588   -1.8127    4.3952 N   0  0  0  0  0  0  0  0  0  0  0  0
   -3.5974   -2.3727    3.5962 C   0  0  0  0  0  0  0  0  0  0  0  0
   -4.4568   -3.0801    4.1531 O   0  0  0  0  0  0  0  0  0  0  0  0
   -1.8493   -1.2219    3.9441 H   0  0  0  0  0  0  0  0  0  0  0  0
   -3.7012   -2.1575    2.1015 C   0  0  0  0  0  0  0  0  0  0  0  0
   -4.1345   -0.8369    1.7863 N   0  0  0  0  0  0  0  0  0  0  0  0
   -4.8167   -0.2803    0.7303 C   0  0  0  0  0  0  0  0  0  0  0  0
   -5.2121   -1.0053   -0.2390 O   0  0  0  0  0  0  0  0  0  0  0  0
   -3.7958   -0.1032    2.5391 H   0  0  0  0  0  0  0  0  0  0  0  0
   -5.1245    1.1694    0.6459 C   0  0  0  0  0  0  0  0  0  0  0  0
   -5.3293    1.6354   -0.7102 N   0  0  0  0  0  0  0  0  0  0  0  0
   -5.5842    0.8454   -1.3262 H   0  0  0  0  0  0  0  0  0  0  0  0
   -5.9768    2.4219   -0.6885 H   0  0  0  0  0  0  0  0  0  0  0  0
   -6.3633    1.5578    1.4066 C   0  0  0  0  0  0  0  0  0  0  0  0
   -7.4458    2.2045    0.6312 C   0  0  0  0  0  0  0  0  0  0  0  0
   -8.5558    1.2015    0.4670 C   0  0  0  0  0  0  0  0  0  0  0  0
   -8.3236    0.1732   -0.4469 O   0  0  0  0  0  0  0  0  0  0  0  0
   -9.6427    1.2606    1.1072 O   0  0  0  0  0  0  0  0  0  0  0  0
   -8.9019   -0.6634   -0.3605 H   0  0  0  0  0  0  0  0  0  0  0  0
   -2.4735   -2.5270    1.3450 C   0  0  0  0  0  0  0  0  0  0  0  0
   -2.5847   -3.6694    0.3860 C   0  0  0  0  0  0  0  0  0  0  0  0
   -2.2519   -3.2221   -1.0086 C   0  0  0  0  0  0  0  0  0  0  0  0
   -3.1693   -2.5002   -1.8123 N   0  0  0  0  0  0  0  0  0  0  0  0
   -1.1122   -3.5031   -1.4964 O   0  0  0  0  0  0  0  0  0  0  0  0
   -2.9330   -1.5179   -2.0570 H   0  0  0  0  0  0  0  0  0  0  0  0
   -4.0448   -2.9696   -2.1206 H   0  0  0  0  0  0  0  0  0  0  0  0
   -3.7257   -1.4872    6.4917 C   0  0  0  0  0  0  0  0  0  0  0  0
   -3.2877   -0.3661    7.3860 C   0  0  0  0  0  0  0  0  0  0  0  0
   -3.6736    0.9535    6.8343 C   0  0  0  0  0  0  0  0  0  0  0  0
   -4.8394    1.1994    6.1200 O   0  0  0  0  0  0  0  0  0  0  0  0
   -2.8760    1.9081    7.0380 O   0  0  0  0  0  0  0  0  0  0  0  0
   -5.2335    0.5321    5.4817 H   0  0  0  0  0  0  0  0  0  0  0  0
   -4.2101   -5.0913    9.0448 C   0  0  0  0  0  0  0  0  0  0  0  0
   -3.5840   -3.9296    9.7480 C   0  0  0  0  0  0  0  0  0  0  0  0
   -3.6714   -3.9664   11.2119 C   0  0  0  0  0  0  0  0  0  0  0  0
   -4.8761   -4.3561   11.8013 O   0  0  0  0  0  0  0  0  0  0  0  0
   -2.7657   -3.6774   12.0275 O   0  0  0  0  0  0  0  0  0  0  0  0
   -4.9788   -5.3033   12.0848 H   0  0  0  0  0  0  0  0  0  0  0  0
 33 34  1  0  0  0
 34 35  2  0  0  0
 34 31  1  0  0  0
 31 30  1  0  0  0
 30 29  1  0  0  0
 29 28  1  0  0  0
 28 10  1  0  0  0
 10  6  1  0  0  0
  6  7  1  0  0  0
  7  8  2  0  0  0
  7  5  1  0  0  0
  5 39  1  0  0  0
 39 40  1  0  0  0
 40 41  1  0  0  0
 41 42  1  0  0  0
 41 43  2  0  0  0
  5  1  1  0  0  0
  1  2  1  0  0  0
  2  3  2  0  0  0
  2 45  1  0  0  0
 45 83  1  0  0  0
 83 84  1  0  0  0
 84 85  1  0  0  0
 85 86  1  0  0  0
 85 87  2  0  0  0
 45 46  1  0  0  0
 46 47  1  0  0  0
 47 48  2  0  0  0
 47 50  1  0  0  0
 50 77  1  0  0  0
 77 78  1  0  0  0
 78 79  1  0  0  0
 79 80  1  0  0  0
 79 81  2  0  0  0
 50 51  1  0  0  0
 51 52  1  0  0  0
 52 53  2  0  0  0
 52 55  1  0  0  0
 55 70  1  0  0  0
 70 71  1  0  0  0
 71 72  1  0  0  0
 72 73  1  0  0  0
 72 74  2  0  0  0
 55 56  1  0  0  0
 56 57  1  0  0  0
 57 58  2  0  0  0
 57 60  1  0  0  0
 60 61  1  0  0  0
 60 64  1  0  0  0
 64 65  1  0  0  0
 65 66  1  0  0  0
 66 67  1  0  0  0
 66 68  2  0  0  0
 10 11  1  0  0  0
 11 12  2  0  0  0
 11 13  1  0  0  0
 13 15  1  0  0  0
 15 21  1  0  0  0
 21 22  1  0  0  0
 22 23  2  0  0  0
 23 24  1  0  0  0
 24 25  2  0  0  0
 25 26  1  0  0  0
 26 27  2  0  0  0
 15 16  1  0  0  0
 16 17  1  0  0  0
 16 18  2  0  0  0
 27 22  1  0  0  0
 33 36  1  0  0  0
 33 37  1  0  0  0
 35 38  1  0  0  0
 31 32  1  0  0  0
  6  9  1  0  0  0
 42 44  1  0  0  0
  1  4  1  0  0  0
 86 88  1  0  0  0
 46 49  1  0  0  0
 80 82  1  0  0  0
 51 54  1  0  0  0
 73 75  1  0  0  0
 73 76  1  0  0  0
 56 59  1  0  0  0
 61 62  1  0  0  0
 61 63  1  0  0  0
 67 69  1  0  0  0
 13 14  1  0  0  0
 17 19  1  0  0  0
 17 20  1  0  0  0
M  END
> <minimizedAffinity>
-6.30481

> <CNNscore>
0.1153888851

> <CNNaffinity>
7.2129716873

> <CNN_VS>
0.8322967887

> <CNNaffinity_variance>
0.0958271995

$$$$
[H]c1c([H])c([H])c(C([H])([H])[C@@]([H])(C(=O)N([H])[C@]([H])(C(=O)N([H])[C@]([H])(C(=O)N([H])[C@]([H])(C(=O)N([H])[C@]([H])(C(=O)N([H])[C@]([H])(C(=O)N([H])[H])C([H])([H])c2c([H])c([H])c([H])c([H])c2[H])C([H])([H])C([H])(C([H])([H])[H])C([H])([H])[H])C([H])([H])C(=O)N([H])[H])C([H])([H])c2c([H])c([H])c([H])c([H])c2[H])C([H])([H])c2c([H])c([H])c([H])c([H])c2[H])N([H])[H])c([H])c1[H]


 72 75  0  0  0  0  0  0  0  0999 V2000
   -6.8346   -6.9859    7.3875 N   0  0  0  0  0  0  0  0  0  0  0  0
   -5.9579   -6.3870    6.4752 C   0  0  0  0  0  0  0  0  0  0  0  0
   -6.3233   -6.4673    5.2626 O   0  0  0  0  0  0  0  0  0  0  0  0
   -6.5926   -6.9811    8.4006 H   0  0  0  0  0  0  0  0  0  0  0  0
   -4.6940   -5.7029    6.7544 C   0  0  0  0  0  0  0  0  0  0  0  0
   -4.5708   -4.4812    5.8890 N   0  0  0  0  0  0  0  0  0  0  0  0
   -3.6264   -4.4132    4.8407 C   0  0  0  0  0  0  0  0  0  0  0  0
   -2.9223   -5.4961    4.7218 O   0  0  0  0  0  0  0  0  0  0  0  0
   -5.1912   -3.6846    6.1110 H   0  0  0  0  0  0  0  0  0  0  0  0
   -3.3691   -3.2999    3.9293 C   0  0  0  0  0  0  0  0  0  0  0  0
   -2.9669   -2.1221    4.7262 N   0  0  0  0  0  0  0  0  0  0  0  0
   -3.8369   -1.1216    5.1532 C   0  0  0  0  0  0  0  0  0  0  0  0
   -5.0726   -1.0652    4.9311 O   0  0  0  0  0  0  0  0  0  0  0  0
   -1.9617   -2.0623    4.9660 H   0  0  0  0  0  0  0  0  0  0  0  0
   -3.2844    0.0147    5.9605 C   0  0  0  0  0  0  0  0  0  0  0  0
   -3.5255    1.2970    5.3270 N   0  0  0  0  0  0  0  0  0  0  0  0
   -2.6953    1.9521    5.4501 H   0  0  0  0  0  0  0  0  0  0  0  0
   -3.6008    1.1218    4.2963 H   0  0  0  0  0  0  0  0  0  0  0  0
   -3.9290   -0.0022    7.3275 C   0  0  0  0  0  0  0  0  0  0  0  0
   -3.0682   -0.6708    8.3171 C   0  0  0  0  0  0  0  0  0  0  0  0
   -1.7163   -0.7088    8.1315 C   0  0  0  0  0  0  0  0  0  0  0  0
   -0.8700   -1.3213    9.0269 C   0  0  0  0  0  0  0  0  0  0  0  0
   -1.4214   -1.9163   10.1520 C   0  0  0  0  0  0  0  0  0  0  0  0
   -2.7986   -1.8802   10.3456 C   0  0  0  0  0  0  0  0  0  0  0  0
   -3.6144   -1.2563    9.4250 C   0  0  0  0  0  0  0  0  0  0  0  0
   -2.4476   -3.4638    2.7913 C   0  0  0  0  0  0  0  0  0  0  0  0
   -2.9368   -3.2162    1.4284 C   0  0  0  0  0  0  0  0  0  0  0  0
   -4.2189   -2.7852    1.1446 C   0  0  0  0  0  0  0  0  0  0  0  0
   -4.6229   -2.5596   -0.1486 C   0  0  0  0  0  0  0  0  0  0  0  0
   -3.7717   -2.7493   -1.2292 C   0  0  0  0  0  0  0  0  0  0  0  0
   -2.4991   -3.1777   -0.9467 C   0  0  0  0  0  0  0  0  0  0  0  0
   -2.0807   -3.4080    0.3398 C   0  0  0  0  0  0  0  0  0  0  0  0
   -4.4897   -5.2720    8.1565 C   0  0  0  0  0  0  0  0  0  0  0  0
   -3.1635   -5.2826    8.7310 C   0  0  0  0  0  0  0  0  0  0  0  0
   -2.9164   -5.5929   10.0637 C   0  0  0  0  0  0  0  0  0  0  0  0
   -1.6274   -5.6390   10.5383 C   0  0  0  0  0  0  0  0  0  0  0  0
   -0.5239   -5.3883    9.7467 C   0  0  0  0  0  0  0  0  0  0  0  0
   -0.7529   -5.0795    8.4214 C   0  0  0  0  0  0  0  0  0  0  0  0
   -2.0417   -5.0325    7.9452 C   0  0  0  0  0  0  0  0  0  0  0  0
   -8.0663   -7.6696    7.0612 C   0  0  0  0  0  0  0  0  0  0  0  0
  -10.4940   -7.8037    7.7321 N   0  0  0  0  0  0  0  0  0  0  0  0
   -9.1427   -7.4454    8.0472 C   0  0  0  0  0  0  0  0  0  0  0  0
   -8.9846   -6.9490    9.1878 O   0  0  0  0  0  0  0  0  0  0  0  0
  -10.6423   -8.2500    6.8130 H   0  0  0  0  0  0  0  0  0  0  0  0
  -11.6036   -7.6094    8.5854 C   0  0  0  0  0  0  0  0  0  0  0  0
  -12.7731   -8.3489    7.9959 C   0  0  0  0  0  0  0  0  0  0  0  0
  -12.9614   -9.5280    8.3573 O   0  0  0  0  0  0  0  0  0  0  0  0
  -13.6530   -7.7787    7.0729 N   0  0  0  0  0  0  0  0  0  0  0  0
  -13.5174   -6.8122    6.7388 H   0  0  0  0  0  0  0  0  0  0  0  0
  -14.7737   -8.5345    6.5540 C   0  0  0  0  0  0  0  0  0  0  0  0
  -14.4730   -9.0572    5.2016 C   0  0  0  0  0  0  0  0  0  0  0  0
  -15.4805   -9.2980    4.2413 N   0  0  0  0  0  0  0  0  0  0  0  0
  -13.2788   -9.2950    4.9033 O   0  0  0  0  0  0  0  0  0  0  0  0
  -16.4961   -9.4782    4.5028 H   0  0  0  0  0  0  0  0  0  0  0  0
  -15.2167   -9.2972    3.2360 H   0  0  0  0  0  0  0  0  0  0  0  0
  -16.0599   -7.7725    6.6345 C   0  0  0  0  0  0  0  0  0  0  0  0
  -16.0962   -6.6122    5.7233 C   0  0  0  0  0  0  0  0  0  0  0  0
  -15.0259   -5.7755    5.5040 C   0  0  0  0  0  0  0  0  0  0  0  0
  -15.0501   -4.6881    4.6517 C   0  0  0  0  0  0  0  0  0  0  0  0
  -16.2034   -4.3939    3.9597 C   0  0  0  0  0  0  0  0  0  0  0  0
  -17.2985   -5.2083    4.1506 C   0  0  0  0  0  0  0  0  0  0  0  0
  -17.2500   -6.2836    5.0047 C   0  0  0  0  0  0  0  0  0  0  0  0
  -11.9446   -6.3034    9.1276 C   0  0  0  0  0  0  0  0  0  0  0  0
  -12.9894   -4.6924   10.6573 C   0  0  0  0  0  0  0  0  0  0  0  0
  -12.4870   -6.1553   10.4937 C   0  0  0  0  0  0  0  0  0  0  0  0
  -13.7404   -6.9811   10.6794 C   0  0  0  0  0  0  0  0  0  0  0  0
   -7.9256   -9.0337    6.5235 C   0  0  0  0  0  0  0  0  0  0  0  0
   -8.4223  -10.1539    7.2929 C   0  0  0  0  0  0  0  0  0  0  0  0
   -9.6317  -10.7983    6.9822 N   0  0  0  0  0  0  0  0  0  0  0  0
   -7.7695  -10.5771    8.2737 O   0  0  0  0  0  0  0  0  0  0  0  0
   -9.6291  -11.7288    6.5343 H   0  0  0  0  0  0  0  0  0  0  0  0
  -10.5197  -10.2810    7.2354 H   0  0  0  0  0  0  0  0  0  0  0  0
 64 65  1  0  0  0
 65 66  1  0  0  0
 65 63  1  0  0  0
 63 45  1  0  0  0
 45 41  1  0  0  0
 41 42  1  0  0  0
 42 43  2  0  0  0
 42 40  1  0  0  0
 40 67  1  0  0  0
 67 68  1  0  0  0
 68 69  1  0  0  0
 68 70  2  0  0  0
 40  1  1  0  0  0
  1  2  1  0  0  0
  2  3  2  0  0  0
  2  5  1  0  0  0
  5 33  1  0  0  0
 33 34  1  0  0  0
 34 35  2  0  0  0
 35 36  1  0  0  0
 36 37  2  0  0  0
 37 38  1  0  0  0
 38 39  2  0  0  0
  5  6  1  0  0  0
  6  7  1  0  0  0
  7  8  2  0  0  0
  7 10  1  0  0  0
 10 26  1  0  0  0
 26 27  1  0  0  0
 27 28  2  0  0  0
 28 29  1  0  0  0
 29 30  2  0  0  0
 30 31  1  0  0  0
 31 32  2  0  0  0
 10 11  1  0  0  0
 11 12  1  0  0  0
 12 13  2  0  0  0
 12 15  1  0  0  0
 15 16  1  0  0  0
 15 19  1  0  0  0
 19 20  1  0  0  0
 20 21  2  0  0  0
 21 22  1  0  0  0
 22 23  2  0  0  0
 23 24  1  0  0  0
 24 25  2  0  0  0
 45 46  1  0  0  0
 46 47  2  0  0  0
 46 48  1  0  0  0
 48 50  1  0  0  0
 50 56  1  0  0  0
 56 57  1  0  0  0
 57 58  2  0  0  0
 58 59  1  0  0  0
 59 60  2  0  0  0
 60 61  1  0  0  0
 61 62  2  0  0  0
 50 51  1  0  0  0
 51 52  1  0  0  0
 51 53  2  0  0  0
 39 34  1  0  0  0
 32 27  1  0  0  0
 25 20  1  0  0  0
 62 57  1  0  0  0
 41 44  1  0  0  0
 69 71  1  0  0  0
 69 72  1  0  0  0
  1  4  1  0  0  0
  6  9  1  0  0  0
 11 14  1  0  0  0
 16 17  1  0  0  0
 16 18  1  0  0  0
 48 49  1  0  0  0
 52 54  1  0  0  0
 52 55  1  0  0  0
M  END
> <minimizedAffinity>
-8.04401

> <CNNscore>
0.4151263833

> <CNNaffinity>
7.9771790504

> <CNN_VS>
3.3115375042

> <CNNaffinity_variance>
0.0796775594

$$$$
[H]c1c([H])c([H])c(C([H])([H])[C@@]([H])(C(=O)N([H])[C@]([H])(C(=O)N([H])[C@]([H])(C(=O)N([H])[C@]([H])(C(=O)N([H])[C@]([H])(C(=O)N([H])[C@]([H])(C(=O)N([H])[H])C([H])([H])c2c([H])c([H])c([H])c([H])c2[H])C([H])([H])C([H])(C([H])([H])[H])C([H])([H])[H])C([H])([H])C(=O)N([H])[H])C([H])([H])c2c([H])c([H])c([H])c([H])c2[H])C([H])([H])c2c([H])c([H])c([H])c([H])c2[H])N([H])[H])c([H])c1[H]


 72 75  0  0  0  0  0  0  0  0999 V2000
   -6.5350   -6.6956    7.6580 N   0  0  0  0  0  0  0  0  0  0  0  0
   -5.4623   -6.1064    6.9785 C   0  0  0  0  0  0  0  0  0  0  0  0
   -5.6250   -6.0045    5.7241 O   0  0  0  0  0  0  0  0  0  0  0  0
   -6.4673   -6.8345    8.6880 H   0  0  0  0  0  0  0  0  0  0  0  0
   -4.2014   -5.6146    7.5367 C   0  0  0  0  0  0  0  0  0  0  0  0
   -4.1514   -5.8928    9.0121 N   0  0  0  0  0  0  0  0  0  0  0  0
   -3.9624   -4.8549    9.9514 C   0  0  0  0  0  0  0  0  0  0  0  0
   -3.8551   -3.6856    9.4002 O   0  0  0  0  0  0  0  0  0  0  0  0
   -4.2371   -6.8801    9.3064 H   0  0  0  0  0  0  0  0  0  0  0  0
   -3.8709   -4.9607   11.4064 C   0  0  0  0  0  0  0  0  0  0  0  0
   -3.1737   -3.7643   11.9227 N   0  0  0  0  0  0  0  0  0  0  0  0
   -1.7899   -3.6112   11.9633 C   0  0  0  0  0  0  0  0  0  0  0  0
   -0.9368   -4.4492   11.5766 O   0  0  0  0  0  0  0  0  0  0  0  0
   -3.7827   -3.0048   12.2747 H   0  0  0  0  0  0  0  0  0  0  0  0
   -1.2237   -2.3362   12.5128 C   0  0  0  0  0  0  0  0  0  0  0  0
   -0.3214   -1.6955   11.5752 N   0  0  0  0  0  0  0  0  0  0  0  0
    0.5112   -1.2593   12.0753 H   0  0  0  0  0  0  0  0  0  0  0  0
    0.0751   -2.4500   10.9650 H   0  0  0  0  0  0  0  0  0  0  0  0
   -2.3638   -1.3986   12.8374 C   0  0  0  0  0  0  0  0  0  0  0  0
   -2.4166   -0.2721   11.8912 C   0  0  0  0  0  0  0  0  0  0  0  0
   -1.7838    0.9003   12.1891 C   0  0  0  0  0  0  0  0  0  0  0  0
   -1.8040    1.9814   11.3383 C   0  0  0  0  0  0  0  0  0  0  0  0
   -2.4940    1.8634   10.1408 C   0  0  0  0  0  0  0  0  0  0  0  0
   -3.1406    0.6707    9.8327 C   0  0  0  0  0  0  0  0  0  0  0  0
   -3.0973   -0.3913   10.7117 C   0  0  0  0  0  0  0  0  0  0  0  0
   -5.0765   -5.2163   12.2141 C   0  0  0  0  0  0  0  0  0  0  0  0
   -4.9303   -5.5652   13.6336 C   0  0  0  0  0  0  0  0  0  0  0  0
   -4.1573   -6.6182   14.0847 C   0  0  0  0  0  0  0  0  0  0  0  0
   -4.0473   -6.8957   15.4254 C   0  0  0  0  0  0  0  0  0  0  0  0
   -4.6997   -6.1387   16.3896 C   0  0  0  0  0  0  0  0  0  0  0  0
   -5.4675   -5.0938   15.9408 C   0  0  0  0  0  0  0  0  0  0  0  0
   -5.5877   -4.8042   14.6049 C   0  0  0  0  0  0  0  0  0  0  0  0
   -2.9685   -6.1779    6.9401 C   0  0  0  0  0  0  0  0  0  0  0  0
   -2.3681   -7.3650    7.5053 C   0  0  0  0  0  0  0  0  0  0  0  0
   -2.5887   -8.6412    6.9991 C   0  0  0  0  0  0  0  0  0  0  0  0
   -1.9461   -9.7258    7.5465 C   0  0  0  0  0  0  0  0  0  0  0  0
   -1.0639   -9.6237    8.6042 C   0  0  0  0  0  0  0  0  0  0  0  0
   -0.8341   -8.3635    9.1171 C   0  0  0  0  0  0  0  0  0  0  0  0
   -1.4765   -7.2775    8.5710 C   0  0  0  0  0  0  0  0  0  0  0  0
   -7.7564   -7.1855    7.0586 C   0  0  0  0  0  0  0  0  0  0  0  0
   -9.7579   -7.5974    8.5373 N   0  0  0  0  0  0  0  0  0  0  0  0
   -8.9780   -6.7028    7.7339 C   0  0  0  0  0  0  0  0  0  0  0  0
   -9.4222   -5.5318    7.6717 O   0  0  0  0  0  0  0  0  0  0  0  0
   -9.3902   -8.5571    8.6346 H   0  0  0  0  0  0  0  0  0  0  0  0
  -10.9550   -7.2523    9.2041 C   0  0  0  0  0  0  0  0  0  0  0  0
  -12.1017   -7.5586    8.2802 C   0  0  0  0  0  0  0  0  0  0  0  0
  -11.9630   -8.4942    7.4668 O   0  0  0  0  0  0  0  0  0  0  0  0
  -13.3063   -6.8515    8.2944 N   0  0  0  0  0  0  0  0  0  0  0  0
  -13.4491   -6.0610    8.9417 H   0  0  0  0  0  0  0  0  0  0  0  0
  -14.3828   -7.2048    7.3930 C   0  0  0  0  0  0  0  0  0  0  0  0
  -14.9800   -8.5053    7.7732 C   0  0  0  0  0  0  0  0  0  0  0  0
  -14.5038   -9.7347    7.2663 N   0  0  0  0  0  0  0  0  0  0  0  0
  -15.9452   -8.5100    8.5734 O   0  0  0  0  0  0  0  0  0  0  0  0
  -13.9713   -9.8133    6.3485 H   0  0  0  0  0  0  0  0  0  0  0  0
  -14.6807  -10.5988    7.8162 H   0  0  0  0  0  0  0  0  0  0  0  0
  -13.9702   -7.1271    5.9559 C   0  0  0  0  0  0  0  0  0  0  0  0
  -15.0273   -6.5771    5.0854 C   0  0  0  0  0  0  0  0  0  0  0  0
  -15.9087   -7.3516    4.3664 C   0  0  0  0  0  0  0  0  0  0  0  0
  -16.9026   -6.8456    3.5504 C   0  0  0  0  0  0  0  0  0  0  0  0
  -17.0499   -5.4824    3.4261 C   0  0  0  0  0  0  0  0  0  0  0  0
  -16.1873   -4.6710    4.1308 C   0  0  0  0  0  0  0  0  0  0  0  0
  -15.2060   -5.1983    4.9352 C   0  0  0  0  0  0  0  0  0  0  0  0
  -11.1032   -6.0023    9.9332 C   0  0  0  0  0  0  0  0  0  0  0  0
  -11.4265   -5.5066   12.3158 C   0  0  0  0  0  0  0  0  0  0  0  0
  -12.1391   -5.8363   10.9732 C   0  0  0  0  0  0  0  0  0  0  0  0
  -12.9863   -4.6105   10.7137 C   0  0  0  0  0  0  0  0  0  0  0  0
   -7.7441   -8.5930    6.6246 C   0  0  0  0  0  0  0  0  0  0  0  0
   -8.2480   -9.6147    7.5166 C   0  0  0  0  0  0  0  0  0  0  0  0
   -9.4281  -10.3282    7.2473 N   0  0  0  0  0  0  0  0  0  0  0  0
   -7.6287   -9.8855    8.5702 O   0  0  0  0  0  0  0  0  0  0  0  0
   -9.3854  -11.3095    6.9284 H   0  0  0  0  0  0  0  0  0  0  0  0
  -10.3377   -9.8070    7.3937 H   0  0  0  0  0  0  0  0  0  0  0  0
 64 65  1  0  0  0
 65 66  1  0  0  0
 65 63  1  0  0  0
 63 45  1  0  0  0
 45 41  1  0  0  0
 41 42  1  0  0  0
 42 43  2  0  0  0
 42 40  1  0  0  0
 40 67  1  0  0  0
 67 68  1  0  0  0
 68 69  1  0  0  0
 68 70  2  0  0  0
 40  1  1  0  0  0
  1  2  1  0  0  0
  2  3  2  0  0  0
  2  5  1  0  0  0
  5 33  1  0  0  0
 33 34  1  0  0  0
 34 35  2  0  0  0
 35 36  1  0  0  0
 36 37  2  0  0  0
 37 38  1  0  0  0
 38 39  2  0  0  0
  5  6  1  0  0  0
  6  7  1  0  0  0
  7  8  2  0  0  0
  7 10  1  0  0  0
 10 26  1  0  0  0
 26 27  1  0  0  0
 27 28  2  0  0  0
 28 29  1  0  0  0
 29 30  2  0  0  0
 30 31  1  0  0  0
 31 32  2  0  0  0
 10 11  1  0  0  0
 11 12  1  0  0  0
 12 13  2  0  0  0
 12 15  1  0  0  0
 15 16  1  0  0  0
 15 19  1  0  0  0
 19 20  1  0  0  0
 20 21  2  0  0  0
 21 22  1  0  0  0
 22 23  2  0  0  0
 23 24  1  0  0  0
 24 25  2  0  0  0
 45 46  1  0  0  0
 46 47  2  0  0  0
 46 48  1  0  0  0
 48 50  1  0  0  0
 50 56  1  0  0  0
 56 57  1  0  0  0
 57 58  2  0  0  0
 58 59  1  0  0  0
 59 60  2  0  0  0
 60 61  1  0  0  0
 61 62  2  0  0  0
 50 51  1  0  0  0
 51 52  1  0  0  0
 51 53  2  0  0  0
 39 34  1  0  0  0
 32 27  1  0  0  0
 25 20  1  0  0  0
 62 57  1  0  0  0
 41 44  1  0  0  0
 69 71  1  0  0  0
 69 72  1  0  0  0
  1  4  1  0  0  0
  6  9  1  0  0  0
 11 14  1  0  0  0
 16 17  1  0  0  0
 16 18  1  0  0  0
 48 49  1  0  0  0
 52 54  1  0  0  0
 52 55  1  0  0  0
M  END
> <minimizedAffinity>
-8.08464

> <CNNscore>
0.2228425592

> <CNNaffinity>
7.4630842209

> <CNN_VS>
1.6630927324

> <CNNaffinity_variance>
0.4070645869

$$$$
[H]c1c([H])c([H])c(C([H])([H])[C@@]([H])(C(=O)N([H])[C@]([H])(C(=O)N([H])[C@]([H])(C(=O)N([H])[C@]([H])(C(=O)N([H])[C@]([H])(C(=O)N([H])[C@]([H])(C(=O)N([H])[H])C([H])([H])c2c([H])c([H])c([H])c([H])c2[H])C([H])([H])C([H])(C([H])([H])[H])C([H])([H])[H])C([H])([H])C(=O)N([H])[H])C([H])([H])c2c([H])c([H])c([H])c([H])c2[H])C([H])([H])c2c([H])c([H])c([H])c([H])c2[H])N([H])[H])c([H])c1[H]


 72 75  0  0  0  0  0  0  0  0999 V2000
   -6.4739   -6.6854    7.6960 N   0  0  0  0  0  0  0  0  0  0  0  0
   -5.3927   -6.0547    7.0691 C   0  0  0  0  0  0  0  0  0  0  0  0
   -5.4623   -6.0243    5.8024 O   0  0  0  0  0  0  0  0  0  0  0  0
   -6.4786   -6.7700    8.7341 H   0  0  0  0  0  0  0  0  0  0  0  0
   -4.2156   -5.4487    7.6942 C   0  0  0  0  0  0  0  0  0  0  0  0
   -4.2133   -5.7367    9.1685 N   0  0  0  0  0  0  0  0  0  0  0  0
   -3.9480   -4.7237   10.1166 C   0  0  0  0  0  0  0  0  0  0  0  0
   -3.7293   -3.5661    9.5737 O   0  0  0  0  0  0  0  0  0  0  0  0
   -4.3903   -6.7139    9.4558 H   0  0  0  0  0  0  0  0  0  0  0  0
   -3.8887   -4.8436   11.5721 C   0  0  0  0  0  0  0  0  0  0  0  0
   -3.3109   -3.6003   12.1240 N   0  0  0  0  0  0  0  0  0  0  0  0
   -2.1140   -3.5311   12.8329 C   0  0  0  0  0  0  0  0  0  0  0  0
   -1.3557   -4.4946   13.1089 O   0  0  0  0  0  0  0  0  0  0  0  0
   -3.8580   -2.7372   11.9587 H   0  0  0  0  0  0  0  0  0  0  0  0
   -1.6496   -2.1950   13.3303 C   0  0  0  0  0  0  0  0  0  0  0  0
   -0.8864   -1.4784   12.3265 N   0  0  0  0  0  0  0  0  0  0  0  0
   -0.0724   -0.9492   12.7634 H   0  0  0  0  0  0  0  0  0  0  0  0
   -0.4550   -2.1969   11.6968 H   0  0  0  0  0  0  0  0  0  0  0  0
   -2.8577   -1.3771   13.7252 C   0  0  0  0  0  0  0  0  0  0  0  0
   -3.2570   -1.6490   15.1158 C   0  0  0  0  0  0  0  0  0  0  0  0
   -2.4326   -2.3641   15.9359 C   0  0  0  0  0  0  0  0  0  0  0  0
   -2.7607   -2.6445   17.2423 C   0  0  0  0  0  0  0  0  0  0  0  0
   -3.9728   -2.1791   17.7306 C   0  0  0  0  0  0  0  0  0  0  0  0
   -4.8165   -1.4499   16.8987 C   0  0  0  0  0  0  0  0  0  0  0  0
   -4.4521   -1.1890   15.5943 C   0  0  0  0  0  0  0  0  0  0  0  0
   -5.0903   -5.2130   12.3407 C   0  0  0  0  0  0  0  0  0  0  0  0
   -4.9600   -5.5341   13.7684 C   0  0  0  0  0  0  0  0  0  0  0  0
   -4.2265   -6.6035   14.2460 C   0  0  0  0  0  0  0  0  0  0  0  0
   -4.1297   -6.8538   15.5931 C   0  0  0  0  0  0  0  0  0  0  0  0
   -4.7566   -6.0518   16.5375 C   0  0  0  0  0  0  0  0  0  0  0  0
   -5.4852   -4.9905   16.0624 C   0  0  0  0  0  0  0  0  0  0  0  0
   -5.5919   -4.7277   14.7199 C   0  0  0  0  0  0  0  0  0  0  0  0
   -2.9051   -5.8830    7.1583 C   0  0  0  0  0  0  0  0  0  0  0  0
   -2.2483   -5.1040    6.1332 C   0  0  0  0  0  0  0  0  0  0  0  0
   -2.2129   -5.4854    4.7964 C   0  0  0  0  0  0  0  0  0  0  0  0
   -1.6191   -4.6748    3.8588 C   0  0  0  0  0  0  0  0  0  0  0  0
   -1.0356   -3.4629    4.1721 C   0  0  0  0  0  0  0  0  0  0  0  0
   -1.0632   -3.0703    5.4946 C   0  0  0  0  0  0  0  0  0  0  0  0
   -1.6565   -3.8803    6.4339 C   0  0  0  0  0  0  0  0  0  0  0  0
   -7.6085   -7.2886    7.0328 C   0  0  0  0  0  0  0  0  0  0  0  0
   -9.6995   -7.6849    8.3867 N   0  0  0  0  0  0  0  0  0  0  0  0
   -8.9100   -6.8252    7.5552 C   0  0  0  0  0  0  0  0  0  0  0  0
   -9.4174   -5.7002    7.3332 O   0  0  0  0  0  0  0  0  0  0  0  0
   -9.2839   -8.6020    8.6147 H   0  0  0  0  0  0  0  0  0  0  0  0
  -10.9676   -7.3572    8.9173 C   0  0  0  0  0  0  0  0  0  0  0  0
  -12.0075   -7.7626    7.9091 C   0  0  0  0  0  0  0  0  0  0  0  0
  -11.7146   -8.6634    7.0973 O   0  0  0  0  0  0  0  0  0  0  0  0
  -13.2772   -7.1839    7.8439 N   0  0  0  0  0  0  0  0  0  0  0  0
  -13.5472   -6.4247    8.4881 H   0  0  0  0  0  0  0  0  0  0  0  0
  -14.2442   -7.6292    6.8627 C   0  0  0  0  0  0  0  0  0  0  0  0
  -14.1793   -9.0986    6.6913 C   0  0  0  0  0  0  0  0  0  0  0  0
  -14.4207   -9.9966    7.7545 N   0  0  0  0  0  0  0  0  0  0  0  0
  -13.8975   -9.5576    5.5592 O   0  0  0  0  0  0  0  0  0  0  0  0
  -14.3021   -9.7263    8.7768 H   0  0  0  0  0  0  0  0  0  0  0  0
  -14.7290  -10.9626    7.5264 H   0  0  0  0  0  0  0  0  0  0  0  0
  -14.1440   -6.8666    5.5782 C   0  0  0  0  0  0  0  0  0  0  0  0
  -15.4626   -6.5151    5.0165 C   0  0  0  0  0  0  0  0  0  0  0  0
  -16.3070   -7.4211    4.4167 C   0  0  0  0  0  0  0  0  0  0  0  0
  -17.5438   -7.1016    3.8897 C   0  0  0  0  0  0  0  0  0  0  0  0
  -17.9928   -5.8015    3.9526 C   0  0  0  0  0  0  0  0  0  0  0  0
  -17.1771   -4.8629    4.5464 C   0  0  0  0  0  0  0  0  0  0  0  0
  -15.9505   -5.2053    5.0625 C   0  0  0  0  0  0  0  0  0  0  0  0
  -11.2331   -6.0775    9.5560 C   0  0  0  0  0  0  0  0  0  0  0  0
  -11.4930   -5.6483   11.9592 C   0  0  0  0  0  0  0  0  0  0  0  0
  -12.2406   -5.9473   10.6284 C   0  0  0  0  0  0  0  0  0  0  0  0
  -13.1031   -4.7214   10.4257 C   0  0  0  0  0  0  0  0  0  0  0  0
   -7.4864   -8.7224    6.7186 C   0  0  0  0  0  0  0  0  0  0  0  0
   -8.0908   -9.6960    7.6020 C   0  0  0  0  0  0  0  0  0  0  0  0
   -9.2265  -10.4374    7.2345 N   0  0  0  0  0  0  0  0  0  0  0  0
   -7.6030   -9.8979    8.7371 O   0  0  0  0  0  0  0  0  0  0  0  0
   -9.1412  -11.4350    6.9818 H   0  0  0  0  0  0  0  0  0  0  0  0
  -10.1492   -9.9189    7.2385 H   0  0  0  0  0  0  0  0  0  0  0  0
 64 65  1  0  0  0
 65 66  1  0  0  0
 65 63  1  0  0  0
 63 45  1  0  0  0
 45 41  1  0  0  0
 41 42  1  0  0  0
 42 43  2  0  0  0
 42 40  1  0  0  0
 40 67  1  0  0  0
 67 68  1  0  0  0
 68 69  1  0  0  0
 68 70  2  0  0  0
 40  1  1  0  0  0
  1  2  1  0  0  0
  2  3  2  0  0  0
  2  5  1  0  0  0
  5 33  1  0  0  0
 33 34  1  0  0  0
 34 35  2  0  0  0
 35 36  1  0  0  0
 36 37  2  0  0  0
 37 38  1  0  0  0
 38 39  2  0  0  0
  5  6  1  0  0  0
  6  7  1  0  0  0
  7  8  2  0  0  0
  7 10  1  0  0  0
 10 26  1  0  0  0
 26 27  1  0  0  0
 27 28  2  0  0  0
 28 29  1  0  0  0
 29 30  2  0  0  0
 30 31  1  0  0  0
 31 32  2  0  0  0
 10 11  1  0  0  0
 11 12  1  0  0  0
 12 13  2  0  0  0
 12 15  1  0  0  0
 15 16  1  0  0  0
 15 19  1  0  0  0
 19 20  1  0  0  0
 20 21  2  0  0  0
 21 22  1  0  0  0
 22 23  2  0  0  0
 23 24  1  0  0  0
 24 25  2  0  0  0
 45 46  1  0  0  0
 46 47  2  0  0  0
 46 48  1  0  0  0
 48 50  1  0  0  0
 50 56  1  0  0  0
 56 57  1  0  0  0
 57 58  2  0  0  0
 58 59  1  0  0  0
 59 60  2  0  0  0
 60 61  1  0  0  0
 61 62  2  0  0  0
 50 51  1  0  0  0
 51 52  1  0  0  0
 51 53  2  0  0  0
 39 34  1  0  0  0
 32 27  1  0  0  0
 25 20  1  0  0  0
 62 57  1  0  0  0
 41 44  1  0  0  0
 69 71  1  0  0  0
 69 72  1  0  0  0
  1  4  1  0  0  0
  6  9  1  0  0  0
 11 14  1  0  0  0
 16 17  1  0  0  0
 16 18  1  0  0  0
 48 49  1  0  0  0
 52 54  1  0  0  0
 52 55  1  0  0  0
M  END
> <minimizedAffinity>
-7.89809

> <CNNscore>
0.2116383165

> <CNNaffinity>
7.2544736862

> <CNN_VS>
1.5353245735

> <CNNaffinity_variance>
0.5080595016

$$$$
[H]c1c([H])c([H])c(C([H])([H])[C@@]([H])(C(=O)N([H])[C@]([H])(C(=O)N([H])[C@]([H])(C(=O)N([H])[C@]([H])(C(=O)N([H])[C@]([H])(C(=O)N([H])[C@]([H])(C(=O)N([H])[H])C([H])([H])c2c([H])c([H])c([H])c([H])c2[H])C([H])([H])C([H])(C([H])([H])[H])C([H])([H])[H])C([H])([H])C(=O)N([H])[H])C([H])([H])c2c([H])c([H])c([H])c([H])c2[H])C([H])([H])c2c([H])c([H])c([H])c([H])c2[H])N([H])[H])c([H])c1[H]


 72 75  0  0  0  0  0  0  0  0999 V2000
   -6.6851   -7.0577    7.1550 N   0  0  0  0  0  0  0  0  0  0  0  0
   -5.7715   -6.4323    6.2983 C   0  0  0  0  0  0  0  0  0  0  0  0
   -6.1802   -6.2896    5.1054 O   0  0  0  0  0  0  0  0  0  0  0  0
   -6.4139   -7.2310    8.1456 H   0  0  0  0  0  0  0  0  0  0  0  0
   -4.4277   -5.9442    6.6134 C   0  0  0  0  0  0  0  0  0  0  0  0
   -4.3859   -4.4472    6.4957 N   0  0  0  0  0  0  0  0  0  0  0  0
   -3.2057   -3.7710    6.1145 C   0  0  0  0  0  0  0  0  0  0  0  0
   -2.2147   -4.5742    5.8792 O   0  0  0  0  0  0  0  0  0  0  0  0
   -5.2522   -3.9339    6.7297 H   0  0  0  0  0  0  0  0  0  0  0  0
   -2.9963   -2.3312    5.9744 C   0  0  0  0  0  0  0  0  0  0  0  0
   -2.3909   -2.0698    4.6518 N   0  0  0  0  0  0  0  0  0  0  0  0
   -2.9968   -2.3641    3.4326 C   0  0  0  0  0  0  0  0  0  0  0  0
   -4.1277   -2.8878    3.2708 O   0  0  0  0  0  0  0  0  0  0  0  0
   -1.4493   -1.6399    4.6643 H   0  0  0  0  0  0  0  0  0  0  0  0
   -2.2613   -2.0378    2.1674 C   0  0  0  0  0  0  0  0  0  0  0  0
   -2.4462   -0.6538    1.7747 N   0  0  0  0  0  0  0  0  0  0  0  0
   -2.5351   -0.5595    0.7179 H   0  0  0  0  0  0  0  0  0  0  0  0
   -3.3667   -0.3426    2.1677 H   0  0  0  0  0  0  0  0  0  0  0  0
   -0.7896   -2.3109    2.3768 C   0  0  0  0  0  0  0  0  0  0  0  0
   -0.4904   -3.7479    2.2644 C   0  0  0  0  0  0  0  0  0  0  0  0
    0.0837   -4.4099    3.3112 C   0  0  0  0  0  0  0  0  0  0  0  0
    0.3829   -5.7517    3.2550 C   0  0  0  0  0  0  0  0  0  0  0  0
    0.0861   -6.4437    2.0900 C   0  0  0  0  0  0  0  0  0  0  0  0
   -0.4989   -5.7734    1.0205 C   0  0  0  0  0  0  0  0  0  0  0  0
   -0.7840   -4.4273    1.1151 C   0  0  0  0  0  0  0  0  0  0  0  0
   -4.1056   -1.3891    6.2044 C   0  0  0  0  0  0  0  0  0  0  0  0
   -3.8038    0.0094    6.5382 C   0  0  0  0  0  0  0  0  0  0  0  0
   -2.7646    0.3888    7.3664 C   0  0  0  0  0  0  0  0  0  0  0  0
   -2.5200    1.7127    7.6387 C   0  0  0  0  0  0  0  0  0  0  0  0
   -3.2958    2.7304    7.0998 C   0  0  0  0  0  0  0  0  0  0  0  0
   -4.3278    2.3528    6.2780 C   0  0  0  0  0  0  0  0  0  0  0  0
   -4.5852    1.0346    5.9968 C   0  0  0  0  0  0  0  0  0  0  0  0
   -3.9125   -6.2950    7.9569 C   0  0  0  0  0  0  0  0  0  0  0  0
   -2.8381   -7.2523    8.0926 C   0  0  0  0  0  0  0  0  0  0  0  0
   -1.8318   -7.1333    9.0448 C   0  0  0  0  0  0  0  0  0  0  0  0
   -0.8669   -8.1052    9.1604 C   0  0  0  0  0  0  0  0  0  0  0  0
   -0.8337   -9.2320    8.3626 C   0  0  0  0  0  0  0  0  0  0  0  0
   -1.8261   -9.3647    7.4132 C   0  0  0  0  0  0  0  0  0  0  0  0
   -2.7919   -8.3932    7.2960 C   0  0  0  0  0  0  0  0  0  0  0  0
   -7.9984   -7.5420    6.7919 C   0  0  0  0  0  0  0  0  0  0  0  0
  -10.1314   -7.9553    8.0730 N   0  0  0  0  0  0  0  0  0  0  0  0
   -9.0692   -7.0713    7.6937 C   0  0  0  0  0  0  0  0  0  0  0  0
   -9.1451   -5.9198    8.1843 O   0  0  0  0  0  0  0  0  0  0  0  0
  -10.0690   -8.9204    7.7120 H   0  0  0  0  0  0  0  0  0  0  0  0
  -11.2186   -7.6048    8.9049 C   0  0  0  0  0  0  0  0  0  0  0  0
  -12.4412   -8.3118    8.3874 C   0  0  0  0  0  0  0  0  0  0  0  0
  -12.7205   -9.4269    8.8718 O   0  0  0  0  0  0  0  0  0  0  0  0
  -13.2733   -7.7788    7.4000 N   0  0  0  0  0  0  0  0  0  0  0  0
  -13.0630   -6.8673    6.9652 H   0  0  0  0  0  0  0  0  0  0  0  0
  -14.4485   -8.4979    6.9549 C   0  0  0  0  0  0  0  0  0  0  0  0
  -14.2510   -9.0309    5.5877 C   0  0  0  0  0  0  0  0  0  0  0  0
  -15.3275   -9.2706    4.7052 N   0  0  0  0  0  0  0  0  0  0  0  0
  -13.0833   -9.2789    5.2044 O   0  0  0  0  0  0  0  0  0  0  0  0
  -16.3224   -9.4420    5.0414 H   0  0  0  0  0  0  0  0  0  0  0  0
  -15.1379   -9.2777    3.6833 H   0  0  0  0  0  0  0  0  0  0  0  0
  -15.7016   -7.6943    7.1144 C   0  0  0  0  0  0  0  0  0  0  0  0
  -15.8545   -6.6591    6.0739 C   0  0  0  0  0  0  0  0  0  0  0  0
  -14.8272   -5.8558    5.6345 C   0  0  0  0  0  0  0  0  0  0  0  0
  -14.9605   -4.8854    4.6598 C   0  0  0  0  0  0  0  0  0  0  0  0
  -16.1867   -4.6827    4.0673 C   0  0  0  0  0  0  0  0  0  0  0  0
  -17.2420   -5.4675    4.4786 C   0  0  0  0  0  0  0  0  0  0  0  0
  -17.0845   -6.4257    5.4509 C   0  0  0  0  0  0  0  0  0  0  0  0
  -11.4635   -6.2333    9.3231 C   0  0  0  0  0  0  0  0  0  0  0  0
  -11.6231   -5.7050   11.7153 C   0  0  0  0  0  0  0  0  0  0  0  0
  -12.4247   -5.9171   10.3994 C   0  0  0  0  0  0  0  0  0  0  0  0
  -13.0854   -4.5761   10.1692 C   0  0  0  0  0  0  0  0  0  0  0  0
   -8.0695   -8.9434    6.3439 C   0  0  0  0  0  0  0  0  0  0  0  0
   -8.4055   -9.9770    7.2989 C   0  0  0  0  0  0  0  0  0  0  0  0
   -7.5258  -10.3641    8.3239 N   0  0  0  0  0  0  0  0  0  0  0  0
   -9.5106  -10.5606    7.2256 O   0  0  0  0  0  0  0  0  0  0  0  0
   -7.7019  -10.0783    9.3006 H   0  0  0  0  0  0  0  0  0  0  0  0
   -6.6967  -10.9551    8.0351 H   0  0  0  0  0  0  0  0  0  0  0  0
 64 65  1  0  0  0
 65 66  1  0  0  0
 65 63  1  0  0  0
 63 45  1  0  0  0
 45 41  1  0  0  0
 41 42  1  0  0  0
 42 43  2  0  0  0
 42 40  1  0  0  0
 40 67  1  0  0  0
 67 68  1  0  0  0
 68 69  1  0  0  0
 68 70  2  0  0  0
 40  1  1  0  0  0
  1  2  1  0  0  0
  2  3  2  0  0  0
  2  5  1  0  0  0
  5 33  1  0  0  0
 33 34  1  0  0  0
 34 35  2  0  0  0
 35 36  1  0  0  0
 36 37  2  0  0  0
 37 38  1  0  0  0
 38 39  2  0  0  0
  5  6  1  0  0  0
  6  7  1  0  0  0
  7  8  2  0  0  0
  7 10  1  0  0  0
 10 26  1  0  0  0
 26 27  1  0  0  0
 27 28  2  0  0  0
 28 29  1  0  0  0
 29 30  2  0  0  0
 30 31  1  0  0  0
 31 32  2  0  0  0
 10 11  1  0  0  0
 11 12  1  0  0  0
 12 13  2  0  0  0
 12 15  1  0  0  0
 15 16  1  0  0  0
 15 19  1  0  0  0
 19 20  1  0  0  0
 20 21  2  0  0  0
 21 22  1  0  0  0
 22 23  2  0  0  0
 23 24  1  0  0  0
 24 25  2  0  0  0
 45 46  1  0  0  0
 46 47  2  0  0  0
 46 48  1  0  0  0
 48 50  1  0  0  0
 50 56  1  0  0  0
 56 57  1  0  0  0
 57 58  2  0  0  0
 58 59  1  0  0  0
 59 60  2  0  0  0
 60 61  1  0  0  0
 61 62  2  0  0  0
 50 51  1  0  0  0
 51 52  1  0  0  0
 51 53  2  0  0  0
 39 34  1  0  0  0
 32 27  1  0  0  0
 25 20  1  0  0  0
 62 57  1  0  0  0
 41 44  1  0  0  0
 69 71  1  0  0  0
 69 72  1  0  0  0
  1  4  1  0  0  0
  6  9  1  0  0  0
 11 14  1  0  0  0
 16 17  1  0  0  0
 16 18  1  0  0  0
 48 49  1  0  0  0
 52 54  1  0  0  0
 52 55  1  0  0  0
M  END
> <minimizedAffinity>
-7.78579

> <CNNscore>
0.2098880857

> <CNNaffinity>
7.5782155991

> <CNN_VS>
1.5905771255

> <CNNaffinity_variance>
0.0898564830

$$$$
[H]c1c([H])c([H])c(C([H])([H])[C@@]([H])(C(=O)N([H])[C@]([H])(C(=O)N([H])[C@]([H])(C(=O)N([H])[C@]([H])(C(=O)N([H])[C@]([H])(C(=O)N([H])[C@]([H])(C(=O)N([H])[H])C([H])([H])c2c([H])c([H])c([H])c([H])c2[H])C([H])([H])C([H])(C([H])([H])[H])C([H])([H])[H])C([H])([H])C(=O)N([H])[H])C([H])([H])c2c([H])c([H])c([H])c([H])c2[H])C([H])([H])c2c([H])c([H])c([H])c([H])c2[H])N([H])[H])c([H])c1[H]


 72 75  0  0  0  0  0  0  0  0999 V2000
   -6.5243   -7.1934    7.1182 N   0  0  0  0  0  0  0  0  0  0  0  0
   -5.8200   -6.4697    6.1487 C   0  0  0  0  0  0  0  0  0  0  0  0
   -6.4207   -6.3550    5.0369 O   0  0  0  0  0  0  0  0  0  0  0  0
   -6.0872   -7.3500    8.0505 H   0  0  0  0  0  0  0  0  0  0  0  0
   -4.4974   -5.8531    6.2672 C   0  0  0  0  0  0  0  0  0  0  0  0
   -4.5285   -4.4619    5.7013 N   0  0  0  0  0  0  0  0  0  0  0  0
   -3.5926   -4.0404    4.7308 C   0  0  0  0  0  0  0  0  0  0  0  0
   -2.7516   -4.9708    4.3998 O   0  0  0  0  0  0  0  0  0  0  0  0
   -5.2497   -3.8207    6.0720 H   0  0  0  0  0  0  0  0  0  0  0  0
   -3.4761   -2.7266    4.1010 C   0  0  0  0  0  0  0  0  0  0  0  0
   -3.5742   -2.8961    2.6361 N   0  0  0  0  0  0  0  0  0  0  0  0
   -2.6125   -2.4678    1.7242 C   0  0  0  0  0  0  0  0  0  0  0  0
   -1.5351   -1.8818    1.9989 O   0  0  0  0  0  0  0  0  0  0  0  0
   -4.4300   -3.3670    2.2934 H   0  0  0  0  0  0  0  0  0  0  0  0
   -2.8474   -2.7127    0.2637 C   0  0  0  0  0  0  0  0  0  0  0  0
   -2.0164   -3.7865   -0.2462 N   0  0  0  0  0  0  0  0  0  0  0  0
   -1.6686   -3.5736   -1.2297 H   0  0  0  0  0  0  0  0  0  0  0  0
   -1.1602   -3.8263    0.3572 H   0  0  0  0  0  0  0  0  0  0  0  0
   -4.3039   -3.0601    0.0577 C   0  0  0  0  0  0  0  0  0  0  0  0
   -4.9765   -2.0651   -0.7937 C   0  0  0  0  0  0  0  0  0  0  0  0
   -5.6667   -2.4681   -1.9004 C   0  0  0  0  0  0  0  0  0  0  0  0
   -6.3115   -1.5773   -2.7273 C   0  0  0  0  0  0  0  0  0  0  0  0
   -6.2506   -0.2272   -2.4150 C   0  0  0  0  0  0  0  0  0  0  0  0
   -5.5483    0.1885   -1.2883 C   0  0  0  0  0  0  0  0  0  0  0  0
   -4.9148   -0.7352   -0.4834 C   0  0  0  0  0  0  0  0  0  0  0  0
   -4.3424   -1.6138    4.5281 C   0  0  0  0  0  0  0  0  0  0  0  0
   -4.0798   -0.2614    4.0182 C   0  0  0  0  0  0  0  0  0  0  0  0
   -4.8206    0.3326    3.0140 C   0  0  0  0  0  0  0  0  0  0  0  0
   -4.5383    1.6049    2.5803 C   0  0  0  0  0  0  0  0  0  0  0  0
   -3.5041    2.3552    3.1240 C   0  0  0  0  0  0  0  0  0  0  0  0
   -2.7687    1.7645    4.1205 C   0  0  0  0  0  0  0  0  0  0  0  0
   -3.0380    0.4944    4.5643 C   0  0  0  0  0  0  0  0  0  0  0  0
   -3.9505   -5.7582    7.6402 C   0  0  0  0  0  0  0  0  0  0  0  0
   -2.9050   -6.6605    8.0667 C   0  0  0  0  0  0  0  0  0  0  0  0
   -2.0305   -6.3701    9.1081 C   0  0  0  0  0  0  0  0  0  0  0  0
   -1.0910   -7.2922    9.5032 C   0  0  0  0  0  0  0  0  0  0  0  0
   -0.9570   -8.5322    8.9103 C   0  0  0  0  0  0  0  0  0  0  0  0
   -1.8181   -8.8354    7.8756 C   0  0  0  0  0  0  0  0  0  0  0  0
   -2.7583   -7.9140    7.4789 C   0  0  0  0  0  0  0  0  0  0  0  0
   -7.8247   -7.8026    6.9478 C   0  0  0  0  0  0  0  0  0  0  0  0
  -10.1974   -7.4532    7.7291 N   0  0  0  0  0  0  0  0  0  0  0  0
   -8.7906   -7.4323    8.0019 C   0  0  0  0  0  0  0  0  0  0  0  0
   -8.4881   -7.0849    9.1682 O   0  0  0  0  0  0  0  0  0  0  0  0
  -10.4718   -7.7734    6.7868 H   0  0  0  0  0  0  0  0  0  0  0  0
  -11.2065   -7.0930    8.6504 C   0  0  0  0  0  0  0  0  0  0  0  0
  -12.4509   -7.8587    8.2933 C   0  0  0  0  0  0  0  0  0  0  0  0
  -12.7903   -8.8017    9.0361 O   0  0  0  0  0  0  0  0  0  0  0  0
  -13.2393   -7.5617    7.1790 N   0  0  0  0  0  0  0  0  0  0  0  0
  -12.9791   -6.8001    6.5337 H   0  0  0  0  0  0  0  0  0  0  0  0
  -14.4382   -8.3227    6.8964 C   0  0  0  0  0  0  0  0  0  0  0  0
  -14.3408   -8.9839    5.5751 C   0  0  0  0  0  0  0  0  0  0  0  0
  -15.4675   -9.1993    4.7510 N   0  0  0  0  0  0  0  0  0  0  0  0
  -13.2147   -9.3666    5.1785 O   0  0  0  0  0  0  0  0  0  0  0  0
  -16.4596   -9.2523    5.1318 H   0  0  0  0  0  0  0  0  0  0  0  0
  -15.3190   -9.3090    3.7281 H   0  0  0  0  0  0  0  0  0  0  0  0
  -15.6830   -7.5102    7.0746 C   0  0  0  0  0  0  0  0  0  0  0  0
  -15.8712   -6.5090    6.0068 C   0  0  0  0  0  0  0  0  0  0  0  0
  -14.8761   -5.6722    5.5562 C   0  0  0  0  0  0  0  0  0  0  0  0
  -15.0425   -4.7332    4.5560 C   0  0  0  0  0  0  0  0  0  0  0  0
  -16.2706   -4.5999    3.9481 C   0  0  0  0  0  0  0  0  0  0  0  0
  -17.2943   -5.4201    4.3700 C   0  0  0  0  0  0  0  0  0  0  0  0
  -17.1042   -6.3459    5.3676 C   0  0  0  0  0  0  0  0  0  0  0  0
  -11.4533   -5.7100    9.0277 C   0  0  0  0  0  0  0  0  0  0  0  0
  -13.6071   -5.5917   10.2000 C   0  0  0  0  0  0  0  0  0  0  0  0
  -12.0733   -5.3650   10.3234 C   0  0  0  0  0  0  0  0  0  0  0  0
  -11.6596   -6.3365   11.4063 C   0  0  0  0  0  0  0  0  0  0  0  0
   -7.8274   -9.2064    6.5016 C   0  0  0  0  0  0  0  0  0  0  0  0
   -8.4370  -10.2158    7.3401 C   0  0  0  0  0  0  0  0  0  0  0  0
   -9.7085  -10.7479    7.0672 N   0  0  0  0  0  0  0  0  0  0  0  0
   -7.8295  -10.6409    8.3487 O   0  0  0  0  0  0  0  0  0  0  0  0
   -9.8053  -11.7006    6.6805 H   0  0  0  0  0  0  0  0  0  0  0  0
  -10.5363  -10.1247    7.2830 H   0  0  0  0  0  0  0  0  0  0  0  0
 64 65  1  0  0  0
 65 66  1  0  0  0
 65 63  1  0  0  0
 63 45  1  0  0  0
 45 41  1  0  0  0
 41 42  1  0  0  0
 42 43  2  0  0  0
 42 40  1  0  0  0
 40 67  1  0  0  0
 67 68  1  0  0  0
 68 69  1  0  0  0
 68 70  2  0  0  0
 40  1  1  0  0  0
  1  2  1  0  0  0
  2  3  2  0  0  0
  2  5  1  0  0  0
  5 33  1  0  0  0
 33 34  1  0  0  0
 34 35  2  0  0  0
 35 36  1  0  0  0
 36 37  2  0  0  0
 37 38  1  0  0  0
 38 39  2  0  0  0
  5  6  1  0  0  0
  6  7  1  0  0  0
  7  8  2  0  0  0
  7 10  1  0  0  0
 10 26  1  0  0  0
 26 27  1  0  0  0
 27 28  2  0  0  0
 28 29  1  0  0  0
 29 30  2  0  0  0
 30 31  1  0  0  0
 31 32  2  0  0  0
 10 11  1  0  0  0
 11 12  1  0  0  0
 12 13  2  0  0  0
 12 15  1  0  0  0
 15 16  1  0  0  0
 15 19  1  0  0  0
 19 20  1  0  0  0
 20 21  2  0  0  0
 21 22  1  0  0  0
 22 23  2  0  0  0
 23 24  1  0  0  0
 24 25  2  0  0  0
 45 46  1  0  0  0
 46 47  2  0  0  0
 46 48  1  0  0  0
 48 50  1  0  0  0
 50 56  1  0  0  0
 56 57  1  0  0  0
 57 58  2  0  0  0
 58 59  1  0  0  0
 59 60  2  0  0  0
 60 61  1  0  0  0
 61 62  2  0  0  0
 50 51  1  0  0  0
 51 52  1  0  0  0
 51 53  2  0  0  0
 39 34  1  0  0  0
 32 27  1  0  0  0
 25 20  1  0  0  0
 62 57  1  0  0  0
 41 44  1  0  0  0
 69 71  1  0  0  0
 69 72  1  0  0  0
  1  4  1  0  0  0
  6  9  1  0  0  0
 11 14  1  0  0  0
 16 17  1  0  0  0
 16 18  1  0  0  0
 48 49  1  0  0  0
 52 54  1  0  0  0
 52 55  1  0  0  0
M  END
> <minimizedAffinity>
-7.94758

> <CNNscore>
0.1916191429

> <CNNaffinity>
7.4291000366

> <CNN_VS>
1.4235577583

> <CNNaffinity_variance>
0.1940233856

$$$$
[H]c1c([H])c([H])c(C([H])([H])[C@@]([H])(C(=O)N([H])[C@]([H])(C(=O)N([H])[C@]([H])(C(=O)N([H])[C@]([H])(C(=O)N([H])[C@]([H])(C(=O)N([H])[C@]([H])(C(=O)N([H])[H])C([H])([H])c2c([H])c([H])c([H])c([H])c2[H])C([H])([H])C([H])(C([H])([H])[H])C([H])([H])[H])C([H])([H])C(=O)N([H])[H])C([H])([H])c2c([H])c([H])c([H])c([H])c2[H])C([H])([H])c2c([H])c([H])c([H])c([H])c2[H])N([H])[H])c([H])c1[H]


 72 75  0  0  0  0  0  0  0  0999 V2000
   -6.9128   -7.2495    7.6355 N   0  0  0  0  0  0  0  0  0  0  0  0
   -5.8126   -6.7072    6.9608 C   0  0  0  0  0  0  0  0  0  0  0  0
   -6.0093   -6.4819    5.7275 O   0  0  0  0  0  0  0  0  0  0  0  0
   -6.8224   -7.4831    8.6464 H   0  0  0  0  0  0  0  0  0  0  0  0
   -4.4907   -6.3867    7.5021 C   0  0  0  0  0  0  0  0  0  0  0  0
   -4.6232   -5.8769    8.9089 N   0  0  0  0  0  0  0  0  0  0  0  0
   -3.8038   -4.8338    9.3947 C   0  0  0  0  0  0  0  0  0  0  0  0
   -2.9709   -4.3877    8.5059 O   0  0  0  0  0  0  0  0  0  0  0  0
   -5.3236   -6.3403    9.5117 H   0  0  0  0  0  0  0  0  0  0  0  0
   -3.7935   -4.2429   10.7315 C   0  0  0  0  0  0  0  0  0  0  0  0
   -4.0331   -2.7900   10.6062 N   0  0  0  0  0  0  0  0  0  0  0  0
   -3.0325   -1.8212   10.5978 C   0  0  0  0  0  0  0  0  0  0  0  0
   -1.7964   -2.0270   10.6948 O   0  0  0  0  0  0  0  0  0  0  0  0
   -5.0241   -2.5024   10.5233 H   0  0  0  0  0  0  0  0  0  0  0  0
   -3.4273   -0.3813   10.4595 C   0  0  0  0  0  0  0  0  0  0  0  0
   -3.3638    0.3220   11.7264 N   0  0  0  0  0  0  0  0  0  0  0  0
   -4.1650    1.0163   11.8246 H   0  0  0  0  0  0  0  0  0  0  0  0
   -3.5088   -0.3903   12.4816 H   0  0  0  0  0  0  0  0  0  0  0  0
   -2.5017    0.2829    9.4663 C   0  0  0  0  0  0  0  0  0  0  0  0
   -3.2423    0.7853    8.2974 C   0  0  0  0  0  0  0  0  0  0  0  0
   -3.2708    2.1239    8.0307 C   0  0  0  0  0  0  0  0  0  0  0  0
   -3.9486    2.6424    6.9515 C   0  0  0  0  0  0  0  0  0  0  0  0
   -4.6215    1.7651    6.1138 C   0  0  0  0  0  0  0  0  0  0  0  0
   -4.5955    0.4001    6.3815 C   0  0  0  0  0  0  0  0  0  0  0  0
   -3.9045   -0.0816    7.4736 C   0  0  0  0  0  0  0  0  0  0  0  0
   -4.6476   -4.7938   11.7983 C   0  0  0  0  0  0  0  0  0  0  0  0
   -4.0232   -5.4819   12.9362 C   0  0  0  0  0  0  0  0  0  0  0  0
   -4.7110   -6.3239   13.7894 C   0  0  0  0  0  0  0  0  0  0  0  0
   -4.0761   -6.9504   14.8339 C   0  0  0  0  0  0  0  0  0  0  0  0
   -2.7218   -6.7738   15.0845 C   0  0  0  0  0  0  0  0  0  0  0  0
   -2.0398   -5.9371   14.2372 C   0  0  0  0  0  0  0  0  0  0  0  0
   -2.6598   -5.3037   13.1897 C   0  0  0  0  0  0  0  0  0  0  0  0
   -3.5163   -7.5017    7.5274 C   0  0  0  0  0  0  0  0  0  0  0  0
   -2.6180   -7.7032    6.4132 C   0  0  0  0  0  0  0  0  0  0  0  0
   -2.1401   -6.6614    5.6259 C   0  0  0  0  0  0  0  0  0  0  0  0
   -1.2449   -6.9107    4.6134 C   0  0  0  0  0  0  0  0  0  0  0  0
   -0.7735   -8.1750    4.3191 C   0  0  0  0  0  0  0  0  0  0  0  0
   -1.2381   -9.2194    5.0920 C   0  0  0  0  0  0  0  0  0  0  0  0
   -2.1340   -8.9718    6.1051 C   0  0  0  0  0  0  0  0  0  0  0  0
   -8.1968   -7.5682    7.0516 C   0  0  0  0  0  0  0  0  0  0  0  0
  -10.3768   -8.0158    8.2388 N   0  0  0  0  0  0  0  0  0  0  0  0
   -9.3423   -7.1001    7.8579 C   0  0  0  0  0  0  0  0  0  0  0  0
   -9.5078   -5.9247    8.2621 O   0  0  0  0  0  0  0  0  0  0  0  0
  -10.2422   -8.9977    7.9500 H   0  0  0  0  0  0  0  0  0  0  0  0
  -11.5281   -7.6730    8.9830 C   0  0  0  0  0  0  0  0  0  0  0  0
  -12.7004   -8.3938    8.3759 C   0  0  0  0  0  0  0  0  0  0  0  0
  -12.9348   -9.5569    8.7614 O   0  0  0  0  0  0  0  0  0  0  0  0
  -13.5340   -7.8231    7.4112 N   0  0  0  0  0  0  0  0  0  0  0  0
  -13.3594   -6.8701    7.0569 H   0  0  0  0  0  0  0  0  0  0  0  0
  -14.6601   -8.5596    6.8766 C   0  0  0  0  0  0  0  0  0  0  0  0
  -14.3593   -9.0649    5.5177 C   0  0  0  0  0  0  0  0  0  0  0  0
  -15.3678   -9.3057    4.5585 N   0  0  0  0  0  0  0  0  0  0  0  0
  -13.1638   -9.2875    5.2125 O   0  0  0  0  0  0  0  0  0  0  0  0
  -16.3806   -9.4988    4.8217 H   0  0  0  0  0  0  0  0  0  0  0  0
  -15.1078   -9.2915    3.5523 H   0  0  0  0  0  0  0  0  0  0  0  0
  -15.9389   -7.7860    6.9637 C   0  0  0  0  0  0  0  0  0  0  0  0
  -16.0110   -6.6863    5.9822 C   0  0  0  0  0  0  0  0  0  0  0  0
  -14.9442   -5.8824    5.6516 C   0  0  0  0  0  0  0  0  0  0  0  0
  -15.0018   -4.8518    4.7328 C   0  0  0  0  0  0  0  0  0  0  0  0
  -16.1877   -4.5846    4.0863 C   0  0  0  0  0  0  0  0  0  0  0  0
  -17.2805   -5.3678    4.3886 C   0  0  0  0  0  0  0  0  0  0  0  0
  -17.1984   -6.3865    5.3070 C   0  0  0  0  0  0  0  0  0  0  0  0
  -11.8176   -6.3025    9.3752 C   0  0  0  0  0  0  0  0  0  0  0  0
  -11.5606   -5.6727   11.7340 C   0  0  0  0  0  0  0  0  0  0  0  0
  -12.5787   -5.9983   10.6041 C   0  0  0  0  0  0  0  0  0  0  0  0
  -13.3661   -4.7151   10.4590 C   0  0  0  0  0  0  0  0  0  0  0  0
   -8.3135   -8.9007    6.4347 C   0  0  0  0  0  0  0  0  0  0  0  0
   -8.6485  -10.0388    7.2629 C   0  0  0  0  0  0  0  0  0  0  0  0
   -9.7686  -10.8475    7.0066 N   0  0  0  0  0  0  0  0  0  0  0  0
   -7.9313  -10.3283    8.2472 O   0  0  0  0  0  0  0  0  0  0  0  0
   -9.6521  -11.7896    6.6001 H   0  0  0  0  0  0  0  0  0  0  0  0
  -10.7123  -10.4380    7.2557 H   0  0  0  0  0  0  0  0  0  0  0  0
 64 65  1  0  0  0
 65 66  1  0  0  0
 65 63  1  0  0  0
 63 45  1  0  0  0
 45 41  1  0  0  0
 41 42  1  0  0  0
 42 43  2  0  0  0
 42 40  1  0  0  0
 40 67  1  0  0  0
 67 68  1  0  0  0
 68 69  1  0  0  0
 68 70  2  0  0  0
 40  1  1  0  0  0
  1  2  1  0  0  0
  2  3  2  0  0  0
  2  5  1  0  0  0
  5 33  1  0  0  0
 33 34  1  0  0  0
 34 35  2  0  0  0
 35 36  1  0  0  0
 36 37  2  0  0  0
 37 38  1  0  0  0
 38 39  2  0  0  0
  5  6  1  0  0  0
  6  7  1  0  0  0
  7  8  2  0  0  0
  7 10  1  0  0  0
 10 26  1  0  0  0
 26 27  1  0  0  0
 27 28  2  0  0  0
 28 29  1  0  0  0
 29 30  2  0  0  0
 30 31  1  0  0  0
 31 32  2  0  0  0
 10 11  1  0  0  0
 11 12  1  0  0  0
 12 13  2  0  0  0
 12 15  1  0  0  0
 15 16  1  0  0  0
 15 19  1  0  0  0
 19 20  1  0  0  0
 20 21  2  0  0  0
 21 22  1  0  0  0
 22 23  2  0  0  0
 23 24  1  0  0  0
 24 25  2  0  0  0
 45 46  1  0  0  0
 46 47  2  0  0  0
 46 48  1  0  0  0
 48 50  1  0  0  0
 50 56  1  0  0  0
 56 57  1  0  0  0
 57 58  2  0  0  0
 58 59  1  0  0  0
 59 60  2  0  0  0
 60 61  1  0  0  0
 61 62  2  0  0  0
 50 51  1  0  0  0
 51 52  1  0  0  0
 51 53  2  0  0  0
 39 34  1  0  0  0
 32 27  1  0  0  0
 25 20  1  0  0  0
 62 57  1  0  0  0
 41 44  1  0  0  0
 69 71  1  0  0  0
 69 72  1  0  0  0
  1  4  1  0  0  0
  6  9  1  0  0  0
 11 14  1  0  0  0
 16 17  1  0  0  0
 16 18  1  0  0  0
 48 49  1  0  0  0
 52 54  1  0  0  0
 52 55  1  0  0  0
M  END
> <minimizedAffinity>
-8.80255

> <CNNscore>
0.1737613082

> <CNNaffinity>
7.3562874794

> <CNN_VS>
1.2782381773

> <CNNaffinity_variance>
0.6486424208

$$$$
[H]c1c([H])c([H])c(C([H])([H])[C@@]([H])(C(=O)N([H])[C@]([H])(C(=O)N([H])[C@]([H])(C(=O)N([H])[C@]([H])(C(=O)N([H])[C@]([H])(C(=O)N([H])[C@]([H])(C(=O)N([H])[H])C([H])([H])c2c([H])c([H])c([H])c([H])c2[H])C([H])([H])C([H])(C([H])([H])[H])C([H])([H])[H])C([H])([H])C(=O)N([H])[H])C([H])([H])c2c([H])c([H])c([H])c([H])c2[H])C([H])([H])c2c([H])c([H])c([H])c([H])c2[H])N([H])[H])c([H])c1[H]


 72 75  0  0  0  0  0  0  0  0999 V2000
   -2.8919   -3.0427    0.3577 N   0  0  0  0  0  0  0  0  0  0  0  0
   -3.2912   -1.7081    0.4960 C   0  0  0  0  0  0  0  0  0  0  0  0
   -2.5234   -1.0001    1.2168 O   0  0  0  0  0  0  0  0  0  0  0  0
   -3.4829   -3.6931   -0.2012 H   0  0  0  0  0  0  0  0  0  0  0  0
   -4.4702   -1.0553   -0.0760 C   0  0  0  0  0  0  0  0  0  0  0  0
   -4.3232    0.4370    0.0132 N   0  0  0  0  0  0  0  0  0  0  0  0
   -4.9576    1.1801    1.0334 C   0  0  0  0  0  0  0  0  0  0  0  0
   -5.6405    0.4391    1.8503 O   0  0  0  0  0  0  0  0  0  0  0  0
   -3.7573    0.8972   -0.7194 H   0  0  0  0  0  0  0  0  0  0  0  0
   -4.9314    2.6260    1.2455 C   0  0  0  0  0  0  0  0  0  0  0  0
   -5.8064    3.2654    0.2407 N   0  0  0  0  0  0  0  0  0  0  0  0
   -7.1983    3.2198    0.2606 C   0  0  0  0  0  0  0  0  0  0  0  0
   -7.9118    2.6392    1.1170 O   0  0  0  0  0  0  0  0  0  0  0  0
   -5.3222    3.7729   -0.5206 H   0  0  0  0  0  0  0  0  0  0  0  0
   -7.9559    3.9209   -0.8270 C   0  0  0  0  0  0  0  0  0  0  0  0
   -7.0688    4.5562   -1.7825 N   0  0  0  0  0  0  0  0  0  0  0  0
   -7.4556    5.4938   -2.1063 H   0  0  0  0  0  0  0  0  0  0  0  0
   -6.1769    4.7743   -1.2767 H   0  0  0  0  0  0  0  0  0  0  0  0
   -8.8270    2.9123   -1.5399 C   0  0  0  0  0  0  0  0  0  0  0  0
  -10.2556    3.1723   -1.2975 C   0  0  0  0  0  0  0  0  0  0  0  0
  -11.0138    2.2528   -0.6317 C   0  0  0  0  0  0  0  0  0  0  0  0
  -12.3523    2.4491   -0.3809 C   0  0  0  0  0  0  0  0  0  0  0  0
  -12.9391    3.6251   -0.8246 C   0  0  0  0  0  0  0  0  0  0  0  0
  -12.1706    4.5652   -1.5036 C   0  0  0  0  0  0  0  0  0  0  0  0
  -10.8312    4.3321   -1.7358 C   0  0  0  0  0  0  0  0  0  0  0  0
   -5.2137    3.1910    2.5768 C   0  0  0  0  0  0  0  0  0  0  0  0
   -4.1483    3.2164    3.5879 C   0  0  0  0  0  0  0  0  0  0  0  0
   -4.3876    3.1999    4.9489 C   0  0  0  0  0  0  0  0  0  0  0  0
   -3.3533    3.2156    5.8525 C   0  0  0  0  0  0  0  0  0  0  0  0
   -2.0248    3.2468    5.4500 C   0  0  0  0  0  0  0  0  0  0  0  0
   -1.7880    3.2637    4.0985 C   0  0  0  0  0  0  0  0  0  0  0  0
   -2.8103    3.2489    3.1833 C   0  0  0  0  0  0  0  0  0  0  0  0
   -4.7685   -1.3850   -1.4887 C   0  0  0  0  0  0  0  0  0  0  0  0
   -6.0722   -1.0931   -2.0402 C   0  0  0  0  0  0  0  0  0  0  0  0
   -6.3883   -1.2818   -3.3811 C   0  0  0  0  0  0  0  0  0  0  0  0
   -7.6622   -1.0372   -3.8352 C   0  0  0  0  0  0  0  0  0  0  0  0
   -8.6835   -0.6009   -3.0143 C   0  0  0  0  0  0  0  0  0  0  0  0
   -8.3856   -0.4095   -1.6807 C   0  0  0  0  0  0  0  0  0  0  0  0
   -7.1116   -0.6534   -1.2249 C   0  0  0  0  0  0  0  0  0  0  0  0
   -1.7253   -3.6488    0.9600 C   0  0  0  0  0  0  0  0  0  0  0  0
   -2.9164   -3.6910    3.1830 N   0  0  0  0  0  0  0  0  0  0  0  0
   -1.7036   -3.5467    2.4333 C   0  0  0  0  0  0  0  0  0  0  0  0
   -0.6804   -3.3364    3.1270 O   0  0  0  0  0  0  0  0  0  0  0  0
   -3.7655   -3.9033    2.6355 H   0  0  0  0  0  0  0  0  0  0  0  0
   -3.0172   -3.5849    4.5886 C   0  0  0  0  0  0  0  0  0  0  0  0
   -3.4630   -4.9193    5.1204 C   0  0  0  0  0  0  0  0  0  0  0  0
   -2.8216   -5.9311    4.7725 O   0  0  0  0  0  0  0  0  0  0  0  0
   -4.5513   -5.0751    5.9823 N   0  0  0  0  0  0  0  0  0  0  0  0
   -5.1146   -4.2625    6.2767 H   0  0  0  0  0  0  0  0  0  0  0  0
   -4.9220   -6.3842    6.4774 C   0  0  0  0  0  0  0  0  0  0  0  0
   -6.3867   -6.5828    6.3899 C   0  0  0  0  0  0  0  0  0  0  0  0
   -7.2622   -6.2376    7.4432 N   0  0  0  0  0  0  0  0  0  0  0  0
   -6.8624   -7.0778    5.3408 O   0  0  0  0  0  0  0  0  0  0  0  0
   -6.9466   -6.1681    8.4570 H   0  0  0  0  0  0  0  0  0  0  0  0
   -8.2573   -6.0416    7.2158 H   0  0  0  0  0  0  0  0  0  0  0  0
   -4.3554   -6.6604    7.8353 C   0  0  0  0  0  0  0  0  0  0  0  0
   -3.1552   -7.5180    7.7915 C   0  0  0  0  0  0  0  0  0  0  0  0
   -3.0314   -8.6230    6.9808 C   0  0  0  0  0  0  0  0  0  0  0  0
   -1.9112   -9.4306    6.9318 C   0  0  0  0  0  0  0  0  0  0  0  0
   -0.8293   -9.1395    7.7320 C   0  0  0  0  0  0  0  0  0  0  0  0
   -0.9126   -8.0400    8.5585 C   0  0  0  0  0  0  0  0  0  0  0  0
   -2.0383   -7.2526    8.5901 C   0  0  0  0  0  0  0  0  0  0  0  0
   -3.6551   -2.4492    5.2360 C   0  0  0  0  0  0  0  0  0  0  0  0
   -4.7068   -0.2363    5.3905 C   0  0  0  0  0  0  0  0  0  0  0  0
   -3.7244   -1.1280    4.5788 C   0  0  0  0  0  0  0  0  0  0  0  0
   -2.4080   -0.3910    4.6872 C   0  0  0  0  0  0  0  0  0  0  0  0
   -0.4492   -3.4345    0.2561 C   0  0  0  0  0  0  0  0  0  0  0  0
   -0.4262   -3.4485   -1.1905 C   0  0  0  0  0  0  0  0  0  0  0  0
   -0.1079   -4.6044   -1.9232 N   0  0  0  0  0  0  0  0  0  0  0  0
   -0.6931   -2.4060   -1.8300 O   0  0  0  0  0  0  0  0  0  0  0  0
   -0.8472   -5.1351   -2.4113 H   0  0  0  0  0  0  0  0  0  0  0  0
    0.9130   -4.8833   -1.9433 H   0  0  0  0  0  0  0  0  0  0  0  0
 64 65  1  0  0  0
 65 66  1  0  0  0
 65 63  1  0  0  0
 63 45  1  0  0  0
 45 41  1  0  0  0
 41 42  1  0  0  0
 42 43  2  0  0  0
 42 40  1  0  0  0
 40 67  1  0  0  0
 67 68  1  0  0  0
 68 69  1  0  0  0
 68 70  2  0  0  0
 40  1  1  0  0  0
  1  2  1  0  0  0
  2  3  2  0  0  0
  2  5  1  0  0  0
  5 33  1  0  0  0
 33 34  1  0  0  0
 34 35  2  0  0  0
 35 36  1  0  0  0
 36 37  2  0  0  0
 37 38  1  0  0  0
 38 39  2  0  0  0
  5  6  1  0  0  0
  6  7  1  0  0  0
  7  8  2  0  0  0
  7 10  1  0  0  0
 10 26  1  0  0  0
 26 27  1  0  0  0
 27 28  2  0  0  0
 28 29  1  0  0  0
 29 30  2  0  0  0
 30 31  1  0  0  0
 31 32  2  0  0  0
 10 11  1  0  0  0
 11 12  1  0  0  0
 12 13  2  0  0  0
 12 15  1  0  0  0
 15 16  1  0  0  0
 15 19  1  0  0  0
 19 20  1  0  0  0
 20 21  2  0  0  0
 21 22  1  0  0  0
 22 23  2  0  0  0
 23 24  1  0  0  0
 24 25  2  0  0  0
 45 46  1  0  0  0
 46 47  2  0  0  0
 46 48  1  0  0  0
 48 50  1  0  0  0
 50 56  1  0  0  0
 56 57  1  0  0  0
 57 58  2  0  0  0
 58 59  1  0  0  0
 59 60  2  0  0  0
 60 61  1  0  0  0
 61 62  2  0  0  0
 50 51  1  0  0  0
 51 52  1  0  0  0
 51 53  2  0  0  0
 39 34  1  0  0  0
 32 27  1  0  0  0
 25 20  1  0  0  0
 62 57  1  0  0  0
 41 44  1  0  0  0
 69 71  1  0  0  0
 69 72  1  0  0  0
  1  4  1  0  0  0
  6  9  1  0  0  0
 11 14  1  0  0  0
 16 17  1  0  0  0
 16 18  1  0  0  0
 48 49  1  0  0  0
 52 54  1  0  0  0
 52 55  1  0  0  0
M  END
> <minimizedAffinity>
-6.03020

> <CNNscore>
0.1733774543

> <CNNaffinity>
6.6350183487

> <CNN_VS>
1.1503626108

> <CNNaffinity_variance>
0.4821827412

$$$$
[H]c1c([H])c([H])c(C([H])([H])[C@@]([H])(C(=O)N([H])[C@]([H])(C(=O)N([H])[C@]([H])(C(=O)N([H])[C@]([H])(C(=O)N([H])[C@]([H])(C(=O)N([H])[C@]([H])(C(=O)N([H])[H])C([H])([H])c2c([H])c([H])c([H])c([H])c2[H])C([H])([H])C([H])(C([H])([H])[H])C([H])([H])[H])C([H])([H])C(=O)N([H])[H])C([H])([H])c2c([H])c([H])c([H])c([H])c2[H])C([H])([H])c2c([H])c([H])c([H])c([H])c2[H])N([H])[H])c([H])c1[H]


 72 75  0  0  0  0  0  0  0  0999 V2000
   -6.5990   -6.9755    7.4183 N   0  0  0  0  0  0  0  0  0  0  0  0
   -5.7591   -6.3811    6.4691 C   0  0  0  0  0  0  0  0  0  0  0  0
   -6.1869   -6.4408    5.2759 O   0  0  0  0  0  0  0  0  0  0  0  0
   -6.3060   -6.9868    8.4177 H   0  0  0  0  0  0  0  0  0  0  0  0
   -4.4707   -5.7223    6.6911 C   0  0  0  0  0  0  0  0  0  0  0  0
   -4.4953   -4.3389    6.1061 N   0  0  0  0  0  0  0  0  0  0  0  0
   -3.7053   -3.9988    4.9855 C   0  0  0  0  0  0  0  0  0  0  0  0
   -2.9995   -4.9929    4.5424 O   0  0  0  0  0  0  0  0  0  0  0  0
   -5.0975   -3.6418    6.5754 H   0  0  0  0  0  0  0  0  0  0  0  0
   -3.6010   -2.7043    4.3149 C   0  0  0  0  0  0  0  0  0  0  0  0
   -3.7566   -2.9135    2.8602 N   0  0  0  0  0  0  0  0  0  0  0  0
   -2.7752   -2.6358    1.9117 C   0  0  0  0  0  0  0  0  0  0  0  0
   -1.6293   -2.1728    2.1401 O   0  0  0  0  0  0  0  0  0  0  0  0
   -4.6708   -3.2912    2.5547 H   0  0  0  0  0  0  0  0  0  0  0  0
   -3.0755   -2.9034    0.4673 C   0  0  0  0  0  0  0  0  0  0  0  0
   -2.4237   -4.1091   -0.0074 N   0  0  0  0  0  0  0  0  0  0  0  0
   -2.0697   -3.9912   -1.0045 H   0  0  0  0  0  0  0  0  0  0  0  0
   -1.5700   -4.2508    0.5841 H   0  0  0  0  0  0  0  0  0  0  0  0
   -4.5714   -3.0385    0.2992 C   0  0  0  0  0  0  0  0  0  0  0  0
   -5.0730   -2.1521   -0.7638 C   0  0  0  0  0  0  0  0  0  0  0  0
   -5.3815   -2.6642   -1.9911 C   0  0  0  0  0  0  0  0  0  0  0  0
   -5.8530   -1.8775   -3.0166 C   0  0  0  0  0  0  0  0  0  0  0  0
   -6.0161   -0.5199   -2.7829 C   0  0  0  0  0  0  0  0  0  0  0  0
   -5.7030    0.0067   -1.5339 C   0  0  0  0  0  0  0  0  0  0  0  0
   -5.2327   -0.8147   -0.5306 C   0  0  0  0  0  0  0  0  0  0  0  0
   -4.4401   -1.5713    4.7431 C   0  0  0  0  0  0  0  0  0  0  0  0
   -3.9223   -0.6322    5.7472 C   0  0  0  0  0  0  0  0  0  0  0  0
   -4.6076    0.4932    6.1641 C   0  0  0  0  0  0  0  0  0  0  0  0
   -4.0814    1.3343    7.1140 C   0  0  0  0  0  0  0  0  0  0  0  0
   -2.8454    1.0994    7.7015 C   0  0  0  0  0  0  0  0  0  0  0  0
   -2.1654   -0.0179    7.2866 C   0  0  0  0  0  0  0  0  0  0  0  0
   -2.6774   -0.8675    6.3384 C   0  0  0  0  0  0  0  0  0  0  0  0
   -4.0460   -5.5955    8.1042 C   0  0  0  0  0  0  0  0  0  0  0  0
   -3.0025   -4.6630    8.4654 C   0  0  0  0  0  0  0  0  0  0  0  0
   -3.2094   -3.5872    9.3217 C   0  0  0  0  0  0  0  0  0  0  0  0
   -2.1638   -2.7663    9.6704 C   0  0  0  0  0  0  0  0  0  0  0  0
   -0.8755   -2.9498    9.2078 C   0  0  0  0  0  0  0  0  0  0  0  0
   -0.6541   -4.0137    8.3575 C   0  0  0  0  0  0  0  0  0  0  0  0
   -1.6991   -4.8357    8.0074 C   0  0  0  0  0  0  0  0  0  0  0  0
   -7.8577   -7.6339    7.1476 C   0  0  0  0  0  0  0  0  0  0  0  0
  -10.2658   -7.5068    7.8871 N   0  0  0  0  0  0  0  0  0  0  0  0
   -8.8702   -7.4241    8.2022 C   0  0  0  0  0  0  0  0  0  0  0  0
   -8.6184   -7.1688    9.4037 O   0  0  0  0  0  0  0  0  0  0  0  0
  -10.4967   -7.7543    6.9118 H   0  0  0  0  0  0  0  0  0  0  0  0
  -11.3176   -7.2974    8.8074 C   0  0  0  0  0  0  0  0  0  0  0  0
  -12.5057   -8.0910    8.3374 C   0  0  0  0  0  0  0  0  0  0  0  0
  -12.7276   -9.1902    8.8840 O   0  0  0  0  0  0  0  0  0  0  0  0
  -13.3669   -7.6548    7.3277 N   0  0  0  0  0  0  0  0  0  0  0  0
  -13.2036   -6.7594    6.8422 H   0  0  0  0  0  0  0  0  0  0  0  0
  -14.5067   -8.4543    6.9304 C   0  0  0  0  0  0  0  0  0  0  0  0
  -14.2715   -9.0844    5.6112 C   0  0  0  0  0  0  0  0  0  0  0  0
  -15.3072   -9.2843    4.6718 N   0  0  0  0  0  0  0  0  0  0  0  0
  -13.1088   -9.4542    5.3230 O   0  0  0  0  0  0  0  0  0  0  0  0
  -16.3327   -9.3492    4.9480 H   0  0  0  0  0  0  0  0  0  0  0  0
  -15.0547   -9.3698    3.6672 H   0  0  0  0  0  0  0  0  0  0  0  0
  -15.7930   -7.6928    7.0149 C   0  0  0  0  0  0  0  0  0  0  0  0
  -15.9002   -6.6342    5.9923 C   0  0  0  0  0  0  0  0  0  0  0  0
  -14.8504   -5.8333    5.6046 C   0  0  0  0  0  0  0  0  0  0  0  0
  -14.9409   -4.8412    4.6471 C   0  0  0  0  0  0  0  0  0  0  0  0
  -16.1444   -4.6124    4.0187 C   0  0  0  0  0  0  0  0  0  0  0  0
  -17.2211   -5.3938    4.3778 C   0  0  0  0  0  0  0  0  0  0  0  0
  -17.1062   -6.3740    5.3340 C   0  0  0  0  0  0  0  0  0  0  0  0
  -11.6541   -5.9751    9.3116 C   0  0  0  0  0  0  0  0  0  0  0  0
  -11.7922   -5.8844   11.7610 C   0  0  0  0  0  0  0  0  0  0  0  0
  -12.5983   -5.7969   10.4337 C   0  0  0  0  0  0  0  0  0  0  0  0
  -13.1648   -4.3947   10.4573 C   0  0  0  0  0  0  0  0  0  0  0  0
   -7.7689   -8.9839    6.5650 C   0  0  0  0  0  0  0  0  0  0  0  0
   -8.3556  -10.1015    7.2722 C   0  0  0  0  0  0  0  0  0  0  0  0
   -9.6333  -10.5968    6.9615 N   0  0  0  0  0  0  0  0  0  0  0  0
   -7.7218  -10.6583    8.1970 O   0  0  0  0  0  0  0  0  0  0  0  0
   -9.7393  -11.4878    6.4504 H   0  0  0  0  0  0  0  0  0  0  0  0
  -10.4558  -10.0127    7.2820 H   0  0  0  0  0  0  0  0  0  0  0  0
 64 65  1  0  0  0
 65 66  1  0  0  0
 65 63  1  0  0  0
 63 45  1  0  0  0
 45 41  1  0  0  0
 41 42  1  0  0  0
 42 43  2  0  0  0
 42 40  1  0  0  0
 40 67  1  0  0  0
 67 68  1  0  0  0
 68 69  1  0  0  0
 68 70  2  0  0  0
 40  1  1  0  0  0
  1  2  1  0  0  0
  2  3  2  0  0  0
  2  5  1  0  0  0
  5 33  1  0  0  0
 33 34  1  0  0  0
 34 35  2  0  0  0
 35 36  1  0  0  0
 36 37  2  0  0  0
 37 38  1  0  0  0
 38 39  2  0  0  0
  5  6  1  0  0  0
  6  7  1  0  0  0
  7  8  2  0  0  0
  7 10  1  0  0  0
 10 26  1  0  0  0
 26 27  1  0  0  0
 27 28  2  0  0  0
 28 29  1  0  0  0
 29 30  2  0  0  0
 30 31  1  0  0  0
 31 32  2  0  0  0
 10 11  1  0  0  0
 11 12  1  0  0  0
 12 13  2  0  0  0
 12 15  1  0  0  0
 15 16  1  0  0  0
 15 19  1  0  0  0
 19 20  1  0  0  0
 20 21  2  0  0  0
 21 22  1  0  0  0
 22 23  2  0  0  0
 23 24  1  0  0  0
 24 25  2  0  0  0
 45 46  1  0  0  0
 46 47  2  0  0  0
 46 48  1  0  0  0
 48 50  1  0  0  0
 50 56  1  0  0  0
 56 57  1  0  0  0
 57 58  2  0  0  0
 58 59  1  0  0  0
 59 60  2  0  0  0
 60 61  1  0  0  0
 61 62  2  0  0  0
 50 51  1  0  0  0
 51 52  1  0  0  0
 51 53  2  0  0  0
 39 34  1  0  0  0
 32 27  1  0  0  0
 25 20  1  0  0  0
 62 57  1  0  0  0
 41 44  1  0  0  0
 69 71  1  0  0  0
 69 72  1  0  0  0
  1  4  1  0  0  0
  6  9  1  0  0  0
 11 14  1  0  0  0
 16 17  1  0  0  0
 16 18  1  0  0  0
 48 49  1  0  0  0
 52 54  1  0  0  0
 52 55  1  0  0  0
M  END
> <minimizedAffinity>
-8.07058

> <CNNscore>
0.1651062965

> <CNNaffinity>
7.4973726273

> <CNN_VS>
1.2378634214

> <CNNaffinity_variance>
0.1801486313

$$$$
[H]c1c([H])c([H])c(C([H])([H])[C@@]([H])(C(=O)N([H])[C@]([H])(C(=O)N([H])[C@]([H])(C(=O)N([H])[C@]([H])(C(=O)N([H])[C@]([H])(C(=O)N([H])[C@]([H])(C(=O)N([H])[H])C([H])([H])c2c([H])c([H])c([H])c([H])c2[H])C([H])([H])C([H])(C([H])([H])[H])C([H])([H])[H])C([H])([H])C(=O)N([H])[H])C([H])([H])c2c([H])c([H])c([H])c([H])c2[H])C([H])([H])c2c([H])c([H])c([H])c([H])c2[H])N([H])[H])c([H])c1[H]


 72 75  0  0  0  0  0  0  0  0999 V2000
   -6.6895   -7.0715    7.1689 N   0  0  0  0  0  0  0  0  0  0  0  0
   -5.7744   -6.4279    6.3274 C   0  0  0  0  0  0  0  0  0  0  0  0
   -6.1882   -6.2427    5.1422 O   0  0  0  0  0  0  0  0  0  0  0  0
   -6.4146   -7.2794    8.1517 H   0  0  0  0  0  0  0  0  0  0  0  0
   -4.4239   -5.9637    6.6502 C   0  0  0  0  0  0  0  0  0  0  0  0
   -4.3664   -4.4644    6.5762 N   0  0  0  0  0  0  0  0  0  0  0  0
   -3.1755   -3.7893    6.2278 C   0  0  0  0  0  0  0  0  0  0  0  0
   -2.1896   -4.5952    5.9806 O   0  0  0  0  0  0  0  0  0  0  0  0
   -5.2304   -3.9495    6.8152 H   0  0  0  0  0  0  0  0  0  0  0  0
   -2.9507   -2.3482    6.1318 C   0  0  0  0  0  0  0  0  0  0  0  0
   -2.6486   -2.0114    4.7249 N   0  0  0  0  0  0  0  0  0  0  0  0
   -3.4318   -2.3870    3.6360 C   0  0  0  0  0  0  0  0  0  0  0  0
   -4.4939   -3.0576    3.6792 O   0  0  0  0  0  0  0  0  0  0  0  0
   -1.7868   -1.4595    4.5688 H   0  0  0  0  0  0  0  0  0  0  0  0
   -3.0007   -1.9684    2.2623 C   0  0  0  0  0  0  0  0  0  0  0  0
   -4.1275   -1.8293    1.3596 N   0  0  0  0  0  0  0  0  0  0  0  0
   -3.8857   -2.1749    0.3821 H   0  0  0  0  0  0  0  0  0  0  0  0
   -4.8826   -2.4666    1.7094 H   0  0  0  0  0  0  0  0  0  0  0  0
   -2.2692   -0.6497    2.3636 C   0  0  0  0  0  0  0  0  0  0  0  0
   -3.1249    0.4712    1.9410 C   0  0  0  0  0  0  0  0  0  0  0  0
   -2.9675    1.0212    0.7015 C   0  0  0  0  0  0  0  0  0  0  0  0
   -3.7417    2.0695    0.2605 C   0  0  0  0  0  0  0  0  0  0  0  0
   -4.7115    2.5755    1.1136 C   0  0  0  0  0  0  0  0  0  0  0  0
   -4.8757    2.0185    2.3778 C   0  0  0  0  0  0  0  0  0  0  0  0
   -4.0798    0.9678    2.7838 C   0  0  0  0  0  0  0  0  0  0  0  0
   -3.9451   -1.3999    6.6637 C   0  0  0  0  0  0  0  0  0  0  0  0
   -3.7593    0.0396    6.4366 C   0  0  0  0  0  0  0  0  0  0  0  0
   -4.8045    0.9399    6.3535 C   0  0  0  0  0  0  0  0  0  0  0  0
   -4.5747    2.2785    6.1490 C   0  0  0  0  0  0  0  0  0  0  0  0
   -3.2918    2.7934    6.0178 C   0  0  0  0  0  0  0  0  0  0  0  0
   -2.2546    1.8987    6.0998 C   0  0  0  0  0  0  0  0  0  0  0  0
   -2.4679    0.5586    6.3033 C   0  0  0  0  0  0  0  0  0  0  0  0
   -3.9065   -6.3593    7.9803 C   0  0  0  0  0  0  0  0  0  0  0  0
   -2.8256   -7.3136    8.0817 C   0  0  0  0  0  0  0  0  0  0  0  0
   -1.8112   -7.2131    9.0274 C   0  0  0  0  0  0  0  0  0  0  0  0
   -0.8400   -8.1820    9.1093 C   0  0  0  0  0  0  0  0  0  0  0  0
   -0.8079   -9.2879    8.2827 C   0  0  0  0  0  0  0  0  0  0  0  0
   -1.8084   -9.4022    7.3394 C   0  0  0  0  0  0  0  0  0  0  0  0
   -2.7805   -8.4335    7.2558 C   0  0  0  0  0  0  0  0  0  0  0  0
   -8.0096   -7.5307    6.7980 C   0  0  0  0  0  0  0  0  0  0  0  0
  -10.1336   -7.9439    8.0942 N   0  0  0  0  0  0  0  0  0  0  0  0
   -9.0734   -7.0602    7.7082 C   0  0  0  0  0  0  0  0  0  0  0  0
   -9.1448   -5.9094    8.2009 O   0  0  0  0  0  0  0  0  0  0  0  0
  -10.0746   -8.9086    7.7315 H   0  0  0  0  0  0  0  0  0  0  0  0
  -11.2144   -7.5936    8.9344 C   0  0  0  0  0  0  0  0  0  0  0  0
  -12.4410   -8.3000    8.4258 C   0  0  0  0  0  0  0  0  0  0  0  0
  -12.7539   -9.3842    8.9577 O   0  0  0  0  0  0  0  0  0  0  0  0
  -13.2413   -7.7992    7.3962 N   0  0  0  0  0  0  0  0  0  0  0  0
  -13.0028   -6.9145    6.9223 H   0  0  0  0  0  0  0  0  0  0  0  0
  -14.4222   -8.5152    6.9615 C   0  0  0  0  0  0  0  0  0  0  0  0
  -14.2353   -9.0554    5.5956 C   0  0  0  0  0  0  0  0  0  0  0  0
  -15.3161   -9.2727    4.7125 N   0  0  0  0  0  0  0  0  0  0  0  0
  -13.0731   -9.3302    5.2141 O   0  0  0  0  0  0  0  0  0  0  0  0
  -16.3149   -9.4211    5.0479 H   0  0  0  0  0  0  0  0  0  0  0  0
  -15.1256   -9.2862    3.6908 H   0  0  0  0  0  0  0  0  0  0  0  0
  -15.6709   -7.7054    7.1248 C   0  0  0  0  0  0  0  0  0  0  0  0
  -15.8203   -6.6675    6.0864 C   0  0  0  0  0  0  0  0  0  0  0  0
  -14.7955   -5.8519    5.6643 C   0  0  0  0  0  0  0  0  0  0  0  0
  -14.9255   -4.8789    4.6917 C   0  0  0  0  0  0  0  0  0  0  0  0
  -16.1456   -4.6863    4.0834 C   0  0  0  0  0  0  0  0  0  0  0  0
  -17.1983   -5.4836    4.4772 C   0  0  0  0  0  0  0  0  0  0  0  0
  -17.0441   -6.4441    5.4477 C   0  0  0  0  0  0  0  0  0  0  0  0
  -11.4558   -6.2222    9.3552 C   0  0  0  0  0  0  0  0  0  0  0  0
  -11.6639   -5.6801   11.7405 C   0  0  0  0  0  0  0  0  0  0  0  0
  -12.4390   -5.9030   10.4105 C   0  0  0  0  0  0  0  0  0  0  0  0
  -13.0995   -4.5657   10.1594 C   0  0  0  0  0  0  0  0  0  0  0  0
   -8.1009   -8.9230    6.3261 C   0  0  0  0  0  0  0  0  0  0  0  0
   -8.4582   -9.9670    7.2619 C   0  0  0  0  0  0  0  0  0  0  0  0
   -7.6120  -10.3490    8.3166 N   0  0  0  0  0  0  0  0  0  0  0  0
   -9.5519  -10.5646    7.1441 O   0  0  0  0  0  0  0  0  0  0  0  0
   -7.8280  -10.0718    9.2877 H   0  0  0  0  0  0  0  0  0  0  0  0
   -6.7649  -10.9273    8.0553 H   0  0  0  0  0  0  0  0  0  0  0  0
 64 65  1  0  0  0
 65 66  1  0  0  0
 65 63  1  0  0  0
 63 45  1  0  0  0
 45 41  1  0  0  0
 41 42  1  0  0  0
 42 43  2  0  0  0
 42 40  1  0  0  0
 40 67  1  0  0  0
 67 68  1  0  0  0
 68 69  1  0  0  0
 68 70  2  0  0  0
 40  1  1  0  0  0
  1  2  1  0  0  0
  2  3  2  0  0  0
  2  5  1  0  0  0
  5 33  1  0  0  0
 33 34  1  0  0  0
 34 35  2  0  0  0
 35 36  1  0  0  0
 36 37  2  0  0  0
 37 38  1  0  0  0
 38 39  2  0  0  0
  5  6  1  0  0  0
  6  7  1  0  0  0
  7  8  2  0  0  0
  7 10  1  0  0  0
 10 26  1  0  0  0
 26 27  1  0  0  0
 27 28  2  0  0  0
 28 29  1  0  0  0
 29 30  2  0  0  0
 30 31  1  0  0  0
 31 32  2  0  0  0
 10 11  1  0  0  0
 11 12  1  0  0  0
 12 13  2  0  0  0
 12 15  1  0  0  0
 15 16  1  0  0  0
 15 19  1  0  0  0
 19 20  1  0  0  0
 20 21  2  0  0  0
 21 22  1  0  0  0
 22 23  2  0  0  0
 23 24  1  0  0  0
 24 25  2  0  0  0
 45 46  1  0  0  0
 46 47  2  0  0  0
 46 48  1  0  0  0
 48 50  1  0  0  0
 50 56  1  0  0  0
 56 57  1  0  0  0
 57 58  2  0  0  0
 58 59  1  0  0  0
 59 60  2  0  0  0
 60 61  1  0  0  0
 61 62  2  0  0  0
 50 51  1  0  0  0
 51 52  1  0  0  0
 51 53  2  0  0  0
 39 34  1  0  0  0
 32 27  1  0  0  0
 25 20  1  0  0  0
 62 57  1  0  0  0
 41 44  1  0  0  0
 69 71  1  0  0  0
 69 72  1  0  0  0
  1  4  1  0  0  0
  6  9  1  0  0  0
 11 14  1  0  0  0
 16 17  1  0  0  0
 16 18  1  0  0  0
 48 49  1  0  0  0
 52 54  1  0  0  0
 52 55  1  0  0  0
M  END
> <minimizedAffinity>
-7.81129

> <CNNscore>
0.1633270830

> <CNNaffinity>
7.2956733704

> <CNN_VS>
1.1915810108

> <CNNaffinity_variance>
0.2500902414

$$$$
[H]c1c([H])c([H])c(C([H])([H])OC(=O)N([H])[C@]([H])(C(=O)N([H])[C@]([H])(C(=O)N([H])[H])C([H])([H])c2c([H])n([H])c3c([H])c([H])c([H])c([H])c23)C([H])([H])C([H])(C([H])([H])[H])C([H])([H])[H])c([H])c1[H]


 38 40  0  0  0  0  0  0  0  0999 V2000
  -14.4565   -7.4350    6.1620 C   0  0  0  0  0  0  0  0  0  0  0  0
  -15.7257   -7.4016    5.9196 O   0  0  0  0  0  0  0  0  0  0  0  0
  -13.8960   -8.3739    6.9858 N   0  0  0  0  0  0  0  0  0  0  0  0
  -12.8311   -8.5669    6.8602 H   0  0  0  0  0  0  0  0  0  0  0  0
  -13.6848   -6.3793    5.5325 C   0  0  0  0  0  0  0  0  0  0  0  0
  -12.3312   -6.0850    5.4608 N   0  0  0  0  0  0  0  0  0  0  0  0
  -11.2379   -6.3519    6.3331 C   0  0  0  0  0  0  0  0  0  0  0  0
  -11.1659   -7.0888    7.2733 O   0  0  0  0  0  0  0  0  0  0  0  0
  -11.9829   -5.5367    4.5782 H   0  0  0  0  0  0  0  0  0  0  0  0
  -10.0692   -5.5986    6.0753 O   0  0  0  0  0  0  0  0  0  0  0  0
   -8.9952   -5.4112    6.9235 C   0  0  0  0  0  0  0  0  0  0  0  0
   -7.7536   -6.1496    6.6485 C   0  0  0  0  0  0  0  0  0  0  0  0
   -7.7918   -6.8034    5.4037 C   0  0  0  0  0  0  0  0  0  0  0  0
   -6.7073   -7.4707    4.9038 C   0  0  0  0  0  0  0  0  0  0  0  0
   -5.5614   -7.5041    5.6302 C   0  0  0  0  0  0  0  0  0  0  0  0
   -5.5200   -6.8708    6.8674 C   0  0  0  0  0  0  0  0  0  0  0  0
   -6.6254   -6.1980    7.3548 C   0  0  0  0  0  0  0  0  0  0  0  0
  -14.2978   -6.0686    4.1300 C   0  0  0  0  0  0  0  0  0  0  0  0
  -16.5140   -4.9028    4.6311 C   0  0  0  0  0  0  0  0  0  0  0  0
  -15.1677   -4.8931    4.0250 C   0  0  0  0  0  0  0  0  0  0  0  0
  -14.3893   -3.7094    4.5987 C   0  0  0  0  0  0  0  0  0  0  0  0
  -14.4349   -9.3957    7.9231 C   0  0  0  0  0  0  0  0  0  0  0  0
  -15.0475   -8.6229    8.9758 C   0  0  0  0  0  0  0  0  0  0  0  0
  -14.3219   -7.8911   10.0013 N   0  0  0  0  0  0  0  0  0  0  0  0
  -16.3248   -8.5300    9.1086 O   0  0  0  0  0  0  0  0  0  0  0  0
  -14.5962   -6.9901   10.3498 H   0  0  0  0  0  0  0  0  0  0  0  0
  -13.4922   -8.4148   10.3765 H   0  0  0  0  0  0  0  0  0  0  0  0
  -13.2536  -10.1883    8.2017 C   0  0  0  0  0  0  0  0  0  0  0  0
  -11.9431  -10.1762    7.7358 C   0  0  0  0  0  0  0  0  0  0  0  0
  -11.5802  -11.0689    6.6712 C   0  0  0  0  0  0  0  0  0  0  0  0
  -10.2691  -10.9541    6.4388 N   0  0  0  0  0  0  0  0  0  0  0  0
   -9.7250  -10.0406    7.2707 C   0  0  0  0  0  0  0  0  0  0  0  0
   -8.4468   -9.5690    7.4532 C   0  0  0  0  0  0  0  0  0  0  0  0
   -8.1278   -8.6462    8.3863 C   0  0  0  0  0  0  0  0  0  0  0  0
   -9.1857   -8.1761    9.1762 C   0  0  0  0  0  0  0  0  0  0  0  0
  -10.4784   -8.6249    9.0185 C   0  0  0  0  0  0  0  0  0  0  0  0
  -10.7496   -9.5756    8.0580 C   0  0  0  0  0  0  0  0  0  0  0  0
   -9.7197  -11.4971    5.7449 H   0  0  0  0  0  0  0  0  0  0  0  0
 19 20  1  0  0  0
 20 21  1  0  0  0
 20 18  1  0  0  0
 18  5  1  0  0  0
  5  6  1  0  0  0
  6  7  1  0  0  0
  7  8  2  0  0  0
  7 10  1  0  0  0
 10 11  1  0  0  0
 11 12  1  0  0  0
 12 13  2  0  0  0
 13 14  1  0  0  0
 14 15  2  0  0  0
 15 16  1  0  0  0
 16 17  2  0  0  0
  5  1  1  0  0  0
  1  2  2  0  0  0
  1  3  1  0  0  0
  3 22  1  0  0  0
 22 28  1  0  0  0
 28 29  1  0  0  0
 29 30  2  0  0  0
 30 31  1  0  0  0
 31 32  1  0  0  0
 32 33  2  0  0  0
 33 34  1  0  0  0
 34 35  2  0  0  0
 35 36  1  0  0  0
 36 37  2  0  0  0
 22 23  1  0  0  0
 23 24  1  0  0  0
 23 25  2  0  0  0
 17 12  1  0  0  0
 37 29  1  0  0  0
 37 32  1  0  0  0
  6  9  1  0  0  0
  3  4  1  0  0  0
 31 38  1  0  0  0
 24 26  1  0  0  0
 24 27  1  0  0  0
M  END
> <minimizedAffinity>
7.53775

> <CNNscore>
0.4177908897

> <CNNaffinity>
6.5711469650

> <CNN_VS>
2.7453653812

> <CNNaffinity_variance>
0.4151787758

$$$$
[H]c1c([H])c([H])c(C([H])([H])OC(=O)N([H])[C@]([H])(C(=O)N([H])[C@]([H])(C(=O)N([H])[H])C([H])([H])c2c([H])n([H])c3c([H])c([H])c([H])c([H])c23)C([H])([H])C([H])(C([H])([H])[H])C([H])([H])[H])c([H])c1[H]


 38 40  0  0  0  0  0  0  0  0999 V2000
  -10.2868   -6.9439    8.2622 C   0  0  0  0  0  0  0  0  0  0  0  0
  -10.3677   -6.4101    9.4366 O   0  0  0  0  0  0  0  0  0  0  0  0
  -11.3833   -7.4398    7.6096 N   0  0  0  0  0  0  0  0  0  0  0  0
  -11.3118   -7.5329    6.5263 H   0  0  0  0  0  0  0  0  0  0  0  0
   -8.9451   -7.0161    7.7135 C   0  0  0  0  0  0  0  0  0  0  0  0
   -7.6805   -6.7524    8.2188 N   0  0  0  0  0  0  0  0  0  0  0  0
   -6.4082   -6.5919    7.6001 C   0  0  0  0  0  0  0  0  0  0  0  0
   -6.1270   -6.4385    6.4470 O   0  0  0  0  0  0  0  0  0  0  0  0
   -7.5877   -6.6389    9.3048 H   0  0  0  0  0  0  0  0  0  0  0  0
   -5.3022   -6.6680    8.4781 O   0  0  0  0  0  0  0  0  0  0  0  0
   -4.0255   -6.1914    8.2527 C   0  0  0  0  0  0  0  0  0  0  0  0
   -3.6832   -4.8524    8.7551 C   0  0  0  0  0  0  0  0  0  0  0  0
   -4.0264   -4.6922   10.1097 C   0  0  0  0  0  0  0  0  0  0  0  0
   -3.7111   -3.5579   10.8063 C   0  0  0  0  0  0  0  0  0  0  0  0
   -3.0489   -2.5573   10.1719 C   0  0  0  0  0  0  0  0  0  0  0  0
   -2.7175   -2.7033    8.8294 C   0  0  0  0  0  0  0  0  0  0  0  0
   -3.0414   -3.8589    8.1426 C   0  0  0  0  0  0  0  0  0  0  0  0
   -8.8275   -8.2949    6.8245 C   0  0  0  0  0  0  0  0  0  0  0  0
   -9.7706  -10.6653    6.7058 C   0  0  0  0  0  0  0  0  0  0  0  0
   -9.1116   -9.5832    7.4640 C   0  0  0  0  0  0  0  0  0  0  0  0
   -7.7851  -10.1140    8.0070 C   0  0  0  0  0  0  0  0  0  0  0  0
  -12.7936   -7.7127    7.9963 C   0  0  0  0  0  0  0  0  0  0  0  0
  -12.7469   -9.0178    8.6089 C   0  0  0  0  0  0  0  0  0  0  0  0
  -12.9449  -10.2748    7.9058 N   0  0  0  0  0  0  0  0  0  0  0  0
  -12.5381   -9.1807    9.8689 O   0  0  0  0  0  0  0  0  0  0  0  0
  -12.4225  -11.1119    8.0924 H   0  0  0  0  0  0  0  0  0  0  0  0
  -13.7211  -10.2374    7.1990 H   0  0  0  0  0  0  0  0  0  0  0  0
  -13.4830   -7.5307    6.7341 C   0  0  0  0  0  0  0  0  0  0  0  0
  -14.8036   -7.2832    6.3750 C   0  0  0  0  0  0  0  0  0  0  0  0
  -15.8260   -8.1761    6.8438 C   0  0  0  0  0  0  0  0  0  0  0  0
  -16.9975   -7.8061    6.3179 N   0  0  0  0  0  0  0  0  0  0  0  0
  -16.8350   -6.7212    5.5311 C   0  0  0  0  0  0  0  0  0  0  0  0
  -17.6940   -5.9712    4.7634 C   0  0  0  0  0  0  0  0  0  0  0  0
  -17.2908   -4.9157    4.0236 C   0  0  0  0  0  0  0  0  0  0  0  0
  -15.9245   -4.6090    4.0792 C   0  0  0  0  0  0  0  0  0  0  0  0
  -15.0367   -5.3375    4.8397 C   0  0  0  0  0  0  0  0  0  0  0  0
  -15.4974   -6.4126    5.5690 C   0  0  0  0  0  0  0  0  0  0  0  0
  -17.9094   -8.2832    6.4557 H   0  0  0  0  0  0  0  0  0  0  0  0
 19 20  1  0  0  0
 20 21  1  0  0  0
 20 18  1  0  0  0
 18  5  1  0  0  0
  5  6  1  0  0  0
  6  7  1  0  0  0
  7  8  2  0  0  0
  7 10  1  0  0  0
 10 11  1  0  0  0
 11 12  1  0  0  0
 12 13  2  0  0  0
 13 14  1  0  0  0
 14 15  2  0  0  0
 15 16  1  0  0  0
 16 17  2  0  0  0
  5  1  1  0  0  0
  1  2  2  0  0  0
  1  3  1  0  0  0
  3 22  1  0  0  0
 22 28  1  0  0  0
 28 29  1  0  0  0
 29 30  2  0  0  0
 30 31  1  0  0  0
 31 32  1  0  0  0
 32 33  2  0  0  0
 33 34  1  0  0  0
 34 35  2  0  0  0
 35 36  1  0  0  0
 36 37  2  0  0  0
 22 23  1  0  0  0
 23 24  1  0  0  0
 23 25  2  0  0  0
 17 12  1  0  0  0
 37 29  1  0  0  0
 37 32  1  0  0  0
  6  9  1  0  0  0
  3  4  1  0  0  0
 31 38  1  0  0  0
 24 26  1  0  0  0
 24 27  1  0  0  0
M  END
> <minimizedAffinity>
-8.53452

> <CNNscore>
0.3814716339

> <CNNaffinity>
6.6972656250

> <CNN_VS>
2.5548169613

> <CNNaffinity_variance>
0.0075665982

$$$$
[H]c1c([H])c([H])c(C([H])([H])OC(=O)N([H])[C@]([H])(C(=O)N([H])[C@]([H])(C(=O)N([H])[H])C([H])([H])c2c([H])n([H])c3c([H])c([H])c([H])c([H])c23)C([H])([H])C([H])(C([H])([H])[H])C([H])([H])[H])c([H])c1[H]


 38 40  0  0  0  0  0  0  0  0999 V2000
   -9.3039   -6.5749    7.8621 C   0  0  0  0  0  0  0  0  0  0  0  0
   -9.5785   -5.8069    8.8649 O   0  0  0  0  0  0  0  0  0  0  0  0
  -10.1555   -7.5624    7.4453 N   0  0  0  0  0  0  0  0  0  0  0  0
  -10.0418   -7.9106    6.4192 H   0  0  0  0  0  0  0  0  0  0  0  0
   -8.0111   -6.3389    7.2460 C   0  0  0  0  0  0  0  0  0  0  0  0
   -6.7283   -6.1478    7.7379 N   0  0  0  0  0  0  0  0  0  0  0  0
   -6.0484   -6.6528    8.8826 C   0  0  0  0  0  0  0  0  0  0  0  0
   -6.3436   -7.5476    9.6204 O   0  0  0  0  0  0  0  0  0  0  0  0
   -6.0674   -5.4824    7.1711 H   0  0  0  0  0  0  0  0  0  0  0  0
   -4.8625   -5.9635    9.2263 O   0  0  0  0  0  0  0  0  0  0  0  0
   -4.7447   -4.8816   10.0771 C   0  0  0  0  0  0  0  0  0  0  0  0
   -3.6513   -3.9268    9.8422 C   0  0  0  0  0  0  0  0  0  0  0  0
   -2.9336   -4.2228    8.6692 C   0  0  0  0  0  0  0  0  0  0  0  0
   -1.9350   -3.4096    8.2079 C   0  0  0  0  0  0  0  0  0  0  0  0
   -1.6266   -2.2852    8.9025 C   0  0  0  0  0  0  0  0  0  0  0  0
   -2.3232   -1.9925   10.0699 C   0  0  0  0  0  0  0  0  0  0  0  0
   -3.3322   -2.8248   10.5188 C   0  0  0  0  0  0  0  0  0  0  0  0
   -7.8859   -7.2301    5.9695 C   0  0  0  0  0  0  0  0  0  0  0  0
   -7.1504   -9.4942    6.8941 C   0  0  0  0  0  0  0  0  0  0  0  0
   -6.9192   -8.3313    6.0141 C   0  0  0  0  0  0  0  0  0  0  0  0
   -6.7523   -8.8368    4.5813 C   0  0  0  0  0  0  0  0  0  0  0  0
  -11.3925   -8.1765    7.9984 C   0  0  0  0  0  0  0  0  0  0  0  0
  -11.2489   -9.5827    7.7110 C   0  0  0  0  0  0  0  0  0  0  0  0
  -12.2353  -10.6022    8.0295 N   0  0  0  0  0  0  0  0  0  0  0  0
  -10.1968  -10.0675    7.1491 O   0  0  0  0  0  0  0  0  0  0  0  0
  -12.4556  -11.3780    7.4310 H   0  0  0  0  0  0  0  0  0  0  0  0
  -12.6772  -10.4718    8.9735 H   0  0  0  0  0  0  0  0  0  0  0  0
  -12.4240   -7.4044    7.3341 C   0  0  0  0  0  0  0  0  0  0  0  0
  -13.7949   -7.5615    7.1595 C   0  0  0  0  0  0  0  0  0  0  0  0
  -14.6062   -7.8685    8.3039 C   0  0  0  0  0  0  0  0  0  0  0  0
  -15.8665   -8.0583    7.9019 N   0  0  0  0  0  0  0  0  0  0  0  0
  -15.9606   -7.8945    6.5651 C   0  0  0  0  0  0  0  0  0  0  0  0
  -16.9998   -7.9903    5.6704 C   0  0  0  0  0  0  0  0  0  0  0  0
  -16.8483   -7.8007    4.3418 C   0  0  0  0  0  0  0  0  0  0  0  0
  -15.5530   -7.4894    3.9065 C   0  0  0  0  0  0  0  0  0  0  0  0
  -14.4898   -7.3830    4.7757 C   0  0  0  0  0  0  0  0  0  0  0  0
  -14.6955   -7.5962    6.1220 C   0  0  0  0  0  0  0  0  0  0  0  0
  -16.6694   -8.3219    8.5053 H   0  0  0  0  0  0  0  0  0  0  0  0
 19 20  1  0  0  0
 20 21  1  0  0  0
 20 18  1  0  0  0
 18  5  1  0  0  0
  5  6  1  0  0  0
  6  7  1  0  0  0
  7  8  2  0  0  0
  7 10  1  0  0  0
 10 11  1  0  0  0
 11 12  1  0  0  0
 12 13  2  0  0  0
 13 14  1  0  0  0
 14 15  2  0  0  0
 15 16  1  0  0  0
 16 17  2  0  0  0
  5  1  1  0  0  0
  1  2  2  0  0  0
  1  3  1  0  0  0
  3 22  1  0  0  0
 22 28  1  0  0  0
 28 29  1  0  0  0
 29 30  2  0  0  0
 30 31  1  0  0  0
 31 32  1  0  0  0
 32 33  2  0  0  0
 33 34  1  0  0  0
 34 35  2  0  0  0
 35 36  1  0  0  0
 36 37  2  0  0  0
 22 23  1  0  0  0
 23 24  1  0  0  0
 23 25  2  0  0  0
 17 12  1  0  0  0
 37 29  1  0  0  0
 37 32  1  0  0  0
  6  9  1  0  0  0
  3  4  1  0  0  0
 31 38  1  0  0  0
 24 26  1  0  0  0
 24 27  1  0  0  0
M  END
> <minimizedAffinity>
-5.25198

> <CNNscore>
0.3079918325

> <CNNaffinity>
6.7327728271

> <CNN_VS>
2.0736391544

> <CNNaffinity_variance>
0.6108025312

$$$$
[H]c1c([H])c([H])c(C([H])([H])OC(=O)N([H])[C@]([H])(C(=O)N([H])[C@]([H])(C(=O)N([H])[H])C([H])([H])c2c([H])n([H])c3c([H])c([H])c([H])c([H])c23)C([H])([H])C([H])(C([H])([H])[H])C([H])([H])[H])c([H])c1[H]


 38 40  0  0  0  0  0  0  0  0999 V2000
   -9.9650   -6.6295    8.0270 C   0  0  0  0  0  0  0  0  0  0  0  0
   -9.8187   -6.4386    6.7570 O   0  0  0  0  0  0  0  0  0  0  0  0
   -9.0484   -7.3232    8.7705 N   0  0  0  0  0  0  0  0  0  0  0  0
   -9.0433   -7.1383    9.8442 H   0  0  0  0  0  0  0  0  0  0  0  0
  -11.1907   -6.0933    8.5896 C   0  0  0  0  0  0  0  0  0  0  0  0
  -12.5325   -6.4244    8.4710 N   0  0  0  0  0  0  0  0  0  0  0  0
  -13.3628   -6.7006    7.3478 C   0  0  0  0  0  0  0  0  0  0  0  0
  -13.0684   -6.9221    6.2091 O   0  0  0  0  0  0  0  0  0  0  0  0
  -13.1149   -6.4983    9.3964 H   0  0  0  0  0  0  0  0  0  0  0  0
  -14.7523   -6.6661    7.6081 O   0  0  0  0  0  0  0  0  0  0  0  0
  -15.7163   -7.5148    7.0996 C   0  0  0  0  0  0  0  0  0  0  0  0
  -16.4529   -7.0921    5.8990 C   0  0  0  0  0  0  0  0  0  0  0  0
  -17.3000   -8.1051    5.4144 C   0  0  0  0  0  0  0  0  0  0  0  0
  -18.1492   -7.8957    4.3626 C   0  0  0  0  0  0  0  0  0  0  0  0
  -18.1744   -6.6759    3.7683 C   0  0  0  0  0  0  0  0  0  0  0  0
  -17.3306   -5.6733    4.2336 C   0  0  0  0  0  0  0  0  0  0  0  0
  -16.4814   -5.9025    5.3007 C   0  0  0  0  0  0  0  0  0  0  0  0
  -10.9411   -5.7143   10.0841 C   0  0  0  0  0  0  0  0  0  0  0  0
  -11.8404   -5.8459   12.4707 C   0  0  0  0  0  0  0  0  0  0  0  0
  -12.0653   -5.8728   11.0117 C   0  0  0  0  0  0  0  0  0  0  0  0
  -13.0882   -4.7924   10.6617 C   0  0  0  0  0  0  0  0  0  0  0  0
   -7.8615   -8.1604    8.4487 C   0  0  0  0  0  0  0  0  0  0  0  0
   -7.1546   -7.4023    7.4456 C   0  0  0  0  0  0  0  0  0  0  0  0
   -6.6352   -6.0571    7.6314 N   0  0  0  0  0  0  0  0  0  0  0  0
   -6.9350   -7.8608    6.2627 O   0  0  0  0  0  0  0  0  0  0  0  0
   -5.7566   -5.7378    7.2646 H   0  0  0  0  0  0  0  0  0  0  0  0
   -7.2894   -5.4290    8.1614 H   0  0  0  0  0  0  0  0  0  0  0  0
   -8.4813   -9.4228    8.0974 C   0  0  0  0  0  0  0  0  0  0  0  0
   -9.6792   -9.7811    7.4881 C   0  0  0  0  0  0  0  0  0  0  0  0
   -9.6637  -10.1583    6.1025 C   0  0  0  0  0  0  0  0  0  0  0  0
  -10.9189  -10.3798    5.7009 N   0  0  0  0  0  0  0  0  0  0  0  0
  -11.7786  -10.1831    6.7230 C   0  0  0  0  0  0  0  0  0  0  0  0
  -13.1463  -10.2598    6.8378 C   0  0  0  0  0  0  0  0  0  0  0  0
  -13.8058   -9.9903    7.9852 C   0  0  0  0  0  0  0  0  0  0  0  0
  -13.0131   -9.6246    9.0814 C   0  0  0  0  0  0  0  0  0  0  0  0
  -11.6406   -9.5404    9.0022 C   0  0  0  0  0  0  0  0  0  0  0  0
  -11.0162   -9.8158    7.8045 C   0  0  0  0  0  0  0  0  0  0  0  0
  -11.2187  -10.6389    4.7411 H   0  0  0  0  0  0  0  0  0  0  0  0
 19 20  1  0  0  0
 20 21  1  0  0  0
 20 18  1  0  0  0
 18  5  1  0  0  0
  5  6  1  0  0  0
  6  7  1  0  0  0
  7  8  2  0  0  0
  7 10  1  0  0  0
 10 11  1  0  0  0
 11 12  1  0  0  0
 12 13  2  0  0  0
 13 14  1  0  0  0
 14 15  2  0  0  0
 15 16  1  0  0  0
 16 17  2  0  0  0
  5  1  1  0  0  0
  1  2  2  0  0  0
  1  3  1  0  0  0
  3 22  1  0  0  0
 22 28  1  0  0  0
 28 29  1  0  0  0
 29 30  2  0  0  0
 30 31  1  0  0  0
 31 32  1  0  0  0
 32 33  2  0  0  0
 33 34  1  0  0  0
 34 35  2  0  0  0
 35 36  1  0  0  0
 36 37  2  0  0  0
 22 23  1  0  0  0
 23 24  1  0  0  0
 23 25  2  0  0  0
 17 12  1  0  0  0
 37 29  1  0  0  0
 37 32  1  0  0  0
  6  9  1  0  0  0
  3  4  1  0  0  0
 31 38  1  0  0  0
 24 26  1  0  0  0
 24 27  1  0  0  0
M  END
> <minimizedAffinity>
-4.78546

> <CNNscore>
0.2919373810

> <CNNaffinity>
6.4062271118

> <CNN_VS>
1.8702172041

> <CNNaffinity_variance>
0.3264713883

$$$$
[H]c1c([H])c([H])c(C([H])([H])OC(=O)N([H])[C@]([H])(C(=O)N([H])[C@]([H])(C(=O)N([H])[H])C([H])([H])c2c([H])n([H])c3c([H])c([H])c([H])c([H])c23)C([H])([H])C([H])(C([H])([H])[H])C([H])([H])[H])c([H])c1[H]


 38 40  0  0  0  0  0  0  0  0999 V2000
   -8.8401   -7.6566    7.3814 C   0  0  0  0  0  0  0  0  0  0  0  0
   -7.9166   -7.3865    6.5182 O   0  0  0  0  0  0  0  0  0  0  0  0
   -9.2469   -8.9386    7.6368 N   0  0  0  0  0  0  0  0  0  0  0  0
   -9.7391   -9.1184    8.5921 H   0  0  0  0  0  0  0  0  0  0  0  0
   -9.4385   -6.4991    8.0205 C   0  0  0  0  0  0  0  0  0  0  0  0
  -10.7233   -5.9782    8.0653 N   0  0  0  0  0  0  0  0  0  0  0  0
  -11.8921   -6.3531    8.7868 C   0  0  0  0  0  0  0  0  0  0  0  0
  -12.0185   -7.1026    9.7112 O   0  0  0  0  0  0  0  0  0  0  0  0
  -10.9332   -5.1056    7.4365 H   0  0  0  0  0  0  0  0  0  0  0  0
  -13.0967   -5.7852    8.3112 O   0  0  0  0  0  0  0  0  0  0  0  0
  -14.0473   -6.3941    7.5152 C   0  0  0  0  0  0  0  0  0  0  0  0
  -14.4835   -5.6982    6.2954 C   0  0  0  0  0  0  0  0  0  0  0  0
  -15.6618   -4.9581    6.5014 C   0  0  0  0  0  0  0  0  0  0  0  0
  -16.1924   -4.1575    5.5274 C   0  0  0  0  0  0  0  0  0  0  0  0
  -15.5647   -4.0756    4.3268 C   0  0  0  0  0  0  0  0  0  0  0  0
  -14.4065   -4.8143    4.1114 C   0  0  0  0  0  0  0  0  0  0  0  0
  -13.8829   -5.6155    5.1094 C   0  0  0  0  0  0  0  0  0  0  0  0
   -8.8247   -6.3319    9.4469 C   0  0  0  0  0  0  0  0  0  0  0  0
   -7.0665   -8.1792    9.5836 C   0  0  0  0  0  0  0  0  0  0  0  0
   -7.4311   -6.7491    9.6291 C   0  0  0  0  0  0  0  0  0  0  0  0
   -6.6025   -6.0069    8.5809 C   0  0  0  0  0  0  0  0  0  0  0  0
   -8.9999  -10.2592    6.9981 C   0  0  0  0  0  0  0  0  0  0  0  0
   -7.9111  -10.0130    6.0846 C   0  0  0  0  0  0  0  0  0  0  0  0
   -6.5905   -9.5435    6.4709 N   0  0  0  0  0  0  0  0  0  0  0  0
   -8.0283  -10.1758    4.8127 O   0  0  0  0  0  0  0  0  0  0  0  0
   -5.7350   -9.8664    6.0556 H   0  0  0  0  0  0  0  0  0  0  0  0
   -6.6149   -8.7975    7.2100 H   0  0  0  0  0  0  0  0  0  0  0  0
  -10.3153  -10.5855    6.4838 C   0  0  0  0  0  0  0  0  0  0  0  0
  -11.6114  -10.2112    6.8224 C   0  0  0  0  0  0  0  0  0  0  0  0
  -12.0367  -10.3511    8.1869 C   0  0  0  0  0  0  0  0  0  0  0  0
  -13.3278  -10.0171    8.2736 N   0  0  0  0  0  0  0  0  0  0  0  0
  -13.7999   -9.6564    7.0613 C   0  0  0  0  0  0  0  0  0  0  0  0
  -15.0326   -9.2511    6.6078 C   0  0  0  0  0  0  0  0  0  0  0  0
  -15.2814   -8.9566    5.3134 C   0  0  0  0  0  0  0  0  0  0  0  0
  -14.1982   -9.0811    4.4329 C   0  0  0  0  0  0  0  0  0  0  0  0
  -12.9495   -9.4819    4.8539 C   0  0  0  0  0  0  0  0  0  0  0  0
  -12.7503   -9.7810    6.1846 C   0  0  0  0  0  0  0  0  0  0  0  0
  -13.9130  -10.0489    9.1307 H   0  0  0  0  0  0  0  0  0  0  0  0
 19 20  1  0  0  0
 20 21  1  0  0  0
 20 18  1  0  0  0
 18  5  1  0  0  0
  5  6  1  0  0  0
  6  7  1  0  0  0
  7  8  2  0  0  0
  7 10  1  0  0  0
 10 11  1  0  0  0
 11 12  1  0  0  0
 12 13  2  0  0  0
 13 14  1  0  0  0
 14 15  2  0  0  0
 15 16  1  0  0  0
 16 17  2  0  0  0
  5  1  1  0  0  0
  1  2  2  0  0  0
  1  3  1  0  0  0
  3 22  1  0  0  0
 22 28  1  0  0  0
 28 29  1  0  0  0
 29 30  2  0  0  0
 30 31  1  0  0  0
 31 32  1  0  0  0
 32 33  2  0  0  0
 33 34  1  0  0  0
 34 35  2  0  0  0
 35 36  1  0  0  0
 36 37  2  0  0  0
 22 23  1  0  0  0
 23 24  1  0  0  0
 23 25  2  0  0  0
 17 12  1  0  0  0
 37 29  1  0  0  0
 37 32  1  0  0  0
  6  9  1  0  0  0
  3  4  1  0  0  0
 31 38  1  0  0  0
 24 26  1  0  0  0
 24 27  1  0  0  0
M  END
> <minimizedAffinity>
6.77505

> <CNNscore>
0.2913965285

> <CNNaffinity>
6.2659416199

> <CNN_VS>
1.8258736134

> <CNNaffinity_variance>
0.4618596435

$$$$
[H]c1c([H])c([H])c(C([H])([H])OC(=O)N([H])[C@]([H])(C(=O)N([H])[C@]([H])(C(=O)N([H])[H])C([H])([H])c2c([H])n([H])c3c([H])c([H])c([H])c([H])c23)C([H])([H])C([H])(C([H])([H])[H])C([H])([H])[H])c([H])c1[H]


 38 40  0  0  0  0  0  0  0  0999 V2000
  -10.6106   -7.4571    7.9328 C   0  0  0  0  0  0  0  0  0  0  0  0
   -9.3936   -7.3236    7.5181 O   0  0  0  0  0  0  0  0  0  0  0  0
  -11.1688   -8.6839    8.1723 N   0  0  0  0  0  0  0  0  0  0  0  0
  -12.0290   -8.7120    8.8405 H   0  0  0  0  0  0  0  0  0  0  0  0
  -11.3470   -6.2152    8.0801 C   0  0  0  0  0  0  0  0  0  0  0  0
  -12.5662   -5.7543    7.6057 N   0  0  0  0  0  0  0  0  0  0  0  0
  -13.3281   -6.0620    6.4428 C   0  0  0  0  0  0  0  0  0  0  0  0
  -13.2109   -6.9613    5.6618 O   0  0  0  0  0  0  0  0  0  0  0  0
  -13.0863   -5.0003    8.2073 H   0  0  0  0  0  0  0  0  0  0  0  0
  -14.3555   -5.1390    6.1392 O   0  0  0  0  0  0  0  0  0  0  0  0
  -15.7166   -5.3351    6.2699 C   0  0  0  0  0  0  0  0  0  0  0  0
  -16.4629   -5.8362    5.1061 C   0  0  0  0  0  0  0  0  0  0  0  0
  -17.8298   -5.5112    5.1744 C   0  0  0  0  0  0  0  0  0  0  0  0
  -18.6927   -5.7962    4.1520 C   0  0  0  0  0  0  0  0  0  0  0  0
  -18.2170   -6.4116    3.0399 C   0  0  0  0  0  0  0  0  0  0  0  0
  -16.8694   -6.7474    2.9703 C   0  0  0  0  0  0  0  0  0  0  0  0
  -16.0113   -6.4479    4.0126 C   0  0  0  0  0  0  0  0  0  0  0  0
  -11.2067   -5.7124    9.5522 C   0  0  0  0  0  0  0  0  0  0  0  0
  -11.9225   -6.0631   11.9784 C   0  0  0  0  0  0  0  0  0  0  0  0
  -12.1643   -6.2343   10.5319 C   0  0  0  0  0  0  0  0  0  0  0  0
  -13.5246   -5.6242   10.1951 C   0  0  0  0  0  0  0  0  0  0  0  0
  -10.7608  -10.0881    7.8989 C   0  0  0  0  0  0  0  0  0  0  0  0
   -9.4867   -9.9638    7.2340 C   0  0  0  0  0  0  0  0  0  0  0  0
   -8.2062   -9.8245    7.9081 N   0  0  0  0  0  0  0  0  0  0  0  0
   -9.3775   -9.9470    5.9512 O   0  0  0  0  0  0  0  0  0  0  0  0
   -7.3576  -10.2645    7.6000 H   0  0  0  0  0  0  0  0  0  0  0  0
   -8.2419   -9.1826    8.7387 H   0  0  0  0  0  0  0  0  0  0  0  0
  -11.9100  -10.5898    7.1716 C   0  0  0  0  0  0  0  0  0  0  0  0
  -13.1382  -10.0509    6.8037 C   0  0  0  0  0  0  0  0  0  0  0  0
  -13.4750   -9.9877    5.4091 C   0  0  0  0  0  0  0  0  0  0  0  0
  -14.6497   -9.3645    5.2760 N   0  0  0  0  0  0  0  0  0  0  0  0
  -15.1301   -9.0085    6.4864 C   0  0  0  0  0  0  0  0  0  0  0  0
  -16.2623   -8.3468    6.8984 C   0  0  0  0  0  0  0  0  0  0  0  0
  -16.5277   -8.0769    8.1948 C   0  0  0  0  0  0  0  0  0  0  0  0
  -15.5756   -8.5170    9.1242 C   0  0  0  0  0  0  0  0  0  0  0  0
  -14.4317   -9.1849    8.7465 C   0  0  0  0  0  0  0  0  0  0  0  0
  -14.2027   -9.4267    7.4089 C   0  0  0  0  0  0  0  0  0  0  0  0
  -15.1310   -9.1480    4.3817 H   0  0  0  0  0  0  0  0  0  0  0  0
 19 20  1  0  0  0
 20 21  1  0  0  0
 20 18  1  0  0  0
 18  5  1  0  0  0
  5  6  1  0  0  0
  6  7  1  0  0  0
  7  8  2  0  0  0
  7 10  1  0  0  0
 10 11  1  0  0  0
 11 12  1  0  0  0
 12 13  2  0  0  0
 13 14  1  0  0  0
 14 15  2  0  0  0
 15 16  1  0  0  0
 16 17  2  0  0  0
  5  1  1  0  0  0
  1  2  2  0  0  0
  1  3  1  0  0  0
  3 22  1  0  0  0
 22 28  1  0  0  0
 28 29  1  0  0  0
 29 30  2  0  0  0
 30 31  1  0  0  0
 31 32  1  0  0  0
 32 33  2  0  0  0
 33 34  1  0  0  0
 34 35  2  0  0  0
 35 36  1  0  0  0
 36 37  2  0  0  0
 22 23  1  0  0  0
 23 24  1  0  0  0
 23 25  2  0  0  0
 17 12  1  0  0  0
 37 29  1  0  0  0
 37 32  1  0  0  0
  6  9  1  0  0  0
  3  4  1  0  0  0
 31 38  1  0  0  0
 24 26  1  0  0  0
 24 27  1  0  0  0
M  END
> <minimizedAffinity>
1.94534

> <CNNscore>
0.2797323167

> <CNNaffinity>
6.2394208908

> <CNN_VS>
1.7453676462

> <CNNaffinity_variance>
0.0439628772

$$$$
[H]c1c([H])c([H])c(C([H])([H])OC(=O)N([H])[C@]([H])(C(=O)N([H])[C@]([H])(C(=O)N([H])[H])C([H])([H])c2c([H])n([H])c3c([H])c([H])c([H])c([H])c23)C([H])([H])C([H])(C([H])([H])[H])C([H])([H])[H])c([H])c1[H]


 38 40  0  0  0  0  0  0  0  0999 V2000
  -12.0451   -7.7349    8.9273 C   0  0  0  0  0  0  0  0  0  0  0  0
  -12.4872   -8.6387    9.7387 O   0  0  0  0  0  0  0  0  0  0  0  0
  -12.6876   -7.4273    7.7582 N   0  0  0  0  0  0  0  0  0  0  0  0
  -12.4798   -6.4498    7.3241 H   0  0  0  0  0  0  0  0  0  0  0  0
  -10.7989   -7.1084    9.3287 C   0  0  0  0  0  0  0  0  0  0  0  0
   -9.4685   -7.3002    8.9864 N   0  0  0  0  0  0  0  0  0  0  0  0
   -8.8286   -8.1457    8.0361 C   0  0  0  0  0  0  0  0  0  0  0  0
   -9.2928   -8.7732    7.1289 O   0  0  0  0  0  0  0  0  0  0  0  0
   -8.7208   -6.7094    9.5276 H   0  0  0  0  0  0  0  0  0  0  0  0
   -7.4350   -8.3024    8.2175 O   0  0  0  0  0  0  0  0  0  0  0  0
   -6.5540   -7.3765    8.7417 C   0  0  0  0  0  0  0  0  0  0  0  0
   -5.7297   -6.5938    7.8087 C   0  0  0  0  0  0  0  0  0  0  0  0
   -4.7395   -5.8492    8.4747 C   0  0  0  0  0  0  0  0  0  0  0  0
   -3.8003   -5.1237    7.7944 C   0  0  0  0  0  0  0  0  0  0  0  0
   -3.8250   -5.1211    6.4374 C   0  0  0  0  0  0  0  0  0  0  0  0
   -4.8086   -5.8446    5.7722 C   0  0  0  0  0  0  0  0  0  0  0  0
   -5.7477   -6.5751    6.4771 C   0  0  0  0  0  0  0  0  0  0  0  0
  -11.0228   -5.5681    9.4584 C   0  0  0  0  0  0  0  0  0  0  0  0
  -13.3843   -5.1806   10.3503 C   0  0  0  0  0  0  0  0  0  0  0  0
  -11.9197   -5.1093   10.5235 C   0  0  0  0  0  0  0  0  0  0  0  0
  -11.5455   -5.8844   11.7866 C   0  0  0  0  0  0  0  0  0  0  0  0
  -13.8075   -8.0357    6.9910 C   0  0  0  0  0  0  0  0  0  0  0  0
  -13.3995   -9.4051    6.7942 C   0  0  0  0  0  0  0  0  0  0  0  0
  -13.8844  -10.5373    7.5666 N   0  0  0  0  0  0  0  0  0  0  0  0
  -12.5330   -9.7450    5.9045 O   0  0  0  0  0  0  0  0  0  0  0  0
  -14.0857  -11.4401    7.1755 H   0  0  0  0  0  0  0  0  0  0  0  0
  -13.9719  -10.3327    8.5932 H   0  0  0  0  0  0  0  0  0  0  0  0
  -13.9042   -7.1398    5.8555 C   0  0  0  0  0  0  0  0  0  0  0  0
  -14.9576   -6.5079    5.2032 C   0  0  0  0  0  0  0  0  0  0  0  0
  -14.8291   -5.1168    4.8704 C   0  0  0  0  0  0  0  0  0  0  0  0
  -15.9761   -4.6938    4.3306 N   0  0  0  0  0  0  0  0  0  0  0  0
  -16.8668   -5.7067    4.2717 C   0  0  0  0  0  0  0  0  0  0  0  0
  -18.1656   -5.8008    3.8316 C   0  0  0  0  0  0  0  0  0  0  0  0
  -18.8840   -6.9428    3.8937 C   0  0  0  0  0  0  0  0  0  0  0  0
  -18.2276   -8.0559    4.4360 C   0  0  0  0  0  0  0  0  0  0  0  0
  -16.9264   -7.9975    4.8840 C   0  0  0  0  0  0  0  0  0  0  0  0
  -16.2399   -6.8046    4.8078 C   0  0  0  0  0  0  0  0  0  0  0  0
  -16.1870   -3.7258    4.0195 H   0  0  0  0  0  0  0  0  0  0  0  0
 19 20  1  0  0  0
 20 21  1  0  0  0
 20 18  1  0  0  0
 18  5  1  0  0  0
  5  6  1  0  0  0
  6  7  1  0  0  0
  7  8  2  0  0  0
  7 10  1  0  0  0
 10 11  1  0  0  0
 11 12  1  0  0  0
 12 13  2  0  0  0
 13 14  1  0  0  0
 14 15  2  0  0  0
 15 16  1  0  0  0
 16 17  2  0  0  0
  5  1  1  0  0  0
  1  2  2  0  0  0
  1  3  1  0  0  0
  3 22  1  0  0  0
 22 28  1  0  0  0
 28 29  1  0  0  0
 29 30  2  0  0  0
 30 31  1  0  0  0
 31 32  1  0  0  0
 32 33  2  0  0  0
 33 34  1  0  0  0
 34 35  2  0  0  0
 35 36  1  0  0  0
 36 37  2  0  0  0
 22 23  1  0  0  0
 23 24  1  0  0  0
 23 25  2  0  0  0
 17 12  1  0  0  0
 37 29  1  0  0  0
 37 32  1  0  0  0
  6  9  1  0  0  0
  3  4  1  0  0  0
 31 38  1  0  0  0
 24 26  1  0  0  0
 24 27  1  0  0  0
M  END
> <minimizedAffinity>
-8.08498

> <CNNscore>
0.2604631186

> <CNNaffinity>
6.8907113075

> <CNN_VS>
1.7947762012

> <CNNaffinity_variance>
0.0225217734

$$$$
[H]c1c([H])c([H])c(C([H])([H])OC(=O)N([H])[C@]([H])(C(=O)N([H])[C@]([H])(C(=O)N([H])[H])C([H])([H])c2c([H])n([H])c3c([H])c([H])c([H])c([H])c23)C([H])([H])C([H])(C([H])([H])[H])C([H])([H])[H])c([H])c1[H]


 38 40  0  0  0  0  0  0  0  0999 V2000
  -16.0052   -6.8616    6.1386 C   0  0  0  0  0  0  0  0  0  0  0  0
  -16.8386   -7.4416    6.9386 O   0  0  0  0  0  0  0  0  0  0  0  0
  -15.9199   -7.1889    4.8121 N   0  0  0  0  0  0  0  0  0  0  0  0
  -15.4828   -6.4440    4.1478 H   0  0  0  0  0  0  0  0  0  0  0  0
  -15.1425   -5.8754    6.7629 C   0  0  0  0  0  0  0  0  0  0  0  0
  -13.8912   -5.9275    7.3590 N   0  0  0  0  0  0  0  0  0  0  0  0
  -13.4603   -6.2802    8.6695 C   0  0  0  0  0  0  0  0  0  0  0  0
  -14.0532   -6.8278    9.5532 O   0  0  0  0  0  0  0  0  0  0  0  0
  -13.0294   -5.6485    6.7422 H   0  0  0  0  0  0  0  0  0  0  0  0
  -12.1416   -5.8846    8.9924 O   0  0  0  0  0  0  0  0  0  0  0  0
  -11.1004   -6.7014    9.3884 C   0  0  0  0  0  0  0  0  0  0  0  0
   -9.9522   -6.8547    8.4825 C   0  0  0  0  0  0  0  0  0  0  0  0
   -9.4587   -8.1718    8.4724 C   0  0  0  0  0  0  0  0  0  0  0  0
   -8.4541   -8.5611    7.6294 C   0  0  0  0  0  0  0  0  0  0  0  0
   -7.9169   -7.6500    6.7790 C   0  0  0  0  0  0  0  0  0  0  0  0
   -8.3909   -6.3428    6.7922 C   0  0  0  0  0  0  0  0  0  0  0  0
   -9.4097   -5.9687    7.6490 C   0  0  0  0  0  0  0  0  0  0  0  0
  -15.2037   -4.5510    5.9373 C   0  0  0  0  0  0  0  0  0  0  0  0
  -16.6189   -4.4461    3.8140 C   0  0  0  0  0  0  0  0  0  0  0  0
  -15.3217   -4.6747    4.4812 C   0  0  0  0  0  0  0  0  0  0  0  0
  -14.2908   -3.7273    3.8680 C   0  0  0  0  0  0  0  0  0  0  0  0
  -16.4811   -8.2769    3.9669 C   0  0  0  0  0  0  0  0  0  0  0  0
  -17.8705   -8.3415    4.3488 C   0  0  0  0  0  0  0  0  0  0  0  0
  -18.4463   -9.3462    5.2279 N   0  0  0  0  0  0  0  0  0  0  0  0
  -18.7443   -7.5009    3.9153 O   0  0  0  0  0  0  0  0  0  0  0  0
  -19.1523   -9.1537    5.9157 H   0  0  0  0  0  0  0  0  0  0  0  0
  -18.0773  -10.3135    5.0506 H   0  0  0  0  0  0  0  0  0  0  0  0
  -15.5929   -9.3785    4.2813 C   0  0  0  0  0  0  0  0  0  0  0  0
  -14.3835   -9.4887    4.9592 C   0  0  0  0  0  0  0  0  0  0  0  0
  -13.1707   -9.5878    4.1966 C   0  0  0  0  0  0  0  0  0  0  0  0
  -12.1462   -9.7683    5.0355 N   0  0  0  0  0  0  0  0  0  0  0  0
  -12.5855   -9.7920    6.3119 C   0  0  0  0  0  0  0  0  0  0  0  0
  -11.9613   -9.9612    7.5249 C   0  0  0  0  0  0  0  0  0  0  0  0
  -12.6259   -9.9707    8.7007 C   0  0  0  0  0  0  0  0  0  0  0  0
  -14.0137   -9.7911    8.6266 C   0  0  0  0  0  0  0  0  0  0  0  0
  -14.6708   -9.6164    7.4287 C   0  0  0  0  0  0  0  0  0  0  0  0
  -13.9473   -9.6248    6.2554 C   0  0  0  0  0  0  0  0  0  0  0  0
  -11.1516   -9.9020    4.7688 H   0  0  0  0  0  0  0  0  0  0  0  0
 19 20  1  0  0  0
 20 21  1  0  0  0
 20 18  1  0  0  0
 18  5  1  0  0  0
  5  6  1  0  0  0
  6  7  1  0  0  0
  7  8  2  0  0  0
  7 10  1  0  0  0
 10 11  1  0  0  0
 11 12  1  0  0  0
 12 13  2  0  0  0
 13 14  1  0  0  0
 14 15  2  0  0  0
 15 16  1  0  0  0
 16 17  2  0  0  0
  5  1  1  0  0  0
  1  2  2  0  0  0
  1  3  1  0  0  0
  3 22  1  0  0  0
 22 28  1  0  0  0
 28 29  1  0  0  0
 29 30  2  0  0  0
 30 31  1  0  0  0
 31 32  1  0  0  0
 32 33  2  0  0  0
 33 34  1  0  0  0
 34 35  2  0  0  0
 35 36  1  0  0  0
 36 37  2  0  0  0
 22 23  1  0  0  0
 23 24  1  0  0  0
 23 25  2  0  0  0
 17 12  1  0  0  0
 37 29  1  0  0  0
 37 32  1  0  0  0
  6  9  1  0  0  0
  3  4  1  0  0  0
 31 38  1  0  0  0
 24 26  1  0  0  0
 24 27  1  0  0  0
M  END
> <minimizedAffinity>
-2.20736

> <CNNscore>
0.2413395047

> <CNNaffinity>
6.6267509460

> <CNN_VS>
1.5992968082

> <CNNaffinity_variance>
0.2741281986

$$$$
[H]c1c([H])c([H])c(C([H])([H])OC(=O)N([H])[C@]([H])(C(=O)N([H])[C@]([H])(C(=O)N([H])[H])C([H])([H])c2c([H])n([H])c3c([H])c([H])c([H])c([H])c23)C([H])([H])C([H])(C([H])([H])[H])C([H])([H])[H])c([H])c1[H]


 38 40  0  0  0  0  0  0  0  0999 V2000
  -13.0791   -7.7612    8.1409 C   0  0  0  0  0  0  0  0  0  0  0  0
  -12.9542   -9.0375    7.9794 O   0  0  0  0  0  0  0  0  0  0  0  0
  -14.0455   -7.2191    8.9449 N   0  0  0  0  0  0  0  0  0  0  0  0
  -13.8709   -6.2083    9.3124 H   0  0  0  0  0  0  0  0  0  0  0  0
  -12.1498   -6.9529    7.3732 C   0  0  0  0  0  0  0  0  0  0  0  0
  -10.7665   -6.8717    7.3091 N   0  0  0  0  0  0  0  0  0  0  0  0
   -9.7319   -7.8203    7.5484 C   0  0  0  0  0  0  0  0  0  0  0  0
   -9.7914   -9.0092    7.6717 O   0  0  0  0  0  0  0  0  0  0  0  0
  -10.3331   -5.9062    7.0249 H   0  0  0  0  0  0  0  0  0  0  0  0
   -8.4396   -7.2686    7.7076 O   0  0  0  0  0  0  0  0  0  0  0  0
   -7.3704   -7.8314    8.3770 C   0  0  0  0  0  0  0  0  0  0  0  0
   -6.0187   -7.6081    7.8426 C   0  0  0  0  0  0  0  0  0  0  0  0
   -5.3445   -6.5780    8.5230 C   0  0  0  0  0  0  0  0  0  0  0  0
   -4.0399   -6.2666    8.2538 C   0  0  0  0  0  0  0  0  0  0  0  0
   -3.3770   -6.9709    7.3017 C   0  0  0  0  0  0  0  0  0  0  0  0
   -4.0408   -7.9822    6.6159 C   0  0  0  0  0  0  0  0  0  0  0  0
   -5.3588   -8.2851    6.9044 C   0  0  0  0  0  0  0  0  0  0  0  0
  -12.6868   -6.8087    5.9137 C   0  0  0  0  0  0  0  0  0  0  0  0
  -14.5674   -5.2704    6.7007 C   0  0  0  0  0  0  0  0  0  0  0  0
  -14.0395   -6.2678    5.7485 C   0  0  0  0  0  0  0  0  0  0  0  0
  -14.1151   -5.6774    4.3407 C   0  0  0  0  0  0  0  0  0  0  0  0
  -15.2431   -7.7560    9.6454 C   0  0  0  0  0  0  0  0  0  0  0  0
  -14.7037   -8.4439   10.7928 C   0  0  0  0  0  0  0  0  0  0  0  0
  -13.3676   -9.0117   10.8707 N   0  0  0  0  0  0  0  0  0  0  0  0
  -15.3876   -8.6332   11.8672 O   0  0  0  0  0  0  0  0  0  0  0  0
  -12.7898   -8.9795   11.6914 H   0  0  0  0  0  0  0  0  0  0  0  0
  -13.0713   -9.4984    9.9883 H   0  0  0  0  0  0  0  0  0  0  0  0
  -15.8868   -8.5094    8.5874 C   0  0  0  0  0  0  0  0  0  0  0  0
  -16.4469   -8.1756    7.3589 C   0  0  0  0  0  0  0  0  0  0  0  0
  -17.6904   -7.4576    7.3389 C   0  0  0  0  0  0  0  0  0  0  0  0
  -18.0871   -7.3156    6.0707 N   0  0  0  0  0  0  0  0  0  0  0  0
  -17.1927   -7.8841    5.2344 C   0  0  0  0  0  0  0  0  0  0  0  0
  -17.1324   -8.0285    3.8688 C   0  0  0  0  0  0  0  0  0  0  0  0
  -16.1250   -8.6712    3.2393 C   0  0  0  0  0  0  0  0  0  0  0  0
  -15.1168   -9.1927    4.0612 C   0  0  0  0  0  0  0  0  0  0  0  0
  -15.1444   -9.0640    5.4323 C   0  0  0  0  0  0  0  0  0  0  0  0
  -16.2007   -8.4076    6.0268 C   0  0  0  0  0  0  0  0  0  0  0  0
  -18.9650   -6.8631    5.7500 H   0  0  0  0  0  0  0  0  0  0  0  0
 19 20  1  0  0  0
 20 21  1  0  0  0
 20 18  1  0  0  0
 18  5  1  0  0  0
  5  6  1  0  0  0
  6  7  1  0  0  0
  7  8  2  0  0  0
  7 10  1  0  0  0
 10 11  1  0  0  0
 11 12  1  0  0  0
 12 13  2  0  0  0
 13 14  1  0  0  0
 14 15  2  0  0  0
 15 16  1  0  0  0
 16 17  2  0  0  0
  5  1  1  0  0  0
  1  2  2  0  0  0
  1  3  1  0  0  0
  3 22  1  0  0  0
 22 28  1  0  0  0
 28 29  1  0  0  0
 29 30  2  0  0  0
 30 31  1  0  0  0
 31 32  1  0  0  0
 32 33  2  0  0  0
 33 34  1  0  0  0
 34 35  2  0  0  0
 35 36  1  0  0  0
 36 37  2  0  0  0
 22 23  1  0  0  0
 23 24  1  0  0  0
 23 25  2  0  0  0
 17 12  1  0  0  0
 37 29  1  0  0  0
 37 32  1  0  0  0
  6  9  1  0  0  0
  3  4  1  0  0  0
 31 38  1  0  0  0
 24 26  1  0  0  0
 24 27  1  0  0  0
M  END
> <minimizedAffinity>
-0.00407

> <CNNscore>
0.2340666950

> <CNNaffinity>
6.5247879028

> <CNN_VS>
1.5272355080

> <CNNaffinity_variance>
0.2054917067

$$$$
[H]OC(=O)C([H])([H])[C@]([H])(C(=O)N1C([H])([H])C([H])([H])C([H])([H])[C@@]1([H])C(=O)N([H])[C@]([H])(C(=O)O[H])C([H])([H])[H])N([H])C(=O)[C@@]([H])(N([H])C(=O)[C@@]1([H])N(C(=O)[C@@]([H])(N([H])C(=O)C([H])([H])[H])C([H])([H])c2c([H])c([H])c([H])c([H])c2[H])C([H])([H])C([H])([H])C1([H])[H])C([H])([H])c1c([H])c([H])c([H])c([H])c1[H]


 59 62  0  0  0  0  0  0  0  0999 V2000
   -4.7642   -6.0142    7.7395 C   0  0  0  0  0  0  0  0  0  0  0  0
   -4.2429   -5.6551    6.4288 N   0  0  0  0  0  0  0  0  0  0  0  0
   -2.9429   -5.8510    5.9607 C   0  0  0  0  0  0  0  0  0  0  0  0
   -2.0816   -6.3920    6.6855 O   0  0  0  0  0  0  0  0  0  0  0  0
   -4.9609   -5.1952    5.7833 H   0  0  0  0  0  0  0  0  0  0  0  0
   -2.5634   -5.4168    4.5940 C   0  0  0  0  0  0  0  0  0  0  0  0
   -1.1952   -5.9337    4.2519 C   0  0  0  0  0  0  0  0  0  0  0  0
   -0.3882   -4.7209    3.8720 C   0  0  0  0  0  0  0  0  0  0  0  0
   -1.1029   -3.5872    4.6336 C   0  0  0  0  0  0  0  0  0  0  0  0
   -2.4799   -3.9854    4.4637 N   0  0  0  0  0  0  0  0  0  0  0  0
   -3.5908   -3.1266    4.2039 C   0  0  0  0  0  0  0  0  0  0  0  0
   -4.7365   -3.6747    4.0697 O   0  0  0  0  0  0  0  0  0  0  0  0
   -3.5285   -1.6685    4.0766 C   0  0  0  0  0  0  0  0  0  0  0  0
   -3.0481   -1.0590    5.3313 N   0  0  0  0  0  0  0  0  0  0  0  0
   -3.9302   -0.4127    6.2293 C   0  0  0  0  0  0  0  0  0  0  0  0
   -3.4037    0.1838    7.4758 C   0  0  0  0  0  0  0  0  0  0  0  0
   -5.1578   -0.3569    5.9467 O   0  0  0  0  0  0  0  0  0  0  0  0
   -2.0391   -1.1041    5.5591 H   0  0  0  0  0  0  0  0  0  0  0  0
   -2.5662   -1.1861    3.0073 C   0  0  0  0  0  0  0  0  0  0  0  0
   -2.9475   -1.8266    1.7032 C   0  0  0  0  0  0  0  0  0  0  0  0
   -2.1223   -2.7638    1.1201 C   0  0  0  0  0  0  0  0  0  0  0  0
   -2.4712   -3.3623   -0.0928 C   0  0  0  0  0  0  0  0  0  0  0  0
   -3.6599   -2.9965   -0.6958 C   0  0  0  0  0  0  0  0  0  0  0  0
   -4.5034   -2.0616   -0.1329 C   0  0  0  0  0  0  0  0  0  0  0  0
   -4.1194   -1.4929    1.0693 C   0  0  0  0  0  0  0  0  0  0  0  0
   -2.8511   -5.7163    9.4583 N   0  0  0  0  0  0  0  0  0  0  0  0
   -4.0088   -5.3617    8.7696 C   0  0  0  0  0  0  0  0  0  0  0  0
   -4.4953   -4.2005    9.1333 O   0  0  0  0  0  0  0  0  0  0  0  0
   -2.3438   -6.5816    9.2514 H   0  0  0  0  0  0  0  0  0  0  0  0
   -2.2442   -4.8898   10.5027 C   0  0  0  0  0  0  0  0  0  0  0  0
   -4.1410   -5.1593   13.1721 C   0  0  0  0  0  0  0  0  0  0  0  0
   -4.8513   -6.3541   13.8131 C   0  0  0  0  0  0  0  0  0  0  0  0
   -3.7693   -6.8196   14.7677 C   0  0  0  0  0  0  0  0  0  0  0  0
   -2.4950   -6.4475   14.0908 C   0  0  0  0  0  0  0  0  0  0  0  0
   -2.8631   -5.7052   12.8519 N   0  0  0  0  0  0  0  0  0  0  0  0
   -2.0235   -5.6423   11.7251 C   0  0  0  0  0  0  0  0  0  0  0  0
   -0.9350   -6.3291   11.7809 O   0  0  0  0  0  0  0  0  0  0  0  0
   -3.0856   -3.1532   14.1919 N   0  0  0  0  0  0  0  0  0  0  0  0
   -4.1299   -4.1047   14.2144 C   0  0  0  0  0  0  0  0  0  0  0  0
   -5.0070   -4.0053   15.1282 O   0  0  0  0  0  0  0  0  0  0  0  0
   -2.3278   -3.1901   13.4415 H   0  0  0  0  0  0  0  0  0  0  0  0
   -1.4582   -1.7352   15.3487 C   0  0  0  0  0  0  0  0  0  0  0  0
   -2.9205   -2.0628   15.1325 C   0  0  0  0  0  0  0  0  0  0  0  0
   -3.6981   -0.8756   14.7392 C   0  0  0  0  0  0  0  0  0  0  0  0
   -3.5186   -0.2993   13.5047 O   0  0  0  0  0  0  0  0  0  0  0  0
   -4.5316   -0.3857   15.5342 O   0  0  0  0  0  0  0  0  0  0  0  0
   -3.2705   -0.7979   12.6585 H   0  0  0  0  0  0  0  0  0  0  0  0
   -0.9590   -4.2711    9.9770 C   0  0  0  0  0  0  0  0  0  0  0  0
   -1.1492   -3.0218    9.2311 C   0  0  0  0  0  0  0  0  0  0  0  0
   -1.8043   -3.0211    8.0245 O   0  0  0  0  0  0  0  0  0  0  0  0
   -0.7036   -1.9638    9.7193 O   0  0  0  0  0  0  0  0  0  0  0  0
   -2.3867   -2.2256    7.7798 H   0  0  0  0  0  0  0  0  0  0  0  0
   -5.1775   -7.4111    7.7675 C   0  0  0  0  0  0  0  0  0  0  0  0
   -6.5891   -7.7613    7.7026 C   0  0  0  0  0  0  0  0  0  0  0  0
   -7.4508   -6.6729    7.4419 C   0  0  0  0  0  0  0  0  0  0  0  0
   -8.8002   -6.8424    7.3169 C   0  0  0  0  0  0  0  0  0  0  0  0
   -9.3668   -8.0612    7.4375 C   0  0  0  0  0  0  0  0  0  0  0  0
   -8.5611   -9.1665    7.6942 C   0  0  0  0  0  0  0  0  0  0  0  0
   -7.1984   -8.9640    7.8155 C   0  0  0  0  0  0  0  0  0  0  0  0
 42 43  1  0  0  0
 43 38  1  0  0  0
 38 39  1  0  0  0
 39 40  2  0  0  0
 39 31  1  0  0  0
 31 32  1  0  0  0
 32 33  1  0  0  0
 33 34  1  0  0  0
 34 35  1  0  0  0
 35 36  1  0  0  0
 36 37  2  0  0  0
 36 30  1  0  0  0
 30 48  1  0  0  0
 48 49  1  0  0  0
 49 50  1  0  0  0
 49 51  2  0  0  0
 30 26  1  0  0  0
 26 27  1  0  0  0
 27 28  2  0  0  0
 27  1  1  0  0  0
  1 53  1  0  0  0
 53 54  1  0  0  0
 54 55  2  0  0  0
 55 56  1  0  0  0
 56 57  2  0  0  0
 57 58  1  0  0  0
 58 59  2  0  0  0
  1  2  1  0  0  0
  2  3  1  0  0  0
  3  4  2  0  0  0
  3  6  1  0  0  0
  6  7  1  0  0  0
  7  8  1  0  0  0
  8  9  1  0  0  0
  9 10  1  0  0  0
 10 11  1  0  0  0
 11 12  2  0  0  0
 11 13  1  0  0  0
 13 19  1  0  0  0
 19 20  1  0  0  0
 20 21  2  0  0  0
 21 22  1  0  0  0
 22 23  2  0  0  0
 23 24  1  0  0  0
 24 25  2  0  0  0
 13 14  1  0  0  0
 14 15  1  0  0  0
 15 16  1  0  0  0
 15 17  2  0  0  0
 43 44  1  0  0  0
 44 45  1  0  0  0
 44 46  2  0  0  0
 35 31  1  0  0  0
 59 54  1  0  0  0
 10  6  1  0  0  0
 25 20  1  0  0  0
 38 41  1  0  0  0
 50 52  1  0  0  0
 26 29  1  0  0  0
  2  5  1  0  0  0
 14 18  1  0  0  0
 45 47  1  0  0  0
M  END
> <minimizedAffinity>
-5.85806

> <CNNscore>
0.3099780381

> <CNNaffinity>
6.3547539711

> <CNN_VS>
1.9698342085

> <CNNaffinity_variance>
0.1340064257

$$$$
[H]OC(=O)C([H])([H])[C@]([H])(C(=O)N1C([H])([H])C([H])([H])C([H])([H])[C@@]1([H])C(=O)N([H])[C@]([H])(C(=O)O[H])C([H])([H])[H])N([H])C(=O)[C@@]([H])(N([H])C(=O)[C@@]1([H])N(C(=O)[C@@]([H])(N([H])C(=O)C([H])([H])[H])C([H])([H])c2c([H])c([H])c([H])c([H])c2[H])C([H])([H])C([H])([H])C1([H])[H])C([H])([H])c1c([H])c([H])c([H])c([H])c1[H]


 59 62  0  0  0  0  0  0  0  0999 V2000
   -7.1546   -7.0959    8.1601 C   0  0  0  0  0  0  0  0  0  0  0  0
   -8.4170   -6.3975    8.3532 N   0  0  0  0  0  0  0  0  0  0  0  0
   -9.6883   -6.9682    8.4288 C   0  0  0  0  0  0  0  0  0  0  0  0
   -9.8359   -8.2049    8.3354 O   0  0  0  0  0  0  0  0  0  0  0  0
   -8.3207   -5.3362    8.4432 H   0  0  0  0  0  0  0  0  0  0  0  0
  -10.8853   -6.1130    8.6192 C   0  0  0  0  0  0  0  0  0  0  0  0
  -10.9683   -5.6557   10.0475 C   0  0  0  0  0  0  0  0  0  0  0  0
  -12.3276   -6.0852   10.5312 C   0  0  0  0  0  0  0  0  0  0  0  0
  -12.6463   -7.2872    9.6202 C   0  0  0  0  0  0  0  0  0  0  0  0
  -12.1187   -6.8106    8.3641 N   0  0  0  0  0  0  0  0  0  0  0  0
  -12.7030   -6.9828    7.0726 C   0  0  0  0  0  0  0  0  0  0  0  0
  -12.0871   -6.4713    6.0777 O   0  0  0  0  0  0  0  0  0  0  0  0
  -13.9513   -7.6960    6.7910 C   0  0  0  0  0  0  0  0  0  0  0  0
  -14.0540   -8.9093    7.6240 N   0  0  0  0  0  0  0  0  0  0  0  0
  -13.1660   -9.9991    7.4631 C   0  0  0  0  0  0  0  0  0  0  0  0
  -13.3065  -11.1950    8.3214 C   0  0  0  0  0  0  0  0  0  0  0  0
  -12.2652   -9.9290    6.5835 O   0  0  0  0  0  0  0  0  0  0  0  0
  -14.7966   -8.9648    8.3435 H   0  0  0  0  0  0  0  0  0  0  0  0
  -15.2007   -6.8936    7.1029 C   0  0  0  0  0  0  0  0  0  0  0  0
  -16.0680   -6.8719    5.8765 C   0  0  0  0  0  0  0  0  0  0  0  0
  -16.7854   -7.9904    5.5110 C   0  0  0  0  0  0  0  0  0  0  0  0
  -17.5929   -7.9763    4.3714 C   0  0  0  0  0  0  0  0  0  0  0  0
  -17.6584   -6.8191    3.6184 C   0  0  0  0  0  0  0  0  0  0  0  0
  -16.9506   -5.6864    3.9627 C   0  0  0  0  0  0  0  0  0  0  0  0
  -16.1625   -5.7434    5.0993 C   0  0  0  0  0  0  0  0  0  0  0  0
   -5.2176   -5.8352    9.3271 N   0  0  0  0  0  0  0  0  0  0  0  0
   -6.2420   -6.7729    9.2185 C   0  0  0  0  0  0  0  0  0  0  0  0
   -6.4037   -7.4941   10.3007 O   0  0  0  0  0  0  0  0  0  0  0  0
   -5.0035   -5.1798    8.5697 H   0  0  0  0  0  0  0  0  0  0  0  0
   -4.3843   -5.6798   10.5202 C   0  0  0  0  0  0  0  0  0  0  0  0
   -3.1444   -2.7570    9.6735 C   0  0  0  0  0  0  0  0  0  0  0  0
   -2.1043   -1.8499   10.3357 C   0  0  0  0  0  0  0  0  0  0  0  0
   -0.8450   -2.3653    9.6669 C   0  0  0  0  0  0  0  0  0  0  0  0
   -1.1335   -3.8015    9.3939 C   0  0  0  0  0  0  0  0  0  0  0  0
   -2.5461   -4.0451    9.8025 N   0  0  0  0  0  0  0  0  0  0  0  0
   -3.0204   -5.3140   10.1810 C   0  0  0  0  0  0  0  0  0  0  0  0
   -2.1483   -6.2608   10.2340 O   0  0  0  0  0  0  0  0  0  0  0  0
   -3.2262   -0.8640    8.0648 N   0  0  0  0  0  0  0  0  0  0  0  0
   -3.2696   -2.2594    8.2824 C   0  0  0  0  0  0  0  0  0  0  0  0
   -3.4127   -3.0159    7.2717 O   0  0  0  0  0  0  0  0  0  0  0  0
   -3.1019   -0.1867    8.8800 H   0  0  0  0  0  0  0  0  0  0  0  0
   -2.3132   -0.7423    5.7957 C   0  0  0  0  0  0  0  0  0  0  0  0
   -3.3365   -0.2096    6.7762 C   0  0  0  0  0  0  0  0  0  0  0  0
   -4.7052   -0.2837    6.2378 C   0  0  0  0  0  0  0  0  0  0  0  0
   -5.7414    0.3603    6.8701 O   0  0  0  0  0  0  0  0  0  0  0  0
   -4.9293   -0.9375    5.1942 O   0  0  0  0  0  0  0  0  0  0  0  0
   -5.6610    1.2285    7.3857 H   0  0  0  0  0  0  0  0  0  0  0  0
   -5.0258   -4.6710   11.4591 C   0  0  0  0  0  0  0  0  0  0  0  0
   -5.2632   -5.1733   12.8172 C   0  0  0  0  0  0  0  0  0  0  0  0
   -6.1542   -6.1941   13.0391 O   0  0  0  0  0  0  0  0  0  0  0  0
   -4.6366   -4.6527   13.7620 O   0  0  0  0  0  0  0  0  0  0  0  0
   -5.9574   -6.8706   13.7709 H   0  0  0  0  0  0  0  0  0  0  0  0
   -6.8048   -7.1520    6.7467 C   0  0  0  0  0  0  0  0  0  0  0  0
   -5.4100   -7.1027    6.3324 C   0  0  0  0  0  0  0  0  0  0  0  0
   -5.0169   -5.8801    5.7443 C   0  0  0  0  0  0  0  0  0  0  0  0
   -3.7324   -5.6637    5.3340 C   0  0  0  0  0  0  0  0  0  0  0  0
   -2.7832   -6.6125    5.4749 C   0  0  0  0  0  0  0  0  0  0  0  0
   -3.1194   -7.8348    6.0490 C   0  0  0  0  0  0  0  0  0  0  0  0
   -4.4277   -8.0249    6.4548 C   0  0  0  0  0  0  0  0  0  0  0  0
 42 43  1  0  0  0
 43 38  1  0  0  0
 38 39  1  0  0  0
 39 40  2  0  0  0
 39 31  1  0  0  0
 31 32  1  0  0  0
 32 33  1  0  0  0
 33 34  1  0  0  0
 34 35  1  0  0  0
 35 36  1  0  0  0
 36 37  2  0  0  0
 36 30  1  0  0  0
 30 48  1  0  0  0
 48 49  1  0  0  0
 49 50  1  0  0  0
 49 51  2  0  0  0
 30 26  1  0  0  0
 26 27  1  0  0  0
 27 28  2  0  0  0
 27  1  1  0  0  0
  1 53  1  0  0  0
 53 54  1  0  0  0
 54 55  2  0  0  0
 55 56  1  0  0  0
 56 57  2  0  0  0
 57 58  1  0  0  0
 58 59  2  0  0  0
  1  2  1  0  0  0
  2  3  1  0  0  0
  3  4  2  0  0  0
  3  6  1  0  0  0
  6  7  1  0  0  0
  7  8  1  0  0  0
  8  9  1  0  0  0
  9 10  1  0  0  0
 10 11  1  0  0  0
 11 12  2  0  0  0
 11 13  1  0  0  0
 13 19  1  0  0  0
 19 20  1  0  0  0
 20 21  2  0  0  0
 21 22  1  0  0  0
 22 23  2  0  0  0
 23 24  1  0  0  0
 24 25  2  0  0  0
 13 14  1  0  0  0
 14 15  1  0  0  0
 15 16  1  0  0  0
 15 17  2  0  0  0
 43 44  1  0  0  0
 44 45  1  0  0  0
 44 46  2  0  0  0
 35 31  1  0  0  0
 59 54  1  0  0  0
 10  6  1  0  0  0
 25 20  1  0  0  0
 38 41  1  0  0  0
 50 52  1  0  0  0
 26 29  1  0  0  0
  2  5  1  0  0  0
 14 18  1  0  0  0
 45 47  1  0  0  0
M  END
> <minimizedAffinity>
-4.63441

> <CNNscore>
0.3087464571

> <CNNaffinity>
7.0805130005

> <CNN_VS>
2.1860833168

> <CNNaffinity_variance>
0.2378052175

$$$$
[H]OC(=O)C([H])([H])[C@]([H])(C(=O)N1C([H])([H])C([H])([H])C([H])([H])[C@@]1([H])C(=O)N([H])[C@]([H])(C(=O)O[H])C([H])([H])[H])N([H])C(=O)[C@@]([H])(N([H])C(=O)[C@@]1([H])N(C(=O)[C@@]([H])(N([H])C(=O)C([H])([H])[H])C([H])([H])c2c([H])c([H])c([H])c([H])c2[H])C([H])([H])C([H])([H])C1([H])[H])C([H])([H])c1c([H])c([H])c([H])c([H])c1[H]


 59 62  0  0  0  0  0  0  0  0999 V2000
   -5.5937   -6.4623    7.8922 C   0  0  0  0  0  0  0  0  0  0  0  0
   -4.7388   -6.0021    6.8078 N   0  0  0  0  0  0  0  0  0  0  0  0
   -3.3831   -6.2824    6.6317 C   0  0  0  0  0  0  0  0  0  0  0  0
   -2.7723   -7.0035    7.4483 O   0  0  0  0  0  0  0  0  0  0  0  0
   -5.2371   -5.3871    6.0887 H   0  0  0  0  0  0  0  0  0  0  0  0
   -2.6456   -5.7253    5.4715 C   0  0  0  0  0  0  0  0  0  0  0  0
   -1.2016   -6.1339    5.5361 C   0  0  0  0  0  0  0  0  0  0  0  0
   -0.4157   -4.8509    5.4866 C   0  0  0  0  0  0  0  0  0  0  0  0
   -1.4131   -3.8214    6.0535 C   0  0  0  0  0  0  0  0  0  0  0  0
   -2.6395   -4.2856    5.4503 N   0  0  0  0  0  0  0  0  0  0  0  0
   -3.6848   -3.4763    4.9104 C   0  0  0  0  0  0  0  0  0  0  0  0
   -4.6902   -4.0788    4.4035 O   0  0  0  0  0  0  0  0  0  0  0  0
   -3.7019   -2.0116    4.8869 C   0  0  0  0  0  0  0  0  0  0  0  0
   -3.3105   -1.4678    6.2013 N   0  0  0  0  0  0  0  0  0  0  0  0
   -4.1128   -0.5231    6.8838 C   0  0  0  0  0  0  0  0  0  0  0  0
   -3.6808   -0.0057    8.2001 C   0  0  0  0  0  0  0  0  0  0  0  0
   -5.1891   -0.1371    6.3521 O   0  0  0  0  0  0  0  0  0  0  0  0
   -2.4248   -1.7846    6.6339 H   0  0  0  0  0  0  0  0  0  0  0  0
   -2.7253   -1.4019    3.8985 C   0  0  0  0  0  0  0  0  0  0  0  0
   -3.4137   -0.2709    3.1891 C   0  0  0  0  0  0  0  0  0  0  0  0
   -4.2392   -0.5224    2.1146 C   0  0  0  0  0  0  0  0  0  0  0  0
   -4.8815    0.5253    1.4505 C   0  0  0  0  0  0  0  0  0  0  0  0
   -4.6731    1.8181    1.8924 C   0  0  0  0  0  0  0  0  0  0  0  0
   -3.8522    2.0967    2.9653 C   0  0  0  0  0  0  0  0  0  0  0  0
   -3.2350    1.0292    3.5946 C   0  0  0  0  0  0  0  0  0  0  0  0
   -3.9650   -5.2547    9.5023 N   0  0  0  0  0  0  0  0  0  0  0  0
   -5.0667   -6.0334    9.1554 C   0  0  0  0  0  0  0  0  0  0  0  0
   -5.7575   -6.4469   10.1895 O   0  0  0  0  0  0  0  0  0  0  0  0
   -3.3562   -4.8351    8.7935 H   0  0  0  0  0  0  0  0  0  0  0  0
   -3.5951   -4.9435   10.8837 C   0  0  0  0  0  0  0  0  0  0  0  0
   -2.7528   -6.7058   13.5259 C   0  0  0  0  0  0  0  0  0  0  0  0
   -2.2585   -8.1455   13.6874 C   0  0  0  0  0  0  0  0  0  0  0  0
   -0.7621   -7.9194   13.5963 C   0  0  0  0  0  0  0  0  0  0  0  0
   -0.6218   -6.7321   12.7069 C   0  0  0  0  0  0  0  0  0  0  0  0
   -2.0001   -6.2534   12.4024 N   0  0  0  0  0  0  0  0  0  0  0  0
   -2.3124   -5.5227   11.2417 C   0  0  0  0  0  0  0  0  0  0  0  0
   -1.3541   -5.3461   10.3990 O   0  0  0  0  0  0  0  0  0  0  0  0
   -1.8180   -4.7626   14.7623 N   0  0  0  0  0  0  0  0  0  0  0  0
   -2.4312   -6.0348   14.8084 C   0  0  0  0  0  0  0  0  0  0  0  0
   -2.6762   -6.5371   15.9494 O   0  0  0  0  0  0  0  0  0  0  0  0
   -1.5967   -4.2955   13.8287 H   0  0  0  0  0  0  0  0  0  0  0  0
   -0.1906   -4.5250   16.5766 C   0  0  0  0  0  0  0  0  0  0  0  0
   -1.4343   -3.9713   15.9143 C   0  0  0  0  0  0  0  0  0  0  0  0
   -1.2898   -2.5449   15.5775 C   0  0  0  0  0  0  0  0  0  0  0  0
   -0.1247   -2.0716   15.0236 O   0  0  0  0  0  0  0  0  0  0  0  0
   -2.2358   -1.7547   15.7955 O   0  0  0  0  0  0  0  0  0  0  0  0
    0.4827   -2.5960   14.4054 H   0  0  0  0  0  0  0  0  0  0  0  0
   -3.6144   -3.4371   11.0868 C   0  0  0  0  0  0  0  0  0  0  0  0
   -3.2172   -3.0020   12.4307 C   0  0  0  0  0  0  0  0  0  0  0  0
   -2.0666   -2.2769   12.6190 O   0  0  0  0  0  0  0  0  0  0  0  0
   -3.9488   -3.3050   13.3946 O   0  0  0  0  0  0  0  0  0  0  0  0
   -2.0471   -1.5605   13.3390 H   0  0  0  0  0  0  0  0  0  0  0  0
   -6.1095   -7.7965    7.6146 C   0  0  0  0  0  0  0  0  0  0  0  0
   -7.5445   -8.0413    7.6007 C   0  0  0  0  0  0  0  0  0  0  0  0
   -7.9078   -9.3768    7.3186 C   0  0  0  0  0  0  0  0  0  0  0  0
   -9.2141   -9.7750    7.3028 C   0  0  0  0  0  0  0  0  0  0  0  0
  -10.2142   -8.9055    7.5573 C   0  0  0  0  0  0  0  0  0  0  0  0
   -9.9089   -7.5778    7.8413 C   0  0  0  0  0  0  0  0  0  0  0  0
   -8.5775   -7.2040    7.8503 C   0  0  0  0  0  0  0  0  0  0  0  0
 42 43  1  0  0  0
 43 38  1  0  0  0
 38 39  1  0  0  0
 39 40  2  0  0  0
 39 31  1  0  0  0
 31 32  1  0  0  0
 32 33  1  0  0  0
 33 34  1  0  0  0
 34 35  1  0  0  0
 35 36  1  0  0  0
 36 37  2  0  0  0
 36 30  1  0  0  0
 30 48  1  0  0  0
 48 49  1  0  0  0
 49 50  1  0  0  0
 49 51  2  0  0  0
 30 26  1  0  0  0
 26 27  1  0  0  0
 27 28  2  0  0  0
 27  1  1  0  0  0
  1 53  1  0  0  0
 53 54  1  0  0  0
 54 55  2  0  0  0
 55 56  1  0  0  0
 56 57  2  0  0  0
 57 58  1  0  0  0
 58 59  2  0  0  0
  1  2  1  0  0  0
  2  3  1  0  0  0
  3  4  2  0  0  0
  3  6  1  0  0  0
  6  7  1  0  0  0
  7  8  1  0  0  0
  8  9  1  0  0  0
  9 10  1  0  0  0
 10 11  1  0  0  0
 11 12  2  0  0  0
 11 13  1  0  0  0
 13 19  1  0  0  0
 19 20  1  0  0  0
 20 21  2  0  0  0
 21 22  1  0  0  0
 22 23  2  0  0  0
 23 24  1  0  0  0
 24 25  2  0  0  0
 13 14  1  0  0  0
 14 15  1  0  0  0
 15 16  1  0  0  0
 15 17  2  0  0  0
 43 44  1  0  0  0
 44 45  1  0  0  0
 44 46  2  0  0  0
 35 31  1  0  0  0
 59 54  1  0  0  0
 10  6  1  0  0  0
 25 20  1  0  0  0
 38 41  1  0  0  0
 50 52  1  0  0  0
 26 29  1  0  0  0
  2  5  1  0  0  0
 14 18  1  0  0  0
 45 47  1  0  0  0
M  END
> <minimizedAffinity>
-4.58952

> <CNNscore>
0.2765297592

> <CNNaffinity>
6.3042473793

> <CNN_VS>
1.7433120012

> <CNNaffinity_variance>
0.2233435661

$$$$
[H]OC(=O)C([H])([H])[C@]([H])(C(=O)N1C([H])([H])C([H])([H])C([H])([H])[C@@]1([H])C(=O)N([H])[C@]([H])(C(=O)O[H])C([H])([H])[H])N([H])C(=O)[C@@]([H])(N([H])C(=O)[C@@]1([H])N(C(=O)[C@@]([H])(N([H])C(=O)C([H])([H])[H])C([H])([H])c2c([H])c([H])c([H])c([H])c2[H])C([H])([H])C([H])([H])C1([H])[H])C([H])([H])c1c([H])c([H])c([H])c([H])c1[H]


 59 62  0  0  0  0  0  0  0  0999 V2000
   -4.7283   -6.0131    7.7209 C   0  0  0  0  0  0  0  0  0  0  0  0
   -4.2394   -5.5624    6.4261 N   0  0  0  0  0  0  0  0  0  0  0  0
   -2.9702   -5.7778    5.8874 C   0  0  0  0  0  0  0  0  0  0  0  0
   -2.1112   -6.4234    6.5239 O   0  0  0  0  0  0  0  0  0  0  0  0
   -4.9567   -5.0117    5.8552 H   0  0  0  0  0  0  0  0  0  0  0  0
   -2.6212   -5.2406    4.5495 C   0  0  0  0  0  0  0  0  0  0  0  0
   -1.2928   -5.7848    4.1077 C   0  0  0  0  0  0  0  0  0  0  0  0
   -0.4434   -4.5798    3.8027 C   0  0  0  0  0  0  0  0  0  0  0  0
   -1.0746   -3.4882    4.6893 C   0  0  0  0  0  0  0  0  0  0  0  0
   -2.4743   -3.8083    4.5418 N   0  0  0  0  0  0  0  0  0  0  0  0
   -3.5518   -2.8814    4.4039 C   0  0  0  0  0  0  0  0  0  0  0  0
   -4.7265   -3.3640    4.2693 O   0  0  0  0  0  0  0  0  0  0  0  0
   -3.4247   -1.4220    4.4023 C   0  0  0  0  0  0  0  0  0  0  0  0
   -3.1444   -0.9279    3.0407 N   0  0  0  0  0  0  0  0  0  0  0  0
   -2.0718   -0.0436    2.7769 C   0  0  0  0  0  0  0  0  0  0  0  0
   -1.8281    0.4254    1.3958 C   0  0  0  0  0  0  0  0  0  0  0  0
   -1.3389    0.3309    3.7323 O   0  0  0  0  0  0  0  0  0  0  0  0
   -3.7498   -1.2351    2.2589 H   0  0  0  0  0  0  0  0  0  0  0  0
   -4.6841   -0.6955    4.8365 C   0  0  0  0  0  0  0  0  0  0  0  0
   -4.3048    0.3434    5.8531 C   0  0  0  0  0  0  0  0  0  0  0  0
   -4.4469    1.6837    5.5654 C   0  0  0  0  0  0  0  0  0  0  0  0
   -4.0952    2.6542    6.5064 C   0  0  0  0  0  0  0  0  0  0  0  0
   -3.6026    2.2440    7.7309 C   0  0  0  0  0  0  0  0  0  0  0  0
   -3.4510    0.9092    8.0436 C   0  0  0  0  0  0  0  0  0  0  0  0
   -3.8113   -0.0196    7.0824 C   0  0  0  0  0  0  0  0  0  0  0  0
   -2.7912   -5.6808    9.4063 N   0  0  0  0  0  0  0  0  0  0  0  0
   -3.9959   -5.3760    8.7769 C   0  0  0  0  0  0  0  0  0  0  0  0
   -4.5639   -4.2893    9.2394 O   0  0  0  0  0  0  0  0  0  0  0  0
   -2.2216   -6.4831    9.1218 H   0  0  0  0  0  0  0  0  0  0  0  0
   -2.2205   -4.8843   10.4935 C   0  0  0  0  0  0  0  0  0  0  0  0
   -4.4127   -5.1688   12.9245 C   0  0  0  0  0  0  0  0  0  0  0  0
   -5.1884   -6.3681   13.4752 C   0  0  0  0  0  0  0  0  0  0  0  0
   -4.2226   -6.8336   14.5472 C   0  0  0  0  0  0  0  0  0  0  0  0
   -2.8798   -6.4553   14.0235 C   0  0  0  0  0  0  0  0  0  0  0  0
   -3.1045   -5.7097   12.7526 N   0  0  0  0  0  0  0  0  0  0  0  0
   -2.1403   -5.6403   11.7309 C   0  0  0  0  0  0  0  0  0  0  0  0
   -1.0632   -6.3241   11.9101 O   0  0  0  0  0  0  0  0  0  0  0  0
   -3.5190   -3.1286   14.0278 N   0  0  0  0  0  0  0  0  0  0  0  0
   -4.5259   -4.1179   13.9644 C   0  0  0  0  0  0  0  0  0  0  0  0
   -5.4780   -4.0537   14.8032 O   0  0  0  0  0  0  0  0  0  0  0  0
   -2.7014   -3.1354   13.3421 H   0  0  0  0  0  0  0  0  0  0  0  0
   -2.6843   -2.4127   16.2159 C   0  0  0  0  0  0  0  0  0  0  0  0
   -3.4718   -2.0359   14.9789 C   0  0  0  0  0  0  0  0  0  0  0  0
   -2.9713   -0.7945   14.3649 C   0  0  0  0  0  0  0  0  0  0  0  0
   -3.8457    0.1683   13.9211 O   0  0  0  0  0  0  0  0  0  0  0  0
   -1.7387   -0.6114   14.2461 O   0  0  0  0  0  0  0  0  0  0  0  0
   -4.7479    0.3722   14.3342 H   0  0  0  0  0  0  0  0  0  0  0  0
   -0.8644   -4.3446   10.0689 C   0  0  0  0  0  0  0  0  0  0  0  0
   -0.9263   -3.1374    9.2370 C   0  0  0  0  0  0  0  0  0  0  0  0
   -1.8487   -3.0322    8.2255 O   0  0  0  0  0  0  0  0  0  0  0  0
   -0.1238   -2.2115    9.4716 O   0  0  0  0  0  0  0  0  0  0  0  0
   -2.2601   -2.1253    8.0251 H   0  0  0  0  0  0  0  0  0  0  0  0
   -5.0705   -7.4289    7.6810 C   0  0  0  0  0  0  0  0  0  0  0  0
   -6.4641   -7.8469    7.6285 C   0  0  0  0  0  0  0  0  0  0  0  0
   -7.3856   -6.7911    7.4523 C   0  0  0  0  0  0  0  0  0  0  0  0
   -8.7276   -7.0223    7.3490 C   0  0  0  0  0  0  0  0  0  0  0  0
   -9.2293   -8.2735    7.4108 C   0  0  0  0  0  0  0  0  0  0  0  0
   -8.3628   -9.3488    7.5832 C   0  0  0  0  0  0  0  0  0  0  0  0
   -7.0093   -9.0838    7.6846 C   0  0  0  0  0  0  0  0  0  0  0  0
 42 43  1  0  0  0
 43 38  1  0  0  0
 38 39  1  0  0  0
 39 40  2  0  0  0
 39 31  1  0  0  0
 31 32  1  0  0  0
 32 33  1  0  0  0
 33 34  1  0  0  0
 34 35  1  0  0  0
 35 36  1  0  0  0
 36 37  2  0  0  0
 36 30  1  0  0  0
 30 48  1  0  0  0
 48 49  1  0  0  0
 49 50  1  0  0  0
 49 51  2  0  0  0
 30 26  1  0  0  0
 26 27  1  0  0  0
 27 28  2  0  0  0
 27  1  1  0  0  0
  1 53  1  0  0  0
 53 54  1  0  0  0
 54 55  2  0  0  0
 55 56  1  0  0  0
 56 57  2  0  0  0
 57 58  1  0  0  0
 58 59  2  0  0  0
  1  2  1  0  0  0
  2  3  1  0  0  0
  3  4  2  0  0  0
  3  6  1  0  0  0
  6  7  1  0  0  0
  7  8  1  0  0  0
  8  9  1  0  0  0
  9 10  1  0  0  0
 10 11  1  0  0  0
 11 12  2  0  0  0
 11 13  1  0  0  0
 13 19  1  0  0  0
 19 20  1  0  0  0
 20 21  2  0  0  0
 21 22  1  0  0  0
 22 23  2  0  0  0
 23 24  1  0  0  0
 24 25  2  0  0  0
 13 14  1  0  0  0
 14 15  1  0  0  0
 15 16  1  0  0  0
 15 17  2  0  0  0
 43 44  1  0  0  0
 44 45  1  0  0  0
 44 46  2  0  0  0
 35 31  1  0  0  0
 59 54  1  0  0  0
 10  6  1  0  0  0
 25 20  1  0  0  0
 38 41  1  0  0  0
 50 52  1  0  0  0
 26 29  1  0  0  0
  2  5  1  0  0  0
 14 18  1  0  0  0
 45 47  1  0  0  0
M  END
> <minimizedAffinity>
-5.70281

> <CNNscore>
0.2685851157

> <CNNaffinity>
6.5501718521

> <CNN_VS>
1.7592786551

> <CNNaffinity_variance>
0.1666090339

$$$$
[H]OC(=O)C([H])([H])[C@]([H])(C(=O)N1C([H])([H])C([H])([H])C([H])([H])[C@@]1([H])C(=O)N([H])[C@]([H])(C(=O)O[H])C([H])([H])[H])N([H])C(=O)[C@@]([H])(N([H])C(=O)[C@@]1([H])N(C(=O)[C@@]([H])(N([H])C(=O)C([H])([H])[H])C([H])([H])c2c([H])c([H])c([H])c([H])c2[H])C([H])([H])C([H])([H])C1([H])[H])C([H])([H])c1c([H])c([H])c([H])c([H])c1[H]


 59 62  0  0  0  0  0  0  0  0999 V2000
   -4.8023   -6.2363    7.0914 C   0  0  0  0  0  0  0  0  0  0  0  0
   -4.1549   -5.6169    5.9444 N   0  0  0  0  0  0  0  0  0  0  0  0
   -3.0222   -6.0766    5.2712 C   0  0  0  0  0  0  0  0  0  0  0  0
   -2.4528   -7.1285    5.6306 O   0  0  0  0  0  0  0  0  0  0  0  0
   -4.6252   -4.7166    5.6099 H   0  0  0  0  0  0  0  0  0  0  0  0
   -2.4753   -5.3202    4.1182 C   0  0  0  0  0  0  0  0  0  0  0  0
   -1.2087   -5.9663    3.6340 C   0  0  0  0  0  0  0  0  0  0  0  0
   -0.1638   -4.8830    3.6676 C   0  0  0  0  0  0  0  0  0  0  0  0
   -0.7027   -3.9271    4.7502 C   0  0  0  0  0  0  0  0  0  0  0  0
   -2.1151   -3.9676    4.4554 N   0  0  0  0  0  0  0  0  0  0  0  0
   -3.0242   -2.8667    4.4808 C   0  0  0  0  0  0  0  0  0  0  0  0
   -4.2406   -3.1038    4.1725 O   0  0  0  0  0  0  0  0  0  0  0  0
   -2.6800   -1.4860    4.8292 C   0  0  0  0  0  0  0  0  0  0  0  0
   -3.0793   -0.5641    3.7489 N   0  0  0  0  0  0  0  0  0  0  0  0
   -4.2970    0.1550    3.7973 C   0  0  0  0  0  0  0  0  0  0  0  0
   -4.6558    1.0687    2.6914 C   0  0  0  0  0  0  0  0  0  0  0  0
   -5.0589    0.0011    4.7902 O   0  0  0  0  0  0  0  0  0  0  0  0
   -2.4528   -0.4421    2.9336 H   0  0  0  0  0  0  0  0  0  0  0  0
   -3.3853   -0.9719    6.0704 C   0  0  0  0  0  0  0  0  0  0  0  0
   -2.3976   -0.1865    6.8852 C   0  0  0  0  0  0  0  0  0  0  0  0
   -1.0550   -0.4938    6.8378 C   0  0  0  0  0  0  0  0  0  0  0  0
   -0.1319    0.2326    7.5938 C   0  0  0  0  0  0  0  0  0  0  0  0
   -0.5915    1.2651    8.3894 C   0  0  0  0  0  0  0  0  0  0  0  0
   -1.9297    1.5929    8.4545 C   0  0  0  0  0  0  0  0  0  0  0  0
   -2.8105    0.8476    7.6895 C   0  0  0  0  0  0  0  0  0  0  0  0
   -4.2664   -4.8592    9.2173 N   0  0  0  0  0  0  0  0  0  0  0  0
   -4.1070   -5.8938    8.2983 C   0  0  0  0  0  0  0  0  0  0  0  0
   -3.1340   -6.7164    8.6050 O   0  0  0  0  0  0  0  0  0  0  0  0
   -5.0114   -4.1628    9.1220 H   0  0  0  0  0  0  0  0  0  0  0  0
   -3.4203   -4.6873   10.3990 C   0  0  0  0  0  0  0  0  0  0  0  0
   -2.2400   -2.1663   12.1450 C   0  0  0  0  0  0  0  0  0  0  0  0
   -0.8996   -1.9404   12.8487 C   0  0  0  0  0  0  0  0  0  0  0  0
   -0.1236   -1.2797   11.7261 C   0  0  0  0  0  0  0  0  0  0  0  0
   -0.7036   -1.8630   10.4836 C   0  0  0  0  0  0  0  0  0  0  0  0
   -1.8353   -2.7378   10.9027 N   0  0  0  0  0  0  0  0  0  0  0  0
   -2.2857   -3.8221   10.1282 C   0  0  0  0  0  0  0  0  0  0  0  0
   -1.6178   -4.0795    9.0571 O   0  0  0  0  0  0  0  0  0  0  0  0
   -2.7537    0.0470   13.1529 N   0  0  0  0  0  0  0  0  0  0  0  0
   -2.8616   -0.8238   12.0455 C   0  0  0  0  0  0  0  0  0  0  0  0
   -3.4862   -0.4088   11.0198 O   0  0  0  0  0  0  0  0  0  0  0  0
   -2.2344   -0.2524   14.0358 H   0  0  0  0  0  0  0  0  0  0  0  0
   -3.7821    1.7117   14.6254 C   0  0  0  0  0  0  0  0  0  0  0  0
   -3.3026    1.3864   13.2267 C   0  0  0  0  0  0  0  0  0  0  0  0
   -2.3575    2.3960   12.7203 C   0  0  0  0  0  0  0  0  0  0  0  0
   -2.8036    3.6313   12.3162 O   0  0  0  0  0  0  0  0  0  0  0  0
   -1.1360    2.1294   12.6575 O   0  0  0  0  0  0  0  0  0  0  0  0
   -3.5959    4.1235   12.7112 H   0  0  0  0  0  0  0  0  0  0  0  0
   -4.2625   -4.1737   11.5556 C   0  0  0  0  0  0  0  0  0  0  0  0
   -4.9871   -5.2186   12.2880 C   0  0  0  0  0  0  0  0  0  0  0  0
   -5.9266   -5.9932   11.6536 O   0  0  0  0  0  0  0  0  0  0  0  0
   -4.7284   -5.3861   13.4968 O   0  0  0  0  0  0  0  0  0  0  0  0
   -6.0258   -6.9678   11.9225 H   0  0  0  0  0  0  0  0  0  0  0  0
   -5.2827   -7.5707    6.7569 C   0  0  0  0  0  0  0  0  0  0  0  0
   -6.6596   -7.9487    7.0413 C   0  0  0  0  0  0  0  0  0  0  0  0
   -7.5090   -6.8672    7.3635 C   0  0  0  0  0  0  0  0  0  0  0  0
   -8.8370   -7.0527    7.6224 C   0  0  0  0  0  0  0  0  0  0  0  0
   -9.3935   -8.2813    7.5804 C   0  0  0  0  0  0  0  0  0  0  0  0
   -8.5993   -9.3804    7.2674 C   0  0  0  0  0  0  0  0  0  0  0  0
   -7.2583   -9.1616    7.0099 C   0  0  0  0  0  0  0  0  0  0  0  0
 42 43  1  0  0  0
 43 38  1  0  0  0
 38 39  1  0  0  0
 39 40  2  0  0  0
 39 31  1  0  0  0
 31 32  1  0  0  0
 32 33  1  0  0  0
 33 34  1  0  0  0
 34 35  1  0  0  0
 35 36  1  0  0  0
 36 37  2  0  0  0
 36 30  1  0  0  0
 30 48  1  0  0  0
 48 49  1  0  0  0
 49 50  1  0  0  0
 49 51  2  0  0  0
 30 26  1  0  0  0
 26 27  1  0  0  0
 27 28  2  0  0  0
 27  1  1  0  0  0
  1 53  1  0  0  0
 53 54  1  0  0  0
 54 55  2  0  0  0
 55 56  1  0  0  0
 56 57  2  0  0  0
 57 58  1  0  0  0
 58 59  2  0  0  0
  1  2  1  0  0  0
  2  3  1  0  0  0
  3  4  2  0  0  0
  3  6  1  0  0  0
  6  7  1  0  0  0
  7  8  1  0  0  0
  8  9  1  0  0  0
  9 10  1  0  0  0
 10 11  1  0  0  0
 11 12  2  0  0  0
 11 13  1  0  0  0
 13 19  1  0  0  0
 19 20  1  0  0  0
 20 21  2  0  0  0
 21 22  1  0  0  0
 22 23  2  0  0  0
 23 24  1  0  0  0
 24 25  2  0  0  0
 13 14  1  0  0  0
 14 15  1  0  0  0
 15 16  1  0  0  0
 15 17  2  0  0  0
 43 44  1  0  0  0
 44 45  1  0  0  0
 44 46  2  0  0  0
 35 31  1  0  0  0
 59 54  1  0  0  0
 10  6  1  0  0  0
 25 20  1  0  0  0
 38 41  1  0  0  0
 50 52  1  0  0  0
 26 29  1  0  0  0
  2  5  1  0  0  0
 14 18  1  0  0  0
 45 47  1  0  0  0
M  END
> <minimizedAffinity>
-5.24408

> <CNNscore>
0.2502242923

> <CNNaffinity>
6.5024604797

> <CNN_VS>
1.6270735264

> <CNNaffinity_variance>
0.2855768800

$$$$
[H]OC(=O)C([H])([H])[C@]([H])(C(=O)N1C([H])([H])C([H])([H])C([H])([H])[C@@]1([H])C(=O)N([H])[C@]([H])(C(=O)O[H])C([H])([H])[H])N([H])C(=O)[C@@]([H])(N([H])C(=O)[C@@]1([H])N(C(=O)[C@@]([H])(N([H])C(=O)C([H])([H])[H])C([H])([H])c2c([H])c([H])c([H])c([H])c2[H])C([H])([H])C([H])([H])C1([H])[H])C([H])([H])c1c([H])c([H])c([H])c([H])c1[H]


 59 62  0  0  0  0  0  0  0  0999 V2000
   -7.3519   -7.2855    8.1696 C   0  0  0  0  0  0  0  0  0  0  0  0
   -8.6806   -6.7188    8.3491 N   0  0  0  0  0  0  0  0  0  0  0  0
   -9.8922   -7.4109    8.3676 C   0  0  0  0  0  0  0  0  0  0  0  0
   -9.9171   -8.6518    8.2280 O   0  0  0  0  0  0  0  0  0  0  0  0
   -8.6897   -5.6572    8.4778 H   0  0  0  0  0  0  0  0  0  0  0  0
  -11.1709   -6.6818    8.5515 C   0  0  0  0  0  0  0  0  0  0  0  0
  -11.3287   -6.2755    9.9890 C   0  0  0  0  0  0  0  0  0  0  0  0
  -12.6496   -6.8487   10.4284 C   0  0  0  0  0  0  0  0  0  0  0  0
  -12.8296   -8.0495    9.4789 C   0  0  0  0  0  0  0  0  0  0  0  0
  -12.3244   -7.4884    8.2487 N   0  0  0  0  0  0  0  0  0  0  0  0
  -12.8614   -7.6798    6.9395 C   0  0  0  0  0  0  0  0  0  0  0  0
  -12.2774   -7.0828    5.9734 O   0  0  0  0  0  0  0  0  0  0  0  0
  -14.0277   -8.5026    6.6093 C   0  0  0  0  0  0  0  0  0  0  0  0
  -15.2757   -7.7581    6.8640 N   0  0  0  0  0  0  0  0  0  0  0  0
  -16.1767   -8.1442    7.8843 C   0  0  0  0  0  0  0  0  0  0  0  0
  -17.4157   -7.3673    8.1039 C   0  0  0  0  0  0  0  0  0  0  0  0
  -15.9038   -9.1515    8.5921 O   0  0  0  0  0  0  0  0  0  0  0  0
  -15.4982   -6.9331    6.2792 H   0  0  0  0  0  0  0  0  0  0  0  0
  -14.0990   -8.9089    5.1492 C   0  0  0  0  0  0  0  0  0  0  0  0
  -15.2513   -8.1859    4.5122 C   0  0  0  0  0  0  0  0  0  0  0  0
  -16.4303   -8.8495    4.2495 C   0  0  0  0  0  0  0  0  0  0  0  0
  -17.5050   -8.1826    3.6567 C   0  0  0  0  0  0  0  0  0  0  0  0
  -17.3627   -6.8449    3.3394 C   0  0  0  0  0  0  0  0  0  0  0  0
  -16.1936   -6.1579    3.5920 C   0  0  0  0  0  0  0  0  0  0  0  0
  -15.1535   -6.8567    4.1803 C   0  0  0  0  0  0  0  0  0  0  0  0
   -5.5753   -5.9919    9.5383 N   0  0  0  0  0  0  0  0  0  0  0  0
   -6.5261   -6.9823    9.3025 C   0  0  0  0  0  0  0  0  0  0  0  0
   -6.7013   -7.7880   10.3211 O   0  0  0  0  0  0  0  0  0  0  0  0
   -5.3623   -5.2716    8.8420 H   0  0  0  0  0  0  0  0  0  0  0  0
   -4.8250   -5.8701   10.7890 C   0  0  0  0  0  0  0  0  0  0  0  0
   -2.0272   -5.8452   12.5119 C   0  0  0  0  0  0  0  0  0  0  0  0
   -0.5766   -6.1403   12.1225 C   0  0  0  0  0  0  0  0  0  0  0  0
   -0.1239   -4.7481   11.7280 C   0  0  0  0  0  0  0  0  0  0  0  0
   -1.3581   -4.0910   11.2127 C   0  0  0  0  0  0  0  0  0  0  0  0
   -2.4782   -5.0533   11.4150 N   0  0  0  0  0  0  0  0  0  0  0  0
   -3.6460   -5.0368   10.6312 C   0  0  0  0  0  0  0  0  0  0  0  0
   -3.6758   -4.1878    9.6627 O   0  0  0  0  0  0  0  0  0  0  0  0
   -2.8839   -4.1065   14.0680 N   0  0  0  0  0  0  0  0  0  0  0  0
   -1.9475   -5.1325   13.8097 C   0  0  0  0  0  0  0  0  0  0  0  0
   -1.0851   -5.3916   14.7061 O   0  0  0  0  0  0  0  0  0  0  0  0
   -3.6317   -3.8547   13.3495 H   0  0  0  0  0  0  0  0  0  0  0  0
   -3.3531   -4.1473   16.4712 C   0  0  0  0  0  0  0  0  0  0  0  0
   -2.9470   -3.3097   15.2771 C   0  0  0  0  0  0  0  0  0  0  0  0
   -1.6918   -2.5785   15.5192 C   0  0  0  0  0  0  0  0  0  0  0  0
   -0.9193   -2.1477   14.4676 O   0  0  0  0  0  0  0  0  0  0  0  0
   -1.3237   -2.3447   16.6925 O   0  0  0  0  0  0  0  0  0  0  0  0
   -1.2731   -1.8591   13.5633 H   0  0  0  0  0  0  0  0  0  0  0  0
   -5.7439   -5.3521   11.8834 C   0  0  0  0  0  0  0  0  0  0  0  0
   -5.5706   -6.0120   13.1825 C   0  0  0  0  0  0  0  0  0  0  0  0
   -5.8006   -5.3275   14.3503 O   0  0  0  0  0  0  0  0  0  0  0  0
   -5.2117   -7.2066   13.1997 O   0  0  0  0  0  0  0  0  0  0  0  0
   -6.1992   -5.8231   15.1424 H   0  0  0  0  0  0  0  0  0  0  0  0
   -6.9288   -7.1833    6.7791 C   0  0  0  0  0  0  0  0  0  0  0  0
   -5.5290   -6.9526    6.4521 C   0  0  0  0  0  0  0  0  0  0  0  0
   -4.6868   -8.0663    6.6654 C   0  0  0  0  0  0  0  0  0  0  0  0
   -3.3532   -8.0212    6.3745 C   0  0  0  0  0  0  0  0  0  0  0  0
   -2.7842   -6.9068    5.8691 C   0  0  0  0  0  0  0  0  0  0  0  0
   -3.5710   -5.7820    5.6400 C   0  0  0  0  0  0  0  0  0  0  0  0
   -4.9180   -5.8575    5.9442 C   0  0  0  0  0  0  0  0  0  0  0  0
 42 43  1  0  0  0
 43 38  1  0  0  0
 38 39  1  0  0  0
 39 40  2  0  0  0
 39 31  1  0  0  0
 31 32  1  0  0  0
 32 33  1  0  0  0
 33 34  1  0  0  0
 34 35  1  0  0  0
 35 36  1  0  0  0
 36 37  2  0  0  0
 36 30  1  0  0  0
 30 48  1  0  0  0
 48 49  1  0  0  0
 49 50  1  0  0  0
 49 51  2  0  0  0
 30 26  1  0  0  0
 26 27  1  0  0  0
 27 28  2  0  0  0
 27  1  1  0  0  0
  1 53  1  0  0  0
 53 54  1  0  0  0
 54 55  2  0  0  0
 55 56  1  0  0  0
 56 57  2  0  0  0
 57 58  1  0  0  0
 58 59  2  0  0  0
  1  2  1  0  0  0
  2  3  1  0  0  0
  3  4  2  0  0  0
  3  6  1  0  0  0
  6  7  1  0  0  0
  7  8  1  0  0  0
  8  9  1  0  0  0
  9 10  1  0  0  0
 10 11  1  0  0  0
 11 12  2  0  0  0
 11 13  1  0  0  0
 13 19  1  0  0  0
 19 20  1  0  0  0
 20 21  2  0  0  0
 21 22  1  0  0  0
 22 23  2  0  0  0
 23 24  1  0  0  0
 24 25  2  0  0  0
 13 14  1  0  0  0
 14 15  1  0  0  0
 15 16  1  0  0  0
 15 17  2  0  0  0
 43 44  1  0  0  0
 44 45  1  0  0  0
 44 46  2  0  0  0
 35 31  1  0  0  0
 59 54  1  0  0  0
 10  6  1  0  0  0
 25 20  1  0  0  0
 38 41  1  0  0  0
 50 52  1  0  0  0
 26 29  1  0  0  0
  2  5  1  0  0  0
 14 18  1  0  0  0
 45 47  1  0  0  0
M  END
> <minimizedAffinity>
-4.50377

> <CNNscore>
0.2298013866

> <CNNaffinity>
6.8566560745

> <CNN_VS>
1.5756690502

> <CNNaffinity_variance>
0.0964064226

$$$$
[H]OC(=O)C([H])([H])[C@]([H])(C(=O)N1C([H])([H])C([H])([H])C([H])([H])[C@@]1([H])C(=O)N([H])[C@]([H])(C(=O)O[H])C([H])([H])[H])N([H])C(=O)[C@@]([H])(N([H])C(=O)[C@@]1([H])N(C(=O)[C@@]([H])(N([H])C(=O)C([H])([H])[H])C([H])([H])c2c([H])c([H])c([H])c([H])c2[H])C([H])([H])C([H])([H])C1([H])[H])C([H])([H])c1c([H])c([H])c([H])c([H])c1[H]


 59 62  0  0  0  0  0  0  0  0999 V2000
   -4.6792   -6.0209    7.5854 C   0  0  0  0  0  0  0  0  0  0  0  0
   -4.1856   -5.5538    6.2982 N   0  0  0  0  0  0  0  0  0  0  0  0
   -2.8965   -5.7103    5.7872 C   0  0  0  0  0  0  0  0  0  0  0  0
   -2.0208   -6.3101    6.4455 O   0  0  0  0  0  0  0  0  0  0  0  0
   -4.9165   -5.0415    5.7091 H   0  0  0  0  0  0  0  0  0  0  0  0
   -2.5458   -5.1637    4.4536 C   0  0  0  0  0  0  0  0  0  0  0  0
   -1.1744   -5.6268    4.0527 C   0  0  0  0  0  0  0  0  0  0  0  0
   -0.3945   -4.3734    3.7578 C   0  0  0  0  0  0  0  0  0  0  0  0
   -1.1168   -3.3161    4.6160 C   0  0  0  0  0  0  0  0  0  0  0  0
   -2.4891   -3.7251    4.4349 N   0  0  0  0  0  0  0  0  0  0  0  0
   -3.6186   -2.8693    4.2590 C   0  0  0  0  0  0  0  0  0  0  0  0
   -4.7565   -3.4262    4.0983 O   0  0  0  0  0  0  0  0  0  0  0  0
   -3.5835   -1.4048    4.2456 C   0  0  0  0  0  0  0  0  0  0  0  0
   -3.1235   -0.8857    5.5477 N   0  0  0  0  0  0  0  0  0  0  0  0
   -4.0158   -0.2803    6.4639 C   0  0  0  0  0  0  0  0  0  0  0  0
   -3.5099    0.2254    7.7582 C   0  0  0  0  0  0  0  0  0  0  0  0
   -5.2348   -0.1825    6.1564 O   0  0  0  0  0  0  0  0  0  0  0  0
   -2.1215   -0.9651    5.7960 H   0  0  0  0  0  0  0  0  0  0  0  0
   -2.6233   -0.8229    3.2249 C   0  0  0  0  0  0  0  0  0  0  0  0
   -2.9893    0.6160    2.9971 C   0  0  0  0  0  0  0  0  0  0  0  0
   -4.2688    0.9571    2.6152 C   0  0  0  0  0  0  0  0  0  0  0  0
   -4.6147    2.2934    2.4012 C   0  0  0  0  0  0  0  0  0  0  0  0
   -3.6492    3.2660    2.5803 C   0  0  0  0  0  0  0  0  0  0  0  0
   -2.3618    2.9511    2.9623 C   0  0  0  0  0  0  0  0  0  0  0  0
   -2.0613    1.6149    3.1636 C   0  0  0  0  0  0  0  0  0  0  0  0
   -2.7489   -5.7598    9.2910 N   0  0  0  0  0  0  0  0  0  0  0  0
   -3.9369   -5.4130    8.6516 C   0  0  0  0  0  0  0  0  0  0  0  0
   -4.4739   -4.3107    9.1143 O   0  0  0  0  0  0  0  0  0  0  0  0
   -2.2029   -6.5787    9.0078 H   0  0  0  0  0  0  0  0  0  0  0  0
   -2.1634   -4.9875   10.3877 C   0  0  0  0  0  0  0  0  0  0  0  0
   -4.1280   -4.9908   13.0214 C   0  0  0  0  0  0  0  0  0  0  0  0
   -5.0139   -6.0735   13.6427 C   0  0  0  0  0  0  0  0  0  0  0  0
   -4.0275   -6.6924   14.6136 C   0  0  0  0  0  0  0  0  0  0  0  0
   -2.7008   -6.5046   13.9616 C   0  0  0  0  0  0  0  0  0  0  0  0
   -2.9359   -5.7132   12.7207 N   0  0  0  0  0  0  0  0  0  0  0  0
   -2.0753   -5.7677   11.6094 C   0  0  0  0  0  0  0  0  0  0  0  0
   -1.0977   -6.6037   11.6804 O   0  0  0  0  0  0  0  0  0  0  0  0
   -5.1432   -3.5421   14.7676 N   0  0  0  0  0  0  0  0  0  0  0  0
   -3.9850   -3.9521   14.0699 C   0  0  0  0  0  0  0  0  0  0  0  0
   -2.8792   -3.4084   14.3795 O   0  0  0  0  0  0  0  0  0  0  0  0
   -6.0949   -3.9724   14.5487 H   0  0  0  0  0  0  0  0  0  0  0  0
   -6.4737   -1.7484   15.7724 C   0  0  0  0  0  0  0  0  0  0  0  0
   -5.1844   -2.5410   15.8149 C   0  0  0  0  0  0  0  0  0  0  0  0
   -4.9419   -3.1264   17.1443 C   0  0  0  0  0  0  0  0  0  0  0  0
   -5.4176   -4.3776   17.4550 O   0  0  0  0  0  0  0  0  0  0  0  0
   -4.2958   -2.4811   18.0005 O   0  0  0  0  0  0  0  0  0  0  0  0
   -5.5236   -5.1413   16.7980 H   0  0  0  0  0  0  0  0  0  0  0  0
   -0.8085   -4.4469    9.9604 C   0  0  0  0  0  0  0  0  0  0  0  0
   -0.8682   -3.1881    9.2087 C   0  0  0  0  0  0  0  0  0  0  0  0
   -1.7209   -3.0511    8.1414 O   0  0  0  0  0  0  0  0  0  0  0  0
   -0.1286   -2.2480    9.5630 O   0  0  0  0  0  0  0  0  0  0  0  0
   -2.1593   -2.1504    7.9724 H   0  0  0  0  0  0  0  0  0  0  0  0
   -5.0409   -7.4309    7.5206 C   0  0  0  0  0  0  0  0  0  0  0  0
   -6.4403   -7.8322    7.5410 C   0  0  0  0  0  0  0  0  0  0  0  0
   -7.3571   -6.7658    7.4094 C   0  0  0  0  0  0  0  0  0  0  0  0
   -8.7053   -6.9811    7.3759 C   0  0  0  0  0  0  0  0  0  0  0  0
   -9.2179   -8.2262    7.4671 C   0  0  0  0  0  0  0  0  0  0  0  0
   -8.3565   -9.3114    7.5978 C   0  0  0  0  0  0  0  0  0  0  0  0
   -6.9966   -9.0624    7.6287 C   0  0  0  0  0  0  0  0  0  0  0  0
 42 43  1  0  0  0
 43 38  1  0  0  0
 38 39  1  0  0  0
 39 40  2  0  0  0
 39 31  1  0  0  0
 31 32  1  0  0  0
 32 33  1  0  0  0
 33 34  1  0  0  0
 34 35  1  0  0  0
 35 36  1  0  0  0
 36 37  2  0  0  0
 36 30  1  0  0  0
 30 48  1  0  0  0
 48 49  1  0  0  0
 49 50  1  0  0  0
 49 51  2  0  0  0
 30 26  1  0  0  0
 26 27  1  0  0  0
 27 28  2  0  0  0
 27  1  1  0  0  0
  1 53  1  0  0  0
 53 54  1  0  0  0
 54 55  2  0  0  0
 55 56  1  0  0  0
 56 57  2  0  0  0
 57 58  1  0  0  0
 58 59  2  0  0  0
  1  2  1  0  0  0
  2  3  1  0  0  0
  3  4  2  0  0  0
  3  6  1  0  0  0
  6  7  1  0  0  0
  7  8  1  0  0  0
  8  9  1  0  0  0
  9 10  1  0  0  0
 10 11  1  0  0  0
 11 12  2  0  0  0
 11 13  1  0  0  0
 13 19  1  0  0  0
 19 20  1  0  0  0
 20 21  2  0  0  0
 21 22  1  0  0  0
 22 23  2  0  0  0
 23 24  1  0  0  0
 24 25  2  0  0  0
 13 14  1  0  0  0
 14 15  1  0  0  0
 15 16  1  0  0  0
 15 17  2  0  0  0
 43 44  1  0  0  0
 44 45  1  0  0  0
 44 46  2  0  0  0
 35 31  1  0  0  0
 59 54  1  0  0  0
 10  6  1  0  0  0
 25 20  1  0  0  0
 38 41  1  0  0  0
 50 52  1  0  0  0
 26 29  1  0  0  0
  2  5  1  0  0  0
 14 18  1  0  0  0
 45 47  1  0  0  0
M  END
> <minimizedAffinity>
-5.72363

> <CNNscore>
0.2191356719

> <CNNaffinity>
6.3179864883

> <CNN_VS>
1.3844962120

> <CNNaffinity_variance>
0.1163787842

$$$$
[H]OC(=O)C([H])([H])[C@]([H])(C(=O)N1C([H])([H])C([H])([H])C([H])([H])[C@@]1([H])C(=O)N([H])[C@]([H])(C(=O)O[H])C([H])([H])[H])N([H])C(=O)[C@@]([H])(N([H])C(=O)[C@@]1([H])N(C(=O)[C@@]([H])(N([H])C(=O)C([H])([H])[H])C([H])([H])c2c([H])c([H])c([H])c([H])c2[H])C([H])([H])C([H])([H])C1([H])[H])C([H])([H])c1c([H])c([H])c([H])c([H])c1[H]


 59 62  0  0  0  0  0  0  0  0999 V2000
   -5.0243   -6.2706    7.6018 C   0  0  0  0  0  0  0  0  0  0  0  0
   -4.2750   -5.6556    6.5160 N   0  0  0  0  0  0  0  0  0  0  0  0
   -3.2171   -6.2199    5.8020 C   0  0  0  0  0  0  0  0  0  0  0  0
   -2.8197   -7.3751    6.0622 O   0  0  0  0  0  0  0  0  0  0  0  0
   -4.5979   -4.6671    6.2664 H   0  0  0  0  0  0  0  0  0  0  0  0
   -2.5462   -5.4542    4.7230 C   0  0  0  0  0  0  0  0  0  0  0  0
   -1.1559   -5.9804    4.5075 C   0  0  0  0  0  0  0  0  0  0  0  0
   -0.2450   -4.7921    4.6642 C   0  0  0  0  0  0  0  0  0  0  0  0
   -1.0620   -3.8583    5.5788 C   0  0  0  0  0  0  0  0  0  0  0  0
   -2.3866   -4.0592    5.0418 N   0  0  0  0  0  0  0  0  0  0  0  0
   -3.3880   -3.0606    4.8440 C   0  0  0  0  0  0  0  0  0  0  0  0
   -4.4993   -3.4367    4.3395 O   0  0  0  0  0  0  0  0  0  0  0  0
   -3.2489   -1.6390    5.1694 C   0  0  0  0  0  0  0  0  0  0  0  0
   -2.7377   -0.8889    4.0064 N   0  0  0  0  0  0  0  0  0  0  0  0
   -1.4832   -0.2352    4.0363 C   0  0  0  0  0  0  0  0  0  0  0  0
   -1.0110    0.5047    2.8462 C   0  0  0  0  0  0  0  0  0  0  0  0
   -0.7868   -0.2961    5.0858 O   0  0  0  0  0  0  0  0  0  0  0  0
   -3.3132   -0.8385    3.1471 H   0  0  0  0  0  0  0  0  0  0  0  0
   -4.5567   -0.9619    5.5346 C   0  0  0  0  0  0  0  0  0  0  0  0
   -4.2484    0.2314    6.3933 C   0  0  0  0  0  0  0  0  0  0  0  0
   -3.6585    0.0672    7.6280 C   0  0  0  0  0  0  0  0  0  0  0  0
   -3.3701    1.1730    8.4312 C   0  0  0  0  0  0  0  0  0  0  0  0
   -3.6875    2.4341    7.9634 C   0  0  0  0  0  0  0  0  0  0  0  0
   -4.2779    2.6256    6.7315 C   0  0  0  0  0  0  0  0  0  0  0  0
   -4.5468    1.5028    5.9678 C   0  0  0  0  0  0  0  0  0  0  0  0
   -5.0325   -5.2311    9.9730 N   0  0  0  0  0  0  0  0  0  0  0  0
   -4.4792   -5.8736    8.8677 C   0  0  0  0  0  0  0  0  0  0  0  0
   -3.2143   -6.1790    9.0231 O   0  0  0  0  0  0  0  0  0  0  0  0
   -6.0214   -4.9662   10.0040 H   0  0  0  0  0  0  0  0  0  0  0  0
   -4.2768   -4.9049   11.1831 C   0  0  0  0  0  0  0  0  0  0  0  0
   -1.9789   -3.5653   13.1123 C   0  0  0  0  0  0  0  0  0  0  0  0
   -0.5233   -3.1680   12.8547 C   0  0  0  0  0  0  0  0  0  0  0  0
   -0.7193   -1.7311   12.4125 C   0  0  0  0  0  0  0  0  0  0  0  0
   -2.0611   -1.7242   11.7645 C   0  0  0  0  0  0  0  0  0  0  0  0
   -2.6331   -3.0897   11.9377 N   0  0  0  0  0  0  0  0  0  0  0  0
   -3.5983   -3.6262   11.0665 C   0  0  0  0  0  0  0  0  0  0  0  0
   -3.9183   -2.9039   10.0489 O   0  0  0  0  0  0  0  0  0  0  0  0
   -3.7318   -2.6706   14.6305 N   0  0  0  0  0  0  0  0  0  0  0  0
   -2.3584   -2.8718   14.3667 C   0  0  0  0  0  0  0  0  0  0  0  0
   -1.5192   -2.4477   15.2211 O   0  0  0  0  0  0  0  0  0  0  0  0
   -4.4762   -3.0132   13.9469 H   0  0  0  0  0  0  0  0  0  0  0  0
   -4.5560   -0.5480   15.5318 C   0  0  0  0  0  0  0  0  0  0  0  0
   -4.2760   -2.0113   15.8010 C   0  0  0  0  0  0  0  0  0  0  0  0
   -5.4614   -2.7112   16.3243 C   0  0  0  0  0  0  0  0  0  0  0  0
   -5.7220   -4.0114   15.9637 O   0  0  0  0  0  0  0  0  0  0  0  0
   -6.2397   -2.1191   17.1057 O   0  0  0  0  0  0  0  0  0  0  0  0
   -5.0197   -4.7110   15.7551 H   0  0  0  0  0  0  0  0  0  0  0  0
   -5.2038   -4.9480   12.3871 C   0  0  0  0  0  0  0  0  0  0  0  0
   -4.9139   -6.0287   13.3364 C   0  0  0  0  0  0  0  0  0  0  0  0
   -5.6713   -7.1739   13.3444 O   0  0  0  0  0  0  0  0  0  0  0  0
   -3.9646   -5.8825   14.1324 O   0  0  0  0  0  0  0  0  0  0  0  0
   -5.2224   -8.0609   13.5533 H   0  0  0  0  0  0  0  0  0  0  0  0
   -5.4190   -7.6294    7.2540 C   0  0  0  0  0  0  0  0  0  0  0  0
   -6.8065   -8.0489    7.3890 C   0  0  0  0  0  0  0  0  0  0  0  0
   -7.7424   -6.9912    7.3695 C   0  0  0  0  0  0  0  0  0  0  0  0
   -9.0859   -7.2228    7.4514 C   0  0  0  0  0  0  0  0  0  0  0  0
   -9.5753   -8.4762    7.5543 C   0  0  0  0  0  0  0  0  0  0  0  0
   -8.6945   -9.5533    7.5775 C   0  0  0  0  0  0  0  0  0  0  0  0
   -7.3399   -9.2880    7.4928 C   0  0  0  0  0  0  0  0  0  0  0  0
 42 43  1  0  0  0
 43 38  1  0  0  0
 38 39  1  0  0  0
 39 40  2  0  0  0
 39 31  1  0  0  0
 31 32  1  0  0  0
 32 33  1  0  0  0
 33 34  1  0  0  0
 34 35  1  0  0  0
 35 36  1  0  0  0
 36 37  2  0  0  0
 36 30  1  0  0  0
 30 48  1  0  0  0
 48 49  1  0  0  0
 49 50  1  0  0  0
 49 51  2  0  0  0
 30 26  1  0  0  0
 26 27  1  0  0  0
 27 28  2  0  0  0
 27  1  1  0  0  0
  1 53  1  0  0  0
 53 54  1  0  0  0
 54 55  2  0  0  0
 55 56  1  0  0  0
 56 57  2  0  0  0
 57 58  1  0  0  0
 58 59  2  0  0  0
  1  2  1  0  0  0
  2  3  1  0  0  0
  3  4  2  0  0  0
  3  6  1  0  0  0
  6  7  1  0  0  0
  7  8  1  0  0  0
  8  9  1  0  0  0
  9 10  1  0  0  0
 10 11  1  0  0  0
 11 12  2  0  0  0
 11 13  1  0  0  0
 13 19  1  0  0  0
 19 20  1  0  0  0
 20 21  2  0  0  0
 21 22  1  0  0  0
 22 23  2  0  0  0
 23 24  1  0  0  0
 24 25  2  0  0  0
 13 14  1  0  0  0
 14 15  1  0  0  0
 15 16  1  0  0  0
 15 17  2  0  0  0
 43 44  1  0  0  0
 44 45  1  0  0  0
 44 46  2  0  0  0
 35 31  1  0  0  0
 59 54  1  0  0  0
 10  6  1  0  0  0
 25 20  1  0  0  0
 38 41  1  0  0  0
 50 52  1  0  0  0
 26 29  1  0  0  0
  2  5  1  0  0  0
 14 18  1  0  0  0
 45 47  1  0  0  0
M  END
> <minimizedAffinity>
-6.55292

> <CNNscore>
0.1874705702

> <CNNaffinity>
6.4956345558

> <CNN_VS>
1.2177402973

> <CNNaffinity_variance>
0.1656958610

$$$$
[H]OC(=O)C([H])([H])[C@]([H])(C(=O)N1C([H])([H])C([H])([H])C([H])([H])[C@@]1([H])C(=O)N([H])[C@]([H])(C(=O)O[H])C([H])([H])[H])N([H])C(=O)[C@@]([H])(N([H])C(=O)[C@@]1([H])N(C(=O)[C@@]([H])(N([H])C(=O)C([H])([H])[H])C([H])([H])c2c([H])c([H])c([H])c([H])c2[H])C([H])([H])C([H])([H])C1([H])[H])C([H])([H])c1c([H])c([H])c([H])c([H])c1[H]


 59 62  0  0  0  0  0  0  0  0999 V2000
   -7.9214   -7.0221    8.3080 C   0  0  0  0  0  0  0  0  0  0  0  0
   -9.2373   -6.4097    8.1990 N   0  0  0  0  0  0  0  0  0  0  0  0
  -10.1994   -6.3046    9.2043 C   0  0  0  0  0  0  0  0  0  0  0  0
   -9.9757   -6.7557   10.3473 O   0  0  0  0  0  0  0  0  0  0  0  0
   -9.4543   -6.0082    7.2318 H   0  0  0  0  0  0  0  0  0  0  0  0
  -11.5051   -5.6564    8.9295 C   0  0  0  0  0  0  0  0  0  0  0  0
  -11.9854   -4.9291   10.1528 C   0  0  0  0  0  0  0  0  0  0  0  0
  -13.3559   -5.4822   10.4399 C   0  0  0  0  0  0  0  0  0  0  0  0
  -13.2924   -6.8870    9.8087 C   0  0  0  0  0  0  0  0  0  0  0  0
  -12.5431   -6.6012    8.6087 N   0  0  0  0  0  0  0  0  0  0  0  0
  -12.7739   -7.1448    7.3085 C   0  0  0  0  0  0  0  0  0  0  0  0
  -12.0068   -6.7542    6.3653 O   0  0  0  0  0  0  0  0  0  0  0  0
  -13.8179   -8.1128    6.9633 C   0  0  0  0  0  0  0  0  0  0  0  0
  -15.1548   -7.5042    7.1016 N   0  0  0  0  0  0  0  0  0  0  0  0
  -16.1588   -8.0905    7.9080 C   0  0  0  0  0  0  0  0  0  0  0  0
  -17.4845   -7.4446    8.0174 C   0  0  0  0  0  0  0  0  0  0  0  0
  -15.9017   -9.1614    8.5224 O   0  0  0  0  0  0  0  0  0  0  0  0
  -15.3636   -6.6265    6.5936 H   0  0  0  0  0  0  0  0  0  0  0  0
  -13.7514   -8.6023    5.5287 C   0  0  0  0  0  0  0  0  0  0  0  0
  -14.9208   -8.0310    4.7787 C   0  0  0  0  0  0  0  0  0  0  0  0
  -15.9463   -8.8504    4.3588 C   0  0  0  0  0  0  0  0  0  0  0  0
  -17.0359   -8.3250    3.6604 C   0  0  0  0  0  0  0  0  0  0  0  0
  -17.0654   -6.9681    3.3993 C   0  0  0  0  0  0  0  0  0  0  0  0
  -16.0521   -6.1266    3.8088 C   0  0  0  0  0  0  0  0  0  0  0  0
  -14.9909   -6.6884    4.4977 C   0  0  0  0  0  0  0  0  0  0  0  0
   -5.7094   -5.9946    7.4392 N   0  0  0  0  0  0  0  0  0  0  0  0
   -7.0246   -6.4449    7.3489 C   0  0  0  0  0  0  0  0  0  0  0  0
   -7.5355   -6.3206    6.1485 O   0  0  0  0  0  0  0  0  0  0  0  0
   -5.1739   -6.0641    8.3095 H   0  0  0  0  0  0  0  0  0  0  0  0
   -4.9715   -5.4172    6.3150 C   0  0  0  0  0  0  0  0  0  0  0  0
   -4.1209   -2.7157    4.6491 C   0  0  0  0  0  0  0  0  0  0  0  0
   -4.4142   -1.2309    4.8781 C   0  0  0  0  0  0  0  0  0  0  0  0
   -3.2146   -0.8557    5.7260 C   0  0  0  0  0  0  0  0  0  0  0  0
   -2.8806   -2.1051    6.4661 C   0  0  0  0  0  0  0  0  0  0  0  0
   -3.7999   -3.1653    5.9638 N   0  0  0  0  0  0  0  0  0  0  0  0
   -4.1524   -4.2916    6.7291 C   0  0  0  0  0  0  0  0  0  0  0  0
   -3.6990   -4.3319    7.9343 O   0  0  0  0  0  0  0  0  0  0  0  0
   -2.4742   -4.0066    3.3073 N   0  0  0  0  0  0  0  0  0  0  0  0
   -2.9970   -2.7487    3.6825 C   0  0  0  0  0  0  0  0  0  0  0  0
   -2.4758   -1.7098    3.1694 O   0  0  0  0  0  0  0  0  0  0  0  0
   -2.8810   -4.9091    3.7059 H   0  0  0  0  0  0  0  0  0  0  0  0
   -0.5320   -5.4062    2.7917 C   0  0  0  0  0  0  0  0  0  0  0  0
   -1.3797   -4.2207    2.3816 C   0  0  0  0  0  0  0  0  0  0  0  0
   -1.8510   -4.3360    0.9911 C   0  0  0  0  0  0  0  0  0  0  0  0
   -0.9880   -4.7086   -0.0113 O   0  0  0  0  0  0  0  0  0  0  0  0
   -3.0482   -4.0941    0.7173 O   0  0  0  0  0  0  0  0  0  0  0  0
   -0.2018   -5.3377    0.0995 H   0  0  0  0  0  0  0  0  0  0  0  0
   -4.1472   -6.5009    5.6391 C   0  0  0  0  0  0  0  0  0  0  0  0
   -3.6530   -7.5415    6.5479 C   0  0  0  0  0  0  0  0  0  0  0  0
   -2.7066   -7.2476    7.4982 O   0  0  0  0  0  0  0  0  0  0  0  0
   -4.1134   -8.6956    6.4373 O   0  0  0  0  0  0  0  0  0  0  0  0
   -2.7474   -7.7184    8.3974 H   0  0  0  0  0  0  0  0  0  0  0  0
   -8.0351   -8.4472    8.5897 C   0  0  0  0  0  0  0  0  0  0  0  0
   -8.7832   -9.3162    7.6926 C   0  0  0  0  0  0  0  0  0  0  0  0
  -10.1726   -9.3592    7.9429 C   0  0  0  0  0  0  0  0  0  0  0  0
  -11.0169  -10.1012    7.1672 C   0  0  0  0  0  0  0  0  0  0  0  0
  -10.5561  -10.8256    6.1261 C   0  0  0  0  0  0  0  0  0  0  0  0
   -9.1948  -10.8166    5.8373 C   0  0  0  0  0  0  0  0  0  0  0  0
   -8.3645  -10.0560    6.6401 C   0  0  0  0  0  0  0  0  0  0  0  0
 42 43  1  0  0  0
 43 38  1  0  0  0
 38 39  1  0  0  0
 39 40  2  0  0  0
 39 31  1  0  0  0
 31 32  1  0  0  0
 32 33  1  0  0  0
 33 34  1  0  0  0
 34 35  1  0  0  0
 35 36  1  0  0  0
 36 37  2  0  0  0
 36 30  1  0  0  0
 30 48  1  0  0  0
 48 49  1  0  0  0
 49 50  1  0  0  0
 49 51  2  0  0  0
 30 26  1  0  0  0
 26 27  1  0  0  0
 27 28  2  0  0  0
 27  1  1  0  0  0
  1 53  1  0  0  0
 53 54  1  0  0  0
 54 55  2  0  0  0
 55 56  1  0  0  0
 56 57  2  0  0  0
 57 58  1  0  0  0
 58 59  2  0  0  0
  1  2  1  0  0  0
  2  3  1  0  0  0
  3  4  2  0  0  0
  3  6  1  0  0  0
  6  7  1  0  0  0
  7  8  1  0  0  0
  8  9  1  0  0  0
  9 10  1  0  0  0
 10 11  1  0  0  0
 11 12  2  0  0  0
 11 13  1  0  0  0
 13 19  1  0  0  0
 19 20  1  0  0  0
 20 21  2  0  0  0
 21 22  1  0  0  0
 22 23  2  0  0  0
 23 24  1  0  0  0
 24 25  2  0  0  0
 13 14  1  0  0  0
 14 15  1  0  0  0
 15 16  1  0  0  0
 15 17  2  0  0  0
 43 44  1  0  0  0
 44 45  1  0  0  0
 44 46  2  0  0  0
 35 31  1  0  0  0
 59 54  1  0  0  0
 10  6  1  0  0  0
 25 20  1  0  0  0
 38 41  1  0  0  0
 50 52  1  0  0  0
 26 29  1  0  0  0
  2  5  1  0  0  0
 14 18  1  0  0  0
 45 47  1  0  0  0
M  END
> <minimizedAffinity>
-3.97590

> <CNNscore>
0.1737009585

> <CNNaffinity>
6.9984726906

> <CNN_VS>
1.2156413794

> <CNNaffinity_variance>
0.1039224640

$$$$
[H]N=C(N([H])[H])N([H])C([H])([H])C([H])([H])C([H])([H])[C@@]([H])(C(=O)N([H])[C@]([H])(C(=O)O[H])C([H])([H])C([H])(C([H])([H])[H])C([H])([H])[H])N([H])C(=O)[C@@]([H])(N([H])C(=O)[C@@]1([H])N(C(=O)OC([H])([H])c2c([H])c([H])c([H])c([H])c2[H])C([H])([H])C([H])([H])C1([H])[H])C([H])([H])C([H])(C([H])([H])[H])C([H])([H])[H]


 53 54  0  0  0  0  0  0  0  0999 V2000
   -9.3945   -7.2367    8.3533 C   0  0  0  0  0  0  0  0  0  0  0  0
   -9.5745   -8.2086    9.1631 O   0  0  0  0  0  0  0  0  0  0  0  0
  -10.2943   -6.1654    8.3437 N   0  0  0  0  0  0  0  0  0  0  0  0
  -10.1487   -5.3674    7.6980 H   0  0  0  0  0  0  0  0  0  0  0  0
  -11.4562   -6.0656    9.2013 C   0  0  0  0  0  0  0  0  0  0  0  0
  -12.7255   -6.0574    8.4796 C   0  0  0  0  0  0  0  0  0  0  0  0
  -13.5210   -5.0880    8.6642 O   0  0  0  0  0  0  0  0  0  0  0  0
  -13.1325   -7.0684    7.5788 N   0  0  0  0  0  0  0  0  0  0  0  0
  -12.5305   -7.8748    7.3906 H   0  0  0  0  0  0  0  0  0  0  0  0
  -14.4270   -7.0125    6.8749 C   0  0  0  0  0  0  0  0  0  0  0  0
  -15.2634   -8.0865    7.4533 C   0  0  0  0  0  0  0  0  0  0  0  0
  -16.6365   -7.9862    7.6670 O   0  0  0  0  0  0  0  0  0  0  0  0
  -14.7256   -9.1863    7.7902 O   0  0  0  0  0  0  0  0  0  0  0  0
  -17.0095   -8.2607    8.5580 H   0  0  0  0  0  0  0  0  0  0  0  0
  -14.2223   -7.2685    5.4111 C   0  0  0  0  0  0  0  0  0  0  0  0
  -14.5478   -8.6399    4.9397 C   0  0  0  0  0  0  0  0  0  0  0  0
  -14.9792   -8.6182    3.4718 C   0  0  0  0  0  0  0  0  0  0  0  0
  -13.2623   -9.4966    4.9374 C   0  0  0  0  0  0  0  0  0  0  0  0
  -11.3670   -4.8806   10.1573 C   0  0  0  0  0  0  0  0  0  0  0  0
  -12.5775   -4.9028   11.0475 C   0  0  0  0  0  0  0  0  0  0  0  0
  -12.8455   -6.2767   11.6118 C   0  0  0  0  0  0  0  0  0  0  0  0
  -14.0271   -6.8555   11.0169 N   0  0  0  0  0  0  0  0  0  0  0  0
  -14.7995   -6.2095   10.7425 H   0  0  0  0  0  0  0  0  0  0  0  0
  -14.2102   -8.2313   10.7798 C   0  0  0  0  0  0  0  0  0  0  0  0
  -13.1259   -9.0361   10.3464 N   0  0  0  0  0  0  0  0  0  0  0  0
  -15.3674   -8.7475   10.9603 N   0  0  0  0  0  0  0  0  0  0  0  0
  -13.1258  -10.0545   10.5193 H   0  0  0  0  0  0  0  0  0  0  0  0
  -12.3226   -8.6007    9.8505 H   0  0  0  0  0  0  0  0  0  0  0  0
  -15.5082   -9.7524   10.7888 H   0  0  0  0  0  0  0  0  0  0  0  0
   -8.2237   -7.2258    7.4080 C   0  0  0  0  0  0  0  0  0  0  0  0
   -7.0459   -6.8467    8.1058 N   0  0  0  0  0  0  0  0  0  0  0  0
   -5.7695   -6.5484    7.5017 C   0  0  0  0  0  0  0  0  0  0  0  0
   -5.7520   -6.6279    6.2618 O   0  0  0  0  0  0  0  0  0  0  0  0
   -7.0446   -6.7577    9.1697 H   0  0  0  0  0  0  0  0  0  0  0  0
   -4.6173   -6.1929    8.2789 C   0  0  0  0  0  0  0  0  0  0  0  0
   -4.9326   -5.6183    9.6627 C   0  0  0  0  0  0  0  0  0  0  0  0
   -3.5270   -5.2650   10.1331 C   0  0  0  0  0  0  0  0  0  0  0  0
   -2.6201   -5.3815    8.9165 C   0  0  0  0  0  0  0  0  0  0  0  0
   -3.6455   -5.2845    7.8281 N   0  0  0  0  0  0  0  0  0  0  0  0
   -3.4491   -4.4236    6.7480 C   0  0  0  0  0  0  0  0  0  0  0  0
   -2.3438   -3.7313    6.7188 O   0  0  0  0  0  0  0  0  0  0  0  0
   -4.2543   -4.1784    5.6781 O   0  0  0  0  0  0  0  0  0  0  0  0
   -3.9276   -3.8912    4.3640 C   0  0  0  0  0  0  0  0  0  0  0  0
   -4.0305   -2.4968    3.9453 C   0  0  0  0  0  0  0  0  0  0  0  0
   -3.7288   -2.1365    2.6567 C   0  0  0  0  0  0  0  0  0  0  0  0
   -3.8093   -0.8099    2.2322 C   0  0  0  0  0  0  0  0  0  0  0  0
   -4.2020    0.1589    3.1323 C   0  0  0  0  0  0  0  0  0  0  0  0
   -4.4992   -0.2141    4.4111 C   0  0  0  0  0  0  0  0  0  0  0  0
   -4.4195   -1.5264    4.8310 C   0  0  0  0  0  0  0  0  0  0  0  0
   -8.1992   -8.5140    6.6751 C   0  0  0  0  0  0  0  0  0  0  0  0
   -9.5978  -10.6253    6.5474 C   0  0  0  0  0  0  0  0  0  0  0  0
   -8.7737   -9.7006    7.3549 C   0  0  0  0  0  0  0  0  0  0  0  0
   -7.5838  -10.5211    7.8804 C   0  0  0  0  0  0  0  0  0  0  0  0
 51 52  1  0  0  0
 52 53  1  0  0  0
 52 50  1  0  0  0
 50 30  1  0  0  0
 30 31  1  0  0  0
 31 32  1  0  0  0
 32 33  2  0  0  0
 32 35  1  0  0  0
 35 36  1  0  0  0
 36 37  1  0  0  0
 37 38  1  0  0  0
 38 39  1  0  0  0
 39 40  1  0  0  0
 40 41  2  0  0  0
 40 42  1  0  0  0
 42 43  1  0  0  0
 43 44  1  0  0  0
 44 45  2  0  0  0
 45 46  1  0  0  0
 46 47  2  0  0  0
 47 48  1  0  0  0
 48 49  2  0  0  0
 30  1  1  0  0  0
  1  2  2  0  0  0
  1  3  1  0  0  0
  3  5  1  0  0  0
  5 19  1  0  0  0
 19 20  1  0  0  0
 20 21  1  0  0  0
 21 22  1  0  0  0
 22 24  1  0  0  0
 24 25  1  0  0  0
 24 26  2  0  0  0
  5  6  1  0  0  0
  6  7  2  0  0  0
  6  8  1  0  0  0
  8 10  1  0  0  0
 10 15  1  0  0  0
 15 16  1  0  0  0
 16 17  1  0  0  0
 16 18  1  0  0  0
 10 11  1  0  0  0
 11 12  1  0  0  0
 11 13  2  0  0  0
 39 35  1  0  0  0
 49 44  1  0  0  0
 31 34  1  0  0  0
  3  4  1  0  0  0
 22 23  1  0  0  0
 25 27  1  0  0  0
 25 28  1  0  0  0
 26 29  1  0  0  0
  8  9  1  0  0  0
 12 14  1  0  0  0
M  END
> <minimizedAffinity>
-2.03175

> <CNNscore>
0.4368967414

> <CNNaffinity>
7.3285646439

> <CNN_VS>
3.2018260956

> <CNNaffinity_variance>
0.2457528114

$$$$
[H]N=C(N([H])[H])N([H])C([H])([H])C([H])([H])C([H])([H])[C@@]([H])(C(=O)N([H])[C@]([H])(C(=O)O[H])C([H])([H])C([H])(C([H])([H])[H])C([H])([H])[H])N([H])C(=O)[C@@]([H])(N([H])C(=O)[C@@]1([H])N(C(=O)OC([H])([H])c2c([H])c([H])c([H])c([H])c2[H])C([H])([H])C([H])([H])C1([H])[H])C([H])([H])C([H])(C([H])([H])[H])C([H])([H])[H]


 53 54  0  0  0  0  0  0  0  0999 V2000
   -6.7386   -6.7189    8.0776 C   0  0  0  0  0  0  0  0  0  0  0  0
   -6.5998   -6.1311    6.9515 O   0  0  0  0  0  0  0  0  0  0  0  0
   -5.8419   -6.4485    9.1169 N   0  0  0  0  0  0  0  0  0  0  0  0
   -5.9546   -6.9123   10.0373 H   0  0  0  0  0  0  0  0  0  0  0  0
   -4.7275   -5.5299    9.0173 C   0  0  0  0  0  0  0  0  0  0  0  0
   -3.5075   -6.1346    8.4902 C   0  0  0  0  0  0  0  0  0  0  0  0
   -2.4980   -6.2241    9.2514 O   0  0  0  0  0  0  0  0  0  0  0  0
   -3.3736   -6.6325    7.1736 N   0  0  0  0  0  0  0  0  0  0  0  0
   -4.1561   -6.5870    6.5149 H   0  0  0  0  0  0  0  0  0  0  0  0
   -2.1172   -7.2342    6.6900 C   0  0  0  0  0  0  0  0  0  0  0  0
   -1.6466   -6.3805    5.5776 C   0  0  0  0  0  0  0  0  0  0  0  0
   -1.5492   -4.9920    5.6378 O   0  0  0  0  0  0  0  0  0  0  0  0
   -1.3018   -6.9166    4.4794 O   0  0  0  0  0  0  0  0  0  0  0  0
   -1.9310   -4.4465    4.8861 H   0  0  0  0  0  0  0  0  0  0  0  0
   -2.3789   -8.6213    6.1827 C   0  0  0  0  0  0  0  0  0  0  0  0
   -1.9640   -9.7305    7.0808 C   0  0  0  0  0  0  0  0  0  0  0  0
   -1.0607  -10.7175    6.3381 C   0  0  0  0  0  0  0  0  0  0  0  0
   -1.0602   -9.1687    8.2006 C   0  0  0  0  0  0  0  0  0  0  0  0
   -4.4529   -4.8119   10.3345 C   0  0  0  0  0  0  0  0  0  0  0  0
   -5.1867   -5.5372   11.4270 C   0  0  0  0  0  0  0  0  0  0  0  0
   -4.5524   -5.3232   12.7798 C   0  0  0  0  0  0  0  0  0  0  0  0
   -5.4737   -5.6615   13.8390 N   0  0  0  0  0  0  0  0  0  0  0  0
   -5.3330   -6.5693   14.3342 H   0  0  0  0  0  0  0  0  0  0  0  0
   -6.5488   -4.8513   14.2519 C   0  0  0  0  0  0  0  0  0  0  0  0
   -7.8798   -5.3366   14.1879 N   0  0  0  0  0  0  0  0  0  0  0  0
   -6.3106   -3.6712   14.6863 N   0  0  0  0  0  0  0  0  0  0  0  0
   -8.6126   -4.9421   14.7997 H   0  0  0  0  0  0  0  0  0  0  0  0
   -8.1235   -6.0959   13.5209 H   0  0  0  0  0  0  0  0  0  0  0  0
   -7.0917   -3.0738   14.9897 H   0  0  0  0  0  0  0  0  0  0  0  0
   -7.8573   -7.6995    8.3043 C   0  0  0  0  0  0  0  0  0  0  0  0
   -8.9004   -7.0769    9.0407 N   0  0  0  0  0  0  0  0  0  0  0  0
  -10.1550   -6.6156    8.4963 C   0  0  0  0  0  0  0  0  0  0  0  0
  -10.2959   -6.8160    7.2781 O   0  0  0  0  0  0  0  0  0  0  0  0
   -8.8049   -6.9099   10.0909 H   0  0  0  0  0  0  0  0  0  0  0  0
  -11.1523   -5.9746    9.3040 C   0  0  0  0  0  0  0  0  0  0  0  0
  -10.8864   -6.0298   10.8108 C   0  0  0  0  0  0  0  0  0  0  0  0
  -12.1597   -5.3750   11.3322 C   0  0  0  0  0  0  0  0  0  0  0  0
  -13.1180   -5.2900   10.1530 C   0  0  0  0  0  0  0  0  0  0  0  0
  -12.5108   -6.3287    9.2598 N   0  0  0  0  0  0  0  0  0  0  0  0
  -13.3126   -7.3008    8.6610 C   0  0  0  0  0  0  0  0  0  0  0  0
  -14.5952   -7.2559    8.8949 O   0  0  0  0  0  0  0  0  0  0  0  0
  -12.9610   -8.3287    7.8407 O   0  0  0  0  0  0  0  0  0  0  0  0
  -13.2075   -8.5169    6.4917 C   0  0  0  0  0  0  0  0  0  0  0  0
  -14.3495   -7.8090    5.9219 C   0  0  0  0  0  0  0  0  0  0  0  0
  -14.2005   -6.5379    5.4281 C   0  0  0  0  0  0  0  0  0  0  0  0
  -15.2771   -5.8347    4.8868 C   0  0  0  0  0  0  0  0  0  0  0  0
  -16.5185   -6.4350    4.8489 C   0  0  0  0  0  0  0  0  0  0  0  0
  -16.6521   -7.7000    5.3437 C   0  0  0  0  0  0  0  0  0  0  0  0
  -15.5871   -8.3956    5.8793 C   0  0  0  0  0  0  0  0  0  0  0  0
   -8.2125   -8.3164    7.0041 C   0  0  0  0  0  0  0  0  0  0  0  0
   -7.6280  -10.5576    8.0360 C   0  0  0  0  0  0  0  0  0  0  0  0
   -8.2649   -9.7974    6.9395 C   0  0  0  0  0  0  0  0  0  0  0  0
   -9.7539  -10.1821    6.9482 C   0  0  0  0  0  0  0  0  0  0  0  0
 51 52  1  0  0  0
 52 53  1  0  0  0
 52 50  1  0  0  0
 50 30  1  0  0  0
 30 31  1  0  0  0
 31 32  1  0  0  0
 32 33  2  0  0  0
 32 35  1  0  0  0
 35 36  1  0  0  0
 36 37  1  0  0  0
 37 38  1  0  0  0
 38 39  1  0  0  0
 39 40  1  0  0  0
 40 41  2  0  0  0
 40 42  1  0  0  0
 42 43  1  0  0  0
 43 44  1  0  0  0
 44 45  2  0  0  0
 45 46  1  0  0  0
 46 47  2  0  0  0
 47 48  1  0  0  0
 48 49  2  0  0  0
 30  1  1  0  0  0
  1  2  2  0  0  0
  1  3  1  0  0  0
  3  5  1  0  0  0
  5 19  1  0  0  0
 19 20  1  0  0  0
 20 21  1  0  0  0
 21 22  1  0  0  0
 22 24  1  0  0  0
 24 25  1  0  0  0
 24 26  2  0  0  0
  5  6  1  0  0  0
  6  7  2  0  0  0
  6  8  1  0  0  0
  8 10  1  0  0  0
 10 15  1  0  0  0
 15 16  1  0  0  0
 16 17  1  0  0  0
 16 18  1  0  0  0
 10 11  1  0  0  0
 11 12  1  0  0  0
 11 13  2  0  0  0
 39 35  1  0  0  0
 49 44  1  0  0  0
 31 34  1  0  0  0
  3  4  1  0  0  0
 22 23  1  0  0  0
 25 27  1  0  0  0
 25 28  1  0  0  0
 26 29  1  0  0  0
  8  9  1  0  0  0
 12 14  1  0  0  0
M  END
> <minimizedAffinity>
-6.46898

> <CNNscore>
0.3450631797

> <CNNaffinity>
7.0441827774

> <CNN_VS>
2.4306881428

> <CNNaffinity_variance>
0.2048496455

$$$$
[H]N=C(N([H])[H])N([H])C([H])([H])C([H])([H])C([H])([H])[C@@]([H])(C(=O)N([H])[C@]([H])(C(=O)O[H])C([H])([H])C([H])(C([H])([H])[H])C([H])([H])[H])N([H])C(=O)[C@@]([H])(N([H])C(=O)[C@@]1([H])N(C(=O)OC([H])([H])c2c([H])c([H])c([H])c([H])c2[H])C([H])([H])C([H])([H])C1([H])[H])C([H])([H])C([H])(C([H])([H])[H])C([H])([H])[H]


 53 54  0  0  0  0  0  0  0  0999 V2000
   -6.6011   -6.7466    8.6153 C   0  0  0  0  0  0  0  0  0  0  0  0
   -6.2378   -6.8519    9.8358 O   0  0  0  0  0  0  0  0  0  0  0  0
   -5.8066   -6.0299    7.7138 N   0  0  0  0  0  0  0  0  0  0  0  0
   -6.0883   -5.9498    6.7193 H   0  0  0  0  0  0  0  0  0  0  0  0
   -4.5662   -5.3700    8.0625 C   0  0  0  0  0  0  0  0  0  0  0  0
   -3.8789   -4.7633    6.9262 C   0  0  0  0  0  0  0  0  0  0  0  0
   -3.3820   -5.5238    6.0423 O   0  0  0  0  0  0  0  0  0  0  0  0
   -3.7278   -3.3695    6.7424 N   0  0  0  0  0  0  0  0  0  0  0  0
   -4.1090   -2.7075    7.4240 H   0  0  0  0  0  0  0  0  0  0  0  0
   -3.0231   -2.8073    5.5754 C   0  0  0  0  0  0  0  0  0  0  0  0
   -2.3139   -1.6020    6.0568 C   0  0  0  0  0  0  0  0  0  0  0  0
   -2.6678   -0.2957    5.7260 O   0  0  0  0  0  0  0  0  0  0  0  0
   -1.3100   -1.7305    6.8236 O   0  0  0  0  0  0  0  0  0  0  0  0
   -1.9516    0.3370    5.4177 H   0  0  0  0  0  0  0  0  0  0  0  0
   -4.0154   -2.4184    4.5200 C   0  0  0  0  0  0  0  0  0  0  0  0
   -3.6542   -2.7792    3.1242 C   0  0  0  0  0  0  0  0  0  0  0  0
   -3.0836   -1.5678    2.3836 C   0  0  0  0  0  0  0  0  0  0  0  0
   -2.4842   -3.7878    3.1450 C   0  0  0  0  0  0  0  0  0  0  0  0
   -3.6260   -6.2842    8.8413 C   0  0  0  0  0  0  0  0  0  0  0  0
   -2.9152   -5.4567    9.8749 C   0  0  0  0  0  0  0  0  0  0  0  0
   -3.8720   -4.6373   10.7062 C   0  0  0  0  0  0  0  0  0  0  0  0
   -3.9845   -5.1760   12.0412 N   0  0  0  0  0  0  0  0  0  0  0  0
   -3.1523   -5.6629   12.4408 H   0  0  0  0  0  0  0  0  0  0  0  0
   -5.1387   -5.0895   12.8431 C   0  0  0  0  0  0  0  0  0  0  0  0
   -6.0787   -6.1511   12.8660 N   0  0  0  0  0  0  0  0  0  0  0  0
   -5.3296   -4.0410   13.5518 N   0  0  0  0  0  0  0  0  0  0  0  0
   -6.7023   -6.2830   13.6789 H   0  0  0  0  0  0  0  0  0  0  0  0
   -6.1433   -6.8041   12.0596 H   0  0  0  0  0  0  0  0  0  0  0  0
   -6.1710   -3.9712   14.1402 H   0  0  0  0  0  0  0  0  0  0  0  0
   -7.8742   -7.3859    8.1305 C   0  0  0  0  0  0  0  0  0  0  0  0
   -8.9868   -6.8087    8.7991 N   0  0  0  0  0  0  0  0  0  0  0  0
  -10.3660   -6.9222    8.3891 C   0  0  0  0  0  0  0  0  0  0  0  0
  -10.5482   -7.6057    7.3676 O   0  0  0  0  0  0  0  0  0  0  0  0
   -8.8526   -6.2311    9.6869 H   0  0  0  0  0  0  0  0  0  0  0  0
  -11.4344   -6.2897    9.1079 C   0  0  0  0  0  0  0  0  0  0  0  0
  -11.1553   -6.0597   10.5956 C   0  0  0  0  0  0  0  0  0  0  0  0
  -12.5006   -5.4967   11.0371 C   0  0  0  0  0  0  0  0  0  0  0  0
  -13.4683   -5.7321    9.8863 C   0  0  0  0  0  0  0  0  0  0  0  0
  -12.7349   -6.8178    9.1589 N   0  0  0  0  0  0  0  0  0  0  0  0
  -13.4054   -7.9705    8.7492 C   0  0  0  0  0  0  0  0  0  0  0  0
  -14.6816   -8.0526    9.0072 O   0  0  0  0  0  0  0  0  0  0  0  0
  -12.9265   -9.0664    8.0989 O   0  0  0  0  0  0  0  0  0  0  0  0
  -13.0836   -9.4603    6.7813 C   0  0  0  0  0  0  0  0  0  0  0  0
  -13.8687   -8.5846    5.9171 C   0  0  0  0  0  0  0  0  0  0  0  0
  -14.6713   -9.1147    4.9392 C   0  0  0  0  0  0  0  0  0  0  0  0
  -15.4249   -8.3006    4.0930 C   0  0  0  0  0  0  0  0  0  0  0  0
  -15.3587   -6.9313    4.2467 C   0  0  0  0  0  0  0  0  0  0  0  0
  -14.5559   -6.4178    5.2239 C   0  0  0  0  0  0  0  0  0  0  0  0
  -13.8105   -7.2231    6.0608 C   0  0  0  0  0  0  0  0  0  0  0  0
   -7.8786   -7.3599    6.6484 C   0  0  0  0  0  0  0  0  0  0  0  0
   -6.0171   -8.7370    5.6151 C   0  0  0  0  0  0  0  0  0  0  0  0
   -7.4521   -8.5913    5.9398 C   0  0  0  0  0  0  0  0  0  0  0  0
   -7.8145   -9.7707    6.8579 C   0  0  0  0  0  0  0  0  0  0  0  0
 51 52  1  0  0  0
 52 53  1  0  0  0
 52 50  1  0  0  0
 50 30  1  0  0  0
 30 31  1  0  0  0
 31 32  1  0  0  0
 32 33  2  0  0  0
 32 35  1  0  0  0
 35 36  1  0  0  0
 36 37  1  0  0  0
 37 38  1  0  0  0
 38 39  1  0  0  0
 39 40  1  0  0  0
 40 41  2  0  0  0
 40 42  1  0  0  0
 42 43  1  0  0  0
 43 44  1  0  0  0
 44 45  2  0  0  0
 45 46  1  0  0  0
 46 47  2  0  0  0
 47 48  1  0  0  0
 48 49  2  0  0  0
 30  1  1  0  0  0
  1  2  2  0  0  0
  1  3  1  0  0  0
  3  5  1  0  0  0
  5 19  1  0  0  0
 19 20  1  0  0  0
 20 21  1  0  0  0
 21 22  1  0  0  0
 22 24  1  0  0  0
 24 25  1  0  0  0
 24 26  2  0  0  0
  5  6  1  0  0  0
  6  7  2  0  0  0
  6  8  1  0  0  0
  8 10  1  0  0  0
 10 15  1  0  0  0
 15 16  1  0  0  0
 16 17  1  0  0  0
 16 18  1  0  0  0
 10 11  1  0  0  0
 11 12  1  0  0  0
 11 13  2  0  0  0
 39 35  1  0  0  0
 49 44  1  0  0  0
 31 34  1  0  0  0
  3  4  1  0  0  0
 22 23  1  0  0  0
 25 27  1  0  0  0
 25 28  1  0  0  0
 26 29  1  0  0  0
  8  9  1  0  0  0
 12 14  1  0  0  0
M  END
> <minimizedAffinity>
-6.34356

> <CNNscore>
0.3370504677

> <CNNaffinity>
6.9973244667

> <CNN_VS>
2.3584513664

> <CNNaffinity_variance>
0.1165772229

$$$$
[H]N=C(N([H])[H])N([H])C([H])([H])C([H])([H])C([H])([H])[C@@]([H])(C(=O)N([H])[C@]([H])(C(=O)O[H])C([H])([H])C([H])(C([H])([H])[H])C([H])([H])[H])N([H])C(=O)[C@@]([H])(N([H])C(=O)[C@@]1([H])N(C(=O)OC([H])([H])c2c([H])c([H])c([H])c([H])c2[H])C([H])([H])C([H])([H])C1([H])[H])C([H])([H])C([H])(C([H])([H])[H])C([H])([H])[H]


 53 54  0  0  0  0  0  0  0  0999 V2000
   -8.8381   -7.1581    8.1309 C   0  0  0  0  0  0  0  0  0  0  0  0
   -9.1835   -5.9294    8.1922 O   0  0  0  0  0  0  0  0  0  0  0  0
   -9.8093   -8.1587    8.2441 N   0  0  0  0  0  0  0  0  0  0  0  0
   -9.5389   -9.1578    8.1836 H   0  0  0  0  0  0  0  0  0  0  0  0
  -11.2221   -7.9090    8.4371 C   0  0  0  0  0  0  0  0  0  0  0  0
  -11.9330   -7.5535    7.2123 C   0  0  0  0  0  0  0  0  0  0  0  0
  -11.4257   -6.6771    6.4501 O   0  0  0  0  0  0  0  0  0  0  0  0
  -13.1628   -8.1265    6.8141 N   0  0  0  0  0  0  0  0  0  0  0  0
  -13.6187   -8.8395    7.3903 H   0  0  0  0  0  0  0  0  0  0  0  0
  -13.8408   -7.7313    5.5656 C   0  0  0  0  0  0  0  0  0  0  0  0
  -14.5316   -6.4552    5.8518 C   0  0  0  0  0  0  0  0  0  0  0  0
  -14.4476   -5.3179    5.0513 O   0  0  0  0  0  0  0  0  0  0  0  0
  -15.2567   -6.3545    6.8893 O   0  0  0  0  0  0  0  0  0  0  0  0
  -14.2570   -4.4328    5.4856 H   0  0  0  0  0  0  0  0  0  0  0  0
  -14.8491   -8.7733    5.1818 C   0  0  0  0  0  0  0  0  0  0  0  0
  -15.8302   -8.3748    4.1389 C   0  0  0  0  0  0  0  0  0  0  0  0
  -15.6924   -9.2626    2.9003 C   0  0  0  0  0  0  0  0  0  0  0  0
  -17.2601   -8.6640    4.6471 C   0  0  0  0  0  0  0  0  0  0  0  0
  -11.4812   -6.8810    9.5337 C   0  0  0  0  0  0  0  0  0  0  0  0
  -12.8693   -6.3360    9.3484 C   0  0  0  0  0  0  0  0  0  0  0  0
  -13.8641   -6.9788   10.2839 C   0  0  0  0  0  0  0  0  0  0  0  0
  -14.0327   -8.3786    9.9723 N   0  0  0  0  0  0  0  0  0  0  0  0
  -13.4360   -9.0657   10.4832 H   0  0  0  0  0  0  0  0  0  0  0  0
  -14.9473   -8.8824    9.0276 C   0  0  0  0  0  0  0  0  0  0  0  0
  -16.2114   -8.2643    8.8511 N   0  0  0  0  0  0  0  0  0  0  0  0
  -14.6241   -9.9051    8.3293 N   0  0  0  0  0  0  0  0  0  0  0  0
  -16.7238   -8.3619    7.9595 H   0  0  0  0  0  0  0  0  0  0  0  0
  -16.6287   -7.7073    9.6234 H   0  0  0  0  0  0  0  0  0  0  0  0
  -15.2877  -10.2785    7.6371 H   0  0  0  0  0  0  0  0  0  0  0  0
   -7.3974   -7.5465    7.9360 C   0  0  0  0  0  0  0  0  0  0  0  0
   -6.5821   -6.8539    8.8707 N   0  0  0  0  0  0  0  0  0  0  0  0
   -5.1721   -6.5852    8.7201 C   0  0  0  0  0  0  0  0  0  0  0  0
   -4.6761   -7.0005    7.6591 O   0  0  0  0  0  0  0  0  0  0  0  0
   -6.9928   -6.4759    9.7808 H   0  0  0  0  0  0  0  0  0  0  0  0
   -4.4111   -5.8963    9.7223 C   0  0  0  0  0  0  0  0  0  0  0  0
   -5.2439   -5.3062   10.8635 C   0  0  0  0  0  0  0  0  0  0  0  0
   -4.1541   -4.5821   11.6444 C   0  0  0  0  0  0  0  0  0  0  0  0
   -2.9183   -4.5712   10.7563 C   0  0  0  0  0  0  0  0  0  0  0  0
   -3.5624   -4.8171    9.4258 N   0  0  0  0  0  0  0  0  0  0  0  0
   -3.2340   -4.0249    8.3254 C   0  0  0  0  0  0  0  0  0  0  0  0
   -2.3434   -3.0875    8.4984 O   0  0  0  0  0  0  0  0  0  0  0  0
   -3.7102   -4.0722    7.0510 O   0  0  0  0  0  0  0  0  0  0  0  0
   -3.0839   -3.7717    5.8537 C   0  0  0  0  0  0  0  0  0  0  0  0
   -3.5463   -2.5831    5.1442 C   0  0  0  0  0  0  0  0  0  0  0  0
   -3.9324   -1.4666    5.8413 C   0  0  0  0  0  0  0  0  0  0  0  0
   -4.3876   -0.3204    5.1890 C   0  0  0  0  0  0  0  0  0  0  0  0
   -4.4491   -0.3135    3.8109 C   0  0  0  0  0  0  0  0  0  0  0  0
   -4.0617   -1.4315    3.1303 C   0  0  0  0  0  0  0  0  0  0  0  0
   -3.6115   -2.5653    3.7756 C   0  0  0  0  0  0  0  0  0  0  0  0
   -7.3080   -9.0260    7.9156 C   0  0  0  0  0  0  0  0  0  0  0  0
   -8.6614  -10.0979    6.0584 C   0  0  0  0  0  0  0  0  0  0  0  0
   -7.3425   -9.6967    6.5930 C   0  0  0  0  0  0  0  0  0  0  0  0
   -6.7460   -8.7017    5.5834 C   0  0  0  0  0  0  0  0  0  0  0  0
 51 52  1  0  0  0
 52 53  1  0  0  0
 52 50  1  0  0  0
 50 30  1  0  0  0
 30 31  1  0  0  0
 31 32  1  0  0  0
 32 33  2  0  0  0
 32 35  1  0  0  0
 35 36  1  0  0  0
 36 37  1  0  0  0
 37 38  1  0  0  0
 38 39  1  0  0  0
 39 40  1  0  0  0
 40 41  2  0  0  0
 40 42  1  0  0  0
 42 43  1  0  0  0
 43 44  1  0  0  0
 44 45  2  0  0  0
 45 46  1  0  0  0
 46 47  2  0  0  0
 47 48  1  0  0  0
 48 49  2  0  0  0
 30  1  1  0  0  0
  1  2  2  0  0  0
  1  3  1  0  0  0
  3  5  1  0  0  0
  5 19  1  0  0  0
 19 20  1  0  0  0
 20 21  1  0  0  0
 21 22  1  0  0  0
 22 24  1  0  0  0
 24 25  1  0  0  0
 24 26  2  0  0  0
  5  6  1  0  0  0
  6  7  2  0  0  0
  6  8  1  0  0  0
  8 10  1  0  0  0
 10 15  1  0  0  0
 15 16  1  0  0  0
 16 17  1  0  0  0
 16 18  1  0  0  0
 10 11  1  0  0  0
 11 12  1  0  0  0
 11 13  2  0  0  0
 39 35  1  0  0  0
 49 44  1  0  0  0
 31 34  1  0  0  0
  3  4  1  0  0  0
 22 23  1  0  0  0
 25 27  1  0  0  0
 25 28  1  0  0  0
 26 29  1  0  0  0
  8  9  1  0  0  0
 12 14  1  0  0  0
M  END
> <minimizedAffinity>
-3.28787

> <CNNscore>
0.3280792832

> <CNNaffinity>
7.1509871483

> <CNN_VS>
2.3460907936

> <CNNaffinity_variance>
0.3722215593

$$$$
[H]N=C(N([H])[H])N([H])C([H])([H])C([H])([H])C([H])([H])[C@@]([H])(C(=O)N([H])[C@]([H])(C(=O)O[H])C([H])([H])C([H])(C([H])([H])[H])C([H])([H])[H])N([H])C(=O)[C@@]([H])(N([H])C(=O)[C@@]1([H])N(C(=O)OC([H])([H])c2c([H])c([H])c([H])c([H])c2[H])C([H])([H])C([H])([H])C1([H])[H])C([H])([H])C([H])(C([H])([H])[H])C([H])([H])[H]


 53 54  0  0  0  0  0  0  0  0999 V2000
  -11.2332   -7.0294    8.5571 C   0  0  0  0  0  0  0  0  0  0  0  0
  -10.9354   -8.2450    8.2992 O   0  0  0  0  0  0  0  0  0  0  0  0
  -12.5685   -6.6154    8.5037 N   0  0  0  0  0  0  0  0  0  0  0  0
  -12.8197   -5.6337    8.7231 H   0  0  0  0  0  0  0  0  0  0  0  0
  -13.6794   -7.4789    8.1631 C   0  0  0  0  0  0  0  0  0  0  0  0
  -14.4986   -6.9825    7.0612 C   0  0  0  0  0  0  0  0  0  0  0  0
  -14.4483   -5.7483    6.7771 O   0  0  0  0  0  0  0  0  0  0  0  0
  -15.3541   -7.7938    6.2806 N   0  0  0  0  0  0  0  0  0  0  0  0
  -15.4346   -8.7977    6.4645 H   0  0  0  0  0  0  0  0  0  0  0  0
  -16.1620   -7.2418    5.1774 C   0  0  0  0  0  0  0  0  0  0  0  0
  -16.7197   -8.4012    4.4478 C   0  0  0  0  0  0  0  0  0  0  0  0
  -15.9526   -9.4079    3.8653 O   0  0  0  0  0  0  0  0  0  0  0  0
  -17.9781   -8.5169    4.3241 O   0  0  0  0  0  0  0  0  0  0  0  0
  -16.1533   -9.6851    2.9213 H   0  0  0  0  0  0  0  0  0  0  0  0
  -15.2884   -6.4420    4.2570 C   0  0  0  0  0  0  0  0  0  0  0  0
  -15.8398   -5.1363    3.8097 C   0  0  0  0  0  0  0  0  0  0  0  0
  -17.1140   -4.7941    4.5849 C   0  0  0  0  0  0  0  0  0  0  0  0
  -14.8560   -4.0090    4.1941 C   0  0  0  0  0  0  0  0  0  0  0  0
  -14.5431   -7.8121    9.3753 C   0  0  0  0  0  0  0  0  0  0  0  0
  -13.6398   -8.2780   10.4821 C   0  0  0  0  0  0  0  0  0  0  0  0
  -13.3846   -9.7644   10.4225 C   0  0  0  0  0  0  0  0  0  0  0  0
  -12.5289  -10.0949    9.3074 N   0  0  0  0  0  0  0  0  0  0  0  0
  -11.4974  -10.0819    9.4656 H   0  0  0  0  0  0  0  0  0  0  0  0
  -12.9887  -10.4349    8.0207 C   0  0  0  0  0  0  0  0  0  0  0  0
  -14.3468  -10.7866    7.8128 N   0  0  0  0  0  0  0  0  0  0  0  0
  -12.1662  -10.4226    7.0402 N   0  0  0  0  0  0  0  0  0  0  0  0
  -14.7811  -10.6771    6.8820 H   0  0  0  0  0  0  0  0  0  0  0  0
  -14.9129  -11.1579    8.6017 H   0  0  0  0  0  0  0  0  0  0  0  0
  -12.4956  -10.6700    6.0971 H   0  0  0  0  0  0  0  0  0  0  0  0
  -10.1656   -6.0332    8.9209 C   0  0  0  0  0  0  0  0  0  0  0  0
   -9.1430   -6.0428    7.9349 N   0  0  0  0  0  0  0  0  0  0  0  0
   -7.9363   -6.8332    7.9821 C   0  0  0  0  0  0  0  0  0  0  0  0
   -7.8346   -7.5640    8.9818 O   0  0  0  0  0  0  0  0  0  0  0  0
   -9.2192   -5.4336    7.0614 H   0  0  0  0  0  0  0  0  0  0  0  0
   -6.9377   -6.7707    6.9541 C   0  0  0  0  0  0  0  0  0  0  0  0
   -6.6095   -8.1153    6.2995 C   0  0  0  0  0  0  0  0  0  0  0  0
   -5.4742   -7.6938    5.3749 C   0  0  0  0  0  0  0  0  0  0  0  0
   -5.0767   -6.2847    5.7903 C   0  0  0  0  0  0  0  0  0  0  0  0
   -5.6481   -6.2601    7.1755 N   0  0  0  0  0  0  0  0  0  0  0  0
   -4.8803   -5.8050    8.2477 C   0  0  0  0  0  0  0  0  0  0  0  0
   -3.6693   -5.3922    7.9931 O   0  0  0  0  0  0  0  0  0  0  0  0
   -5.2012   -5.7184    9.5678 O   0  0  0  0  0  0  0  0  0  0  0  0
   -4.3901   -5.5133   10.6706 C   0  0  0  0  0  0  0  0  0  0  0  0
   -3.4549   -4.3946   10.6062 C   0  0  0  0  0  0  0  0  0  0  0  0
   -3.9185   -3.1117   10.4623 C   0  0  0  0  0  0  0  0  0  0  0  0
   -3.0466   -2.0249   10.3883 C   0  0  0  0  0  0  0  0  0  0  0  0
   -1.6876   -2.2500   10.4621 C   0  0  0  0  0  0  0  0  0  0  0  0
   -1.2406   -3.5317   10.6053 C   0  0  0  0  0  0  0  0  0  0  0  0
   -2.1031   -4.6067   10.6784 C   0  0  0  0  0  0  0  0  0  0  0  0
  -10.8158   -4.7348    9.2186 C   0  0  0  0  0  0  0  0  0  0  0  0
  -12.9951   -4.5341   10.4993 C   0  0  0  0  0  0  0  0  0  0  0  0
  -11.5182   -4.6018   10.5183 C   0  0  0  0  0  0  0  0  0  0  0  0
  -11.1482   -5.8457   11.3435 C   0  0  0  0  0  0  0  0  0  0  0  0
 51 52  1  0  0  0
 52 53  1  0  0  0
 52 50  1  0  0  0
 50 30  1  0  0  0
 30 31  1  0  0  0
 31 32  1  0  0  0
 32 33  2  0  0  0
 32 35  1  0  0  0
 35 36  1  0  0  0
 36 37  1  0  0  0
 37 38  1  0  0  0
 38 39  1  0  0  0
 39 40  1  0  0  0
 40 41  2  0  0  0
 40 42  1  0  0  0
 42 43  1  0  0  0
 43 44  1  0  0  0
 44 45  2  0  0  0
 45 46  1  0  0  0
 46 47  2  0  0  0
 47 48  1  0  0  0
 48 49  2  0  0  0
 30  1  1  0  0  0
  1  2  2  0  0  0
  1  3  1  0  0  0
  3  5  1  0  0  0
  5 19  1  0  0  0
 19 20  1  0  0  0
 20 21  1  0  0  0
 21 22  1  0  0  0
 22 24  1  0  0  0
 24 25  1  0  0  0
 24 26  2  0  0  0
  5  6  1  0  0  0
  6  7  2  0  0  0
  6  8  1  0  0  0
  8 10  1  0  0  0
 10 15  1  0  0  0
 15 16  1  0  0  0
 16 17  1  0  0  0
 16 18  1  0  0  0
 10 11  1  0  0  0
 11 12  1  0  0  0
 11 13  2  0  0  0
 39 35  1  0  0  0
 49 44  1  0  0  0
 31 34  1  0  0  0
  3  4  1  0  0  0
 22 23  1  0  0  0
 25 27  1  0  0  0
 25 28  1  0  0  0
 26 29  1  0  0  0
  8  9  1  0  0  0
 12 14  1  0  0  0
M  END
> <minimizedAffinity>
-3.83829

> <CNNscore>
0.3111460805

> <CNNaffinity>
7.4451775551

> <CNN_VS>
2.3165378571

> <CNNaffinity_variance>
0.1712315381

$$$$
[H]N=C(N([H])[H])N([H])C([H])([H])C([H])([H])C([H])([H])[C@@]([H])(C(=O)N([H])[C@]([H])(C(=O)O[H])C([H])([H])C([H])(C([H])([H])[H])C([H])([H])[H])N([H])C(=O)[C@@]([H])(N([H])C(=O)[C@@]1([H])N(C(=O)OC([H])([H])c2c([H])c([H])c([H])c([H])c2[H])C([H])([H])C([H])([H])C1([H])[H])C([H])([H])C([H])(C([H])([H])[H])C([H])([H])[H]


 53 54  0  0  0  0  0  0  0  0999 V2000
   -9.0711   -6.8026    8.2793 C   0  0  0  0  0  0  0  0  0  0  0  0
   -8.7357   -7.9397    8.7563 O   0  0  0  0  0  0  0  0  0  0  0  0
   -8.2057   -6.1330    7.4075 N   0  0  0  0  0  0  0  0  0  0  0  0
   -8.4755   -5.2156    7.0069 H   0  0  0  0  0  0  0  0  0  0  0  0
   -6.9141   -6.6365    6.9905 C   0  0  0  0  0  0  0  0  0  0  0  0
   -5.7835   -5.9508    7.6097 C   0  0  0  0  0  0  0  0  0  0  0  0
   -5.6779   -5.9756    8.8726 O   0  0  0  0  0  0  0  0  0  0  0  0
   -4.7874   -5.2530    6.8887 N   0  0  0  0  0  0  0  0  0  0  0  0
   -4.8214   -5.2001    5.8669 H   0  0  0  0  0  0  0  0  0  0  0  0
   -3.6646   -4.5758    7.5636 C   0  0  0  0  0  0  0  0  0  0  0  0
   -3.6025   -3.2093    7.0011 C   0  0  0  0  0  0  0  0  0  0  0  0
   -3.2280   -2.0775    7.7221 O   0  0  0  0  0  0  0  0  0  0  0  0
   -3.9059   -3.0192    5.7828 O   0  0  0  0  0  0  0  0  0  0  0  0
   -3.8003   -1.2545    7.6635 H   0  0  0  0  0  0  0  0  0  0  0  0
   -2.3834   -5.2985    7.2703 C   0  0  0  0  0  0  0  0  0  0  0  0
   -1.8087   -6.0838    8.3937 C   0  0  0  0  0  0  0  0  0  0  0  0
   -2.3555   -5.5883    9.7342 C   0  0  0  0  0  0  0  0  0  0  0  0
   -2.3086   -7.5427    8.3040 C   0  0  0  0  0  0  0  0  0  0  0  0
   -6.7685   -6.6630    5.4725 C   0  0  0  0  0  0  0  0  0  0  0  0
   -6.3406   -8.0448    5.0654 C   0  0  0  0  0  0  0  0  0  0  0  0
   -6.4807   -9.0402    6.1913 C   0  0  0  0  0  0  0  0  0  0  0  0
   -7.7967   -9.6344    6.1913 N   0  0  0  0  0  0  0  0  0  0  0  0
   -8.3371   -9.6193    5.2986 H   0  0  0  0  0  0  0  0  0  0  0  0
   -8.4024  -10.2346    7.3119 C   0  0  0  0  0  0  0  0  0  0  0  0
   -9.8065  -10.4300    7.3510 N   0  0  0  0  0  0  0  0  0  0  0  0
   -7.6704  -10.6023    8.2953 N   0  0  0  0  0  0  0  0  0  0  0  0
  -10.2179  -11.1652    7.9486 H   0  0  0  0  0  0  0  0  0  0  0  0
  -10.4298   -9.8302    6.7745 H   0  0  0  0  0  0  0  0  0  0  0  0
   -8.1065  -11.0416    9.1174 H   0  0  0  0  0  0  0  0  0  0  0  0
  -10.3885   -6.1715    8.6408 C   0  0  0  0  0  0  0  0  0  0  0  0
  -11.3733   -7.1805    8.8145 N   0  0  0  0  0  0  0  0  0  0  0  0
  -12.0107   -7.9251    7.7551 C   0  0  0  0  0  0  0  0  0  0  0  0
  -11.6212   -7.6352    6.6113 O   0  0  0  0  0  0  0  0  0  0  0  0
  -11.7098   -7.4548    9.7899 H   0  0  0  0  0  0  0  0  0  0  0  0
  -13.0156   -8.9164    8.0114 C   0  0  0  0  0  0  0  0  0  0  0  0
  -12.9189  -10.1662    7.1324 C   0  0  0  0  0  0  0  0  0  0  0  0
  -14.1647  -10.9141    7.5913 C   0  0  0  0  0  0  0  0  0  0  0  0
  -14.9778   -9.9330    8.4235 C   0  0  0  0  0  0  0  0  0  0  0  0
  -14.3912   -8.6431    7.9360 N   0  0  0  0  0  0  0  0  0  0  0  0
  -15.2223   -7.5894    7.5544 C   0  0  0  0  0  0  0  0  0  0  0  0
  -16.5107   -7.7674    7.6555 O   0  0  0  0  0  0  0  0  0  0  0  0
  -14.8951   -6.3582    7.0747 O   0  0  0  0  0  0  0  0  0  0  0  0
  -14.8944   -5.8789    5.7762 C   0  0  0  0  0  0  0  0  0  0  0  0
  -16.0680   -6.1743    4.9604 C   0  0  0  0  0  0  0  0  0  0  0  0
  -16.0905   -7.2849    4.1557 C   0  0  0  0  0  0  0  0  0  0  0  0
  -17.1952   -7.5859    3.3584 C   0  0  0  0  0  0  0  0  0  0  0  0
  -18.2883   -6.7448    3.3829 C   0  0  0  0  0  0  0  0  0  0  0  0
  -18.2520   -5.6434    4.1883 C   0  0  0  0  0  0  0  0  0  0  0  0
  -17.1592   -5.3457    4.9768 C   0  0  0  0  0  0  0  0  0  0  0  0
  -10.1669   -5.2319    9.7656 C   0  0  0  0  0  0  0  0  0  0  0  0
  -12.6870   -5.0799   10.0014 C   0  0  0  0  0  0  0  0  0  0  0  0
  -11.3460   -4.8449   10.5782 C   0  0  0  0  0  0  0  0  0  0  0  0
  -11.2753   -5.6735   11.8719 C   0  0  0  0  0  0  0  0  0  0  0  0
 51 52  1  0  0  0
 52 53  1  0  0  0
 52 50  1  0  0  0
 50 30  1  0  0  0
 30 31  1  0  0  0
 31 32  1  0  0  0
 32 33  2  0  0  0
 32 35  1  0  0  0
 35 36  1  0  0  0
 36 37  1  0  0  0
 37 38  1  0  0  0
 38 39  1  0  0  0
 39 40  1  0  0  0
 40 41  2  0  0  0
 40 42  1  0  0  0
 42 43  1  0  0  0
 43 44  1  0  0  0
 44 45  2  0  0  0
 45 46  1  0  0  0
 46 47  2  0  0  0
 47 48  1  0  0  0
 48 49  2  0  0  0
 30  1  1  0  0  0
  1  2  2  0  0  0
  1  3  1  0  0  0
  3  5  1  0  0  0
  5 19  1  0  0  0
 19 20  1  0  0  0
 20 21  1  0  0  0
 21 22  1  0  0  0
 22 24  1  0  0  0
 24 25  1  0  0  0
 24 26  2  0  0  0
  5  6  1  0  0  0
  6  7  2  0  0  0
  6  8  1  0  0  0
  8 10  1  0  0  0
 10 15  1  0  0  0
 15 16  1  0  0  0
 16 17  1  0  0  0
 16 18  1  0  0  0
 10 11  1  0  0  0
 11 12  1  0  0  0
 11 13  2  0  0  0
 39 35  1  0  0  0
 49 44  1  0  0  0
 31 34  1  0  0  0
  3  4  1  0  0  0
 22 23  1  0  0  0
 25 27  1  0  0  0
 25 28  1  0  0  0
 26 29  1  0  0  0
  8  9  1  0  0  0
 12 14  1  0  0  0
M  END
> <minimizedAffinity>
-3.41689

> <CNNscore>
0.3081936836

> <CNNaffinity>
7.0156030655

> <CNN_VS>
2.1621644497

> <CNNaffinity_variance>
0.2907350063

$$$$
[H]N=C(N([H])[H])N([H])C([H])([H])C([H])([H])C([H])([H])[C@@]([H])(C(=O)N([H])[C@]([H])(C(=O)O[H])C([H])([H])C([H])(C([H])([H])[H])C([H])([H])[H])N([H])C(=O)[C@@]([H])(N([H])C(=O)[C@@]1([H])N(C(=O)OC([H])([H])c2c([H])c([H])c([H])c([H])c2[H])C([H])([H])C([H])([H])C1([H])[H])C([H])([H])C([H])(C([H])([H])[H])C([H])([H])[H]


 53 54  0  0  0  0  0  0  0  0999 V2000
   -7.6245   -6.6186    6.5364 C   0  0  0  0  0  0  0  0  0  0  0  0
   -7.8867   -7.0935    5.3794 O   0  0  0  0  0  0  0  0  0  0  0  0
   -6.3185   -6.2226    6.8445 N   0  0  0  0  0  0  0  0  0  0  0  0
   -6.0998   -5.8253    7.7769 H   0  0  0  0  0  0  0  0  0  0  0  0
   -5.1991   -6.3145    5.9312 C   0  0  0  0  0  0  0  0  0  0  0  0
   -4.3304   -7.4628    6.1734 C   0  0  0  0  0  0  0  0  0  0  0  0
   -4.8647   -8.5822    6.4344 O   0  0  0  0  0  0  0  0  0  0  0  0
   -2.9179   -7.4108    6.1365 N   0  0  0  0  0  0  0  0  0  0  0  0
   -2.4319   -6.5337    5.9304 H   0  0  0  0  0  0  0  0  0  0  0  0
   -2.0855   -8.6015    6.3894 C   0  0  0  0  0  0  0  0  0  0  0  0
   -1.4076   -8.3696    7.6833 C   0  0  0  0  0  0  0  0  0  0  0  0
   -1.1070   -9.3702    8.6050 O   0  0  0  0  0  0  0  0  0  0  0  0
   -1.0640   -7.1910    8.0079 O   0  0  0  0  0  0  0  0  0  0  0  0
   -1.3433   -9.2265    9.5703 H   0  0  0  0  0  0  0  0  0  0  0  0
   -1.0605   -8.7463    5.3040 C   0  0  0  0  0  0  0  0  0  0  0  0
   -1.0607  -10.0438    4.5792 C   0  0  0  0  0  0  0  0  0  0  0  0
   -1.1144  -11.2130    5.5649 C   0  0  0  0  0  0  0  0  0  0  0  0
   -2.3713  -10.1767    3.7723 C   0  0  0  0  0  0  0  0  0  0  0  0
   -4.3901   -5.0226    5.8790 C   0  0  0  0  0  0  0  0  0  0  0  0
   -3.9732   -4.7864    4.4548 C   0  0  0  0  0  0  0  0  0  0  0  0
   -3.6989   -3.3289    4.1749 C   0  0  0  0  0  0  0  0  0  0  0  0
   -2.8392   -3.1790    3.0245 N   0  0  0  0  0  0  0  0  0  0  0  0
   -2.2098   -3.9751    2.7810 H   0  0  0  0  0  0  0  0  0  0  0  0
   -2.7911   -2.0338    2.2067 C   0  0  0  0  0  0  0  0  0  0  0  0
   -1.7847   -1.9000    1.2164 N   0  0  0  0  0  0  0  0  0  0  0  0
   -3.6670   -1.1145    2.3673 N   0  0  0  0  0  0  0  0  0  0  0  0
   -1.9347   -1.2935    0.3939 H   0  0  0  0  0  0  0  0  0  0  0  0
   -0.8874   -2.4155    1.3160 H   0  0  0  0  0  0  0  0  0  0  0  0
   -3.6376   -0.2749    1.7730 H   0  0  0  0  0  0  0  0  0  0  0  0
   -8.7035   -6.4762    7.5755 C   0  0  0  0  0  0  0  0  0  0  0  0
   -9.5852   -7.5880    7.5085 N   0  0  0  0  0  0  0  0  0  0  0  0
  -10.9663   -7.5928    7.9276 C   0  0  0  0  0  0  0  0  0  0  0  0
  -11.3793   -6.5047    8.3627 O   0  0  0  0  0  0  0  0  0  0  0  0
   -9.2537   -8.5270    7.1235 H   0  0  0  0  0  0  0  0  0  0  0  0
  -11.7879   -8.7661    7.8480 C   0  0  0  0  0  0  0  0  0  0  0  0
  -11.2036   -9.8990    7.0000 C   0  0  0  0  0  0  0  0  0  0  0  0
  -12.3564  -10.8941    7.0504 C   0  0  0  0  0  0  0  0  0  0  0  0
  -13.5475  -10.1489    7.6352 C   0  0  0  0  0  0  0  0  0  0  0  0
  -13.1118   -8.7380    7.3797 N   0  0  0  0  0  0  0  0  0  0  0  0
  -13.9907   -7.8215    6.8018 C   0  0  0  0  0  0  0  0  0  0  0  0
  -15.1941   -8.2351    6.5145 O   0  0  0  0  0  0  0  0  0  0  0  0
  -13.7892   -6.5153    6.4758 O   0  0  0  0  0  0  0  0  0  0  0  0
  -14.0122   -5.8499    5.2827 C   0  0  0  0  0  0  0  0  0  0  0  0
  -15.3804   -5.8409    4.7748 C   0  0  0  0  0  0  0  0  0  0  0  0
  -16.3231   -5.0190    5.3384 C   0  0  0  0  0  0  0  0  0  0  0  0
  -17.6403   -4.9973    4.8790 C   0  0  0  0  0  0  0  0  0  0  0  0
  -17.9991   -5.8227    3.8336 C   0  0  0  0  0  0  0  0  0  0  0  0
  -17.0508   -6.6351    3.2826 C   0  0  0  0  0  0  0  0  0  0  0  0
  -15.7478   -6.6567    3.7370 C   0  0  0  0  0  0  0  0  0  0  0  0
   -8.0637   -6.1890    8.8814 C   0  0  0  0  0  0  0  0  0  0  0  0
   -5.6302   -6.0432    9.5791 C   0  0  0  0  0  0  0  0  0  0  0  0
   -6.7853   -6.8777    9.1847 C   0  0  0  0  0  0  0  0  0  0  0  0
   -7.0673   -7.8204   10.3667 C   0  0  0  0  0  0  0  0  0  0  0  0
 51 52  1  0  0  0
 52 53  1  0  0  0
 52 50  1  0  0  0
 50 30  1  0  0  0
 30 31  1  0  0  0
 31 32  1  0  0  0
 32 33  2  0  0  0
 32 35  1  0  0  0
 35 36  1  0  0  0
 36 37  1  0  0  0
 37 38  1  0  0  0
 38 39  1  0  0  0
 39 40  1  0  0  0
 40 41  2  0  0  0
 40 42  1  0  0  0
 42 43  1  0  0  0
 43 44  1  0  0  0
 44 45  2  0  0  0
 45 46  1  0  0  0
 46 47  2  0  0  0
 47 48  1  0  0  0
 48 49  2  0  0  0
 30  1  1  0  0  0
  1  2  2  0  0  0
  1  3  1  0  0  0
  3  5  1  0  0  0
  5 19  1  0  0  0
 19 20  1  0  0  0
 20 21  1  0  0  0
 21 22  1  0  0  0
 22 24  1  0  0  0
 24 25  1  0  0  0
 24 26  2  0  0  0
  5  6  1  0  0  0
  6  7  2  0  0  0
  6  8  1  0  0  0
  8 10  1  0  0  0
 10 15  1  0  0  0
 15 16  1  0  0  0
 16 17  1  0  0  0
 16 18  1  0  0  0
 10 11  1  0  0  0
 11 12  1  0  0  0
 11 13  2  0  0  0
 39 35  1  0  0  0
 49 44  1  0  0  0
 31 34  1  0  0  0
  3  4  1  0  0  0
 22 23  1  0  0  0
 25 27  1  0  0  0
 25 28  1  0  0  0
 26 29  1  0  0  0
  8  9  1  0  0  0
 12 14  1  0  0  0
M  END
> <minimizedAffinity>
-1.91345

> <CNNscore>
0.2988931835

> <CNNaffinity>
6.7722005844

> <CNN_VS>
2.0241646767

> <CNNaffinity_variance>
1.2598356009

$$$$
[H]N=C(N([H])[H])N([H])C([H])([H])C([H])([H])C([H])([H])[C@@]([H])(C(=O)N([H])[C@]([H])(C(=O)O[H])C([H])([H])C([H])(C([H])([H])[H])C([H])([H])[H])N([H])C(=O)[C@@]([H])(N([H])C(=O)[C@@]1([H])N(C(=O)OC([H])([H])c2c([H])c([H])c([H])c([H])c2[H])C([H])([H])C([H])([H])C1([H])[H])C([H])([H])C([H])(C([H])([H])[H])C([H])([H])[H]


 53 54  0  0  0  0  0  0  0  0999 V2000
  -11.7871   -7.8083    7.5046 C   0  0  0  0  0  0  0  0  0  0  0  0
  -12.5635   -6.8060    7.3445 O   0  0  0  0  0  0  0  0  0  0  0  0
  -10.4281   -7.5994    7.7629 N   0  0  0  0  0  0  0  0  0  0  0  0
   -9.7938   -8.4070    7.9057 H   0  0  0  0  0  0  0  0  0  0  0  0
   -9.8054   -6.2963    7.8620 C   0  0  0  0  0  0  0  0  0  0  0  0
   -8.5103   -6.2069    7.1936 C   0  0  0  0  0  0  0  0  0  0  0  0
   -8.4781   -5.8336    5.9827 O   0  0  0  0  0  0  0  0  0  0  0  0
   -7.2758   -6.5119    7.8118 N   0  0  0  0  0  0  0  0  0  0  0  0
   -7.2411   -6.8180    8.7881 H   0  0  0  0  0  0  0  0  0  0  0  0
   -5.9938   -6.4055    7.0908 C   0  0  0  0  0  0  0  0  0  0  0  0
   -5.6271   -7.7801    6.6864 C   0  0  0  0  0  0  0  0  0  0  0  0
   -4.4756   -8.4431    7.1054 O   0  0  0  0  0  0  0  0  0  0  0  0
   -6.3899   -8.4274    5.9044 O   0  0  0  0  0  0  0  0  0  0  0  0
   -3.9063   -8.9059    6.4197 H   0  0  0  0  0  0  0  0  0  0  0  0
   -4.9402   -5.8525    8.0040 C   0  0  0  0  0  0  0  0  0  0  0  0
   -3.7245   -5.3125    7.3413 C   0  0  0  0  0  0  0  0  0  0  0  0
   -4.0890   -4.6181    6.0273 C   0  0  0  0  0  0  0  0  0  0  0  0
   -3.1314   -4.1802    8.2088 C   0  0  0  0  0  0  0  0  0  0  0  0
   -9.7066   -5.8129    9.3052 C   0  0  0  0  0  0  0  0  0  0  0  0
  -10.8261   -6.4390   10.0881 C   0  0  0  0  0  0  0  0  0  0  0  0
  -11.6123   -5.4186   10.8747 C   0  0  0  0  0  0  0  0  0  0  0  0
  -11.7794   -5.8430   12.2447 N   0  0  0  0  0  0  0  0  0  0  0  0
  -12.5556   -6.5076   12.4566 H   0  0  0  0  0  0  0  0  0  0  0  0
  -10.9672   -5.4236   13.3158 C   0  0  0  0  0  0  0  0  0  0  0  0
   -9.6015   -5.8015   13.3726 N   0  0  0  0  0  0  0  0  0  0  0  0
  -11.4762   -4.6966   14.2381 N   0  0  0  0  0  0  0  0  0  0  0  0
   -8.9214   -5.2348   13.9049 H   0  0  0  0  0  0  0  0  0  0  0  0
   -9.2786   -6.6554   12.8752 H   0  0  0  0  0  0  0  0  0  0  0  0
  -10.8882   -4.3866   15.0237 H   0  0  0  0  0  0  0  0  0  0  0  0
  -12.3149   -9.2151    7.4213 C   0  0  0  0  0  0  0  0  0  0  0  0
  -12.9876   -9.4037    6.1843 N   0  0  0  0  0  0  0  0  0  0  0  0
  -14.3970   -9.1962    5.9531 C   0  0  0  0  0  0  0  0  0  0  0  0
  -15.0326   -8.8041    6.9462 O   0  0  0  0  0  0  0  0  0  0  0  0
  -12.4563   -9.7252    5.3158 H   0  0  0  0  0  0  0  0  0  0  0  0
  -15.0074   -9.4302    4.6761 C   0  0  0  0  0  0  0  0  0  0  0  0
  -14.3110   -8.7416    3.4993 C   0  0  0  0  0  0  0  0  0  0  0  0
  -15.2660   -9.1087    2.3701 C   0  0  0  0  0  0  0  0  0  0  0  0
  -16.5134   -9.6828    3.0263 C   0  0  0  0  0  0  0  0  0  0  0  0
  -16.3514   -9.1236    4.4072 N   0  0  0  0  0  0  0  0  0  0  0  0
  -17.4216   -8.4947    5.0441 C   0  0  0  0  0  0  0  0  0  0  0  0
  -18.5557   -8.4316    4.4023 O   0  0  0  0  0  0  0  0  0  0  0  0
  -17.4775   -7.9134    6.2737 O   0  0  0  0  0  0  0  0  0  0  0  0
  -17.1154   -6.6388    6.6742 C   0  0  0  0  0  0  0  0  0  0  0  0
  -16.4704   -5.7895    5.6778 C   0  0  0  0  0  0  0  0  0  0  0  0
  -15.1029   -5.6934    5.6304 C   0  0  0  0  0  0  0  0  0  0  0  0
  -14.4606   -4.8818    4.6948 C   0  0  0  0  0  0  0  0  0  0  0  0
  -15.2219   -4.1610    3.7982 C   0  0  0  0  0  0  0  0  0  0  0  0
  -16.5815   -4.2664    3.8570 C   0  0  0  0  0  0  0  0  0  0  0  0
  -17.2168   -5.0692    4.7826 C   0  0  0  0  0  0  0  0  0  0  0  0
  -11.2132  -10.1508    7.7498 C   0  0  0  0  0  0  0  0  0  0  0  0
   -8.6848   -9.9858    7.8477 C   0  0  0  0  0  0  0  0  0  0  0  0
   -9.9234   -9.9673    7.0405 C   0  0  0  0  0  0  0  0  0  0  0  0
   -9.8084  -11.1271    6.0370 C   0  0  0  0  0  0  0  0  0  0  0  0
 51 52  1  0  0  0
 52 53  1  0  0  0
 52 50  1  0  0  0
 50 30  1  0  0  0
 30 31  1  0  0  0
 31 32  1  0  0  0
 32 33  2  0  0  0
 32 35  1  0  0  0
 35 36  1  0  0  0
 36 37  1  0  0  0
 37 38  1  0  0  0
 38 39  1  0  0  0
 39 40  1  0  0  0
 40 41  2  0  0  0
 40 42  1  0  0  0
 42 43  1  0  0  0
 43 44  1  0  0  0
 44 45  2  0  0  0
 45 46  1  0  0  0
 46 47  2  0  0  0
 47 48  1  0  0  0
 48 49  2  0  0  0
 30  1  1  0  0  0
  1  2  2  0  0  0
  1  3  1  0  0  0
  3  5  1  0  0  0
  5 19  1  0  0  0
 19 20  1  0  0  0
 20 21  1  0  0  0
 21 22  1  0  0  0
 22 24  1  0  0  0
 24 25  1  0  0  0
 24 26  2  0  0  0
  5  6  1  0  0  0
  6  7  2  0  0  0
  6  8  1  0  0  0
  8 10  1  0  0  0
 10 15  1  0  0  0
 15 16  1  0  0  0
 16 17  1  0  0  0
 16 18  1  0  0  0
 10 11  1  0  0  0
 11 12  1  0  0  0
 11 13  2  0  0  0
 39 35  1  0  0  0
 49 44  1  0  0  0
 31 34  1  0  0  0
  3  4  1  0  0  0
 22 23  1  0  0  0
 25 27  1  0  0  0
 25 28  1  0  0  0
 26 29  1  0  0  0
  8  9  1  0  0  0
 12 14  1  0  0  0
M  END
> <minimizedAffinity>
-2.03282

> <CNNscore>
0.2854037583

> <CNNaffinity>
7.1805696487

> <CNN_VS>
2.0493614674

> <CNNaffinity_variance>
0.1430481672

$$$$
[H]N=C(N([H])[H])N([H])C([H])([H])C([H])([H])C([H])([H])[C@@]([H])(C(=O)N([H])[C@]([H])(C(=O)O[H])C([H])([H])C([H])(C([H])([H])[H])C([H])([H])[H])N([H])C(=O)[C@@]([H])(N([H])C(=O)[C@@]1([H])N(C(=O)OC([H])([H])c2c([H])c([H])c([H])c([H])c2[H])C([H])([H])C([H])([H])C1([H])[H])C([H])([H])C([H])(C([H])([H])[H])C([H])([H])[H]


 53 54  0  0  0  0  0  0  0  0999 V2000
   -9.6963   -7.0355    7.8338 C   0  0  0  0  0  0  0  0  0  0  0  0
   -9.7641   -6.5135    8.9982 O   0  0  0  0  0  0  0  0  0  0  0  0
  -10.8465   -7.5728    7.2458 N   0  0  0  0  0  0  0  0  0  0  0  0
  -10.8024   -7.9875    6.2966 H   0  0  0  0  0  0  0  0  0  0  0  0
  -12.1519   -7.5920    7.8713 C   0  0  0  0  0  0  0  0  0  0  0  0
  -13.1615   -8.3235    7.1114 C   0  0  0  0  0  0  0  0  0  0  0  0
  -13.0756   -9.5865    7.0491 O   0  0  0  0  0  0  0  0  0  0  0  0
  -14.2406   -7.7121    6.4324 N   0  0  0  0  0  0  0  0  0  0  0  0
  -14.3603   -6.6955    6.4484 H   0  0  0  0  0  0  0  0  0  0  0  0
  -15.2343   -8.4979    5.6775 C   0  0  0  0  0  0  0  0  0  0  0  0
  -14.6169   -8.8049    4.3690 C   0  0  0  0  0  0  0  0  0  0  0  0
  -13.3608   -9.3856    4.2082 O   0  0  0  0  0  0  0  0  0  0  0  0
  -15.2463   -8.5325    3.3004 O   0  0  0  0  0  0  0  0  0  0  0  0
  -12.7161   -8.9732    3.5581 H   0  0  0  0  0  0  0  0  0  0  0  0
  -16.4759   -7.6826    5.4683 C   0  0  0  0  0  0  0  0  0  0  0  0
  -16.2907   -6.3856    4.7665 C   0  0  0  0  0  0  0  0  0  0  0  0
  -17.5909   -5.5787    4.7711 C   0  0  0  0  0  0  0  0  0  0  0  0
  -15.3050   -5.5079    5.5692 C   0  0  0  0  0  0  0  0  0  0  0  0
  -12.6440   -6.1914    8.2212 C   0  0  0  0  0  0  0  0  0  0  0  0
  -13.6867   -6.3147    9.2963 C   0  0  0  0  0  0  0  0  0  0  0  0
  -13.2818   -7.2903   10.3744 C   0  0  0  0  0  0  0  0  0  0  0  0
  -12.0313   -6.8975   10.9801 N   0  0  0  0  0  0  0  0  0  0  0  0
  -11.2808   -7.6186   11.0571 H   0  0  0  0  0  0  0  0  0  0  0  0
  -11.7525   -5.6085   11.4736 C   0  0  0  0  0  0  0  0  0  0  0  0
  -11.4775   -4.5415   10.5808 N   0  0  0  0  0  0  0  0  0  0  0  0
  -11.7506   -5.4109   12.7381 N   0  0  0  0  0  0  0  0  0  0  0  0
  -11.6360   -3.5621   10.8683 H   0  0  0  0  0  0  0  0  0  0  0  0
  -11.1134   -4.7432    9.6282 H   0  0  0  0  0  0  0  0  0  0  0  0
  -11.5477   -4.4713   13.1056 H   0  0  0  0  0  0  0  0  0  0  0  0
   -8.3936   -7.0794    7.0817 C   0  0  0  0  0  0  0  0  0  0  0  0
   -7.3579   -6.5266    7.8815 N   0  0  0  0  0  0  0  0  0  0  0  0
   -5.9881   -6.3349    7.4693 C   0  0  0  0  0  0  0  0  0  0  0  0
   -5.7450   -6.6834    6.3016 O   0  0  0  0  0  0  0  0  0  0  0  0
   -7.5502   -6.2069    8.8819 H   0  0  0  0  0  0  0  0  0  0  0  0
   -4.9925   -5.7884    8.3458 C   0  0  0  0  0  0  0  0  0  0  0  0
   -4.6532   -4.3177    8.0890 C   0  0  0  0  0  0  0  0  0  0  0  0
   -3.5241   -4.1234    9.0936 C   0  0  0  0  0  0  0  0  0  0  0  0
   -3.1391   -5.5106    9.5873 C   0  0  0  0  0  0  0  0  0  0  0  0
   -3.7074   -6.3399    8.4760 N   0  0  0  0  0  0  0  0  0  0  0  0
   -2.9414   -7.3426    7.8807 C   0  0  0  0  0  0  0  0  0  0  0  0
   -1.7350   -7.5349    8.3383 O   0  0  0  0  0  0  0  0  0  0  0  0
   -3.2599   -8.1854    6.8603 O   0  0  0  0  0  0  0  0  0  0  0  0
   -2.4825   -8.6529    5.8148 C   0  0  0  0  0  0  0  0  0  0  0  0
   -1.9888  -10.0225    5.9172 C   0  0  0  0  0  0  0  0  0  0  0  0
   -1.5957  -10.7030    4.7929 C   0  0  0  0  0  0  0  0  0  0  0  0
   -1.1290  -12.0161    4.8607 C   0  0  0  0  0  0  0  0  0  0  0  0
   -1.0627  -12.6410    6.0887 C   0  0  0  0  0  0  0  0  0  0  0  0
   -1.4571  -11.9518    7.1989 C   0  0  0  0  0  0  0  0  0  0  0  0
   -1.9188  -10.6530    7.1318 C   0  0  0  0  0  0  0  0  0  0  0  0
   -8.1965   -8.4537    6.5625 C   0  0  0  0  0  0  0  0  0  0  0  0
   -9.2877  -10.7221    6.8680 C   0  0  0  0  0  0  0  0  0  0  0  0
   -8.5529   -9.5822    7.4568 C   0  0  0  0  0  0  0  0  0  0  0  0
   -7.2278  -10.1476    7.9951 C   0  0  0  0  0  0  0  0  0  0  0  0
 51 52  1  0  0  0
 52 53  1  0  0  0
 52 50  1  0  0  0
 50 30  1  0  0  0
 30 31  1  0  0  0
 31 32  1  0  0  0
 32 33  2  0  0  0
 32 35  1  0  0  0
 35 36  1  0  0  0
 36 37  1  0  0  0
 37 38  1  0  0  0
 38 39  1  0  0  0
 39 40  1  0  0  0
 40 41  2  0  0  0
 40 42  1  0  0  0
 42 43  1  0  0  0
 43 44  1  0  0  0
 44 45  2  0  0  0
 45 46  1  0  0  0
 46 47  2  0  0  0
 47 48  1  0  0  0
 48 49  2  0  0  0
 30  1  1  0  0  0
  1  2  2  0  0  0
  1  3  1  0  0  0
  3  5  1  0  0  0
  5 19  1  0  0  0
 19 20  1  0  0  0
 20 21  1  0  0  0
 21 22  1  0  0  0
 22 24  1  0  0  0
 24 25  1  0  0  0
 24 26  2  0  0  0
  5  6  1  0  0  0
  6  7  2  0  0  0
  6  8  1  0  0  0
  8 10  1  0  0  0
 10 15  1  0  0  0
 15 16  1  0  0  0
 16 17  1  0  0  0
 16 18  1  0  0  0
 10 11  1  0  0  0
 11 12  1  0  0  0
 11 13  2  0  0  0
 39 35  1  0  0  0
 49 44  1  0  0  0
 31 34  1  0  0  0
  3  4  1  0  0  0
 22 23  1  0  0  0
 25 27  1  0  0  0
 25 28  1  0  0  0
 26 29  1  0  0  0
  8  9  1  0  0  0
 12 14  1  0  0  0
M  END
> <minimizedAffinity>
-3.64893

> <CNNscore>
0.2686562836

> <CNNaffinity>
7.3373093605

> <CNN_VS>
1.9712142944

> <CNNaffinity_variance>
0.6120682955

$$$$
[H]OC(=O)C([H])([H])[C@@]([H])(C(=O)O[H])N([H])C(=O)[C@@]([H])(N([H])C(=O)[C@@]([H])(N([H])C(=O)[C@@]1([H])N(C(=O)[C@@]([H])(N([H])C(=O)[C@@]([H])(N([H])C(=O)[C@@]([H])(N([H])[H])C([H])([H])C([H])([H])C([H])([H])N=C(N([H])[H])N([H])[H])C([H])([H])C([H])([H])C([H])([H])N=C(N([H])[H])N([H])[H])C([H])([H])C(=O)O[H])C([H])([H])C([H])([H])C1([H])[H])[C@@]([H])(C([H])([H])[H])C([H])([H])C([H])([H])[H])C([H])([H])C([H])(C([H])([H])[H])C([H])([H])[H]


 80 80  0  0  0  0  0  0  0  0999 V2000
  -10.8343   -9.4588    7.9203 C   0  0  0  0  0  0  0  0  0  0  0  0
   -7.5823   -7.9147    6.4916 C   0  0  0  0  0  0  0  0  0  0  0  0
   -7.8773   -6.5071    5.9465 C   0  0  0  0  0  0  0  0  0  0  0  0
   -8.5388   -5.8386    7.1352 C   0  0  0  0  0  0  0  0  0  0  0  0
   -9.1436   -6.9590    7.9434 C   0  0  0  0  0  0  0  0  0  0  0  0
   -8.8179   -8.1444    7.1916 N   0  0  0  0  0  0  0  0  0  0  0  0
   -9.6434   -9.3317    7.1022 C   0  0  0  0  0  0  0  0  0  0  0  0
   -9.2925  -10.2195    6.3051 O   0  0  0  0  0  0  0  0  0  0  0  0
   -5.1831   -7.3017    7.0650 N   0  0  0  0  0  0  0  0  0  0  0  0
   -6.4380   -7.8867    7.4112 C   0  0  0  0  0  0  0  0  0  0  0  0
   -6.5111   -8.3755    8.5492 O   0  0  0  0  0  0  0  0  0  0  0  0
   -5.1060   -6.8926    6.0857 H   0  0  0  0  0  0  0  0  0  0  0  0
   -4.0288   -7.1987    7.8867 C   0  0  0  0  0  0  0  0  0  0  0  0
   -3.5571   -5.8427    8.1657 C   0  0  0  0  0  0  0  0  0  0  0  0
   -3.2022   -5.1562    7.1587 O   0  0  0  0  0  0  0  0  0  0  0  0
   -3.4797   -5.2378    9.4506 N   0  0  0  0  0  0  0  0  0  0  0  0
   -3.7916   -5.8737   10.2481 H   0  0  0  0  0  0  0  0  0  0  0  0
   -3.0784   -3.9243    9.7744 C   0  0  0  0  0  0  0  0  0  0  0  0
   -3.0642   -3.7112   11.2746 C   0  0  0  0  0  0  0  0  0  0  0  0
   -2.5326   -2.6696   11.7129 O   0  0  0  0  0  0  0  0  0  0  0  0
   -3.6137   -4.6154   12.2010 N   0  0  0  0  0  0  0  0  0  0  0  0
   -4.0740   -5.4844   11.8689 H   0  0  0  0  0  0  0  0  0  0  0  0
   -3.5705   -4.3738   13.6063 C   0  0  0  0  0  0  0  0  0  0  0  0
   -2.3629   -4.9606   14.2497 C   0  0  0  0  0  0  0  0  0  0  0  0
   -2.2060   -6.3270   14.3048 O   0  0  0  0  0  0  0  0  0  0  0  0
   -1.4876   -4.2028   14.7426 O   0  0  0  0  0  0  0  0  0  0  0  0
   -2.0120   -6.8305   13.4523 H   0  0  0  0  0  0  0  0  0  0  0  0
   -4.8357   -4.8256   14.2667 C   0  0  0  0  0  0  0  0  0  0  0  0
   -5.4443   -5.9314   13.4765 C   0  0  0  0  0  0  0  0  0  0  0  0
   -6.4909   -5.6236   12.6228 O   0  0  0  0  0  0  0  0  0  0  0  0
   -5.0117   -7.1038   13.5891 O   0  0  0  0  0  0  0  0  0  0  0  0
   -6.9687   -4.7348   12.6250 H   0  0  0  0  0  0  0  0  0  0  0  0
   -3.6179   -2.7562    9.0735 C   0  0  0  0  0  0  0  0  0  0  0  0
   -2.6390   -1.8833    8.3474 C   0  0  0  0  0  0  0  0  0  0  0  0
   -1.2644   -2.3997    8.1986 C   0  0  0  0  0  0  0  0  0  0  0  0
   -3.1957   -1.5870    6.9548 C   0  0  0  0  0  0  0  0  0  0  0  0
   -2.9741   -8.2155    7.7007 C   0  0  0  0  0  0  0  0  0  0  0  0
   -2.7421   -8.5452    6.2360 C   0  0  0  0  0  0  0  0  0  0  0  0
   -0.9669   -9.2688    8.8765 C   0  0  0  0  0  0  0  0  0  0  0  0
   -1.6978   -8.0746    8.4280 C   0  0  0  0  0  0  0  0  0  0  0  0
  -11.7218   -8.3176    7.8372 N   0  0  0  0  0  0  0  0  0  0  0  0
  -12.5689   -7.9145    8.8855 C   0  0  0  0  0  0  0  0  0  0  0  0
  -12.5756   -8.5982    9.9408 O   0  0  0  0  0  0  0  0  0  0  0  0
  -11.7270   -7.7756    6.9537 H   0  0  0  0  0  0  0  0  0  0  0  0
  -13.4700   -6.6911    8.7951 C   0  0  0  0  0  0  0  0  0  0  0  0
  -14.7613   -7.0960    8.3193 N   0  0  0  0  0  0  0  0  0  0  0  0
  -15.1184   -7.1320    6.9528 C   0  0  0  0  0  0  0  0  0  0  0  0
  -14.2934   -6.8005    6.0910 O   0  0  0  0  0  0  0  0  0  0  0  0
  -15.4692   -7.3792    9.0229 H   0  0  0  0  0  0  0  0  0  0  0  0
  -16.4639   -7.5565    6.5584 C   0  0  0  0  0  0  0  0  0  0  0  0
  -17.2498   -8.0002    7.7109 N   0  0  0  0  0  0  0  0  0  0  0  0
  -18.0116   -8.6253    7.3261 H   0  0  0  0  0  0  0  0  0  0  0  0
  -17.5888   -7.1752    8.2115 H   0  0  0  0  0  0  0  0  0  0  0  0
  -17.1708   -6.3984    5.8733 C   0  0  0  0  0  0  0  0  0  0  0  0
  -17.6865   -6.8788    4.5328 C   0  0  0  0  0  0  0  0  0  0  0  0
  -16.8635   -6.1398    3.4680 C   0  0  0  0  0  0  0  0  0  0  0  0
  -16.4799   -4.8922    4.0707 N   0  0  0  0  0  0  0  0  0  0  0  0
  -15.2513   -4.5268    4.1665 C   0  0  0  0  0  0  0  0  0  0  0  0
  -14.1893   -5.3403    3.6770 N   0  0  0  0  0  0  0  0  0  0  0  0
  -14.9577   -3.2831    4.7743 N   0  0  0  0  0  0  0  0  0  0  0  0
  -13.1971   -5.1014    3.9169 H   0  0  0  0  0  0  0  0  0  0  0  0
  -14.3992   -6.1576    3.0900 H   0  0  0  0  0  0  0  0  0  0  0  0
  -14.0427   -3.0631    5.2218 H   0  0  0  0  0  0  0  0  0  0  0  0
  -15.6779   -2.5076    4.7974 H   0  0  0  0  0  0  0  0  0  0  0  0
  -13.4756   -6.1159   10.1469 C   0  0  0  0  0  0  0  0  0  0  0  0
  -12.4047   -5.2504   10.6637 C   0  0  0  0  0  0  0  0  0  0  0  0
  -11.6302   -5.8419   11.7753 C   0  0  0  0  0  0  0  0  0  0  0  0
  -11.7811   -5.0822   13.0289 N   0  0  0  0  0  0  0  0  0  0  0  0
  -10.8302   -5.0954   13.8627 C   0  0  0  0  0  0  0  0  0  0  0  0
   -9.6444   -5.8137   13.6216 N   0  0  0  0  0  0  0  0  0  0  0  0
  -10.9527   -4.3592   15.0722 N   0  0  0  0  0  0  0  0  0  0  0  0
   -9.0242   -5.6732   12.7863 H   0  0  0  0  0  0  0  0  0  0  0  0
   -9.2996   -6.5629   14.2944 H   0  0  0  0  0  0  0  0  0  0  0  0
  -10.9308   -4.8665   15.9886 H   0  0  0  0  0  0  0  0  0  0  0  0
  -11.0696   -3.3026   15.0960 H   0  0  0  0  0  0  0  0  0  0  0  0
  -11.7246  -10.6241    7.3690 C   0  0  0  0  0  0  0  0  0  0  0  0
  -12.9760  -10.0747    6.8360 C   0  0  0  0  0  0  0  0  0  0  0  0
  -14.1783  -10.0858    7.5214 O   0  0  0  0  0  0  0  0  0  0  0  0
  -12.9961   -9.5498    5.6825 O   0  0  0  0  0  0  0  0  0  0  0  0
  -14.1986   -9.5891    8.4114 H   0  0  0  0  0  0  0  0  0  0  0  0
 39 40  1  0  0  0
 40 37  1  0  0  0
 37 38  1  0  0  0
 37 13  1  0  0  0
 13  9  1  0  0  0
  9 10  1  0  0  0
 10 11  2  0  0  0
 10  2  1  0  0  0
  2  3  1  0  0  0
  3  4  1  0  0  0
  4  5  1  0  0  0
  5  6  1  0  0  0
  6  7  1  0  0  0
  7  8  2  0  0  0
  7  1  1  0  0  0
  1 76  1  0  0  0
 76 77  1  0  0  0
 77 78  1  0  0  0
 77 79  2  0  0  0
  1 41  1  0  0  0
 41 42  1  0  0  0
 42 43  2  0  0  0
 42 45  1  0  0  0
 45 65  1  0  0  0
 65 66  1  0  0  0
 66 67  1  0  0  0
 67 68  1  0  0  0
 68 69  2  0  0  0
 69 70  1  0  0  0
 69 71  1  0  0  0
 45 46  1  0  0  0
 46 47  1  0  0  0
 47 48  2  0  0  0
 47 50  1  0  0  0
 50 51  1  0  0  0
 50 54  1  0  0  0
 54 55  1  0  0  0
 55 56  1  0  0  0
 56 57  1  0  0  0
 57 58  2  0  0  0
 58 59  1  0  0  0
 58 60  1  0  0  0
 13 14  1  0  0  0
 14 15  2  0  0  0
 14 16  1  0  0  0
 16 18  1  0  0  0
 18 33  1  0  0  0
 33 34  1  0  0  0
 34 35  1  0  0  0
 34 36  1  0  0  0
 18 19  1  0  0  0
 19 20  2  0  0  0
 19 21  1  0  0  0
 21 23  1  0  0  0
 23 28  1  0  0  0
 28 29  1  0  0  0
 29 30  1  0  0  0
 29 31  2  0  0  0
 23 24  1  0  0  0
 24 25  1  0  0  0
 24 26  2  0  0  0
  6  2  1  0  0  0
  9 12  1  0  0  0
 78 80  1  0  0  0
 41 44  1  0  0  0
 70 72  1  0  0  0
 70 73  1  0  0  0
 71 74  1  0  0  0
 71 75  1  0  0  0
 46 49  1  0  0  0
 51 52  1  0  0  0
 51 53  1  0  0  0
 59 61  1  0  0  0
 59 62  1  0  0  0
 60 63  1  0  0  0
 60 64  1  0  0  0
 16 17  1  0  0  0
 21 22  1  0  0  0
 30 32  1  0  0  0
 25 27  1  0  0  0
M  END
> <minimizedAffinity>
-4.59524

> <CNNscore>
0.2675974667

> <CNNaffinity>
8.1280651093

> <CNN_VS>
2.1750495434

> <CNNaffinity_variance>
0.2441508472

$$$$
[H]OC(=O)C([H])([H])[C@@]([H])(C(=O)O[H])N([H])C(=O)[C@@]([H])(N([H])C(=O)[C@@]([H])(N([H])C(=O)[C@@]1([H])N(C(=O)[C@@]([H])(N([H])C(=O)[C@@]([H])(N([H])C(=O)[C@@]([H])(N([H])[H])C([H])([H])C([H])([H])C([H])([H])N=C(N([H])[H])N([H])[H])C([H])([H])C([H])([H])C([H])([H])N=C(N([H])[H])N([H])[H])C([H])([H])C(=O)O[H])C([H])([H])C([H])([H])C1([H])[H])[C@@]([H])(C([H])([H])[H])C([H])([H])C([H])([H])[H])C([H])([H])C([H])(C([H])([H])[H])C([H])([H])[H]


 80 80  0  0  0  0  0  0  0  0999 V2000
  -10.9027   -9.3679    7.9947 C   0  0  0  0  0  0  0  0  0  0  0  0
   -7.5758   -8.2054    6.3880 C   0  0  0  0  0  0  0  0  0  0  0  0
   -7.7843   -6.8459    5.6995 C   0  0  0  0  0  0  0  0  0  0  0  0
   -8.3829   -6.0134    6.8158 C   0  0  0  0  0  0  0  0  0  0  0  0
   -9.0494   -6.9994    7.7419 C   0  0  0  0  0  0  0  0  0  0  0  0
   -8.8140   -8.2763    7.1170 N   0  0  0  0  0  0  0  0  0  0  0  0
   -9.7178   -9.4079    7.1592 C   0  0  0  0  0  0  0  0  0  0  0  0
   -9.4380  -10.3960    6.4577 O   0  0  0  0  0  0  0  0  0  0  0  0
   -5.1753   -7.5638    6.9231 N   0  0  0  0  0  0  0  0  0  0  0  0
   -6.4193   -8.1587    7.2913 C   0  0  0  0  0  0  0  0  0  0  0  0
   -6.4717   -8.6392    8.4339 O   0  0  0  0  0  0  0  0  0  0  0  0
   -5.1159   -7.1616    5.9398 H   0  0  0  0  0  0  0  0  0  0  0  0
   -4.0108   -7.4427    7.7280 C   0  0  0  0  0  0  0  0  0  0  0  0
   -3.9540   -6.2736    8.6048 C   0  0  0  0  0  0  0  0  0  0  0  0
   -4.9463   -5.4838    8.5482 O   0  0  0  0  0  0  0  0  0  0  0  0
   -2.9017   -5.9643    9.5103 N   0  0  0  0  0  0  0  0  0  0  0  0
   -2.1020   -6.6701    9.5020 H   0  0  0  0  0  0  0  0  0  0  0  0
   -2.8142   -4.8807   10.4098 C   0  0  0  0  0  0  0  0  0  0  0  0
   -2.4057   -3.6085    9.6950 C   0  0  0  0  0  0  0  0  0  0  0  0
   -1.2345   -3.2021    9.8465 O   0  0  0  0  0  0  0  0  0  0  0  0
   -3.2659   -2.8597    8.8721 N   0  0  0  0  0  0  0  0  0  0  0  0
   -4.2417   -3.1769    8.7152 H   0  0  0  0  0  0  0  0  0  0  0  0
   -2.8368   -1.6633    8.2244 C   0  0  0  0  0  0  0  0  0  0  0  0
   -3.3056   -0.4355    8.9241 C   0  0  0  0  0  0  0  0  0  0  0  0
   -4.2411   -0.5295    9.9294 O   0  0  0  0  0  0  0  0  0  0  0  0
   -2.8435    0.6869    8.5926 O   0  0  0  0  0  0  0  0  0  0  0  0
   -3.9719   -0.9434   10.8092 H   0  0  0  0  0  0  0  0  0  0  0  0
   -3.2230   -1.6690    6.7781 C   0  0  0  0  0  0  0  0  0  0  0  0
   -3.0472   -3.0382    6.2196 C   0  0  0  0  0  0  0  0  0  0  0  0
   -4.1775   -3.8176    6.0357 O   0  0  0  0  0  0  0  0  0  0  0  0
   -1.9028   -3.4616    5.9272 O   0  0  0  0  0  0  0  0  0  0  0  0
   -5.0855   -3.5783    6.4051 H   0  0  0  0  0  0  0  0  0  0  0  0
   -2.1431   -5.0045   11.7064 C   0  0  0  0  0  0  0  0  0  0  0  0
   -2.9715   -4.7540   12.9306 C   0  0  0  0  0  0  0  0  0  0  0  0
   -4.4355   -4.8694   12.7828 C   0  0  0  0  0  0  0  0  0  0  0  0
   -2.5202   -5.7203   14.0258 C   0  0  0  0  0  0  0  0  0  0  0  0
   -2.7265   -7.8500    7.1235 C   0  0  0  0  0  0  0  0  0  0  0  0
   -2.2549   -9.2034    7.6272 C   0  0  0  0  0  0  0  0  0  0  0  0
   -1.5471   -6.7906    5.1215 C   0  0  0  0  0  0  0  0  0  0  0  0
   -2.5428   -7.7263    5.6644 C   0  0  0  0  0  0  0  0  0  0  0  0
  -11.6841   -8.1587    7.8384 N   0  0  0  0  0  0  0  0  0  0  0  0
  -12.4588   -7.5959    8.8690 C   0  0  0  0  0  0  0  0  0  0  0  0
  -12.4962   -8.1900    9.9767 O   0  0  0  0  0  0  0  0  0  0  0  0
  -11.6662   -7.6905    6.9138 H   0  0  0  0  0  0  0  0  0  0  0  0
  -13.2463   -6.3045    8.6991 C   0  0  0  0  0  0  0  0  0  0  0  0
  -14.4462   -6.5823    7.9637 N   0  0  0  0  0  0  0  0  0  0  0  0
  -14.5311   -6.5371    6.5541 C   0  0  0  0  0  0  0  0  0  0  0  0
  -13.5313   -6.2432    5.8854 O   0  0  0  0  0  0  0  0  0  0  0  0
  -15.2970   -6.8319    8.5025 H   0  0  0  0  0  0  0  0  0  0  0  0
  -15.8014   -6.8329    5.8870 C   0  0  0  0  0  0  0  0  0  0  0  0
  -16.9106   -6.8937    6.8403 N   0  0  0  0  0  0  0  0  0  0  0  0
  -17.6683   -7.4676    6.3757 H   0  0  0  0  0  0  0  0  0  0  0  0
  -17.1871   -5.9387    7.0803 H   0  0  0  0  0  0  0  0  0  0  0  0
  -16.0797   -5.7599    4.8471 C   0  0  0  0  0  0  0  0  0  0  0  0
  -17.5787   -5.6526    4.6603 C   0  0  0  0  0  0  0  0  0  0  0  0
  -17.9628   -6.7412    3.6481 C   0  0  0  0  0  0  0  0  0  0  0  0
  -18.9313   -7.5676    4.3157 N   0  0  0  0  0  0  0  0  0  0  0  0
  -18.6357   -8.7276    4.7839 C   0  0  0  0  0  0  0  0  0  0  0  0
  -17.3222   -9.2669    4.6700 N   0  0  0  0  0  0  0  0  0  0  0  0
  -19.6476   -9.4787    5.4274 N   0  0  0  0  0  0  0  0  0  0  0  0
  -17.1503  -10.2738    4.9059 H   0  0  0  0  0  0  0  0  0  0  0  0
  -16.5479   -8.6673    4.3579 H   0  0  0  0  0  0  0  0  0  0  0  0
  -19.6306  -10.5175    5.5071 H   0  0  0  0  0  0  0  0  0  0  0  0
  -20.4839   -8.9988    5.8645 H   0  0  0  0  0  0  0  0  0  0  0  0
  -13.4731   -5.8092   10.0635 C   0  0  0  0  0  0  0  0  0  0  0  0
  -12.4841   -5.0209   10.8141 C   0  0  0  0  0  0  0  0  0  0  0  0
  -12.3429   -5.4163   12.2315 C   0  0  0  0  0  0  0  0  0  0  0  0
  -10.9500   -5.7423   12.5854 N   0  0  0  0  0  0  0  0  0  0  0  0
  -10.5014   -5.3496   13.7009 C   0  0  0  0  0  0  0  0  0  0  0  0
  -11.2954   -4.6149   14.6009 N   0  0  0  0  0  0  0  0  0  0  0  0
   -9.1641   -5.6644   14.0648 N   0  0  0  0  0  0  0  0  0  0  0  0
  -12.2135   -4.9446   14.9888 H   0  0  0  0  0  0  0  0  0  0  0  0
  -10.9995   -3.6537   14.9492 H   0  0  0  0  0  0  0  0  0  0  0  0
   -8.4778   -4.8894   14.2257 H   0  0  0  0  0  0  0  0  0  0  0  0
   -8.8172   -6.6627   14.1822 H   0  0  0  0  0  0  0  0  0  0  0  0
  -11.9035  -10.4823    7.5352 C   0  0  0  0  0  0  0  0  0  0  0  0
  -13.0206   -9.8687    6.8090 C   0  0  0  0  0  0  0  0  0  0  0  0
  -14.2920   -9.7155    7.3338 O   0  0  0  0  0  0  0  0  0  0  0  0
  -12.8490   -9.4410    5.6282 O   0  0  0  0  0  0  0  0  0  0  0  0
  -14.3702   -9.1473    8.1767 H   0  0  0  0  0  0  0  0  0  0  0  0
 39 40  1  0  0  0
 40 37  1  0  0  0
 37 38  1  0  0  0
 37 13  1  0  0  0
 13  9  1  0  0  0
  9 10  1  0  0  0
 10 11  2  0  0  0
 10  2  1  0  0  0
  2  3  1  0  0  0
  3  4  1  0  0  0
  4  5  1  0  0  0
  5  6  1  0  0  0
  6  7  1  0  0  0
  7  8  2  0  0  0
  7  1  1  0  0  0
  1 76  1  0  0  0
 76 77  1  0  0  0
 77 78  1  0  0  0
 77 79  2  0  0  0
  1 41  1  0  0  0
 41 42  1  0  0  0
 42 43  2  0  0  0
 42 45  1  0  0  0
 45 65  1  0  0  0
 65 66  1  0  0  0
 66 67  1  0  0  0
 67 68  1  0  0  0
 68 69  2  0  0  0
 69 70  1  0  0  0
 69 71  1  0  0  0
 45 46  1  0  0  0
 46 47  1  0  0  0
 47 48  2  0  0  0
 47 50  1  0  0  0
 50 51  1  0  0  0
 50 54  1  0  0  0
 54 55  1  0  0  0
 55 56  1  0  0  0
 56 57  1  0  0  0
 57 58  2  0  0  0
 58 59  1  0  0  0
 58 60  1  0  0  0
 13 14  1  0  0  0
 14 15  2  0  0  0
 14 16  1  0  0  0
 16 18  1  0  0  0
 18 33  1  0  0  0
 33 34  1  0  0  0
 34 35  1  0  0  0
 34 36  1  0  0  0
 18 19  1  0  0  0
 19 20  2  0  0  0
 19 21  1  0  0  0
 21 23  1  0  0  0
 23 28  1  0  0  0
 28 29  1  0  0  0
 29 30  1  0  0  0
 29 31  2  0  0  0
 23 24  1  0  0  0
 24 25  1  0  0  0
 24 26  2  0  0  0
  6  2  1  0  0  0
  9 12  1  0  0  0
 78 80  1  0  0  0
 41 44  1  0  0  0
 70 72  1  0  0  0
 70 73  1  0  0  0
 71 74  1  0  0  0
 71 75  1  0  0  0
 46 49  1  0  0  0
 51 52  1  0  0  0
 51 53  1  0  0  0
 59 61  1  0  0  0
 59 62  1  0  0  0
 60 63  1  0  0  0
 60 64  1  0  0  0
 16 17  1  0  0  0
 21 22  1  0  0  0
 30 32  1  0  0  0
 25 27  1  0  0  0
M  END
> <minimizedAffinity>
-4.83239

> <CNNscore>
0.2459214926

> <CNNaffinity>
7.8952512741

> <CNN_VS>
1.9416120052

> <CNNaffinity_variance>
0.0982639641

$$$$
[H]OC(=O)C([H])([H])[C@@]([H])(C(=O)O[H])N([H])C(=O)[C@@]([H])(N([H])C(=O)[C@@]([H])(N([H])C(=O)[C@@]1([H])N(C(=O)[C@@]([H])(N([H])C(=O)[C@@]([H])(N([H])C(=O)[C@@]([H])(N([H])[H])C([H])([H])C([H])([H])C([H])([H])N=C(N([H])[H])N([H])[H])C([H])([H])C([H])([H])C([H])([H])N=C(N([H])[H])N([H])[H])C([H])([H])C(=O)O[H])C([H])([H])C([H])([H])C1([H])[H])[C@@]([H])(C([H])([H])[H])C([H])([H])C([H])([H])[H])C([H])([H])C([H])(C([H])([H])[H])C([H])([H])[H]


 80 80  0  0  0  0  0  0  0  0999 V2000
  -10.7899   -9.3690    7.9637 C   0  0  0  0  0  0  0  0  0  0  0  0
   -7.5651   -7.8605    6.4384 C   0  0  0  0  0  0  0  0  0  0  0  0
   -7.8556   -6.4415    5.9210 C   0  0  0  0  0  0  0  0  0  0  0  0
   -8.4630   -5.7773    7.1406 C   0  0  0  0  0  0  0  0  0  0  0  0
   -9.0575   -6.8977    7.9563 C   0  0  0  0  0  0  0  0  0  0  0  0
   -8.7788   -8.0787    7.1792 N   0  0  0  0  0  0  0  0  0  0  0  0
   -9.6268   -9.2510    7.1051 C   0  0  0  0  0  0  0  0  0  0  0  0
   -9.3195  -10.1343    6.2853 O   0  0  0  0  0  0  0  0  0  0  0  0
   -5.2234   -7.0835    7.0490 N   0  0  0  0  0  0  0  0  0  0  0  0
   -6.3886   -7.8629    7.3167 C   0  0  0  0  0  0  0  0  0  0  0  0
   -6.3536   -8.5510    8.3485 O   0  0  0  0  0  0  0  0  0  0  0  0
   -5.2381   -6.5010    6.1586 H   0  0  0  0  0  0  0  0  0  0  0  0
   -4.0497   -6.9941    7.8445 C   0  0  0  0  0  0  0  0  0  0  0  0
   -4.0020   -5.8859    8.7978 C   0  0  0  0  0  0  0  0  0  0  0  0
   -5.0686   -5.6627    9.4490 O   0  0  0  0  0  0  0  0  0  0  0  0
   -2.8720   -5.0628    9.0594 N   0  0  0  0  0  0  0  0  0  0  0  0
   -2.0139   -5.3069    8.4747 H   0  0  0  0  0  0  0  0  0  0  0  0
   -2.7540   -4.0140    9.9959 C   0  0  0  0  0  0  0  0  0  0  0  0
   -3.0723   -4.4943   11.3974 C   0  0  0  0  0  0  0  0  0  0  0  0
   -2.2789   -5.2939   11.9367 O   0  0  0  0  0  0  0  0  0  0  0  0
   -4.2066   -4.0934   12.1258 N   0  0  0  0  0  0  0  0  0  0  0  0
   -4.8793   -3.4202   11.7114 H   0  0  0  0  0  0  0  0  0  0  0  0
   -4.4673   -4.5784   13.4418 C   0  0  0  0  0  0  0  0  0  0  0  0
   -5.8974   -4.9398   13.6443 C   0  0  0  0  0  0  0  0  0  0  0  0
   -6.5715   -5.6535   12.6795 O   0  0  0  0  0  0  0  0  0  0  0  0
   -6.4863   -4.5900   14.6997 O   0  0  0  0  0  0  0  0  0  0  0  0
   -6.3339   -6.6233   12.5348 H   0  0  0  0  0  0  0  0  0  0  0  0
   -3.9793   -3.6118   14.4755 C   0  0  0  0  0  0  0  0  0  0  0  0
   -2.9059   -4.2488   15.2877 C   0  0  0  0  0  0  0  0  0  0  0  0
   -1.6334   -4.3210   14.7452 O   0  0  0  0  0  0  0  0  0  0  0  0
   -3.1597   -4.7026   16.4296 O   0  0  0  0  0  0  0  0  0  0  0  0
   -1.4275   -4.1176   13.7785 H   0  0  0  0  0  0  0  0  0  0  0  0
   -3.3194   -2.6858    9.7446 C   0  0  0  0  0  0  0  0  0  0  0  0
   -2.5615   -1.7858    8.8156 C   0  0  0  0  0  0  0  0  0  0  0  0
   -3.2867   -1.2813    7.6332 C   0  0  0  0  0  0  0  0  0  0  0  0
   -2.0494   -0.5871    9.6143 C   0  0  0  0  0  0  0  0  0  0  0  0
   -2.7669   -7.3341    7.1967 C   0  0  0  0  0  0  0  0  0  0  0  0
   -2.3756   -8.7853    7.4175 C   0  0  0  0  0  0  0  0  0  0  0  0
   -2.3786   -5.4970    5.4661 C   0  0  0  0  0  0  0  0  0  0  0  0
   -2.5305   -6.9207    5.7999 C   0  0  0  0  0  0  0  0  0  0  0  0
  -11.7509   -8.2996    7.7915 N   0  0  0  0  0  0  0  0  0  0  0  0
  -12.5371   -7.7856    8.8389 C   0  0  0  0  0  0  0  0  0  0  0  0
  -12.4182   -8.3013    9.9796 O   0  0  0  0  0  0  0  0  0  0  0  0
  -11.8592   -7.8983    6.8419 H   0  0  0  0  0  0  0  0  0  0  0  0
  -13.5173   -6.6369    8.6486 C   0  0  0  0  0  0  0  0  0  0  0  0
  -14.7727   -7.1639    8.1969 N   0  0  0  0  0  0  0  0  0  0  0  0
  -15.0978   -7.3592    6.8359 C   0  0  0  0  0  0  0  0  0  0  0  0
  -14.2750   -7.0682    5.9576 O   0  0  0  0  0  0  0  0  0  0  0  0
  -15.4781   -7.4159    8.9148 H   0  0  0  0  0  0  0  0  0  0  0  0
  -16.4080   -7.9006    6.4662 C   0  0  0  0  0  0  0  0  0  0  0  0
  -17.4872   -6.9614    6.7756 N   0  0  0  0  0  0  0  0  0  0  0  0
  -18.3700   -7.5398    6.8499 H   0  0  0  0  0  0  0  0  0  0  0  0
  -17.5105   -6.2409    6.0500 H   0  0  0  0  0  0  0  0  0  0  0  0
  -16.4153   -8.2156    4.9793 C   0  0  0  0  0  0  0  0  0  0  0  0
  -17.8524   -8.3906    4.5348 C   0  0  0  0  0  0  0  0  0  0  0  0
  -18.0907   -7.3452    3.4359 C   0  0  0  0  0  0  0  0  0  0  0  0
  -16.9562   -6.4637    3.4863 N   0  0  0  0  0  0  0  0  0  0  0  0
  -17.0191   -5.2959    4.0198 C   0  0  0  0  0  0  0  0  0  0  0  0
  -18.2238   -4.8023    4.5979 N   0  0  0  0  0  0  0  0  0  0  0  0
  -15.8566   -4.4892    4.0283 N   0  0  0  0  0  0  0  0  0  0  0  0
  -18.2948   -3.7928    4.8713 H   0  0  0  0  0  0  0  0  0  0  0  0
  -19.0184   -5.4374    4.7457 H   0  0  0  0  0  0  0  0  0  0  0  0
  -15.8784   -3.4491    4.0871 H   0  0  0  0  0  0  0  0  0  0  0  0
  -14.8936   -4.9255    3.9736 H   0  0  0  0  0  0  0  0  0  0  0  0
  -13.5776   -5.9619    9.9521 C   0  0  0  0  0  0  0  0  0  0  0  0
  -12.4446   -5.2307   10.5391 C   0  0  0  0  0  0  0  0  0  0  0  0
  -12.3425   -5.3492   12.0090 C   0  0  0  0  0  0  0  0  0  0  0  0
  -10.9947   -5.7544   12.4456 N   0  0  0  0  0  0  0  0  0  0  0  0
  -10.5909   -5.3838   13.5855 C   0  0  0  0  0  0  0  0  0  0  0  0
  -11.3926   -4.6001   14.4359 N   0  0  0  0  0  0  0  0  0  0  0  0
   -9.2983   -5.7746   14.0287 N   0  0  0  0  0  0  0  0  0  0  0  0
  -12.3498   -4.8739   14.7688 H   0  0  0  0  0  0  0  0  0  0  0  0
  -11.0621   -3.6563   14.8005 H   0  0  0  0  0  0  0  0  0  0  0  0
   -8.5786   -5.0403   14.2295 H   0  0  0  0  0  0  0  0  0  0  0  0
   -9.0180   -6.7910   14.1673 H   0  0  0  0  0  0  0  0  0  0  0  0
  -11.6140  -10.6372    7.5553 C   0  0  0  0  0  0  0  0  0  0  0  0
  -12.9160  -10.2242    7.0202 C   0  0  0  0  0  0  0  0  0  0  0  0
  -13.0961   -9.6811    5.7601 O   0  0  0  0  0  0  0  0  0  0  0  0
  -13.9610  -10.3579    7.7249 O   0  0  0  0  0  0  0  0  0  0  0  0
  -12.8214  -10.2644    4.9704 H   0  0  0  0  0  0  0  0  0  0  0  0
 39 40  1  0  0  0
 40 37  1  0  0  0
 37 38  1  0  0  0
 37 13  1  0  0  0
 13  9  1  0  0  0
  9 10  1  0  0  0
 10 11  2  0  0  0
 10  2  1  0  0  0
  2  3  1  0  0  0
  3  4  1  0  0  0
  4  5  1  0  0  0
  5  6  1  0  0  0
  6  7  1  0  0  0
  7  8  2  0  0  0
  7  1  1  0  0  0
  1 76  1  0  0  0
 76 77  1  0  0  0
 77 78  1  0  0  0
 77 79  2  0  0  0
  1 41  1  0  0  0
 41 42  1  0  0  0
 42 43  2  0  0  0
 42 45  1  0  0  0
 45 65  1  0  0  0
 65 66  1  0  0  0
 66 67  1  0  0  0
 67 68  1  0  0  0
 68 69  2  0  0  0
 69 70  1  0  0  0
 69 71  1  0  0  0
 45 46  1  0  0  0
 46 47  1  0  0  0
 47 48  2  0  0  0
 47 50  1  0  0  0
 50 51  1  0  0  0
 50 54  1  0  0  0
 54 55  1  0  0  0
 55 56  1  0  0  0
 56 57  1  0  0  0
 57 58  2  0  0  0
 58 59  1  0  0  0
 58 60  1  0  0  0
 13 14  1  0  0  0
 14 15  2  0  0  0
 14 16  1  0  0  0
 16 18  1  0  0  0
 18 33  1  0  0  0
 33 34  1  0  0  0
 34 35  1  0  0  0
 34 36  1  0  0  0
 18 19  1  0  0  0
 19 20  2  0  0  0
 19 21  1  0  0  0
 21 23  1  0  0  0
 23 28  1  0  0  0
 28 29  1  0  0  0
 29 30  1  0  0  0
 29 31  2  0  0  0
 23 24  1  0  0  0
 24 25  1  0  0  0
 24 26  2  0  0  0
  6  2  1  0  0  0
  9 12  1  0  0  0
 78 80  1  0  0  0
 41 44  1  0  0  0
 70 72  1  0  0  0
 70 73  1  0  0  0
 71 74  1  0  0  0
 71 75  1  0  0  0
 46 49  1  0  0  0
 51 52  1  0  0  0
 51 53  1  0  0  0
 59 61  1  0  0  0
 59 62  1  0  0  0
 60 63  1  0  0  0
 60 64  1  0  0  0
 16 17  1  0  0  0
 21 22  1  0  0  0
 30 32  1  0  0  0
 25 27  1  0  0  0
M  END
> <minimizedAffinity>
-4.86638

> <CNNscore>
0.2297030687

> <CNNaffinity>
7.9904427528

> <CNN_VS>
1.8354291916

> <CNNaffinity_variance>
0.1274347305

$$$$
[H]OC(=O)C([H])([H])[C@@]([H])(C(=O)O[H])N([H])C(=O)[C@@]([H])(N([H])C(=O)[C@@]([H])(N([H])C(=O)[C@@]1([H])N(C(=O)[C@@]([H])(N([H])C(=O)[C@@]([H])(N([H])C(=O)[C@@]([H])(N([H])[H])C([H])([H])C([H])([H])C([H])([H])N=C(N([H])[H])N([H])[H])C([H])([H])C([H])([H])C([H])([H])N=C(N([H])[H])N([H])[H])C([H])([H])C(=O)O[H])C([H])([H])C([H])([H])C1([H])[H])[C@@]([H])(C([H])([H])[H])C([H])([H])C([H])([H])[H])C([H])([H])C([H])(C([H])([H])[H])C([H])([H])[H]


 80 80  0  0  0  0  0  0  0  0999 V2000
   -8.4619   -7.4105    8.3013 C   0  0  0  0  0  0  0  0  0  0  0  0
   -5.1033   -6.2121    6.7897 C   0  0  0  0  0  0  0  0  0  0  0  0
   -4.5055   -5.1065    7.6762 C   0  0  0  0  0  0  0  0  0  0  0  0
   -4.4949   -5.7653    9.0412 C   0  0  0  0  0  0  0  0  0  0  0  0
   -5.5891   -6.8021    8.9976 C   0  0  0  0  0  0  0  0  0  0  0  0
   -6.1428   -6.6670    7.6741 N   0  0  0  0  0  0  0  0  0  0  0  0
   -7.5318   -6.8810    7.3223 C   0  0  0  0  0  0  0  0  0  0  0  0
   -7.8847   -6.5932    6.1650 O   0  0  0  0  0  0  0  0  0  0  0  0
   -2.7061   -7.0311    6.5821 N   0  0  0  0  0  0  0  0  0  0  0  0
   -4.1131   -7.2655    6.5337 C   0  0  0  0  0  0  0  0  0  0  0  0
   -4.4589   -8.4256    6.2617 O   0  0  0  0  0  0  0  0  0  0  0  0
   -2.3996   -6.0358    6.8005 H   0  0  0  0  0  0  0  0  0  0  0  0
   -1.6704   -7.9821    6.3787 C   0  0  0  0  0  0  0  0  0  0  0  0
   -0.6884   -8.1035    7.4556 C   0  0  0  0  0  0  0  0  0  0  0  0
    0.3900   -7.4509    7.3048 O   0  0  0  0  0  0  0  0  0  0  0  0
   -0.8484   -8.8688    8.6438 N   0  0  0  0  0  0  0  0  0  0  0  0
   -1.7766   -9.3912    8.7006 H   0  0  0  0  0  0  0  0  0  0  0  0
    0.0410   -8.9862    9.7329 C   0  0  0  0  0  0  0  0  0  0  0  0
   -0.1365  -10.3130   10.4430 C   0  0  0  0  0  0  0  0  0  0  0  0
    0.6274  -11.2506   10.1315 O   0  0  0  0  0  0  0  0  0  0  0  0
   -1.1091  -10.5507   11.4307 N   0  0  0  0  0  0  0  0  0  0  0  0
   -1.7514   -9.7890   11.7217 H   0  0  0  0  0  0  0  0  0  0  0  0
   -1.2419  -11.8204   12.0673 C   0  0  0  0  0  0  0  0  0  0  0  0
   -1.8416  -12.8480   11.1722 C   0  0  0  0  0  0  0  0  0  0  0  0
   -2.0058  -12.5832    9.8314 O   0  0  0  0  0  0  0  0  0  0  0  0
   -2.1973  -13.9579   11.6462 O   0  0  0  0  0  0  0  0  0  0  0  0
   -1.1893  -12.5276    9.2415 H   0  0  0  0  0  0  0  0  0  0  0  0
   -1.9868  -11.6963   13.3599 C   0  0  0  0  0  0  0  0  0  0  0  0
   -1.6009  -10.4284   14.0390 C   0  0  0  0  0  0  0  0  0  0  0  0
   -2.6120   -9.6047   14.5058 O   0  0  0  0  0  0  0  0  0  0  0  0
   -0.3910  -10.1269   14.1788 O   0  0  0  0  0  0  0  0  0  0  0  0
   -3.5855   -9.7302   14.2718 H   0  0  0  0  0  0  0  0  0  0  0  0
    0.2441   -7.8925   10.6865 C   0  0  0  0  0  0  0  0  0  0  0  0
   -0.9615   -7.0879   11.0696 C   0  0  0  0  0  0  0  0  0  0  0  0
   -1.2001   -6.8855   12.5120 C   0  0  0  0  0  0  0  0  0  0  0  0
   -0.8603   -5.7169   10.4010 C   0  0  0  0  0  0  0  0  0  0  0  0
   -1.1350   -8.1153    5.0088 C   0  0  0  0  0  0  0  0  0  0  0  0
   -1.5009   -9.4455    4.3728 C   0  0  0  0  0  0  0  0  0  0  0  0
   -0.4833   -6.9426    2.8360 C   0  0  0  0  0  0  0  0  0  0  0  0
   -1.3016   -7.0006    4.0561 C   0  0  0  0  0  0  0  0  0  0  0  0
   -9.8516   -7.2667    7.9206 N   0  0  0  0  0  0  0  0  0  0  0  0
  -10.8582   -6.8351    8.8035 C   0  0  0  0  0  0  0  0  0  0  0  0
  -10.5384   -6.5872    9.9941 O   0  0  0  0  0  0  0  0  0  0  0  0
  -10.1091   -7.4976    6.9434 H   0  0  0  0  0  0  0  0  0  0  0  0
  -12.3085   -6.6551    8.3779 C   0  0  0  0  0  0  0  0  0  0  0  0
  -12.5779   -7.5145    7.2614 N   0  0  0  0  0  0  0  0  0  0  0  0
  -13.5093   -7.2102    6.2435 C   0  0  0  0  0  0  0  0  0  0  0  0
  -14.1468   -6.1497    6.2882 O   0  0  0  0  0  0  0  0  0  0  0  0
  -12.0550   -8.4086    7.2019 H   0  0  0  0  0  0  0  0  0  0  0  0
  -13.7224   -8.1507    5.1407 C   0  0  0  0  0  0  0  0  0  0  0  0
  -14.1892   -9.4515    5.6230 N   0  0  0  0  0  0  0  0  0  0  0  0
  -13.9510  -10.1504    4.8653 H   0  0  0  0  0  0  0  0  0  0  0  0
  -15.1865   -9.3808    5.8384 H   0  0  0  0  0  0  0  0  0  0  0  0
  -14.7432   -7.5664    4.1779 C   0  0  0  0  0  0  0  0  0  0  0  0
  -15.3045   -8.6925    3.3351 C   0  0  0  0  0  0  0  0  0  0  0  0
  -16.7734   -8.3352    3.0671 C   0  0  0  0  0  0  0  0  0  0  0  0
  -16.8953   -6.9366    3.3769 N   0  0  0  0  0  0  0  0  0  0  0  0
  -17.9672   -6.4375    3.8811 C   0  0  0  0  0  0  0  0  0  0  0  0
  -19.1053   -7.2453    4.1663 N   0  0  0  0  0  0  0  0  0  0  0  0
  -18.0064   -5.0501    4.1566 N   0  0  0  0  0  0  0  0  0  0  0  0
  -20.0168   -6.7914    4.4157 H   0  0  0  0  0  0  0  0  0  0  0  0
  -19.0288   -8.2696    4.1275 H   0  0  0  0  0  0  0  0  0  0  0  0
  -18.8890   -4.4985    4.2084 H   0  0  0  0  0  0  0  0  0  0  0  0
  -17.1145   -4.5055    4.3251 H   0  0  0  0  0  0  0  0  0  0  0  0
  -13.1020   -6.9540    9.5777 C   0  0  0  0  0  0  0  0  0  0  0  0
  -13.8571   -8.2029    9.7593 C   0  0  0  0  0  0  0  0  0  0  0  0
  -15.2931   -8.0975    9.4245 C   0  0  0  0  0  0  0  0  0  0  0  0
  -15.5731   -8.4878    8.0314 N   0  0  0  0  0  0  0  0  0  0  0  0
  -16.7147   -8.2342    7.5497 C   0  0  0  0  0  0  0  0  0  0  0  0
  -17.7129   -7.5951    8.3084 N   0  0  0  0  0  0  0  0  0  0  0  0
  -16.9995   -8.5927    6.2043 N   0  0  0  0  0  0  0  0  0  0  0  0
  -17.6020   -6.6565    8.7653 H   0  0  0  0  0  0  0  0  0  0  0  0
  -18.6658   -8.0422    8.4658 H   0  0  0  0  0  0  0  0  0  0  0  0
  -17.7623   -9.2827    6.0053 H   0  0  0  0  0  0  0  0  0  0  0  0
  -16.4682   -8.1919    5.3749 H   0  0  0  0  0  0  0  0  0  0  0  0
   -8.2930   -8.9652    8.3945 C   0  0  0  0  0  0  0  0  0  0  0  0
   -9.1492   -9.6121    7.3943 C   0  0  0  0  0  0  0  0  0  0  0  0
  -10.4569   -9.9984    7.6307 O   0  0  0  0  0  0  0  0  0  0  0  0
   -8.6992   -9.8470    6.2329 O   0  0  0  0  0  0  0  0  0  0  0  0
  -11.1099   -9.2587    7.8873 H   0  0  0  0  0  0  0  0  0  0  0  0
 39 40  1  0  0  0
 40 37  1  0  0  0
 37 38  1  0  0  0
 37 13  1  0  0  0
 13  9  1  0  0  0
  9 10  1  0  0  0
 10 11  2  0  0  0
 10  2  1  0  0  0
  2  3  1  0  0  0
  3  4  1  0  0  0
  4  5  1  0  0  0
  5  6  1  0  0  0
  6  7  1  0  0  0
  7  8  2  0  0  0
  7  1  1  0  0  0
  1 76  1  0  0  0
 76 77  1  0  0  0
 77 78  1  0  0  0
 77 79  2  0  0  0
  1 41  1  0  0  0
 41 42  1  0  0  0
 42 43  2  0  0  0
 42 45  1  0  0  0
 45 65  1  0  0  0
 65 66  1  0  0  0
 66 67  1  0  0  0
 67 68  1  0  0  0
 68 69  2  0  0  0
 69 70  1  0  0  0
 69 71  1  0  0  0
 45 46  1  0  0  0
 46 47  1  0  0  0
 47 48  2  0  0  0
 47 50  1  0  0  0
 50 51  1  0  0  0
 50 54  1  0  0  0
 54 55  1  0  0  0
 55 56  1  0  0  0
 56 57  1  0  0  0
 57 58  2  0  0  0
 58 59  1  0  0  0
 58 60  1  0  0  0
 13 14  1  0  0  0
 14 15  2  0  0  0
 14 16  1  0  0  0
 16 18  1  0  0  0
 18 33  1  0  0  0
 33 34  1  0  0  0
 34 35  1  0  0  0
 34 36  1  0  0  0
 18 19  1  0  0  0
 19 20  2  0  0  0
 19 21  1  0  0  0
 21 23  1  0  0  0
 23 28  1  0  0  0
 28 29  1  0  0  0
 29 30  1  0  0  0
 29 31  2  0  0  0
 23 24  1  0  0  0
 24 25  1  0  0  0
 24 26  2  0  0  0
  6  2  1  0  0  0
  9 12  1  0  0  0
 78 80  1  0  0  0
 41 44  1  0  0  0
 70 72  1  0  0  0
 70 73  1  0  0  0
 71 74  1  0  0  0
 71 75  1  0  0  0
 46 49  1  0  0  0
 51 52  1  0  0  0
 51 53  1  0  0  0
 59 61  1  0  0  0
 59 62  1  0  0  0
 60 63  1  0  0  0
 60 64  1  0  0  0
 16 17  1  0  0  0
 21 22  1  0  0  0
 30 32  1  0  0  0
 25 27  1  0  0  0
M  END
> <minimizedAffinity>
-4.81672

> <CNNscore>
0.2148840874

> <CNNaffinity>
7.3361740112

> <CNN_VS>
1.5764271021

> <CNNaffinity_variance>
0.1896619946

$$$$
[H]OC(=O)C([H])([H])[C@@]([H])(C(=O)O[H])N([H])C(=O)[C@@]([H])(N([H])C(=O)[C@@]([H])(N([H])C(=O)[C@@]1([H])N(C(=O)[C@@]([H])(N([H])C(=O)[C@@]([H])(N([H])C(=O)[C@@]([H])(N([H])[H])C([H])([H])C([H])([H])C([H])([H])N=C(N([H])[H])N([H])[H])C([H])([H])C([H])([H])C([H])([H])N=C(N([H])[H])N([H])[H])C([H])([H])C(=O)O[H])C([H])([H])C([H])([H])C1([H])[H])[C@@]([H])(C([H])([H])[H])C([H])([H])C([H])([H])[H])C([H])([H])C([H])(C([H])([H])[H])C([H])([H])[H]


 80 80  0  0  0  0  0  0  0  0999 V2000
  -10.7071   -6.4730    8.3411 C   0  0  0  0  0  0  0  0  0  0  0  0
   -7.1132   -7.5169    7.3436 C   0  0  0  0  0  0  0  0  0  0  0  0
   -7.0201   -7.6436    5.8137 C   0  0  0  0  0  0  0  0  0  0  0  0
   -7.5412   -6.2974    5.3515 C   0  0  0  0  0  0  0  0  0  0  0  0
   -8.4428   -5.8119    6.4585 C   0  0  0  0  0  0  0  0  0  0  0  0
   -8.3953   -6.8708    7.4346 N   0  0  0  0  0  0  0  0  0  0  0  0
   -9.4891   -7.2595    8.3015 C   0  0  0  0  0  0  0  0  0  0  0  0
   -9.3402   -8.2807    8.9955 O   0  0  0  0  0  0  0  0  0  0  0  0
   -4.9215   -6.2595    7.0682 N   0  0  0  0  0  0  0  0  0  0  0  0
   -6.0389   -6.6600    7.8606 C   0  0  0  0  0  0  0  0  0  0  0  0
   -6.0544   -6.2364    9.0267 O   0  0  0  0  0  0  0  0  0  0  0  0
   -4.8919   -6.6295    6.0710 H   0  0  0  0  0  0  0  0  0  0  0  0
   -3.8491   -5.4149    7.4622 C   0  0  0  0  0  0  0  0  0  0  0  0
   -3.4329   -4.4071    6.4874 C   0  0  0  0  0  0  0  0  0  0  0  0
   -2.2655   -3.9319    6.6387 O   0  0  0  0  0  0  0  0  0  0  0  0
   -4.2120   -3.9364    5.3946 N   0  0  0  0  0  0  0  0  0  0  0  0
   -5.1810   -4.3780    5.3317 H   0  0  0  0  0  0  0  0  0  0  0  0
   -3.8475   -3.0041    4.4001 C   0  0  0  0  0  0  0  0  0  0  0  0
   -4.1099   -1.5842    4.8595 C   0  0  0  0  0  0  0  0  0  0  0  0
   -5.2925   -1.1828    4.8745 O   0  0  0  0  0  0  0  0  0  0  0  0
   -3.1022   -0.6930    5.2695 N   0  0  0  0  0  0  0  0  0  0  0  0
   -2.1105   -0.9992    5.2807 H   0  0  0  0  0  0  0  0  0  0  0  0
   -3.3982    0.6383    5.6882 C   0  0  0  0  0  0  0  0  0  0  0  0
   -4.2084    0.6773    6.9366 C   0  0  0  0  0  0  0  0  0  0  0  0
   -5.5575    0.9434    6.8751 O   0  0  0  0  0  0  0  0  0  0  0  0
   -3.6550    0.4666    8.0468 O   0  0  0  0  0  0  0  0  0  0  0  0
   -6.1744    0.2487    6.4816 H   0  0  0  0  0  0  0  0  0  0  0  0
   -4.0333    1.4195    4.5804 C   0  0  0  0  0  0  0  0  0  0  0  0
   -3.0001    1.7891    3.5737 C   0  0  0  0  0  0  0  0  0  0  0  0
   -2.5987    3.1133    3.5071 O   0  0  0  0  0  0  0  0  0  0  0  0
   -2.5143    0.9166    2.8141 O   0  0  0  0  0  0  0  0  0  0  0  0
   -3.0761    3.8647    3.9822 H   0  0  0  0  0  0  0  0  0  0  0  0
   -4.2182   -3.1884    2.9946 C   0  0  0  0  0  0  0  0  0  0  0  0
   -3.4228   -2.4314    1.9738 C   0  0  0  0  0  0  0  0  0  0  0  0
   -2.0134   -2.8309    1.7932 C   0  0  0  0  0  0  0  0  0  0  0  0
   -4.1328   -2.5466    0.6249 C   0  0  0  0  0  0  0  0  0  0  0  0
   -2.7611   -6.0277    8.2506 C   0  0  0  0  0  0  0  0  0  0  0  0
   -2.7586   -5.5563    9.6947 C   0  0  0  0  0  0  0  0  0  0  0  0
   -1.7979   -8.0472    7.0198 C   0  0  0  0  0  0  0  0  0  0  0  0
   -2.5344   -7.4832    8.1604 C   0  0  0  0  0  0  0  0  0  0  0  0
  -11.9115   -7.2704    8.4428 N   0  0  0  0  0  0  0  0  0  0  0  0
  -12.9635   -7.2109    7.5107 C   0  0  0  0  0  0  0  0  0  0  0  0
  -12.8642   -6.4020    6.5531 O   0  0  0  0  0  0  0  0  0  0  0  0
  -11.9944   -7.9159    9.2497 H   0  0  0  0  0  0  0  0  0  0  0  0
  -14.2075   -8.0821    7.6127 C   0  0  0  0  0  0  0  0  0  0  0  0
  -14.8265   -8.1658    6.3214 N   0  0  0  0  0  0  0  0  0  0  0  0
  -16.1968   -7.9114    6.0898 C   0  0  0  0  0  0  0  0  0  0  0  0
  -16.9335   -7.5969    7.0340 O   0  0  0  0  0  0  0  0  0  0  0  0
  -14.2288   -8.4268    5.5144 H   0  0  0  0  0  0  0  0  0  0  0  0
  -16.7441   -8.0246    4.7356 C   0  0  0  0  0  0  0  0  0  0  0  0
  -16.6590   -9.3963    4.2317 N   0  0  0  0  0  0  0  0  0  0  0  0
  -16.6984   -9.3264    3.1768 H   0  0  0  0  0  0  0  0  0  0  0  0
  -17.4140   -9.9449    4.6502 H   0  0  0  0  0  0  0  0  0  0  0  0
  -18.1954   -7.5730    4.7456 C   0  0  0  0  0  0  0  0  0  0  0  0
  -18.2533   -6.1394    4.2611 C   0  0  0  0  0  0  0  0  0  0  0  0
  -16.9814   -5.9168    3.4305 C   0  0  0  0  0  0  0  0  0  0  0  0
  -16.4399   -4.6626    3.8785 N   0  0  0  0  0  0  0  0  0  0  0  0
  -15.2071   -4.5308    4.2177 C   0  0  0  0  0  0  0  0  0  0  0  0
  -14.2972   -5.6258    4.1686 N   0  0  0  0  0  0  0  0  0  0  0  0
  -14.7527   -3.2617    4.6483 N   0  0  0  0  0  0  0  0  0  0  0  0
  -13.3493   -5.5354    4.6071 H   0  0  0  0  0  0  0  0  0  0  0  0
  -14.5728   -6.4998    3.7031 H   0  0  0  0  0  0  0  0  0  0  0  0
  -13.9258   -3.1263    5.2677 H   0  0  0  0  0  0  0  0  0  0  0  0
  -15.2508   -2.3772    4.3481 H   0  0  0  0  0  0  0  0  0  0  0  0
  -13.7348   -9.3683    8.1424 C   0  0  0  0  0  0  0  0  0  0  0  0
  -13.2280  -10.4570    7.2936 C   0  0  0  0  0  0  0  0  0  0  0  0
  -12.0248  -10.1052    6.5100 C   0  0  0  0  0  0  0  0  0  0  0  0
  -10.7953  -10.1525    7.3209 N   0  0  0  0  0  0  0  0  0  0  0  0
   -9.7118  -10.4832    6.7583 C   0  0  0  0  0  0  0  0  0  0  0  0
   -9.6566  -10.8045    5.3894 N   0  0  0  0  0  0  0  0  0  0  0  0
   -8.5135  -10.5232    7.5214 N   0  0  0  0  0  0  0  0  0  0  0  0
   -9.9629  -10.1640    4.6161 H   0  0  0  0  0  0  0  0  0  0  0  0
   -9.2894  -11.7446    5.0516 H   0  0  0  0  0  0  0  0  0  0  0  0
   -8.0028  -11.4313    7.6315 H   0  0  0  0  0  0  0  0  0  0  0  0
   -8.1023   -9.6654    7.9966 H   0  0  0  0  0  0  0  0  0  0  0  0
  -10.7426   -5.6316    9.6622 C   0  0  0  0  0  0  0  0  0  0  0  0
  -12.0726   -5.7337   10.2727 C   0  0  0  0  0  0  0  0  0  0  0  0
  -12.4801   -6.7935   11.0638 O   0  0  0  0  0  0  0  0  0  0  0  0
  -12.9261   -4.8152   10.0872 O   0  0  0  0  0  0  0  0  0  0  0  0
  -11.9442   -6.9571   11.9156 H   0  0  0  0  0  0  0  0  0  0  0  0
 39 40  1  0  0  0
 40 37  1  0  0  0
 37 38  1  0  0  0
 37 13  1  0  0  0
 13  9  1  0  0  0
  9 10  1  0  0  0
 10 11  2  0  0  0
 10  2  1  0  0  0
  2  3  1  0  0  0
  3  4  1  0  0  0
  4  5  1  0  0  0
  5  6  1  0  0  0
  6  7  1  0  0  0
  7  8  2  0  0  0
  7  1  1  0  0  0
  1 76  1  0  0  0
 76 77  1  0  0  0
 77 78  1  0  0  0
 77 79  2  0  0  0
  1 41  1  0  0  0
 41 42  1  0  0  0
 42 43  2  0  0  0
 42 45  1  0  0  0
 45 65  1  0  0  0
 65 66  1  0  0  0
 66 67  1  0  0  0
 67 68  1  0  0  0
 68 69  2  0  0  0
 69 70  1  0  0  0
 69 71  1  0  0  0
 45 46  1  0  0  0
 46 47  1  0  0  0
 47 48  2  0  0  0
 47 50  1  0  0  0
 50 51  1  0  0  0
 50 54  1  0  0  0
 54 55  1  0  0  0
 55 56  1  0  0  0
 56 57  1  0  0  0
 57 58  2  0  0  0
 58 59  1  0  0  0
 58 60  1  0  0  0
 13 14  1  0  0  0
 14 15  2  0  0  0
 14 16  1  0  0  0
 16 18  1  0  0  0
 18 33  1  0  0  0
 33 34  1  0  0  0
 34 35  1  0  0  0
 34 36  1  0  0  0
 18 19  1  0  0  0
 19 20  2  0  0  0
 19 21  1  0  0  0
 21 23  1  0  0  0
 23 28  1  0  0  0
 28 29  1  0  0  0
 29 30  1  0  0  0
 29 31  2  0  0  0
 23 24  1  0  0  0
 24 25  1  0  0  0
 24 26  2  0  0  0
  6  2  1  0  0  0
  9 12  1  0  0  0
 78 80  1  0  0  0
 41 44  1  0  0  0
 70 72  1  0  0  0
 70 73  1  0  0  0
 71 74  1  0  0  0
 71 75  1  0  0  0
 46 49  1  0  0  0
 51 52  1  0  0  0
 51 53  1  0  0  0
 59 61  1  0  0  0
 59 62  1  0  0  0
 60 63  1  0  0  0
 60 64  1  0  0  0
 16 17  1  0  0  0
 21 22  1  0  0  0
 30 32  1  0  0  0
 25 27  1  0  0  0
M  END
> <minimizedAffinity>
-4.79281

> <CNNscore>
0.2009696960

> <CNNaffinity>
7.7904334068

> <CNN_VS>
1.5656410456

> <CNNaffinity_variance>
0.0615087450

$$$$
[H]OC(=O)C([H])([H])[C@@]([H])(C(=O)O[H])N([H])C(=O)[C@@]([H])(N([H])C(=O)[C@@]([H])(N([H])C(=O)[C@@]1([H])N(C(=O)[C@@]([H])(N([H])C(=O)[C@@]([H])(N([H])C(=O)[C@@]([H])(N([H])[H])C([H])([H])C([H])([H])C([H])([H])N=C(N([H])[H])N([H])[H])C([H])([H])C([H])([H])C([H])([H])N=C(N([H])[H])N([H])[H])C([H])([H])C(=O)O[H])C([H])([H])C([H])([H])C1([H])[H])[C@@]([H])(C([H])([H])[H])C([H])([H])C([H])([H])[H])C([H])([H])C([H])(C([H])([H])[H])C([H])([H])[H]


 80 80  0  0  0  0  0  0  0  0999 V2000
   -8.1068   -7.5651    8.0693 C   0  0  0  0  0  0  0  0  0  0  0  0
   -4.8414   -6.0607    6.6289 C   0  0  0  0  0  0  0  0  0  0  0  0
   -4.3418   -4.9365    7.5521 C   0  0  0  0  0  0  0  0  0  0  0  0
   -4.2907   -5.6309    8.8985 C   0  0  0  0  0  0  0  0  0  0  0  0
   -5.2981   -6.7498    8.8141 C   0  0  0  0  0  0  0  0  0  0  0  0
   -5.8490   -6.6217    7.4888 N   0  0  0  0  0  0  0  0  0  0  0  0
   -7.2134   -6.9356    7.1158 C   0  0  0  0  0  0  0  0  0  0  0  0
   -7.5778   -6.6441    5.9630 O   0  0  0  0  0  0  0  0  0  0  0  0
   -2.4394   -6.6253    6.0190 N   0  0  0  0  0  0  0  0  0  0  0  0
   -3.7679   -7.0242    6.3550 C   0  0  0  0  0  0  0  0  0  0  0  0
   -3.9686   -8.2474    6.4060 O   0  0  0  0  0  0  0  0  0  0  0  0
   -2.2609   -5.5780    5.9587 H   0  0  0  0  0  0  0  0  0  0  0  0
   -1.3278   -7.4727    5.7643 C   0  0  0  0  0  0  0  0  0  0  0  0
   -0.6034   -7.9539    6.9401 C   0  0  0  0  0  0  0  0  0  0  0  0
    0.6086   -7.5892    7.0378 O   0  0  0  0  0  0  0  0  0  0  0  0
   -1.1430   -8.7709    7.9718 N   0  0  0  0  0  0  0  0  0  0  0  0
   -2.1643   -9.0395    7.8218 H   0  0  0  0  0  0  0  0  0  0  0  0
   -0.5083   -9.2257    9.1471 C   0  0  0  0  0  0  0  0  0  0  0  0
   -0.5061  -10.7394    9.2165 C   0  0  0  0  0  0  0  0  0  0  0  0
    0.1094  -11.2814   10.1584 O   0  0  0  0  0  0  0  0  0  0  0  0
   -1.1553  -11.5688    8.2845 N   0  0  0  0  0  0  0  0  0  0  0  0
   -1.6862  -11.1498    7.4971 H   0  0  0  0  0  0  0  0  0  0  0  0
   -1.1196  -12.9911    8.3883 C   0  0  0  0  0  0  0  0  0  0  0  0
   -0.5350  -13.6372    7.1810 C   0  0  0  0  0  0  0  0  0  0  0  0
   -0.7781  -13.1122    5.9320 O   0  0  0  0  0  0  0  0  0  0  0  0
    0.1810  -14.6641    7.3073 O   0  0  0  0  0  0  0  0  0  0  0  0
   -0.3537  -12.2318    5.6818 H   0  0  0  0  0  0  0  0  0  0  0  0
   -2.4730  -13.5382    8.7198 C   0  0  0  0  0  0  0  0  0  0  0  0
   -2.5096  -13.9472   10.1512 C   0  0  0  0  0  0  0  0  0  0  0  0
   -2.3932  -12.9591   11.1150 O   0  0  0  0  0  0  0  0  0  0  0  0
   -2.6432  -15.1554   10.4621 O   0  0  0  0  0  0  0  0  0  0  0  0
   -2.1242  -12.0086   10.9088 H   0  0  0  0  0  0  0  0  0  0  0  0
   -0.7884   -8.6309   10.4566 C   0  0  0  0  0  0  0  0  0  0  0  0
   -0.1111   -7.3320   10.7754 C   0  0  0  0  0  0  0  0  0  0  0  0
   -0.7715   -6.0995   10.3027 C   0  0  0  0  0  0  0  0  0  0  0  0
    0.0605   -7.2355   12.2914 C   0  0  0  0  0  0  0  0  0  0  0  0
   -0.4949   -7.1585    4.5860 C   0  0  0  0  0  0  0  0  0  0  0  0
   -0.4094   -8.3218    3.6128 C   0  0  0  0  0  0  0  0  0  0  0  0
   -1.2633   -5.8678    2.5210 C   0  0  0  0  0  0  0  0  0  0  0  0
   -0.6974   -5.8797    3.8778 C   0  0  0  0  0  0  0  0  0  0  0  0
   -9.5078   -7.4371    7.7260 N   0  0  0  0  0  0  0  0  0  0  0  0
  -10.4395   -6.7359    8.5129 C   0  0  0  0  0  0  0  0  0  0  0  0
  -10.0396   -6.2159    9.5857 O   0  0  0  0  0  0  0  0  0  0  0  0
   -9.8324   -7.8908    6.8522 H   0  0  0  0  0  0  0  0  0  0  0  0
  -11.9017   -6.5806    8.1196 C   0  0  0  0  0  0  0  0  0  0  0  0
  -12.3012   -7.7208    7.3462 N   0  0  0  0  0  0  0  0  0  0  0  0
  -13.2597   -7.6693    6.3095 C   0  0  0  0  0  0  0  0  0  0  0  0
  -13.8057   -6.5943    6.0276 O   0  0  0  0  0  0  0  0  0  0  0  0
  -11.8565   -8.6327    7.5636 H   0  0  0  0  0  0  0  0  0  0  0  0
  -13.6089   -8.8870    5.5737 C   0  0  0  0  0  0  0  0  0  0  0  0
  -14.3598   -9.8258    6.4088 N   0  0  0  0  0  0  0  0  0  0  0  0
  -14.2351  -10.7791    5.9671 H   0  0  0  0  0  0  0  0  0  0  0  0
  -15.3300   -9.5072    6.4664 H   0  0  0  0  0  0  0  0  0  0  0  0
  -14.4365   -8.5126    4.3550 C   0  0  0  0  0  0  0  0  0  0  0  0
  -15.6485   -9.4191    4.3033 C   0  0  0  0  0  0  0  0  0  0  0  0
  -16.8441   -8.5163    3.9679 C   0  0  0  0  0  0  0  0  0  0  0  0
  -16.3242   -7.1762    3.9452 N   0  0  0  0  0  0  0  0  0  0  0  0
  -17.0901   -6.1439    3.9512 C   0  0  0  0  0  0  0  0  0  0  0  0
  -18.5091   -6.2664    3.9821 N   0  0  0  0  0  0  0  0  0  0  0  0
  -16.4987   -4.8587    3.9270 N   0  0  0  0  0  0  0  0  0  0  0  0
  -19.1084   -5.4224    3.8162 H   0  0  0  0  0  0  0  0  0  0  0  0
  -18.9400   -7.1810    4.1676 H   0  0  0  0  0  0  0  0  0  0  0  0
  -16.9841   -4.0084    3.5703 H   0  0  0  0  0  0  0  0  0  0  0  0
  -15.5122   -4.7093    4.2808 H   0  0  0  0  0  0  0  0  0  0  0  0
  -12.6272   -6.4244    9.3875 C   0  0  0  0  0  0  0  0  0  0  0  0
  -12.9791   -7.5517   10.2639 C   0  0  0  0  0  0  0  0  0  0  0  0
  -14.3806   -8.0044   10.1364 C   0  0  0  0  0  0  0  0  0  0  0  0
  -15.0195   -7.5073    8.9051 N   0  0  0  0  0  0  0  0  0  0  0  0
  -15.9941   -8.1550    8.4251 C   0  0  0  0  0  0  0  0  0  0  0  0
  -16.4751   -9.3284    9.0348 N   0  0  0  0  0  0  0  0  0  0  0  0
  -16.6306   -7.6846    7.2446 N   0  0  0  0  0  0  0  0  0  0  0  0
  -16.8137   -9.3864   10.0269 H   0  0  0  0  0  0  0  0  0  0  0  0
  -16.5239  -10.2514    8.5071 H   0  0  0  0  0  0  0  0  0  0  0  0
  -16.6226   -8.2800    6.3827 H   0  0  0  0  0  0  0  0  0  0  0  0
  -17.1209   -6.7427    7.1889 H   0  0  0  0  0  0  0  0  0  0  0  0
   -7.8897   -9.1164    8.0431 C   0  0  0  0  0  0  0  0  0  0  0  0
   -8.9035   -9.7388    7.1848 C   0  0  0  0  0  0  0  0  0  0  0  0
  -10.1481  -10.1473    7.6311 O   0  0  0  0  0  0  0  0  0  0  0  0
   -8.6612   -9.9295    5.9554 O   0  0  0  0  0  0  0  0  0  0  0  0
  -10.7503   -9.4239    8.0229 H   0  0  0  0  0  0  0  0  0  0  0  0
 39 40  1  0  0  0
 40 37  1  0  0  0
 37 38  1  0  0  0
 37 13  1  0  0  0
 13  9  1  0  0  0
  9 10  1  0  0  0
 10 11  2  0  0  0
 10  2  1  0  0  0
  2  3  1  0  0  0
  3  4  1  0  0  0
  4  5  1  0  0  0
  5  6  1  0  0  0
  6  7  1  0  0  0
  7  8  2  0  0  0
  7  1  1  0  0  0
  1 76  1  0  0  0
 76 77  1  0  0  0
 77 78  1  0  0  0
 77 79  2  0  0  0
  1 41  1  0  0  0
 41 42  1  0  0  0
 42 43  2  0  0  0
 42 45  1  0  0  0
 45 65  1  0  0  0
 65 66  1  0  0  0
 66 67  1  0  0  0
 67 68  1  0  0  0
 68 69  2  0  0  0
 69 70  1  0  0  0
 69 71  1  0  0  0
 45 46  1  0  0  0
 46 47  1  0  0  0
 47 48  2  0  0  0
 47 50  1  0  0  0
 50 51  1  0  0  0
 50 54  1  0  0  0
 54 55  1  0  0  0
 55 56  1  0  0  0
 56 57  1  0  0  0
 57 58  2  0  0  0
 58 59  1  0  0  0
 58 60  1  0  0  0
 13 14  1  0  0  0
 14 15  2  0  0  0
 14 16  1  0  0  0
 16 18  1  0  0  0
 18 33  1  0  0  0
 33 34  1  0  0  0
 34 35  1  0  0  0
 34 36  1  0  0  0
 18 19  1  0  0  0
 19 20  2  0  0  0
 19 21  1  0  0  0
 21 23  1  0  0  0
 23 28  1  0  0  0
 28 29  1  0  0  0
 29 30  1  0  0  0
 29 31  2  0  0  0
 23 24  1  0  0  0
 24 25  1  0  0  0
 24 26  2  0  0  0
  6  2  1  0  0  0
  9 12  1  0  0  0
 78 80  1  0  0  0
 41 44  1  0  0  0
 70 72  1  0  0  0
 70 73  1  0  0  0
 71 74  1  0  0  0
 71 75  1  0  0  0
 46 49  1  0  0  0
 51 52  1  0  0  0
 51 53  1  0  0  0
 59 61  1  0  0  0
 59 62  1  0  0  0
 60 63  1  0  0  0
 60 64  1  0  0  0
 16 17  1  0  0  0
 21 22  1  0  0  0
 30 32  1  0  0  0
 25 27  1  0  0  0
M  END
> <minimizedAffinity>
-5.67356

> <CNNscore>
0.1861366928

> <CNNaffinity>
7.4054274559

> <CNN_VS>
1.3784217834

> <CNNaffinity_variance>
0.0354588404

$$$$
[H]OC(=O)C([H])([H])[C@@]([H])(C(=O)O[H])N([H])C(=O)[C@@]([H])(N([H])C(=O)[C@@]([H])(N([H])C(=O)[C@@]1([H])N(C(=O)[C@@]([H])(N([H])C(=O)[C@@]([H])(N([H])C(=O)[C@@]([H])(N([H])[H])C([H])([H])C([H])([H])C([H])([H])N=C(N([H])[H])N([H])[H])C([H])([H])C([H])([H])C([H])([H])N=C(N([H])[H])N([H])[H])C([H])([H])C(=O)O[H])C([H])([H])C([H])([H])C1([H])[H])[C@@]([H])(C([H])([H])[H])C([H])([H])C([H])([H])[H])C([H])([H])C([H])(C([H])([H])[H])C([H])([H])[H]


 80 80  0  0  0  0  0  0  0  0999 V2000
  -10.6130   -6.4371    8.3209 C   0  0  0  0  0  0  0  0  0  0  0  0
   -7.0573   -7.5650    7.2787 C   0  0  0  0  0  0  0  0  0  0  0  0
   -7.0321   -7.8574    5.7689 C   0  0  0  0  0  0  0  0  0  0  0  0
   -7.5872   -6.5723    5.1876 C   0  0  0  0  0  0  0  0  0  0  0  0
   -8.4428   -5.9736    6.2755 C   0  0  0  0  0  0  0  0  0  0  0  0
   -8.3406   -6.9195    7.3577 N   0  0  0  0  0  0  0  0  0  0  0  0
   -9.3901   -7.2170    8.3111 C   0  0  0  0  0  0  0  0  0  0  0  0
   -9.1997   -8.1556    9.1045 O   0  0  0  0  0  0  0  0  0  0  0  0
   -4.9378   -6.2696    6.7403 N   0  0  0  0  0  0  0  0  0  0  0  0
   -5.9696   -6.6512    7.6495 C   0  0  0  0  0  0  0  0  0  0  0  0
   -5.8975   -6.1596    8.7864 O   0  0  0  0  0  0  0  0  0  0  0  0
   -4.9828   -6.6974    5.7670 H   0  0  0  0  0  0  0  0  0  0  0  0
   -3.8621   -5.3756    6.9897 C   0  0  0  0  0  0  0  0  0  0  0  0
   -3.7568   -4.2291    6.0877 C   0  0  0  0  0  0  0  0  0  0  0  0
   -3.5805   -4.4984    4.8598 O   0  0  0  0  0  0  0  0  0  0  0  0
   -3.8492   -2.8616    6.4677 N   0  0  0  0  0  0  0  0  0  0  0  0
   -3.9950   -2.7118    7.5137 H   0  0  0  0  0  0  0  0  0  0  0  0
   -3.8014   -1.7203    5.6394 C   0  0  0  0  0  0  0  0  0  0  0  0
   -4.1332   -0.4643    6.4197 C   0  0  0  0  0  0  0  0  0  0  0  0
   -5.3084   -0.0436    6.3798 O   0  0  0  0  0  0  0  0  0  0  0  0
   -3.1975    0.2543    7.1852 N   0  0  0  0  0  0  0  0  0  0  0  0
   -2.2155   -0.0756    7.2495 H   0  0  0  0  0  0  0  0  0  0  0  0
   -3.5564    1.4365    7.8984 C   0  0  0  0  0  0  0  0  0  0  0  0
   -3.2331    2.6787    7.1441 C   0  0  0  0  0  0  0  0  0  0  0  0
   -3.7230    3.8921    7.5712 O   0  0  0  0  0  0  0  0  0  0  0  0
   -2.5112    2.6145    6.1155 O   0  0  0  0  0  0  0  0  0  0  0  0
   -3.3544    4.2960    8.4191 H   0  0  0  0  0  0  0  0  0  0  0  0
   -2.9555    1.4382    9.2695 C   0  0  0  0  0  0  0  0  0  0  0  0
   -3.0284    0.0681    9.8484 C   0  0  0  0  0  0  0  0  0  0  0  0
   -4.2760   -0.5198    9.9776 O   0  0  0  0  0  0  0  0  0  0  0  0
   -1.9823   -0.5263   10.2044 O   0  0  0  0  0  0  0  0  0  0  0  0
   -5.1433   -0.0185    9.8563 H   0  0  0  0  0  0  0  0  0  0  0  0
   -4.4187   -1.7029    4.3107 C   0  0  0  0  0  0  0  0  0  0  0  0
   -3.5644   -1.2450    3.1670 C   0  0  0  0  0  0  0  0  0  0  0  0
   -3.6638    0.1772    2.7851 C   0  0  0  0  0  0  0  0  0  0  0  0
   -2.1046   -1.5535    3.5000 C   0  0  0  0  0  0  0  0  0  0  0  0
   -2.5800   -5.9657    7.4240 C   0  0  0  0  0  0  0  0  0  0  0  0
   -2.4197   -5.9502    8.9346 C   0  0  0  0  0  0  0  0  0  0  0  0
   -2.2673   -8.4910    7.6380 C   0  0  0  0  0  0  0  0  0  0  0  0
   -2.1468   -7.2550    6.8512 C   0  0  0  0  0  0  0  0  0  0  0  0
  -11.8059   -7.2285    8.5388 N   0  0  0  0  0  0  0  0  0  0  0  0
  -12.9124   -7.2212    7.6701 C   0  0  0  0  0  0  0  0  0  0  0  0
  -12.8742   -6.4662    6.6652 O   0  0  0  0  0  0  0  0  0  0  0  0
  -11.8375   -7.8286    9.3835 H   0  0  0  0  0  0  0  0  0  0  0  0
  -14.1445   -8.0862    7.8947 C   0  0  0  0  0  0  0  0  0  0  0  0
  -14.9946   -7.9968    6.7427 N   0  0  0  0  0  0  0  0  0  0  0  0
  -16.4020   -7.8951    6.8118 C   0  0  0  0  0  0  0  0  0  0  0  0
  -16.9657   -7.8807    7.9142 O   0  0  0  0  0  0  0  0  0  0  0  0
  -14.5448   -8.0060    5.8077 H   0  0  0  0  0  0  0  0  0  0  0  0
  -17.1917   -7.8117    5.5807 C   0  0  0  0  0  0  0  0  0  0  0  0
  -18.1403   -8.9212    5.4714 N   0  0  0  0  0  0  0  0  0  0  0  0
  -18.3731   -9.0107    4.4432 H   0  0  0  0  0  0  0  0  0  0  0  0
  -18.9430   -8.7245    6.0738 H   0  0  0  0  0  0  0  0  0  0  0  0
  -17.9449   -6.4917    5.5604 C   0  0  0  0  0  0  0  0  0  0  0  0
  -18.3193   -6.1769    4.1271 C   0  0  0  0  0  0  0  0  0  0  0  0
  -16.9967   -6.0442    3.3588 C   0  0  0  0  0  0  0  0  0  0  0  0
  -16.4317   -4.7888    3.7726 N   0  0  0  0  0  0  0  0  0  0  0  0
  -15.2269   -4.6906    4.2097 C   0  0  0  0  0  0  0  0  0  0  0  0
  -14.3733   -5.8267    4.3098 N   0  0  0  0  0  0  0  0  0  0  0  0
  -14.7463   -3.4175    4.5977 N   0  0  0  0  0  0  0  0  0  0  0  0
  -13.4625   -5.7502    4.8232 H   0  0  0  0  0  0  0  0  0  0  0  0
  -14.6528   -6.7166    3.8779 H   0  0  0  0  0  0  0  0  0  0  0  0
  -13.9690   -3.2785    5.2775 H   0  0  0  0  0  0  0  0  0  0  0  0
  -15.1714   -2.5333    4.1999 H   0  0  0  0  0  0  0  0  0  0  0  0
  -13.6254   -9.4345    8.1612 C   0  0  0  0  0  0  0  0  0  0  0  0
  -13.2199  -10.3706    7.1019 C   0  0  0  0  0  0  0  0  0  0  0  0
  -11.9820   -9.9842    6.3924 C   0  0  0  0  0  0  0  0  0  0  0  0
  -10.7951  -10.0458    7.2636 N   0  0  0  0  0  0  0  0  0  0  0  0
   -9.7030  -10.4509    6.7707 C   0  0  0  0  0  0  0  0  0  0  0  0
   -9.5989  -10.8410    5.4226 N   0  0  0  0  0  0  0  0  0  0  0  0
   -8.5447  -10.5063    7.5924 N   0  0  0  0  0  0  0  0  0  0  0  0
   -9.8389  -10.2262    4.6062 H   0  0  0  0  0  0  0  0  0  0  0  0
   -9.2603  -11.8118    5.1475 H   0  0  0  0  0  0  0  0  0  0  0  0
   -8.0823  -11.4295    7.7696 H   0  0  0  0  0  0  0  0  0  0  0  0
   -8.1169   -9.6451    8.0464 H   0  0  0  0  0  0  0  0  0  0  0  0
  -10.6100   -5.4769    9.5588 C   0  0  0  0  0  0  0  0  0  0  0  0
  -11.8525   -5.6528   10.3186 C   0  0  0  0  0  0  0  0  0  0  0  0
  -12.0478   -6.6483   11.2600 O   0  0  0  0  0  0  0  0  0  0  0  0
  -12.8271   -4.8650   10.1291 O   0  0  0  0  0  0  0  0  0  0  0  0
  -11.4166   -6.6467   12.0607 H   0  0  0  0  0  0  0  0  0  0  0  0
 39 40  1  0  0  0
 40 37  1  0  0  0
 37 38  1  0  0  0
 37 13  1  0  0  0
 13  9  1  0  0  0
  9 10  1  0  0  0
 10 11  2  0  0  0
 10  2  1  0  0  0
  2  3  1  0  0  0
  3  4  1  0  0  0
  4  5  1  0  0  0
  5  6  1  0  0  0
  6  7  1  0  0  0
  7  8  2  0  0  0
  7  1  1  0  0  0
  1 76  1  0  0  0
 76 77  1  0  0  0
 77 78  1  0  0  0
 77 79  2  0  0  0
  1 41  1  0  0  0
 41 42  1  0  0  0
 42 43  2  0  0  0
 42 45  1  0  0  0
 45 65  1  0  0  0
 65 66  1  0  0  0
 66 67  1  0  0  0
 67 68  1  0  0  0
 68 69  2  0  0  0
 69 70  1  0  0  0
 69 71  1  0  0  0
 45 46  1  0  0  0
 46 47  1  0  0  0
 47 48  2  0  0  0
 47 50  1  0  0  0
 50 51  1  0  0  0
 50 54  1  0  0  0
 54 55  1  0  0  0
 55 56  1  0  0  0
 56 57  1  0  0  0
 57 58  2  0  0  0
 58 59  1  0  0  0
 58 60  1  0  0  0
 13 14  1  0  0  0
 14 15  2  0  0  0
 14 16  1  0  0  0
 16 18  1  0  0  0
 18 33  1  0  0  0
 33 34  1  0  0  0
 34 35  1  0  0  0
 34 36  1  0  0  0
 18 19  1  0  0  0
 19 20  2  0  0  0
 19 21  1  0  0  0
 21 23  1  0  0  0
 23 28  1  0  0  0
 28 29  1  0  0  0
 29 30  1  0  0  0
 29 31  2  0  0  0
 23 24  1  0  0  0
 24 25  1  0  0  0
 24 26  2  0  0  0
  6  2  1  0  0  0
  9 12  1  0  0  0
 78 80  1  0  0  0
 41 44  1  0  0  0
 70 72  1  0  0  0
 70 73  1  0  0  0
 71 74  1  0  0  0
 71 75  1  0  0  0
 46 49  1  0  0  0
 51 52  1  0  0  0
 51 53  1  0  0  0
 59 61  1  0  0  0
 59 62  1  0  0  0
 60 63  1  0  0  0
 60 64  1  0  0  0
 16 17  1  0  0  0
 21 22  1  0  0  0
 30 32  1  0  0  0
 25 27  1  0  0  0
M  END
> <minimizedAffinity>
-5.06788

> <CNNscore>
0.1665569246

> <CNNaffinity>
7.5801343918

> <CNN_VS>
1.2625238895

> <CNNaffinity_variance>
0.0311858952

$$$$
[H]OC(=O)C([H])([H])[C@@]([H])(C(=O)O[H])N([H])C(=O)[C@@]([H])(N([H])C(=O)[C@@]([H])(N([H])C(=O)[C@@]1([H])N(C(=O)[C@@]([H])(N([H])C(=O)[C@@]([H])(N([H])C(=O)[C@@]([H])(N([H])[H])C([H])([H])C([H])([H])C([H])([H])N=C(N([H])[H])N([H])[H])C([H])([H])C([H])([H])C([H])([H])N=C(N([H])[H])N([H])[H])C([H])([H])C(=O)O[H])C([H])([H])C([H])([H])C1([H])[H])[C@@]([H])(C([H])([H])[H])C([H])([H])C([H])([H])[H])C([H])([H])C([H])(C([H])([H])[H])C([H])([H])[H]


 80 80  0  0  0  0  0  0  0  0999 V2000
   -2.5054   -3.7380    4.9236 C   0  0  0  0  0  0  0  0  0  0  0  0
   -4.6607   -0.5265    5.1288 C   0  0  0  0  0  0  0  0  0  0  0  0
   -4.8950   -0.1574    6.6034 C   0  0  0  0  0  0  0  0  0  0  0  0
   -3.4816   -0.1210    7.1498 C   0  0  0  0  0  0  0  0  0  0  0  0
   -2.6808   -1.0373    6.2592 C   0  0  0  0  0  0  0  0  0  0  0  0
   -3.6467   -1.5306    5.3104 N   0  0  0  0  0  0  0  0  0  0  0  0
   -3.6302   -2.8480    4.7077 C   0  0  0  0  0  0  0  0  0  0  0  0
   -4.6072   -3.1762    4.0116 O   0  0  0  0  0  0  0  0  0  0  0  0
   -3.3195    0.4931    3.2256 N   0  0  0  0  0  0  0  0  0  0  0  0
   -4.1494    0.6276    4.3789 C   0  0  0  0  0  0  0  0  0  0  0  0
   -4.4211    1.7900    4.7169 O   0  0  0  0  0  0  0  0  0  0  0  0
   -3.0690   -0.4998    2.9362 H   0  0  0  0  0  0  0  0  0  0  0  0
   -2.7979    1.5386    2.4173 C   0  0  0  0  0  0  0  0  0  0  0  0
   -3.6198    1.9399    1.2760 C   0  0  0  0  0  0  0  0  0  0  0  0
   -3.7195    3.1887    1.0708 O   0  0  0  0  0  0  0  0  0  0  0  0
   -4.2919    1.0582    0.3851 N   0  0  0  0  0  0  0  0  0  0  0  0
   -4.1650    0.0255    0.6201 H   0  0  0  0  0  0  0  0  0  0  0  0
   -5.0573    1.3849   -0.7544 C   0  0  0  0  0  0  0  0  0  0  0  0
   -6.1977    0.4057   -0.9460 C   0  0  0  0  0  0  0  0  0  0  0  0
   -5.9683   -0.8061   -0.7491 O   0  0  0  0  0  0  0  0  0  0  0  0
   -7.4973    0.7801   -1.3316 N   0  0  0  0  0  0  0  0  0  0  0  0
   -7.7244    1.7804   -1.4909 H   0  0  0  0  0  0  0  0  0  0  0  0
   -8.5379   -0.1802   -1.5055 C   0  0  0  0  0  0  0  0  0  0  0  0
   -8.7000   -0.5954   -2.9261 C   0  0  0  0  0  0  0  0  0  0  0  0
   -9.9302   -1.0040   -3.3890 O   0  0  0  0  0  0  0  0  0  0  0  0
   -7.7086   -0.5714   -3.7006 O   0  0  0  0  0  0  0  0  0  0  0  0
  -10.6646   -0.3199   -3.4920 H   0  0  0  0  0  0  0  0  0  0  0  0
   -9.8223    0.3083   -0.9118 C   0  0  0  0  0  0  0  0  0  0  0  0
   -9.5340    1.1241    0.3001 C   0  0  0  0  0  0  0  0  0  0  0  0
   -9.2473    0.4590    1.4810 O   0  0  0  0  0  0  0  0  0  0  0  0
   -9.5526    2.3772    0.2400 O   0  0  0  0  0  0  0  0  0  0  0  0
   -9.3806   -0.5331    1.6081 H   0  0  0  0  0  0  0  0  0  0  0  0
   -4.4311    1.7329   -2.0326 C   0  0  0  0  0  0  0  0  0  0  0  0
   -3.0584    1.1884   -2.2910 C   0  0  0  0  0  0  0  0  0  0  0  0
   -2.9661   -0.2265   -2.7008 C   0  0  0  0  0  0  0  0  0  0  0  0
   -2.3927    2.0460   -3.3672 C   0  0  0  0  0  0  0  0  0  0  0  0
   -1.3390    1.5526    2.1893 C   0  0  0  0  0  0  0  0  0  0  0  0
   -0.6043    2.4116    3.2044 C   0  0  0  0  0  0  0  0  0  0  0  0
   -1.0028   -0.5703    0.8105 C   0  0  0  0  0  0  0  0  0  0  0  0
   -0.6322    0.2790    1.9519 C   0  0  0  0  0  0  0  0  0  0  0  0
   -2.7295   -4.7161    5.9675 N   0  0  0  0  0  0  0  0  0  0  0  0
   -1.7522   -5.0840    6.9101 C   0  0  0  0  0  0  0  0  0  0  0  0
   -0.6146   -4.5550    6.8243 O   0  0  0  0  0  0  0  0  0  0  0  0
   -3.6629   -5.1648    6.0141 H   0  0  0  0  0  0  0  0  0  0  0  0
   -2.0152   -6.0880    8.0235 C   0  0  0  0  0  0  0  0  0  0  0  0
   -1.8173   -5.4439    9.2899 N   0  0  0  0  0  0  0  0  0  0  0  0
   -2.5328   -4.3000    9.7089 C   0  0  0  0  0  0  0  0  0  0  0  0
   -3.3858   -3.7992    8.9640 O   0  0  0  0  0  0  0  0  0  0  0  0
   -1.1082   -5.8461    9.9317 H   0  0  0  0  0  0  0  0  0  0  0  0
   -2.2615   -3.7061   11.0204 C   0  0  0  0  0  0  0  0  0  0  0  0
   -3.2634   -2.6995   11.3750 N   0  0  0  0  0  0  0  0  0  0  0  0
   -2.8102   -2.0733   12.0974 H   0  0  0  0  0  0  0  0  0  0  0  0
   -4.1076   -3.1788   11.6970 H   0  0  0  0  0  0  0  0  0  0  0  0
   -2.2465   -4.8043   12.0711 C   0  0  0  0  0  0  0  0  0  0  0  0
   -3.6532   -5.3465   12.2159 C   0  0  0  0  0  0  0  0  0  0  0  0
   -3.9573   -5.3506   13.7207 C   0  0  0  0  0  0  0  0  0  0  0  0
   -4.8122   -4.2171   13.9469 N   0  0  0  0  0  0  0  0  0  0  0  0
   -5.7329   -4.2216   14.8440 C   0  0  0  0  0  0  0  0  0  0  0  0
   -5.9622   -5.3565   15.6739 N   0  0  0  0  0  0  0  0  0  0  0  0
   -6.5321   -3.0648   15.0031 N   0  0  0  0  0  0  0  0  0  0  0  0
   -6.8200   -5.3972   16.2751 H   0  0  0  0  0  0  0  0  0  0  0  0
   -5.2859   -6.1305   15.6809 H   0  0  0  0  0  0  0  0  0  0  0  0
   -7.4920   -3.0799   15.4085 H   0  0  0  0  0  0  0  0  0  0  0  0
   -6.1740   -2.1136   14.7075 H   0  0  0  0  0  0  0  0  0  0  0  0
   -3.3852   -6.5667    7.7950 C   0  0  0  0  0  0  0  0  0  0  0  0
   -3.6999   -7.9106    7.2873 C   0  0  0  0  0  0  0  0  0  0  0  0
   -4.9768   -7.9958    6.5475 C   0  0  0  0  0  0  0  0  0  0  0  0
   -6.1079   -7.4501    7.3186 N   0  0  0  0  0  0  0  0  0  0  0  0
   -6.9257   -6.6835    6.7329 C   0  0  0  0  0  0  0  0  0  0  0  0
   -6.7792   -6.3433    5.3752 N   0  0  0  0  0  0  0  0  0  0  0  0
   -8.0294   -6.1567    7.4570 N   0  0  0  0  0  0  0  0  0  0  0  0
   -6.7359   -7.0387    4.5900 H   0  0  0  0  0  0  0  0  0  0  0  0
   -6.7019   -5.3298    5.0595 H   0  0  0  0  0  0  0  0  0  0  0  0
   -8.1158   -5.1202    7.5827 H   0  0  0  0  0  0  0  0  0  0  0  0
   -8.7838   -6.7703    7.8872 H   0  0  0  0  0  0  0  0  0  0  0  0
   -2.2977   -4.6342    3.6554 C   0  0  0  0  0  0  0  0  0  0  0  0
   -1.1344   -4.1545    2.9014 C   0  0  0  0  0  0  0  0  0  0  0  0
   -1.0122   -4.2506    1.5262 O   0  0  0  0  0  0  0  0  0  0  0  0
   -0.1640   -3.6136    3.5115 O   0  0  0  0  0  0  0  0  0  0  0  0
   -1.7206   -3.7703    0.9724 H   0  0  0  0  0  0  0  0  0  0  0  0
 39 40  1  0  0  0
 40 37  1  0  0  0
 37 38  1  0  0  0
 37 13  1  0  0  0
 13  9  1  0  0  0
  9 10  1  0  0  0
 10 11  2  0  0  0
 10  2  1  0  0  0
  2  3  1  0  0  0
  3  4  1  0  0  0
  4  5  1  0  0  0
  5  6  1  0  0  0
  6  7  1  0  0  0
  7  8  2  0  0  0
  7  1  1  0  0  0
  1 76  1  0  0  0
 76 77  1  0  0  0
 77 78  1  0  0  0
 77 79  2  0  0  0
  1 41  1  0  0  0
 41 42  1  0  0  0
 42 43  2  0  0  0
 42 45  1  0  0  0
 45 65  1  0  0  0
 65 66  1  0  0  0
 66 67  1  0  0  0
 67 68  1  0  0  0
 68 69  2  0  0  0
 69 70  1  0  0  0
 69 71  1  0  0  0
 45 46  1  0  0  0
 46 47  1  0  0  0
 47 48  2  0  0  0
 47 50  1  0  0  0
 50 51  1  0  0  0
 50 54  1  0  0  0
 54 55  1  0  0  0
 55 56  1  0  0  0
 56 57  1  0  0  0
 57 58  2  0  0  0
 58 59  1  0  0  0
 58 60  1  0  0  0
 13 14  1  0  0  0
 14 15  2  0  0  0
 14 16  1  0  0  0
 16 18  1  0  0  0
 18 33  1  0  0  0
 33 34  1  0  0  0
 34 35  1  0  0  0
 34 36  1  0  0  0
 18 19  1  0  0  0
 19 20  2  0  0  0
 19 21  1  0  0  0
 21 23  1  0  0  0
 23 28  1  0  0  0
 28 29  1  0  0  0
 29 30  1  0  0  0
 29 31  2  0  0  0
 23 24  1  0  0  0
 24 25  1  0  0  0
 24 26  2  0  0  0
  6  2  1  0  0  0
  9 12  1  0  0  0
 78 80  1  0  0  0
 41 44  1  0  0  0
 70 72  1  0  0  0
 70 73  1  0  0  0
 71 74  1  0  0  0
 71 75  1  0  0  0
 46 49  1  0  0  0
 51 52  1  0  0  0
 51 53  1  0  0  0
 59 61  1  0  0  0
 59 62  1  0  0  0
 60 63  1  0  0  0
 60 64  1  0  0  0
 16 17  1  0  0  0
 21 22  1  0  0  0
 30 32  1  0  0  0
 25 27  1  0  0  0
M  END
> <minimizedAffinity>
-5.48568

> <CNNscore>
0.1204284802

> <CNNaffinity>
6.1237239838

> <CNN_VS>
0.7374707460

> <CNNaffinity_variance>
0.8253941536

$$$$
[H]OC(=O)C([H])([H])[C@@]([H])(C(=O)O[H])N([H])C(=O)[C@@]([H])(N([H])C(=O)[C@@]([H])(N([H])C(=O)[C@@]1([H])N(C(=O)[C@@]([H])(N([H])C(=O)[C@@]([H])(N([H])C(=O)[C@@]([H])(N([H])[H])C([H])([H])C([H])([H])C([H])([H])N=C(N([H])[H])N([H])[H])C([H])([H])C([H])([H])C([H])([H])N=C(N([H])[H])N([H])[H])C([H])([H])C(=O)O[H])C([H])([H])C([H])([H])C1([H])[H])[C@@]([H])(C([H])([H])[H])C([H])([H])C([H])([H])[H])C([H])([H])C([H])(C([H])([H])[H])C([H])([H])[H]


 80 80  0  0  0  0  0  0  0  0999 V2000
  -10.7893   -6.4379    8.3018 C   0  0  0  0  0  0  0  0  0  0  0  0
   -7.2241   -7.6807    7.4385 C   0  0  0  0  0  0  0  0  0  0  0  0
   -7.1173   -7.9259    5.9239 C   0  0  0  0  0  0  0  0  0  0  0  0
   -7.5835   -6.6009    5.3543 C   0  0  0  0  0  0  0  0  0  0  0  0
   -8.4801   -6.0015    6.4083 C   0  0  0  0  0  0  0  0  0  0  0  0
   -8.4828   -6.9847    7.4618 N   0  0  0  0  0  0  0  0  0  0  0  0
   -9.6004   -7.2678    8.3393 C   0  0  0  0  0  0  0  0  0  0  0  0
   -9.4970   -8.2383    9.1102 O   0  0  0  0  0  0  0  0  0  0  0  0
   -4.9900   -6.5174    7.0977 N   0  0  0  0  0  0  0  0  0  0  0  0
   -6.1256   -6.8257    7.9054 C   0  0  0  0  0  0  0  0  0  0  0  0
   -6.1352   -6.3225    9.0394 O   0  0  0  0  0  0  0  0  0  0  0  0
   -4.9657   -6.9560    6.1285 H   0  0  0  0  0  0  0  0  0  0  0  0
   -3.8930   -5.6831    7.4427 C   0  0  0  0  0  0  0  0  0  0  0  0
   -3.6717   -4.5227    6.5805 C   0  0  0  0  0  0  0  0  0  0  0  0
   -3.9292   -4.6849    5.3481 O   0  0  0  0  0  0  0  0  0  0  0  0
   -3.2133   -3.2457    7.0073 N   0  0  0  0  0  0  0  0  0  0  0  0
   -3.0156   -3.1841    8.0537 H   0  0  0  0  0  0  0  0  0  0  0  0
   -3.0260   -2.0816    6.2322 C   0  0  0  0  0  0  0  0  0  0  0  0
   -1.7085   -2.1285    5.4850 C   0  0  0  0  0  0  0  0  0  0  0  0
   -0.7423   -1.4968    5.9617 O   0  0  0  0  0  0  0  0  0  0  0  0
   -1.5097   -2.8403    4.2885 N   0  0  0  0  0  0  0  0  0  0  0  0
   -2.2887   -3.3859    3.8726 H   0  0  0  0  0  0  0  0  0  0  0  0
   -0.2508   -2.8494    3.6174 C   0  0  0  0  0  0  0  0  0  0  0  0
   -0.2748   -2.0713    2.3483 C   0  0  0  0  0  0  0  0  0  0  0  0
   -0.7436   -2.6524    1.1919 O   0  0  0  0  0  0  0  0  0  0  0  0
    0.1351   -0.8817    2.3374 O   0  0  0  0  0  0  0  0  0  0  0  0
   -1.7305   -2.8443    1.1076 H   0  0  0  0  0  0  0  0  0  0  0  0
    0.2355   -4.2498    3.4099 C   0  0  0  0  0  0  0  0  0  0  0  0
   -0.7429   -5.2098    3.9918 C   0  0  0  0  0  0  0  0  0  0  0  0
   -1.8483   -5.5555    3.2319 O   0  0  0  0  0  0  0  0  0  0  0  0
   -0.5594   -5.6853    5.1384 O   0  0  0  0  0  0  0  0  0  0  0  0
   -2.1131   -5.0771    2.3838 H   0  0  0  0  0  0  0  0  0  0  0  0
   -3.2882   -0.7441    6.7702 C   0  0  0  0  0  0  0  0  0  0  0  0
   -3.7191    0.3111    5.7963 C   0  0  0  0  0  0  0  0  0  0  0  0
   -4.5910   -0.1194    4.6858 C   0  0  0  0  0  0  0  0  0  0  0  0
   -4.4348    1.4190    6.5691 C   0  0  0  0  0  0  0  0  0  0  0  0
   -2.6731   -6.3452    7.9471 C   0  0  0  0  0  0  0  0  0  0  0  0
   -2.3303   -5.9211    9.3649 C   0  0  0  0  0  0  0  0  0  0  0  0
   -1.1744   -8.3874    7.6241 C   0  0  0  0  0  0  0  0  0  0  0  0
   -2.5151   -7.8017    7.7692 C   0  0  0  0  0  0  0  0  0  0  0  0
  -12.0237   -7.1837    8.4321 N   0  0  0  0  0  0  0  0  0  0  0  0
  -13.0494   -7.1624    7.4695 C   0  0  0  0  0  0  0  0  0  0  0  0
  -12.8974   -6.4353    6.4549 O   0  0  0  0  0  0  0  0  0  0  0  0
  -12.1497   -7.7605    9.2842 H   0  0  0  0  0  0  0  0  0  0  0  0
  -14.3260   -7.9803    7.6047 C   0  0  0  0  0  0  0  0  0  0  0  0
  -14.9657   -8.0631    6.3234 N   0  0  0  0  0  0  0  0  0  0  0  0
  -16.3500   -7.8638    6.1231 C   0  0  0  0  0  0  0  0  0  0  0  0
  -17.0812   -7.6022    7.0875 O   0  0  0  0  0  0  0  0  0  0  0  0
  -14.3732   -8.2803    5.4999 H   0  0  0  0  0  0  0  0  0  0  0  0
  -16.9182   -7.9715    4.7771 C   0  0  0  0  0  0  0  0  0  0  0  0
  -16.9083   -9.3539    4.2958 N   0  0  0  0  0  0  0  0  0  0  0  0
  -16.9565   -9.2996    3.2403 H   0  0  0  0  0  0  0  0  0  0  0  0
  -17.6850   -9.8566    4.7318 H   0  0  0  0  0  0  0  0  0  0  0  0
  -18.3447   -7.4470    4.7951 C   0  0  0  0  0  0  0  0  0  0  0  0
  -18.3391   -6.0285    4.2646 C   0  0  0  0  0  0  0  0  0  0  0  0
  -17.0413   -5.8784    3.4583 C   0  0  0  0  0  0  0  0  0  0  0  0
  -16.4602   -4.6350    3.8862 N   0  0  0  0  0  0  0  0  0  0  0  0
  -15.2220   -4.5351    4.2165 C   0  0  0  0  0  0  0  0  0  0  0  0
  -14.3452   -5.6572    4.1771 N   0  0  0  0  0  0  0  0  0  0  0  0
  -14.7277   -3.2745    4.6272 N   0  0  0  0  0  0  0  0  0  0  0  0
  -13.3924   -5.5890    4.6089 H   0  0  0  0  0  0  0  0  0  0  0  0
  -14.6493   -6.5288    3.7250 H   0  0  0  0  0  0  0  0  0  0  0  0
  -13.8934   -3.1553    5.2401 H   0  0  0  0  0  0  0  0  0  0  0  0
  -15.2013   -2.3796    4.3180 H   0  0  0  0  0  0  0  0  0  0  0  0
  -13.8981   -9.2745    8.1528 C   0  0  0  0  0  0  0  0  0  0  0  0
  -13.4031  -10.3825    7.3221 C   0  0  0  0  0  0  0  0  0  0  0  0
  -12.1796  -10.0658    6.5553 C   0  0  0  0  0  0  0  0  0  0  0  0
  -10.9623  -10.1581    7.3807 N   0  0  0  0  0  0  0  0  0  0  0  0
   -9.8771  -10.4917    6.8233 C   0  0  0  0  0  0  0  0  0  0  0  0
   -9.8086  -10.7749    5.4465 N   0  0  0  0  0  0  0  0  0  0  0  0
   -8.6903  -10.5747    7.6007 N   0  0  0  0  0  0  0  0  0  0  0  0
  -10.0931  -10.1073    4.6879 H   0  0  0  0  0  0  0  0  0  0  0  0
   -9.4532  -11.7114    5.0868 H   0  0  0  0  0  0  0  0  0  0  0  0
   -8.1970  -11.4945    7.6914 H   0  0  0  0  0  0  0  0  0  0  0  0
   -8.2708   -9.7381    8.1057 H   0  0  0  0  0  0  0  0  0  0  0  0
  -10.8176   -5.5089    9.5630 C   0  0  0  0  0  0  0  0  0  0  0  0
  -12.0434   -5.7593   10.3288 C   0  0  0  0  0  0  0  0  0  0  0  0
  -13.2124   -5.0348   10.1742 O   0  0  0  0  0  0  0  0  0  0  0  0
  -12.0718   -6.6866   11.1924 O   0  0  0  0  0  0  0  0  0  0  0  0
  -13.6418   -5.0569    9.2497 H   0  0  0  0  0  0  0  0  0  0  0  0
 39 40  1  0  0  0
 40 37  1  0  0  0
 37 38  1  0  0  0
 37 13  1  0  0  0
 13  9  1  0  0  0
  9 10  1  0  0  0
 10 11  2  0  0  0
 10  2  1  0  0  0
  2  3  1  0  0  0
  3  4  1  0  0  0
  4  5  1  0  0  0
  5  6  1  0  0  0
  6  7  1  0  0  0
  7  8  2  0  0  0
  7  1  1  0  0  0
  1 76  1  0  0  0
 76 77  1  0  0  0
 77 78  1  0  0  0
 77 79  2  0  0  0
  1 41  1  0  0  0
 41 42  1  0  0  0
 42 43  2  0  0  0
 42 45  1  0  0  0
 45 65  1  0  0  0
 65 66  1  0  0  0
 66 67  1  0  0  0
 67 68  1  0  0  0
 68 69  2  0  0  0
 69 70  1  0  0  0
 69 71  1  0  0  0
 45 46  1  0  0  0
 46 47  1  0  0  0
 47 48  2  0  0  0
 47 50  1  0  0  0
 50 51  1  0  0  0
 50 54  1  0  0  0
 54 55  1  0  0  0
 55 56  1  0  0  0
 56 57  1  0  0  0
 57 58  2  0  0  0
 58 59  1  0  0  0
 58 60  1  0  0  0
 13 14  1  0  0  0
 14 15  2  0  0  0
 14 16  1  0  0  0
 16 18  1  0  0  0
 18 33  1  0  0  0
 33 34  1  0  0  0
 34 35  1  0  0  0
 34 36  1  0  0  0
 18 19  1  0  0  0
 19 20  2  0  0  0
 19 21  1  0  0  0
 21 23  1  0  0  0
 23 28  1  0  0  0
 28 29  1  0  0  0
 29 30  1  0  0  0
 29 31  2  0  0  0
 23 24  1  0  0  0
 24 25  1  0  0  0
 24 26  2  0  0  0
  6  2  1  0  0  0
  9 12  1  0  0  0
 78 80  1  0  0  0
 41 44  1  0  0  0
 70 72  1  0  0  0
 70 73  1  0  0  0
 71 74  1  0  0  0
 71 75  1  0  0  0
 46 49  1  0  0  0
 51 52  1  0  0  0
 51 53  1  0  0  0
 59 61  1  0  0  0
 59 62  1  0  0  0
 60 63  1  0  0  0
 60 64  1  0  0  0
 16 17  1  0  0  0
 21 22  1  0  0  0
 30 32  1  0  0  0
 25 27  1  0  0  0
M  END
> <minimizedAffinity>
-4.45807

> <CNNscore>
0.1199063584

> <CNNaffinity>
7.5334539413

> <CNN_VS>
0.9033090472

> <CNNaffinity_variance>
0.0215232037

$$$$
[H]Oc1c([H])c([H])c(C([H])([H])[C@@]2([H])C(=O)N3C([H])([H])C([H])([H])C([H])([H])[C@@]3([H])C(=O)N([H])[C@@]([H])(C([H])([H])c3c([H])c([H])c(O[H])c([H])c3[H])C(=O)N([H])[C@@]([H])([C@@]([H])(C([H])([H])[H])C([H])([H])C([H])([H])[H])C(=O)N([H])[C@@]([H])(C([H])([H])c3c([H])c([H])c([H])c([H])c3[H])C(=O)N3C([H])([H])C([H])([H])C([H])([H])[C@@]3([H])C(=O)N2[H])c([H])c1[H]


 63 68  0  0  0  0  0  0  0  0999 V2000
   -6.4679   -6.0845   12.1866 C   0  0  0  0  0  0  0  0  0  0  0  0
   -6.8642   -7.4224   11.7177 N   0  0  0  0  0  0  0  0  0  0  0  0
   -7.4360   -7.7141   10.4812 C   0  0  0  0  0  0  0  0  0  0  0  0
   -7.5827   -8.9381   10.1856 O   0  0  0  0  0  0  0  0  0  0  0  0
   -7.8827   -6.7054    9.4911 C   0  0  0  0  0  0  0  0  0  0  0  0
   -8.0955   -7.3379    8.2105 N   0  0  0  0  0  0  0  0  0  0  0  0
   -7.8381   -6.7997    6.9319 C   0  0  0  0  0  0  0  0  0  0  0  0
   -8.7958   -6.7128    6.0716 O   0  0  0  0  0  0  0  0  0  0  0  0
   -6.5132   -6.3009    6.4540 C   0  0  0  0  0  0  0  0  0  0  0  0
   -6.6681   -5.8292    5.0105 C   0  0  0  0  0  0  0  0  0  0  0  0
   -6.8080   -7.1561    4.2841 C   0  0  0  0  0  0  0  0  0  0  0  0
   -6.3586   -8.2381    5.2712 C   0  0  0  0  0  0  0  0  0  0  0  0
   -5.6021   -7.4333    6.2369 N   0  0  0  0  0  0  0  0  0  0  0  0
   -4.3539   -7.5563    6.8655 C   0  0  0  0  0  0  0  0  0  0  0  0
   -4.1140   -8.6311    7.5207 O   0  0  0  0  0  0  0  0  0  0  0  0
   -3.2560   -6.5450    6.8457 C   0  0  0  0  0  0  0  0  0  0  0  0
   -2.6132   -6.4723    8.1197 N   0  0  0  0  0  0  0  0  0  0  0  0
   -1.9788   -5.3163    8.6610 C   0  0  0  0  0  0  0  0  0  0  0  0
   -1.0603   -5.5266    9.5306 O   0  0  0  0  0  0  0  0  0  0  0  0
   -2.2889   -3.9665    8.3078 C   0  0  0  0  0  0  0  0  0  0  0  0
   -1.1086   -2.9983    8.4797 C   0  0  0  0  0  0  0  0  0  0  0  0
   -1.8024   -1.6664    8.2958 C   0  0  0  0  0  0  0  0  0  0  0  0
   -3.2793   -1.9970    8.1650 C   0  0  0  0  0  0  0  0  0  0  0  0
   -3.3439   -3.2500    8.9637 N   0  0  0  0  0  0  0  0  0  0  0  0
   -4.2128   -3.5819   10.0019 C   0  0  0  0  0  0  0  0  0  0  0  0
   -5.4807   -3.5763    9.6767 O   0  0  0  0  0  0  0  0  0  0  0  0
   -4.0137   -3.9424   11.4169 C   0  0  0  0  0  0  0  0  0  0  0  0
   -4.0295   -5.3282   11.7415 N   0  0  0  0  0  0  0  0  0  0  0  0
   -5.0108   -6.0937   12.3986 C   0  0  0  0  0  0  0  0  0  0  0  0
   -4.6089   -6.9130   13.3015 O   0  0  0  0  0  0  0  0  0  0  0  0
   -6.6726   -8.1948   12.4253 H   0  0  0  0  0  0  0  0  0  0  0  0
   -8.5028   -8.3207    8.2410 H   0  0  0  0  0  0  0  0  0  0  0  0
   -2.6029   -7.3451    8.7167 H   0  0  0  0  0  0  0  0  0  0  0  0
   -3.1481   -5.8619   11.4461 H   0  0  0  0  0  0  0  0  0  0  0  0
   -7.2825   -5.8080   13.4119 C   0  0  0  0  0  0  0  0  0  0  0  0
   -6.9809   -4.5426   14.1314 C   0  0  0  0  0  0  0  0  0  0  0  0
   -9.5486   -5.0654   14.1431 C   0  0  0  0  0  0  0  0  0  0  0  0
   -8.7678   -5.9350   13.2124 C   0  0  0  0  0  0  0  0  0  0  0  0
   -9.2678   -6.1880    9.9301 C   0  0  0  0  0  0  0  0  0  0  0  0
  -10.3654   -6.8481    9.2171 C   0  0  0  0  0  0  0  0  0  0  0  0
  -10.2243   -8.0939    8.6486 C   0  0  0  0  0  0  0  0  0  0  0  0
  -11.2816   -8.6849    7.9902 C   0  0  0  0  0  0  0  0  0  0  0  0
  -12.4906   -8.0456    7.8889 C   0  0  0  0  0  0  0  0  0  0  0  0
  -13.5434   -8.6410    7.2306 O   0  0  0  0  0  0  0  0  0  0  0  0
  -12.6607   -6.8030    8.4452 C   0  0  0  0  0  0  0  0  0  0  0  0
  -11.5865   -6.2288    9.1010 C   0  0  0  0  0  0  0  0  0  0  0  0
  -14.2169   -9.2421    7.7046 H   0  0  0  0  0  0  0  0  0  0  0  0
   -2.3139   -7.0438    5.7392 C   0  0  0  0  0  0  0  0  0  0  0  0
   -2.1212   -6.1005    4.6468 C   0  0  0  0  0  0  0  0  0  0  0  0
   -2.7384   -4.8674    4.6803 C   0  0  0  0  0  0  0  0  0  0  0  0
   -2.6046   -3.9171    3.6824 C   0  0  0  0  0  0  0  0  0  0  0  0
   -1.8155   -4.1989    2.5868 C   0  0  0  0  0  0  0  0  0  0  0  0
   -1.6729   -3.2533    1.5765 O   0  0  0  0  0  0  0  0  0  0  0  0
   -1.1922   -5.4318    2.5435 C   0  0  0  0  0  0  0  0  0  0  0  0
   -1.3374   -6.3739    3.5536 C   0  0  0  0  0  0  0  0  0  0  0  0
   -0.9269   -2.5738    1.6250 H   0  0  0  0  0  0  0  0  0  0  0  0
   -2.7728   -3.2405   12.0078 C   0  0  0  0  0  0  0  0  0  0  0  0
   -2.4690   -3.7241   13.3723 C   0  0  0  0  0  0  0  0  0  0  0  0
   -1.4706   -4.6461   13.5936 C   0  0  0  0  0  0  0  0  0  0  0  0
   -1.1861   -5.0968   14.8881 C   0  0  0  0  0  0  0  0  0  0  0  0
   -1.8938   -4.6304   15.9599 C   0  0  0  0  0  0  0  0  0  0  0  0
   -2.8995   -3.7019   15.7400 C   0  0  0  0  0  0  0  0  0  0  0  0
   -3.1846   -3.2516   14.4494 C   0  0  0  0  0  0  0  0  0  0  0  0
 37 38  1  0  0  0
 38 35  1  0  0  0
 35 36  1  0  0  0
 35  1  1  0  0  0
  1  2  1  0  0  0
  2  3  1  0  0  0
  3  4  2  0  0  0
  3  5  1  0  0  0
  5 39  1  0  0  0
 39 40  1  0  0  0
 40 41  2  0  0  0
 41 42  1  0  0  0
 42 43  2  0  0  0
 43 44  1  0  0  0
 43 45  1  0  0  0
 45 46  2  0  0  0
  5  6  1  0  0  0
  6  7  1  0  0  0
  7  8  2  0  0  0
  7  9  1  0  0  0
  9 10  1  0  0  0
 10 11  1  0  0  0
 11 12  1  0  0  0
 12 13  1  0  0  0
 13 14  1  0  0  0
 14 15  2  0  0  0
 14 16  1  0  0  0
 16 48  1  0  0  0
 48 49  1  0  0  0
 49 50  2  0  0  0
 50 51  1  0  0  0
 51 52  2  0  0  0
 52 53  1  0  0  0
 52 54  1  0  0  0
 54 55  2  0  0  0
 16 17  1  0  0  0
 17 18  1  0  0  0
 18 19  2  0  0  0
 18 20  1  0  0  0
 20 21  1  0  0  0
 21 22  1  0  0  0
 22 23  1  0  0  0
 23 24  1  0  0  0
 24 25  1  0  0  0
 25 26  2  0  0  0
 25 27  1  0  0  0
 27 57  1  0  0  0
 57 58  1  0  0  0
 58 59  2  0  0  0
 59 60  1  0  0  0
 60 61  2  0  0  0
 61 62  1  0  0  0
 62 63  2  0  0  0
 27 28  1  0  0  0
 28 29  1  0  0  0
 29 30  2  0  0  0
 29  1  1  0  0  0
 46 40  1  0  0  0
 13  9  1  0  0  0
 55 49  1  0  0  0
 24 20  1  0  0  0
 63 58  1  0  0  0
  2 31  1  0  0  0
 44 47  1  0  0  0
  6 32  1  0  0  0
 53 56  1  0  0  0
 17 33  1  0  0  0
 28 34  1  0  0  0
M  END
> <minimizedAffinity>
9.46061

> <CNNscore>
0.4040708244

> <CNNaffinity>
7.1784567833

> <CNN_VS>
2.9006049633

> <CNNaffinity_variance>
0.4221636653

$$$$
[H]Oc1c([H])c([H])c(C([H])([H])[C@@]2([H])C(=O)N3C([H])([H])C([H])([H])C([H])([H])[C@@]3([H])C(=O)N([H])[C@@]([H])(C([H])([H])c3c([H])c([H])c(O[H])c([H])c3[H])C(=O)N([H])[C@@]([H])([C@@]([H])(C([H])([H])[H])C([H])([H])C([H])([H])[H])C(=O)N([H])[C@@]([H])(C([H])([H])c3c([H])c([H])c([H])c([H])c3[H])C(=O)N3C([H])([H])C([H])([H])C([H])([H])[C@@]3([H])C(=O)N2[H])c([H])c1[H]


 63 68  0  0  0  0  0  0  0  0999 V2000
   -2.9171   -3.2700    8.2549 C   0  0  0  0  0  0  0  0  0  0  0  0
   -3.7244   -3.3295    7.0255 N   0  0  0  0  0  0  0  0  0  0  0  0
   -4.0945   -4.4913    6.3515 C   0  0  0  0  0  0  0  0  0  0  0  0
   -4.9107   -4.3672    5.3894 O   0  0  0  0  0  0  0  0  0  0  0  0
   -3.6079   -5.8538    6.6739 C   0  0  0  0  0  0  0  0  0  0  0  0
   -4.4413   -6.8374    6.0236 N   0  0  0  0  0  0  0  0  0  0  0  0
   -4.8268   -8.1011    6.5189 C   0  0  0  0  0  0  0  0  0  0  0  0
   -4.5457   -9.1640    5.8436 O   0  0  0  0  0  0  0  0  0  0  0  0
   -5.5590   -8.3418    7.7990 C   0  0  0  0  0  0  0  0  0  0  0  0
   -5.7988   -9.8425    7.9420 C   0  0  0  0  0  0  0  0  0  0  0  0
   -6.8752  -10.0665    6.8935 C   0  0  0  0  0  0  0  0  0  0  0  0
   -7.4114   -8.6803    6.5224 C   0  0  0  0  0  0  0  0  0  0  0  0
   -6.9516   -7.8904    7.6700 N   0  0  0  0  0  0  0  0  0  0  0  0
   -7.5418   -6.9430    8.5199 C   0  0  0  0  0  0  0  0  0  0  0  0
   -8.0876   -5.9138    7.9862 O   0  0  0  0  0  0  0  0  0  0  0  0
   -7.6020   -7.0150   10.0099 C   0  0  0  0  0  0  0  0  0  0  0  0
   -7.3996   -5.7235   10.5865 N   0  0  0  0  0  0  0  0  0  0  0  0
   -6.8266   -5.4703   11.8670 C   0  0  0  0  0  0  0  0  0  0  0  0
   -7.1572   -4.3665   12.4294 O   0  0  0  0  0  0  0  0  0  0  0  0
   -5.9281   -6.3444   12.5534 C   0  0  0  0  0  0  0  0  0  0  0  0
   -5.9831   -6.2071   14.0825 C   0  0  0  0  0  0  0  0  0  0  0  0
   -4.7784   -7.0283   14.4868 C   0  0  0  0  0  0  0  0  0  0  0  0
   -4.1120   -7.4333   13.1832 C   0  0  0  0  0  0  0  0  0  0  0  0
   -4.5151   -6.2964   12.3130 N   0  0  0  0  0  0  0  0  0  0  0  0
   -3.7177   -5.4875   11.5050 C   0  0  0  0  0  0  0  0  0  0  0  0
   -3.0555   -6.1274   10.5746 O   0  0  0  0  0  0  0  0  0  0  0  0
   -3.4476   -4.0392   11.4691 C   0  0  0  0  0  0  0  0  0  0  0  0
   -4.1756   -3.2671   10.5204 N   0  0  0  0  0  0  0  0  0  0  0  0
   -3.7512   -2.6785    9.3145 C   0  0  0  0  0  0  0  0  0  0  0  0
   -4.1275   -1.4727    9.0856 O   0  0  0  0  0  0  0  0  0  0  0  0
   -4.0242   -2.3726    6.6671 H   0  0  0  0  0  0  0  0  0  0  0  0
   -4.7951   -6.5771    5.0542 H   0  0  0  0  0  0  0  0  0  0  0  0
   -7.6973   -4.8800   10.0225 H   0  0  0  0  0  0  0  0  0  0  0  0
   -5.2032   -3.1038   10.7779 H   0  0  0  0  0  0  0  0  0  0  0  0
   -1.6844   -2.4919    7.9136 C   0  0  0  0  0  0  0  0  0  0  0  0
   -1.7656   -1.6249    6.7088 C   0  0  0  0  0  0  0  0  0  0  0  0
   -1.0914   -2.4888   10.3363 C   0  0  0  0  0  0  0  0  0  0  0  0
   -1.1050   -1.7109    9.0609 C   0  0  0  0  0  0  0  0  0  0  0  0
   -2.2085   -6.0204    6.0471 C   0  0  0  0  0  0  0  0  0  0  0  0
   -2.1746   -5.6244    4.6362 C   0  0  0  0  0  0  0  0  0  0  0  0
   -2.8782   -4.5395    4.1635 C   0  0  0  0  0  0  0  0  0  0  0  0
   -2.8172   -4.1948    2.8301 C   0  0  0  0  0  0  0  0  0  0  0  0
   -2.0571   -4.9232    1.9512 C   0  0  0  0  0  0  0  0  0  0  0  0
   -1.9995   -4.5738    0.6204 O   0  0  0  0  0  0  0  0  0  0  0  0
   -1.3456   -6.0097    2.3933 C   0  0  0  0  0  0  0  0  0  0  0  0
   -1.4214   -6.3377    3.7351 C   0  0  0  0  0  0  0  0  0  0  0  0
   -1.3019   -3.9272    0.2532 H   0  0  0  0  0  0  0  0  0  0  0  0
   -9.0042   -7.5739   10.2965 C   0  0  0  0  0  0  0  0  0  0  0  0
   -9.8675   -7.6537    9.1266 C   0  0  0  0  0  0  0  0  0  0  0  0
  -10.7412   -6.6257    8.8400 C   0  0  0  0  0  0  0  0  0  0  0  0
  -11.5925   -6.6267    7.7481 C   0  0  0  0  0  0  0  0  0  0  0  0
  -11.5816   -7.7047    6.8878 C   0  0  0  0  0  0  0  0  0  0  0  0
  -12.4323   -7.7190    5.7872 O   0  0  0  0  0  0  0  0  0  0  0  0
  -10.7094   -8.7403    7.1658 C   0  0  0  0  0  0  0  0  0  0  0  0
   -9.8619   -8.7231    8.2660 C   0  0  0  0  0  0  0  0  0  0  0  0
  -12.1225   -7.3324    4.9068 H   0  0  0  0  0  0  0  0  0  0  0  0
   -3.5253   -3.4166   12.8791 C   0  0  0  0  0  0  0  0  0  0  0  0
   -2.6897   -4.1561   13.8501 C   0  0  0  0  0  0  0  0  0  0  0  0
   -2.7365   -3.8643   15.1950 C   0  0  0  0  0  0  0  0  0  0  0  0
   -1.9455   -4.5706   16.1089 C   0  0  0  0  0  0  0  0  0  0  0  0
   -1.1101   -5.5654   15.6850 C   0  0  0  0  0  0  0  0  0  0  0  0
   -1.0612   -5.8612   14.3315 C   0  0  0  0  0  0  0  0  0  0  0  0
   -1.8493   -5.1575   13.4187 C   0  0  0  0  0  0  0  0  0  0  0  0
 37 38  1  0  0  0
 38 35  1  0  0  0
 35 36  1  0  0  0
 35  1  1  0  0  0
  1  2  1  0  0  0
  2  3  1  0  0  0
  3  4  2  0  0  0
  3  5  1  0  0  0
  5 39  1  0  0  0
 39 40  1  0  0  0
 40 41  2  0  0  0
 41 42  1  0  0  0
 42 43  2  0  0  0
 43 44  1  0  0  0
 43 45  1  0  0  0
 45 46  2  0  0  0
  5  6  1  0  0  0
  6  7  1  0  0  0
  7  8  2  0  0  0
  7  9  1  0  0  0
  9 10  1  0  0  0
 10 11  1  0  0  0
 11 12  1  0  0  0
 12 13  1  0  0  0
 13 14  1  0  0  0
 14 15  2  0  0  0
 14 16  1  0  0  0
 16 48  1  0  0  0
 48 49  1  0  0  0
 49 50  2  0  0  0
 50 51  1  0  0  0
 51 52  2  0  0  0
 52 53  1  0  0  0
 52 54  1  0  0  0
 54 55  2  0  0  0
 16 17  1  0  0  0
 17 18  1  0  0  0
 18 19  2  0  0  0
 18 20  1  0  0  0
 20 21  1  0  0  0
 21 22  1  0  0  0
 22 23  1  0  0  0
 23 24  1  0  0  0
 24 25  1  0  0  0
 25 26  2  0  0  0
 25 27  1  0  0  0
 27 57  1  0  0  0
 57 58  1  0  0  0
 58 59  2  0  0  0
 59 60  1  0  0  0
 60 61  2  0  0  0
 61 62  1  0  0  0
 62 63  2  0  0  0
 27 28  1  0  0  0
 28 29  1  0  0  0
 29 30  2  0  0  0
 29  1  1  0  0  0
 46 40  1  0  0  0
 13  9  1  0  0  0
 55 49  1  0  0  0
 24 20  1  0  0  0
 63 58  1  0  0  0
  2 31  1  0  0  0
 44 47  1  0  0  0
  6 32  1  0  0  0
 53 56  1  0  0  0
 17 33  1  0  0  0
 28 34  1  0  0  0
M  END
> <minimizedAffinity>
17.68388

> <CNNscore>
0.3773340285

> <CNNaffinity>
6.8796386719

> <CNN_VS>
2.5959217548

> <CNNaffinity_variance>
0.8518212438

$$$$
[H]Oc1c([H])c([H])c(C([H])([H])[C@@]2([H])C(=O)N3C([H])([H])C([H])([H])C([H])([H])[C@@]3([H])C(=O)N([H])[C@@]([H])(C([H])([H])c3c([H])c([H])c(O[H])c([H])c3[H])C(=O)N([H])[C@@]([H])([C@@]([H])(C([H])([H])[H])C([H])([H])C([H])([H])[H])C(=O)N([H])[C@@]([H])(C([H])([H])c3c([H])c([H])c([H])c([H])c3[H])C(=O)N3C([H])([H])C([H])([H])C([H])([H])[C@@]3([H])C(=O)N2[H])c([H])c1[H]


 63 68  0  0  0  0  0  0  0  0999 V2000
   -9.8866   -8.9845    7.6704 C   0  0  0  0  0  0  0  0  0  0  0  0
   -8.7365   -9.7543    8.1720 N   0  0  0  0  0  0  0  0  0  0  0  0
   -7.4632   -9.2455    8.4188 C   0  0  0  0  0  0  0  0  0  0  0  0
   -6.6312  -10.0170    8.9842 O   0  0  0  0  0  0  0  0  0  0  0  0
   -7.0116   -7.8771    8.0715 C   0  0  0  0  0  0  0  0  0  0  0  0
   -5.7827   -7.5763    8.7675 N   0  0  0  0  0  0  0  0  0  0  0  0
   -5.3797   -6.3352    9.3043 C   0  0  0  0  0  0  0  0  0  0  0  0
   -4.2722   -5.8006    8.9142 O   0  0  0  0  0  0  0  0  0  0  0  0
   -6.1374   -5.5460   10.3221 C   0  0  0  0  0  0  0  0  0  0  0  0
   -5.3406   -4.2846   10.6444 C   0  0  0  0  0  0  0  0  0  0  0  0
   -4.1941   -4.8638   11.4557 C   0  0  0  0  0  0  0  0  0  0  0  0
   -4.6124   -6.2869   11.8390 C   0  0  0  0  0  0  0  0  0  0  0  0
   -6.0625   -6.2141   11.6288 N   0  0  0  0  0  0  0  0  0  0  0  0
   -7.1903   -6.6083   12.3643 C   0  0  0  0  0  0  0  0  0  0  0  0
   -7.2702   -7.8330   12.7325 O   0  0  0  0  0  0  0  0  0  0  0  0
   -8.3260   -5.7288   12.7713 C   0  0  0  0  0  0  0  0  0  0  0  0
   -9.5688   -6.4250   12.6601 N   0  0  0  0  0  0  0  0  0  0  0  0
  -10.8326   -5.8230   12.3908 C   0  0  0  0  0  0  0  0  0  0  0  0
  -11.8656   -6.4619   12.8015 O   0  0  0  0  0  0  0  0  0  0  0  0
  -11.0236   -4.5813   11.7094 C   0  0  0  0  0  0  0  0  0  0  0  0
  -12.3128   -3.8496   12.1126 C   0  0  0  0  0  0  0  0  0  0  0  0
  -12.3611   -2.7579   11.0661 C   0  0  0  0  0  0  0  0  0  0  0  0
  -11.1990   -3.0456   10.1311 C   0  0  0  0  0  0  0  0  0  0  0  0
  -11.0972   -4.5221   10.2784 N   0  0  0  0  0  0  0  0  0  0  0  0
  -11.0563   -5.4997    9.2857 C   0  0  0  0  0  0  0  0  0  0  0  0
  -10.0548   -5.3889    8.4501 O   0  0  0  0  0  0  0  0  0  0  0  0
  -11.9132   -6.6539    8.9607 C   0  0  0  0  0  0  0  0  0  0  0  0
  -11.4825   -7.9307    9.4193 N   0  0  0  0  0  0  0  0  0  0  0  0
  -10.9341   -9.0122    8.7049 C   0  0  0  0  0  0  0  0  0  0  0  0
  -11.3879  -10.1829    8.9725 O   0  0  0  0  0  0  0  0  0  0  0  0
   -8.9555  -10.7821    8.3445 H   0  0  0  0  0  0  0  0  0  0  0  0
   -5.1016   -8.3867    8.8767 H   0  0  0  0  0  0  0  0  0  0  0  0
   -9.5585   -7.4748   12.7871 H   0  0  0  0  0  0  0  0  0  0  0  0
  -11.6099   -8.0889   10.4717 H   0  0  0  0  0  0  0  0  0  0  0  0
  -10.2729   -9.6054    6.3640 C   0  0  0  0  0  0  0  0  0  0  0  0
   -9.2937  -10.5532    5.7703 C   0  0  0  0  0  0  0  0  0  0  0  0
  -12.6858   -9.2920    5.8153 C   0  0  0  0  0  0  0  0  0  0  0  0
  -11.6451  -10.2209    6.3502 C   0  0  0  0  0  0  0  0  0  0  0  0
   -6.6504   -7.8609    6.5721 C   0  0  0  0  0  0  0  0  0  0  0  0
   -5.2576   -7.4704    6.3344 C   0  0  0  0  0  0  0  0  0  0  0  0
   -4.2051   -8.3180    6.5970 C   0  0  0  0  0  0  0  0  0  0  0  0
   -2.9084   -7.9168    6.3554 C   0  0  0  0  0  0  0  0  0  0  0  0
   -2.6424   -6.6697    5.8505 C   0  0  0  0  0  0  0  0  0  0  0  0
   -1.3453   -6.2746    5.6106 O   0  0  0  0  0  0  0  0  0  0  0  0
   -3.6711   -5.8032    5.5796 C   0  0  0  0  0  0  0  0  0  0  0  0
   -4.9642   -6.2265    5.8297 C   0  0  0  0  0  0  0  0  0  0  0  0
   -0.8817   -6.4294    4.7158 H   0  0  0  0  0  0  0  0  0  0  0  0
   -7.9948   -5.3448   14.2216 C   0  0  0  0  0  0  0  0  0  0  0  0
   -8.4180   -4.0031   14.5971 C   0  0  0  0  0  0  0  0  0  0  0  0
   -7.4779   -3.0400   14.8987 C   0  0  0  0  0  0  0  0  0  0  0  0
   -7.8000   -1.7437   15.2632 C   0  0  0  0  0  0  0  0  0  0  0  0
   -9.1272   -1.3750   15.3343 C   0  0  0  0  0  0  0  0  0  0  0  0
   -9.4648   -0.0760   15.6999 O   0  0  0  0  0  0  0  0  0  0  0  0
  -10.0774   -2.3327   15.0337 C   0  0  0  0  0  0  0  0  0  0  0  0
   -9.7368   -3.6291   14.6698 C   0  0  0  0  0  0  0  0  0  0  0  0
   -9.5640    0.6365   14.9907 H   0  0  0  0  0  0  0  0  0  0  0  0
  -13.3851   -6.3871    9.3401 C   0  0  0  0  0  0  0  0  0  0  0  0
  -14.3138   -6.8462    8.2842 C   0  0  0  0  0  0  0  0  0  0  0  0
  -15.2229   -7.8518    8.5256 C   0  0  0  0  0  0  0  0  0  0  0  0
  -16.1012   -8.2790    7.5227 C   0  0  0  0  0  0  0  0  0  0  0  0
  -16.0747   -7.7061    6.2824 C   0  0  0  0  0  0  0  0  0  0  0  0
  -15.1605   -6.6934    6.0368 C   0  0  0  0  0  0  0  0  0  0  0  0
  -14.2836   -6.2664    7.0360 C   0  0  0  0  0  0  0  0  0  0  0  0
 37 38  1  0  0  0
 38 35  1  0  0  0
 35 36  1  0  0  0
 35  1  1  0  0  0
  1  2  1  0  0  0
  2  3  1  0  0  0
  3  4  2  0  0  0
  3  5  1  0  0  0
  5 39  1  0  0  0
 39 40  1  0  0  0
 40 41  2  0  0  0
 41 42  1  0  0  0
 42 43  2  0  0  0
 43 44  1  0  0  0
 43 45  1  0  0  0
 45 46  2  0  0  0
  5  6  1  0  0  0
  6  7  1  0  0  0
  7  8  2  0  0  0
  7  9  1  0  0  0
  9 10  1  0  0  0
 10 11  1  0  0  0
 11 12  1  0  0  0
 12 13  1  0  0  0
 13 14  1  0  0  0
 14 15  2  0  0  0
 14 16  1  0  0  0
 16 48  1  0  0  0
 48 49  1  0  0  0
 49 50  2  0  0  0
 50 51  1  0  0  0
 51 52  2  0  0  0
 52 53  1  0  0  0
 52 54  1  0  0  0
 54 55  2  0  0  0
 16 17  1  0  0  0
 17 18  1  0  0  0
 18 19  2  0  0  0
 18 20  1  0  0  0
 20 21  1  0  0  0
 21 22  1  0  0  0
 22 23  1  0  0  0
 23 24  1  0  0  0
 24 25  1  0  0  0
 25 26  2  0  0  0
 25 27  1  0  0  0
 27 57  1  0  0  0
 57 58  1  0  0  0
 58 59  2  0  0  0
 59 60  1  0  0  0
 60 61  2  0  0  0
 61 62  1  0  0  0
 62 63  2  0  0  0
 27 28  1  0  0  0
 28 29  1  0  0  0
 29 30  2  0  0  0
 29  1  1  0  0  0
 46 40  1  0  0  0
 13  9  1  0  0  0
 55 49  1  0  0  0
 24 20  1  0  0  0
 63 58  1  0  0  0
  2 31  1  0  0  0
 44 47  1  0  0  0
  6 32  1  0  0  0
 53 56  1  0  0  0
 17 33  1  0  0  0
 28 34  1  0  0  0
M  END
> <minimizedAffinity>
24.73807

> <CNNscore>
0.3724259734

> <CNNaffinity>
7.2637796402

> <CNN_VS>
2.7052202225

> <CNNaffinity_variance>
0.6837424040

$$$$
[H]Oc1c([H])c([H])c(C([H])([H])[C@@]2([H])C(=O)N3C([H])([H])C([H])([H])C([H])([H])[C@@]3([H])C(=O)N([H])[C@@]([H])(C([H])([H])c3c([H])c([H])c(O[H])c([H])c3[H])C(=O)N([H])[C@@]([H])([C@@]([H])(C([H])([H])[H])C([H])([H])C([H])([H])[H])C(=O)N([H])[C@@]([H])(C([H])([H])c3c([H])c([H])c([H])c([H])c3[H])C(=O)N3C([H])([H])C([H])([H])C([H])([H])[C@@]3([H])C(=O)N2[H])c([H])c1[H]


 63 68  0  0  0  0  0  0  0  0999 V2000
   -8.6535   -7.5815    8.0503 C   0  0  0  0  0  0  0  0  0  0  0  0
   -8.5816   -7.2273    6.6233 N   0  0  0  0  0  0  0  0  0  0  0  0
   -9.2505   -7.8789    5.5894 C   0  0  0  0  0  0  0  0  0  0  0  0
   -9.1878   -7.3530    4.4375 O   0  0  0  0  0  0  0  0  0  0  0  0
  -10.0256   -9.1339    5.7351 C   0  0  0  0  0  0  0  0  0  0  0  0
  -10.8560   -9.3338    4.5707 N   0  0  0  0  0  0  0  0  0  0  0  0
  -12.1527   -9.8880    4.5238 C   0  0  0  0  0  0  0  0  0  0  0  0
  -12.3777  -10.9239    3.7882 O   0  0  0  0  0  0  0  0  0  0  0  0
  -13.3407   -9.3738    5.2701 C   0  0  0  0  0  0  0  0  0  0  0  0
  -14.5443  -10.2442    4.9184 C   0  0  0  0  0  0  0  0  0  0  0  0
  -14.8231   -9.7938    3.4944 C   0  0  0  0  0  0  0  0  0  0  0  0
  -14.0378   -8.4941    3.2913 C   0  0  0  0  0  0  0  0  0  0  0  0
  -13.7874   -8.1029    4.6829 N   0  0  0  0  0  0  0  0  0  0  0  0
  -13.9007   -6.9092    5.4113 C   0  0  0  0  0  0  0  0  0  0  0  0
  -13.2817   -5.8764    4.9731 O   0  0  0  0  0  0  0  0  0  0  0  0
  -14.6859   -6.7161    6.6663 C   0  0  0  0  0  0  0  0  0  0  0  0
  -13.9822   -5.8695    7.5771 N   0  0  0  0  0  0  0  0  0  0  0  0
  -14.0853   -5.9171    8.9981 C   0  0  0  0  0  0  0  0  0  0  0  0
  -13.8087   -4.8331    9.6246 O   0  0  0  0  0  0  0  0  0  0  0  0
  -14.4687   -7.0659    9.7569 C   0  0  0  0  0  0  0  0  0  0  0  0
  -15.1302   -6.7236   11.1005 C   0  0  0  0  0  0  0  0  0  0  0  0
  -15.1679   -8.0868   11.7560 C   0  0  0  0  0  0  0  0  0  0  0  0
  -14.4361   -9.0130   10.7999 C   0  0  0  0  0  0  0  0  0  0  0  0
  -13.5042   -8.0493   10.1558 N   0  0  0  0  0  0  0  0  0  0  0  0
  -12.1234   -8.1449    9.9903 C   0  0  0  0  0  0  0  0  0  0  0  0
  -11.7261   -9.1830    9.2990 O   0  0  0  0  0  0  0  0  0  0  0  0
  -10.9875   -7.3180   10.4351 C   0  0  0  0  0  0  0  0  0  0  0  0
  -10.4493   -6.3955    9.4941 N   0  0  0  0  0  0  0  0  0  0  0  0
   -9.2436   -6.4401    8.7695 C   0  0  0  0  0  0  0  0  0  0  0  0
   -8.5526   -5.3596    8.7126 O   0  0  0  0  0  0  0  0  0  0  0  0
   -7.9506   -6.3930    6.4237 H   0  0  0  0  0  0  0  0  0  0  0  0
  -10.4312   -9.0353    3.6417 H   0  0  0  0  0  0  0  0  0  0  0  0
  -13.3284   -5.1444    7.1708 H   0  0  0  0  0  0  0  0  0  0  0  0
  -11.0581   -5.5294    9.3257 H   0  0  0  0  0  0  0  0  0  0  0  0
   -7.2608   -7.9388    8.4675 C   0  0  0  0  0  0  0  0  0  0  0  0
   -6.4315   -8.6457    7.4565 C   0  0  0  0  0  0  0  0  0  0  0  0
   -6.2808   -6.9386   10.5316 C   0  0  0  0  0  0  0  0  0  0  0  0
   -6.4770   -6.7986    9.0572 C   0  0  0  0  0  0  0  0  0  0  0  0
   -9.0295  -10.3114    5.7378 C   0  0  0  0  0  0  0  0  0  0  0  0
   -8.5097  -10.6100    4.4001 C   0  0  0  0  0  0  0  0  0  0  0  0
   -7.5595   -9.8213    3.7914 C   0  0  0  0  0  0  0  0  0  0  0  0
   -7.0909  -10.1373    2.5339 C   0  0  0  0  0  0  0  0  0  0  0  0
   -7.5604  -11.2398    1.8669 C   0  0  0  0  0  0  0  0  0  0  0  0
   -7.0883  -11.5510    0.6113 O   0  0  0  0  0  0  0  0  0  0  0  0
   -8.5078  -12.0441    2.4482 C   0  0  0  0  0  0  0  0  0  0  0  0
   -8.9639  -11.7081    3.7103 C   0  0  0  0  0  0  0  0  0  0  0  0
   -6.2787  -12.1530    0.4638 H   0  0  0  0  0  0  0  0  0  0  0  0
  -16.0054   -6.0937    6.1846 C   0  0  0  0  0  0  0  0  0  0  0  0
  -17.0931   -7.0480    6.0217 C   0  0  0  0  0  0  0  0  0  0  0  0
  -17.5552   -7.3619    4.7606 C   0  0  0  0  0  0  0  0  0  0  0  0
  -18.5833   -8.2583    4.5233 C   0  0  0  0  0  0  0  0  0  0  0  0
  -19.1917   -8.8823    5.5924 C   0  0  0  0  0  0  0  0  0  0  0  0
  -20.2264   -9.7846    5.3682 O   0  0  0  0  0  0  0  0  0  0  0  0
  -18.7360   -8.5749    6.8606 C   0  0  0  0  0  0  0  0  0  0  0  0
  -17.7032   -7.6729    7.0808 C   0  0  0  0  0  0  0  0  0  0  0  0
  -20.0196  -10.7645    5.2358 H   0  0  0  0  0  0  0  0  0  0  0  0
  -11.2835   -6.6344   11.7866 C   0  0  0  0  0  0  0  0  0  0  0  0
  -11.8435   -5.2778   11.6023 C   0  0  0  0  0  0  0  0  0  0  0  0
  -12.9321   -4.8534   12.3308 C   0  0  0  0  0  0  0  0  0  0  0  0
  -13.4548   -3.5669   12.1536 C   0  0  0  0  0  0  0  0  0  0  0  0
  -12.8948   -2.7047   11.2535 C   0  0  0  0  0  0  0  0  0  0  0  0
  -11.7986   -3.1294   10.5188 C   0  0  0  0  0  0  0  0  0  0  0  0
  -11.2763   -4.4124   10.6942 C   0  0  0  0  0  0  0  0  0  0  0  0
 37 38  1  0  0  0
 38 35  1  0  0  0
 35 36  1  0  0  0
 35  1  1  0  0  0
  1  2  1  0  0  0
  2  3  1  0  0  0
  3  4  2  0  0  0
  3  5  1  0  0  0
  5 39  1  0  0  0
 39 40  1  0  0  0
 40 41  2  0  0  0
 41 42  1  0  0  0
 42 43  2  0  0  0
 43 44  1  0  0  0
 43 45  1  0  0  0
 45 46  2  0  0  0
  5  6  1  0  0  0
  6  7  1  0  0  0
  7  8  2  0  0  0
  7  9  1  0  0  0
  9 10  1  0  0  0
 10 11  1  0  0  0
 11 12  1  0  0  0
 12 13  1  0  0  0
 13 14  1  0  0  0
 14 15  2  0  0  0
 14 16  1  0  0  0
 16 48  1  0  0  0
 48 49  1  0  0  0
 49 50  2  0  0  0
 50 51  1  0  0  0
 51 52  2  0  0  0
 52 53  1  0  0  0
 52 54  1  0  0  0
 54 55  2  0  0  0
 16 17  1  0  0  0
 17 18  1  0  0  0
 18 19  2  0  0  0
 18 20  1  0  0  0
 20 21  1  0  0  0
 21 22  1  0  0  0
 22 23  1  0  0  0
 23 24  1  0  0  0
 24 25  1  0  0  0
 25 26  2  0  0  0
 25 27  1  0  0  0
 27 57  1  0  0  0
 57 58  1  0  0  0
 58 59  2  0  0  0
 59 60  1  0  0  0
 60 61  2  0  0  0
 61 62  1  0  0  0
 62 63  2  0  0  0
 27 28  1  0  0  0
 28 29  1  0  0  0
 29 30  2  0  0  0
 29  1  1  0  0  0
 46 40  1  0  0  0
 13  9  1  0  0  0
 55 49  1  0  0  0
 24 20  1  0  0  0
 63 58  1  0  0  0
  2 31  1  0  0  0
 44 47  1  0  0  0
  6 32  1  0  0  0
 53 56  1  0  0  0
 17 33  1  0  0  0
 28 34  1  0  0  0
M  END
> <minimizedAffinity>
59.59438

> <CNNscore>
0.3579517603

> <CNNaffinity>
7.4687843323

> <CNN_VS>
2.6734645367

> <CNNaffinity_variance>
1.1173945665

$$$$
[H]Oc1c([H])c([H])c(C([H])([H])[C@@]2([H])C(=O)N3C([H])([H])C([H])([H])C([H])([H])[C@@]3([H])C(=O)N([H])[C@@]([H])(C([H])([H])c3c([H])c([H])c(O[H])c([H])c3[H])C(=O)N([H])[C@@]([H])([C@@]([H])(C([H])([H])[H])C([H])([H])C([H])([H])[H])C(=O)N([H])[C@@]([H])(C([H])([H])c3c([H])c([H])c([H])c([H])c3[H])C(=O)N3C([H])([H])C([H])([H])C([H])([H])[C@@]3([H])C(=O)N2[H])c([H])c1[H]


 63 68  0  0  0  0  0  0  0  0999 V2000
   -6.3939   -6.0149   12.2831 C   0  0  0  0  0  0  0  0  0  0  0  0
   -6.8492   -7.3383   11.8266 N   0  0  0  0  0  0  0  0  0  0  0  0
   -7.4704   -7.6089   10.6094 C   0  0  0  0  0  0  0  0  0  0  0  0
   -7.6671   -8.8269   10.3180 O   0  0  0  0  0  0  0  0  0  0  0  0
   -7.9159   -6.5844    9.6351 C   0  0  0  0  0  0  0  0  0  0  0  0
   -8.1913   -7.2074    8.3618 N   0  0  0  0  0  0  0  0  0  0  0  0
   -7.9584   -6.6758    7.0758 C   0  0  0  0  0  0  0  0  0  0  0  0
   -8.9403   -6.5559    6.2474 O   0  0  0  0  0  0  0  0  0  0  0  0
   -6.6341   -6.2201    6.5549 C   0  0  0  0  0  0  0  0  0  0  0  0
   -6.8206   -5.7411    5.1176 C   0  0  0  0  0  0  0  0  0  0  0  0
   -7.0279   -7.0615    4.3953 C   0  0  0  0  0  0  0  0  0  0  0  0
   -6.5823   -8.1593    5.3666 C   0  0  0  0  0  0  0  0  0  0  0  0
   -5.7685   -7.3815    6.3074 N   0  0  0  0  0  0  0  0  0  0  0  0
   -4.5051   -7.5466    6.8946 C   0  0  0  0  0  0  0  0  0  0  0  0
   -4.2794   -8.6298    7.5410 O   0  0  0  0  0  0  0  0  0  0  0  0
   -3.3756   -6.5719    6.8394 C   0  0  0  0  0  0  0  0  0  0  0  0
   -2.6894   -6.5226    8.0916 N   0  0  0  0  0  0  0  0  0  0  0  0
   -1.9998   -5.3890    8.6125 C   0  0  0  0  0  0  0  0  0  0  0  0
   -1.0608   -5.6309    9.4514 O   0  0  0  0  0  0  0  0  0  0  0  0
   -2.2767   -4.0292    8.2706 C   0  0  0  0  0  0  0  0  0  0  0  0
   -1.0601   -3.1006    8.4042 C   0  0  0  0  0  0  0  0  0  0  0  0
   -1.7153   -1.7462    8.2439 C   0  0  0  0  0  0  0  0  0  0  0  0
   -3.2057   -2.0279    8.1615 C   0  0  0  0  0  0  0  0  0  0  0  0
   -3.2855   -3.2794    8.9611 N   0  0  0  0  0  0  0  0  0  0  0  0
   -4.1303   -3.5843   10.0271 C   0  0  0  0  0  0  0  0  0  0  0  0
   -5.4073   -3.5364    9.7437 O   0  0  0  0  0  0  0  0  0  0  0  0
   -3.8969   -3.9535   11.4346 C   0  0  0  0  0  0  0  0  0  0  0  0
   -3.9477   -5.3386   11.7587 N   0  0  0  0  0  0  0  0  0  0  0  0
   -4.9317   -6.0724   12.4471 C   0  0  0  0  0  0  0  0  0  0  0  0
   -4.5276   -6.9061   13.3359 O   0  0  0  0  0  0  0  0  0  0  0  0
   -6.6600   -8.1178   12.5271 H   0  0  0  0  0  0  0  0  0  0  0  0
   -8.6296   -8.1763    8.4050 H   0  0  0  0  0  0  0  0  0  0  0  0
   -2.6883   -7.3962    8.6875 H   0  0  0  0  0  0  0  0  0  0  0  0
   -3.0945   -5.9005   11.4341 H   0  0  0  0  0  0  0  0  0  0  0  0
   -7.1582   -5.7138   13.5346 C   0  0  0  0  0  0  0  0  0  0  0  0
   -6.8756   -4.4049   14.1800 C   0  0  0  0  0  0  0  0  0  0  0  0
   -9.4201   -4.9155   14.2191 C   0  0  0  0  0  0  0  0  0  0  0  0
   -8.6448   -5.9095   13.4171 C   0  0  0  0  0  0  0  0  0  0  0  0
   -9.2681   -6.0224   10.1196 C   0  0  0  0  0  0  0  0  0  0  0  0
  -10.4081   -6.6192    9.4175 C   0  0  0  0  0  0  0  0  0  0  0  0
  -10.3145   -7.8280    8.7653 C   0  0  0  0  0  0  0  0  0  0  0  0
  -11.4105   -8.3600    8.1200 C   0  0  0  0  0  0  0  0  0  0  0  0
  -12.6115   -7.6978    8.1151 C   0  0  0  0  0  0  0  0  0  0  0  0
  -13.7031   -8.2344    7.4695 O   0  0  0  0  0  0  0  0  0  0  0  0
  -12.7346   -6.4911    8.7562 C   0  0  0  0  0  0  0  0  0  0  0  0
  -11.6221   -5.9759    9.3970 C   0  0  0  0  0  0  0  0  0  0  0  0
  -14.3651   -8.8546    7.9349 H   0  0  0  0  0  0  0  0  0  0  0  0
   -2.4873   -7.0996    5.7023 C   0  0  0  0  0  0  0  0  0  0  0  0
   -2.1069   -8.4984    5.8398 C   0  0  0  0  0  0  0  0  0  0  0  0
   -2.2957   -9.3732    4.7902 C   0  0  0  0  0  0  0  0  0  0  0  0
   -1.9600  -10.7153    4.8427 C   0  0  0  0  0  0  0  0  0  0  0  0
   -1.4051  -11.2253    5.9979 C   0  0  0  0  0  0  0  0  0  0  0  0
   -1.0637  -12.5721    6.0644 O   0  0  0  0  0  0  0  0  0  0  0  0
   -1.2115  -10.3569    7.0557 C   0  0  0  0  0  0  0  0  0  0  0  0
   -1.5542   -9.0127    6.9862 C   0  0  0  0  0  0  0  0  0  0  0  0
   -0.1398  -12.8713    5.7864 H   0  0  0  0  0  0  0  0  0  0  0  0
   -2.6149   -3.2938   11.9849 C   0  0  0  0  0  0  0  0  0  0  0  0
   -2.9087   -2.0184   12.6740 C   0  0  0  0  0  0  0  0  0  0  0  0
   -3.2521   -1.9938   14.0073 C   0  0  0  0  0  0  0  0  0  0  0  0
   -3.5256   -0.7828   14.6540 C   0  0  0  0  0  0  0  0  0  0  0  0
   -3.4569    0.4011   13.9752 C   0  0  0  0  0  0  0  0  0  0  0  0
   -3.1113    0.3792   12.6329 C   0  0  0  0  0  0  0  0  0  0  0  0
   -2.8385   -0.8279   11.9863 C   0  0  0  0  0  0  0  0  0  0  0  0
 37 38  1  0  0  0
 38 35  1  0  0  0
 35 36  1  0  0  0
 35  1  1  0  0  0
  1  2  1  0  0  0
  2  3  1  0  0  0
  3  4  2  0  0  0
  3  5  1  0  0  0
  5 39  1  0  0  0
 39 40  1  0  0  0
 40 41  2  0  0  0
 41 42  1  0  0  0
 42 43  2  0  0  0
 43 44  1  0  0  0
 43 45  1  0  0  0
 45 46  2  0  0  0
  5  6  1  0  0  0
  6  7  1  0  0  0
  7  8  2  0  0  0
  7  9  1  0  0  0
  9 10  1  0  0  0
 10 11  1  0  0  0
 11 12  1  0  0  0
 12 13  1  0  0  0
 13 14  1  0  0  0
 14 15  2  0  0  0
 14 16  1  0  0  0
 16 48  1  0  0  0
 48 49  1  0  0  0
 49 50  2  0  0  0
 50 51  1  0  0  0
 51 52  2  0  0  0
 52 53  1  0  0  0
 52 54  1  0  0  0
 54 55  2  0  0  0
 16 17  1  0  0  0
 17 18  1  0  0  0
 18 19  2  0  0  0
 18 20  1  0  0  0
 20 21  1  0  0  0
 21 22  1  0  0  0
 22 23  1  0  0  0
 23 24  1  0  0  0
 24 25  1  0  0  0
 25 26  2  0  0  0
 25 27  1  0  0  0
 27 57  1  0  0  0
 57 58  1  0  0  0
 58 59  2  0  0  0
 59 60  1  0  0  0
 60 61  2  0  0  0
 61 62  1  0  0  0
 62 63  2  0  0  0
 27 28  1  0  0  0
 28 29  1  0  0  0
 29 30  2  0  0  0
 29  1  1  0  0  0
 46 40  1  0  0  0
 13  9  1  0  0  0
 55 49  1  0  0  0
 24 20  1  0  0  0
 63 58  1  0  0  0
  2 31  1  0  0  0
 44 47  1  0  0  0
  6 32  1  0  0  0
 53 56  1  0  0  0
 17 33  1  0  0  0
 28 34  1  0  0  0
M  END
> <minimizedAffinity>
10.13924

> <CNNscore>
0.3486902416

> <CNNaffinity>
7.0851111412

> <CNN_VS>
2.4705090523

> <CNNaffinity_variance>
0.3221825957

$$$$
[H]Oc1c([H])c([H])c(C([H])([H])[C@@]2([H])C(=O)N3C([H])([H])C([H])([H])C([H])([H])[C@@]3([H])C(=O)N([H])[C@@]([H])(C([H])([H])c3c([H])c([H])c(O[H])c([H])c3[H])C(=O)N([H])[C@@]([H])([C@@]([H])(C([H])([H])[H])C([H])([H])C([H])([H])[H])C(=O)N([H])[C@@]([H])(C([H])([H])c3c([H])c([H])c([H])c([H])c3[H])C(=O)N3C([H])([H])C([H])([H])C([H])([H])[C@@]3([H])C(=O)N2[H])c([H])c1[H]


 63 68  0  0  0  0  0  0  0  0999 V2000
   -2.6985   -1.8678    8.1300 C   0  0  0  0  0  0  0  0  0  0  0  0
   -3.5313   -2.1384    6.9467 N   0  0  0  0  0  0  0  0  0  0  0  0
   -3.5211   -3.3124    6.1968 C   0  0  0  0  0  0  0  0  0  0  0  0
   -4.4049   -3.4314    5.2957 O   0  0  0  0  0  0  0  0  0  0  0  0
   -2.5593   -4.4264    6.3732 C   0  0  0  0  0  0  0  0  0  0  0  0
   -3.0419   -5.6023    5.6878 N   0  0  0  0  0  0  0  0  0  0  0  0
   -2.9134   -6.9476    6.0932 C   0  0  0  0  0  0  0  0  0  0  0  0
   -2.3315   -7.7960    5.3143 O   0  0  0  0  0  0  0  0  0  0  0  0
   -3.4049   -7.5122    7.3864 C   0  0  0  0  0  0  0  0  0  0  0  0
   -3.0859   -9.0047    7.4128 C   0  0  0  0  0  0  0  0  0  0  0  0
   -4.0963   -9.5360    6.4103 C   0  0  0  0  0  0  0  0  0  0  0  0
   -5.1166   -8.4146    6.1902 C   0  0  0  0  0  0  0  0  0  0  0  0
   -4.8726   -7.5835    7.3743 N   0  0  0  0  0  0  0  0  0  0  0  0
   -5.6873   -6.9643    8.3341 C   0  0  0  0  0  0  0  0  0  0  0  0
   -6.6038   -6.1691    7.9220 O   0  0  0  0  0  0  0  0  0  0  0  0
   -5.5949   -7.1433    9.8133 C   0  0  0  0  0  0  0  0  0  0  0  0
   -5.8153   -5.9026   10.4869 N   0  0  0  0  0  0  0  0  0  0  0  0
   -5.2651   -5.5387   11.7506 C   0  0  0  0  0  0  0  0  0  0  0  0
   -5.9170   -4.6633   12.4235 O   0  0  0  0  0  0  0  0  0  0  0  0
   -4.0622   -6.0721   12.3083 C   0  0  0  0  0  0  0  0  0  0  0  0
   -4.0358   -6.0566   13.8442 C   0  0  0  0  0  0  0  0  0  0  0  0
   -2.5895   -6.4138   14.1089 C   0  0  0  0  0  0  0  0  0  0  0  0
   -1.9331   -6.4730   12.7402 C   0  0  0  0  0  0  0  0  0  0  0  0
   -2.7824   -5.5059   11.9949 N   0  0  0  0  0  0  0  0  0  0  0  0
   -2.3921   -4.4175   11.2165 C   0  0  0  0  0  0  0  0  0  0  0  0
   -1.6258   -4.7195   10.1992 O   0  0  0  0  0  0  0  0  0  0  0  0
   -2.6555   -2.9693   11.2905 C   0  0  0  0  0  0  0  0  0  0  0  0
   -3.6851   -2.4539   10.4536 N   0  0  0  0  0  0  0  0  0  0  0  0
   -3.5973   -1.6803    9.2812 C   0  0  0  0  0  0  0  0  0  0  0  0
   -4.3932   -0.6782    9.1782 O   0  0  0  0  0  0  0  0  0  0  0  0
   -4.1785   -1.3328    6.6892 H   0  0  0  0  0  0  0  0  0  0  0  0
   -3.5436   -5.4281    4.7656 H   0  0  0  0  0  0  0  0  0  0  0  0
   -6.4375   -5.1896   10.0150 H   0  0  0  0  0  0  0  0  0  0  0  0
   -4.6790   -2.6861   10.7809 H   0  0  0  0  0  0  0  0  0  0  0  0
   -1.8533   -0.6801    7.7890 C   0  0  0  0  0  0  0  0  0  0  0  0
   -1.0612   -0.7739    6.5346 C   0  0  0  0  0  0  0  0  0  0  0  0
   -2.0432    1.5594    8.8707 C   0  0  0  0  0  0  0  0  0  0  0  0
   -2.5833    0.6343    7.8293 C   0  0  0  0  0  0  0  0  0  0  0  0
   -1.2482   -4.0416    5.6577 C   0  0  0  0  0  0  0  0  0  0  0  0
   -1.4364   -3.8230    4.2204 C   0  0  0  0  0  0  0  0  0  0  0  0
   -1.3190   -2.5762    3.6484 C   0  0  0  0  0  0  0  0  0  0  0  0
   -1.4981   -2.4109    2.2915 C   0  0  0  0  0  0  0  0  0  0  0  0
   -1.7957   -3.4813    1.4875 C   0  0  0  0  0  0  0  0  0  0  0  0
   -1.9728   -3.3103    0.1327 O   0  0  0  0  0  0  0  0  0  0  0  0
   -1.9194   -4.7356    2.0295 C   0  0  0  0  0  0  0  0  0  0  0  0
   -1.7358   -4.8785    3.3932 C   0  0  0  0  0  0  0  0  0  0  0  0
   -1.2044   -3.3802   -0.5338 H   0  0  0  0  0  0  0  0  0  0  0  0
   -6.6802   -8.1843   10.1282 C   0  0  0  0  0  0  0  0  0  0  0  0
   -7.3850   -8.6871    8.9574 C   0  0  0  0  0  0  0  0  0  0  0  0
   -8.3370   -7.9070    8.3349 C   0  0  0  0  0  0  0  0  0  0  0  0
   -9.0486   -8.3129    7.2188 C   0  0  0  0  0  0  0  0  0  0  0  0
   -8.8073   -9.5614    6.6845 C   0  0  0  0  0  0  0  0  0  0  0  0
   -9.5156   -9.9820    5.5637 O   0  0  0  0  0  0  0  0  0  0  0  0
   -7.8548  -10.3511    7.3007 C   0  0  0  0  0  0  0  0  0  0  0  0
   -7.1499   -9.9282    8.4202 C   0  0  0  0  0  0  0  0  0  0  0  0
   -9.1542   -9.7923    4.6396 H   0  0  0  0  0  0  0  0  0  0  0  0
   -2.8315   -2.5027   12.7509 C   0  0  0  0  0  0  0  0  0  0  0  0
   -2.4130   -1.0953   12.9295 C   0  0  0  0  0  0  0  0  0  0  0  0
   -2.8220   -0.3656   14.0232 C   0  0  0  0  0  0  0  0  0  0  0  0
   -2.4193    0.9650   14.1876 C   0  0  0  0  0  0  0  0  0  0  0  0
   -1.6108    1.5677   13.2656 C   0  0  0  0  0  0  0  0  0  0  0  0
   -1.1974    0.8353   12.1635 C   0  0  0  0  0  0  0  0  0  0  0  0
   -1.5984   -0.4919   11.9980 C   0  0  0  0  0  0  0  0  0  0  0  0
 37 38  1  0  0  0
 38 35  1  0  0  0
 35 36  1  0  0  0
 35  1  1  0  0  0
  1  2  1  0  0  0
  2  3  1  0  0  0
  3  4  2  0  0  0
  3  5  1  0  0  0
  5 39  1  0  0  0
 39 40  1  0  0  0
 40 41  2  0  0  0
 41 42  1  0  0  0
 42 43  2  0  0  0
 43 44  1  0  0  0
 43 45  1  0  0  0
 45 46  2  0  0  0
  5  6  1  0  0  0
  6  7  1  0  0  0
  7  8  2  0  0  0
  7  9  1  0  0  0
  9 10  1  0  0  0
 10 11  1  0  0  0
 11 12  1  0  0  0
 12 13  1  0  0  0
 13 14  1  0  0  0
 14 15  2  0  0  0
 14 16  1  0  0  0
 16 48  1  0  0  0
 48 49  1  0  0  0
 49 50  2  0  0  0
 50 51  1  0  0  0
 51 52  2  0  0  0
 52 53  1  0  0  0
 52 54  1  0  0  0
 54 55  2  0  0  0
 16 17  1  0  0  0
 17 18  1  0  0  0
 18 19  2  0  0  0
 18 20  1  0  0  0
 20 21  1  0  0  0
 21 22  1  0  0  0
 22 23  1  0  0  0
 23 24  1  0  0  0
 24 25  1  0  0  0
 25 26  2  0  0  0
 25 27  1  0  0  0
 27 57  1  0  0  0
 57 58  1  0  0  0
 58 59  2  0  0  0
 59 60  1  0  0  0
 60 61  2  0  0  0
 61 62  1  0  0  0
 62 63  2  0  0  0
 27 28  1  0  0  0
 28 29  1  0  0  0
 29 30  2  0  0  0
 29  1  1  0  0  0
 46 40  1  0  0  0
 13  9  1  0  0  0
 55 49  1  0  0  0
 24 20  1  0  0  0
 63 58  1  0  0  0
  2 31  1  0  0  0
 44 47  1  0  0  0
  6 32  1  0  0  0
 53 56  1  0  0  0
 17 33  1  0  0  0
 28 34  1  0  0  0
M  END
> <minimizedAffinity>
0.59828

> <CNNscore>
0.3326281905

> <CNNaffinity>
6.7731566429

> <CNN_VS>
2.2529428005

> <CNNaffinity_variance>
0.7778002024

$$$$
[H]Oc1c([H])c([H])c(C([H])([H])[C@@]2([H])C(=O)N3C([H])([H])C([H])([H])C([H])([H])[C@@]3([H])C(=O)N([H])[C@@]([H])(C([H])([H])c3c([H])c([H])c(O[H])c([H])c3[H])C(=O)N([H])[C@@]([H])([C@@]([H])(C([H])([H])[H])C([H])([H])C([H])([H])[H])C(=O)N([H])[C@@]([H])(C([H])([H])c3c([H])c([H])c([H])c([H])c3[H])C(=O)N3C([H])([H])C([H])([H])C([H])([H])[C@@]3([H])C(=O)N2[H])c([H])c1[H]


 63 68  0  0  0  0  0  0  0  0999 V2000
   -2.7956   -3.9771    2.8936 C   0  0  0  0  0  0  0  0  0  0  0  0
   -1.8934   -2.8147    2.9356 N   0  0  0  0  0  0  0  0  0  0  0  0
   -2.2056   -1.5618    3.4587 C   0  0  0  0  0  0  0  0  0  0  0  0
   -1.2628   -0.7186    3.5432 O   0  0  0  0  0  0  0  0  0  0  0  0
   -3.5504   -1.1439    3.9213 C   0  0  0  0  0  0  0  0  0  0  0  0
   -3.4440    0.0622    4.7082 N   0  0  0  0  0  0  0  0  0  0  0  0
   -4.2022    0.4184    5.8435 C   0  0  0  0  0  0  0  0  0  0  0  0
   -4.8787    1.5171    5.8400 O   0  0  0  0  0  0  0  0  0  0  0  0
   -4.3038   -0.3813    7.1016 C   0  0  0  0  0  0  0  0  0  0  0  0
   -5.2010    0.3719    8.0802 C   0  0  0  0  0  0  0  0  0  0  0  0
   -4.2911    1.5192    8.4854 C   0  0  0  0  0  0  0  0  0  0  0  0
   -2.8814    1.1355    8.0245 C   0  0  0  0  0  0  0  0  0  0  0  0
   -3.0357   -0.3119    7.8409 N   0  0  0  0  0  0  0  0  0  0  0  0
   -2.2900   -1.4415    8.2101 C   0  0  0  0  0  0  0  0  0  0  0  0
   -1.0600   -1.4925    7.8545 O   0  0  0  0  0  0  0  0  0  0  0  0
   -2.7927   -2.6100    8.9916 C   0  0  0  0  0  0  0  0  0  0  0  0
   -2.2499   -3.8295    8.4820 N   0  0  0  0  0  0  0  0  0  0  0  0
   -2.8838   -5.1050    8.5410 C   0  0  0  0  0  0  0  0  0  0  0  0
   -2.1096   -6.1265    8.5076 O   0  0  0  0  0  0  0  0  0  0  0  0
   -4.2938   -5.3193    8.6337 C   0  0  0  0  0  0  0  0  0  0  0  0
   -4.6722   -6.6368    9.3273 C   0  0  0  0  0  0  0  0  0  0  0  0
   -6.1558   -6.6970    9.0367 C   0  0  0  0  0  0  0  0  0  0  0  0
   -6.4368   -5.5094    8.1322 C   0  0  0  0  0  0  0  0  0  0  0  0
   -5.1173   -5.3673    7.4607 N   0  0  0  0  0  0  0  0  0  0  0  0
   -4.8337   -5.2789    6.0988 C   0  0  0  0  0  0  0  0  0  0  0  0
   -5.3936   -4.2653    5.4883 O   0  0  0  0  0  0  0  0  0  0  0  0
   -4.0272   -6.0953    5.1741 C   0  0  0  0  0  0  0  0  0  0  0  0
   -2.7118   -5.6362    4.8826 N   0  0  0  0  0  0  0  0  0  0  0  0
   -2.1973   -5.0429    3.7148 C   0  0  0  0  0  0  0  0  0  0  0  0
   -1.0618   -5.4673    3.2921 O   0  0  0  0  0  0  0  0  0  0  0  0
   -0.9329   -3.0069    2.5177 H   0  0  0  0  0  0  0  0  0  0  0  0
   -2.7133    0.7645    4.3834 H   0  0  0  0  0  0  0  0  0  0  0  0
   -1.2989   -3.7909    8.0213 H   0  0  0  0  0  0  0  0  0  0  0  0
   -2.0071   -5.7790    5.6777 H   0  0  0  0  0  0  0  0  0  0  0  0
   -2.9756   -4.3201    1.4475 C   0  0  0  0  0  0  0  0  0  0  0  0
   -4.1430   -3.7032    0.7647 C   0  0  0  0  0  0  0  0  0  0  0  0
   -2.0460   -3.5703   -0.7423 C   0  0  0  0  0  0  0  0  0  0  0  0
   -1.7421   -4.1354    0.6069 C   0  0  0  0  0  0  0  0  0  0  0  0
   -4.3810   -0.7548    2.6814 C   0  0  0  0  0  0  0  0  0  0  0  0
   -3.5685   -0.1249    1.6365 C   0  0  0  0  0  0  0  0  0  0  0  0
   -2.8176    1.0042    1.8745 C   0  0  0  0  0  0  0  0  0  0  0  0
   -2.0616    1.5652    0.8673 C   0  0  0  0  0  0  0  0  0  0  0  0
   -2.0428    1.0115   -0.3872 C   0  0  0  0  0  0  0  0  0  0  0  0
   -1.2853    1.5758   -1.3892 O   0  0  0  0  0  0  0  0  0  0  0  0
   -2.7815   -0.1134   -0.6541 C   0  0  0  0  0  0  0  0  0  0  0  0
   -3.5328   -0.6594    0.3712 C   0  0  0  0  0  0  0  0  0  0  0  0
   -0.3166    1.3081   -1.5610 H   0  0  0  0  0  0  0  0  0  0  0  0
   -2.3350   -2.3178   10.4288 C   0  0  0  0  0  0  0  0  0  0  0  0
   -2.5639   -3.4105   11.3638 C   0  0  0  0  0  0  0  0  0  0  0  0
   -3.8490   -3.7417   11.7396 C   0  0  0  0  0  0  0  0  0  0  0  0
   -4.1484   -4.7660   12.6217 C   0  0  0  0  0  0  0  0  0  0  0  0
   -3.1203   -5.5076   13.1653 C   0  0  0  0  0  0  0  0  0  0  0  0
   -3.4071   -6.5391   14.0534 O   0  0  0  0  0  0  0  0  0  0  0  0
   -1.8286   -5.1839   12.7950 C   0  0  0  0  0  0  0  0  0  0  0  0
   -1.5459   -4.1528   11.9085 C   0  0  0  0  0  0  0  0  0  0  0  0
   -3.5628   -7.4744   13.7049 H   0  0  0  0  0  0  0  0  0  0  0  0
   -4.0250   -7.5813    5.5904 C   0  0  0  0  0  0  0  0  0  0  0  0
   -5.3770   -8.0443    5.9721 C   0  0  0  0  0  0  0  0  0  0  0  0
   -5.5567   -8.9406    7.0019 C   0  0  0  0  0  0  0  0  0  0  0  0
   -6.8394   -9.3718    7.3601 C   0  0  0  0  0  0  0  0  0  0  0  0
   -7.9408   -8.9115    6.6951 C   0  0  0  0  0  0  0  0  0  0  0  0
   -7.7627   -8.0090    5.6580 C   0  0  0  0  0  0  0  0  0  0  0  0
   -6.4839   -7.5781    5.2993 C   0  0  0  0  0  0  0  0  0  0  0  0
 37 38  1  0  0  0
 38 35  1  0  0  0
 35 36  1  0  0  0
 35  1  1  0  0  0
  1  2  1  0  0  0
  2  3  1  0  0  0
  3  4  2  0  0  0
  3  5  1  0  0  0
  5 39  1  0  0  0
 39 40  1  0  0  0
 40 41  2  0  0  0
 41 42  1  0  0  0
 42 43  2  0  0  0
 43 44  1  0  0  0
 43 45  1  0  0  0
 45 46  2  0  0  0
  5  6  1  0  0  0
  6  7  1  0  0  0
  7  8  2  0  0  0
  7  9  1  0  0  0
  9 10  1  0  0  0
 10 11  1  0  0  0
 11 12  1  0  0  0
 12 13  1  0  0  0
 13 14  1  0  0  0
 14 15  2  0  0  0
 14 16  1  0  0  0
 16 48  1  0  0  0
 48 49  1  0  0  0
 49 50  2  0  0  0
 50 51  1  0  0  0
 51 52  2  0  0  0
 52 53  1  0  0  0
 52 54  1  0  0  0
 54 55  2  0  0  0
 16 17  1  0  0  0
 17 18  1  0  0  0
 18 19  2  0  0  0
 18 20  1  0  0  0
 20 21  1  0  0  0
 21 22  1  0  0  0
 22 23  1  0  0  0
 23 24  1  0  0  0
 24 25  1  0  0  0
 25 26  2  0  0  0
 25 27  1  0  0  0
 27 57  1  0  0  0
 57 58  1  0  0  0
 58 59  2  0  0  0
 59 60  1  0  0  0
 60 61  2  0  0  0
 61 62  1  0  0  0
 62 63  2  0  0  0
 27 28  1  0  0  0
 28 29  1  0  0  0
 29 30  2  0  0  0
 29  1  1  0  0  0
 46 40  1  0  0  0
 13  9  1  0  0  0
 55 49  1  0  0  0
 24 20  1  0  0  0
 63 58  1  0  0  0
  2 31  1  0  0  0
 44 47  1  0  0  0
  6 32  1  0  0  0
 53 56  1  0  0  0
 17 33  1  0  0  0
 28 34  1  0  0  0
M  END
> <minimizedAffinity>
1.89464

> <CNNscore>
0.3252846301

> <CNNaffinity>
6.4848299026

> <CNN_VS>
2.1094155312

> <CNNaffinity_variance>
0.4897623658

$$$$
[H]Oc1c([H])c([H])c(C([H])([H])[C@@]2([H])C(=O)N3C([H])([H])C([H])([H])C([H])([H])[C@@]3([H])C(=O)N([H])[C@@]([H])(C([H])([H])c3c([H])c([H])c(O[H])c([H])c3[H])C(=O)N([H])[C@@]([H])([C@@]([H])(C([H])([H])[H])C([H])([H])C([H])([H])[H])C(=O)N([H])[C@@]([H])(C([H])([H])c3c([H])c([H])c([H])c([H])c3[H])C(=O)N3C([H])([H])C([H])([H])C([H])([H])[C@@]3([H])C(=O)N2[H])c([H])c1[H]


 63 68  0  0  0  0  0  0  0  0999 V2000
  -10.7021   -9.2700    7.6252 C   0  0  0  0  0  0  0  0  0  0  0  0
   -9.5955  -10.1392    8.0577 N   0  0  0  0  0  0  0  0  0  0  0  0
   -8.2574   -9.7638    8.1552 C   0  0  0  0  0  0  0  0  0  0  0  0
   -7.4595  -10.5968    8.6812 O   0  0  0  0  0  0  0  0  0  0  0  0
   -7.7006   -8.4703    7.6926 C   0  0  0  0  0  0  0  0  0  0  0  0
   -6.3836   -8.2767    8.2522 N   0  0  0  0  0  0  0  0  0  0  0  0
   -5.8004   -7.0652    8.6800 C   0  0  0  0  0  0  0  0  0  0  0  0
   -4.6869   -6.6740    8.1585 O   0  0  0  0  0  0  0  0  0  0  0  0
   -6.3653   -6.1529    9.7198 C   0  0  0  0  0  0  0  0  0  0  0  0
   -5.4115   -4.9742    9.8961 C   0  0  0  0  0  0  0  0  0  0  0  0
   -4.2576   -5.6401   10.6263 C   0  0  0  0  0  0  0  0  0  0  0  0
   -4.7837   -6.9899   11.1246 C   0  0  0  0  0  0  0  0  0  0  0  0
   -6.2317   -6.7668   11.0483 N   0  0  0  0  0  0  0  0  0  0  0  0
   -7.3160   -7.0010   11.9072 C   0  0  0  0  0  0  0  0  0  0  0  0
   -7.4878   -8.1919   12.3477 O   0  0  0  0  0  0  0  0  0  0  0  0
   -8.3062   -5.9843   12.3706 C   0  0  0  0  0  0  0  0  0  0  0  0
   -9.6205   -6.5432   12.4152 N   0  0  0  0  0  0  0  0  0  0  0  0
  -10.8340   -5.8177   12.2336 C   0  0  0  0  0  0  0  0  0  0  0  0
  -11.8827   -6.3198   12.7740 O   0  0  0  0  0  0  0  0  0  0  0  0
  -10.9597   -4.5938   11.5062 C   0  0  0  0  0  0  0  0  0  0  0  0
  -12.1178   -3.7071   11.9884 C   0  0  0  0  0  0  0  0  0  0  0  0
  -12.1544   -2.6641   10.8929 C   0  0  0  0  0  0  0  0  0  0  0  0
  -11.1281   -3.1195    9.8697 C   0  0  0  0  0  0  0  0  0  0  0  0
  -11.1687   -4.5902   10.0874 N   0  0  0  0  0  0  0  0  0  0  0  0
  -11.3304   -5.6093    9.1502 C   0  0  0  0  0  0  0  0  0  0  0  0
  -10.4110   -5.6468    8.2193 O   0  0  0  0  0  0  0  0  0  0  0  0
  -12.3325   -6.6749    8.9711 C   0  0  0  0  0  0  0  0  0  0  0  0
  -11.9956   -7.9700    9.4563 N   0  0  0  0  0  0  0  0  0  0  0  0
  -11.6384   -9.1360    8.7538 C   0  0  0  0  0  0  0  0  0  0  0  0
  -12.1844  -10.2365    9.1266 O   0  0  0  0  0  0  0  0  0  0  0  0
   -9.9037  -11.1278    8.3061 H   0  0  0  0  0  0  0  0  0  0  0  0
   -5.7845   -9.1518    8.3410 H   0  0  0  0  0  0  0  0  0  0  0  0
   -9.7085   -7.5810   12.5979 H   0  0  0  0  0  0  0  0  0  0  0  0
  -12.0336   -8.0665   10.5232 H   0  0  0  0  0  0  0  0  0  0  0  0
  -11.2799   -9.9015    6.3970 C   0  0  0  0  0  0  0  0  0  0  0  0
  -11.6309  -11.3423    6.5002 C   0  0  0  0  0  0  0  0  0  0  0  0
  -13.7529   -9.7590    6.1039 C   0  0  0  0  0  0  0  0  0  0  0  0
  -12.4283   -9.1433    5.7900 C   0  0  0  0  0  0  0  0  0  0  0  0
   -7.4908   -8.5604    6.1672 C   0  0  0  0  0  0  0  0  0  0  0  0
   -7.9349   -9.8434    5.6143 C   0  0  0  0  0  0  0  0  0  0  0  0
   -7.9892  -10.0764    4.2585 C   0  0  0  0  0  0  0  0  0  0  0  0
   -8.4075  -11.2983    3.7763 C   0  0  0  0  0  0  0  0  0  0  0  0
   -8.7765  -12.3023    4.6345 C   0  0  0  0  0  0  0  0  0  0  0  0
   -9.1928  -13.5210    4.1471 O   0  0  0  0  0  0  0  0  0  0  0  0
   -8.7331  -12.0989    5.9906 C   0  0  0  0  0  0  0  0  0  0  0  0
   -8.3104  -10.8653    6.4525 C   0  0  0  0  0  0  0  0  0  0  0  0
   -8.5473  -14.2901    3.9700 H   0  0  0  0  0  0  0  0  0  0  0  0
   -7.7935   -5.5755   13.7600 C   0  0  0  0  0  0  0  0  0  0  0  0
   -6.6014   -4.7396   13.7361 C   0  0  0  0  0  0  0  0  0  0  0  0
   -6.4733   -3.6915   14.6235 C   0  0  0  0  0  0  0  0  0  0  0  0
   -5.3723   -2.8531   14.6639 C   0  0  0  0  0  0  0  0  0  0  0  0
   -4.3363   -3.0601   13.7773 C   0  0  0  0  0  0  0  0  0  0  0  0
   -3.2244   -2.2247   13.8066 O   0  0  0  0  0  0  0  0  0  0  0  0
   -4.4546   -4.1080   12.8838 C   0  0  0  0  0  0  0  0  0  0  0  0
   -5.5665   -4.9398   12.8568 C   0  0  0  0  0  0  0  0  0  0  0  0
   -2.4360   -2.4568   14.3940 H   0  0  0  0  0  0  0  0  0  0  0  0
  -13.7229   -6.2307    9.4723 C   0  0  0  0  0  0  0  0  0  0  0  0
  -14.8114   -6.8514    8.6863 C   0  0  0  0  0  0  0  0  0  0  0  0
  -15.4884   -7.9540    9.1574 C   0  0  0  0  0  0  0  0  0  0  0  0
  -16.5199   -8.5343    8.4098 C   0  0  0  0  0  0  0  0  0  0  0  0
  -16.8770   -8.0179    7.1961 C   0  0  0  0  0  0  0  0  0  0  0  0
  -16.1970   -6.9078    6.7195 C   0  0  0  0  0  0  0  0  0  0  0  0
  -15.1678   -6.3280    7.4639 C   0  0  0  0  0  0  0  0  0  0  0  0
 37 38  1  0  0  0
 38 35  1  0  0  0
 35 36  1  0  0  0
 35  1  1  0  0  0
  1  2  1  0  0  0
  2  3  1  0  0  0
  3  4  2  0  0  0
  3  5  1  0  0  0
  5 39  1  0  0  0
 39 40  1  0  0  0
 40 41  2  0  0  0
 41 42  1  0  0  0
 42 43  2  0  0  0
 43 44  1  0  0  0
 43 45  1  0  0  0
 45 46  2  0  0  0
  5  6  1  0  0  0
  6  7  1  0  0  0
  7  8  2  0  0  0
  7  9  1  0  0  0
  9 10  1  0  0  0
 10 11  1  0  0  0
 11 12  1  0  0  0
 12 13  1  0  0  0
 13 14  1  0  0  0
 14 15  2  0  0  0
 14 16  1  0  0  0
 16 48  1  0  0  0
 48 49  1  0  0  0
 49 50  2  0  0  0
 50 51  1  0  0  0
 51 52  2  0  0  0
 52 53  1  0  0  0
 52 54  1  0  0  0
 54 55  2  0  0  0
 16 17  1  0  0  0
 17 18  1  0  0  0
 18 19  2  0  0  0
 18 20  1  0  0  0
 20 21  1  0  0  0
 21 22  1  0  0  0
 22 23  1  0  0  0
 23 24  1  0  0  0
 24 25  1  0  0  0
 25 26  2  0  0  0
 25 27  1  0  0  0
 27 57  1  0  0  0
 57 58  1  0  0  0
 58 59  2  0  0  0
 59 60  1  0  0  0
 60 61  2  0  0  0
 61 62  1  0  0  0
 62 63  2  0  0  0
 27 28  1  0  0  0
 28 29  1  0  0  0
 29 30  2  0  0  0
 29  1  1  0  0  0
 46 40  1  0  0  0
 13  9  1  0  0  0
 55 49  1  0  0  0
 24 20  1  0  0  0
 63 58  1  0  0  0
  2 31  1  0  0  0
 44 47  1  0  0  0
  6 32  1  0  0  0
 53 56  1  0  0  0
 17 33  1  0  0  0
 28 34  1  0  0  0
M  END
> <minimizedAffinity>
42.17760

> <CNNscore>
0.3192688525

> <CNNaffinity>
7.0536355972

> <CNN_VS>
2.2520060539

> <CNNaffinity_variance>
0.6562194824

$$$$
[H]Oc1c([H])c([H])c(C([H])([H])[C@@]2([H])C(=O)N3C([H])([H])C([H])([H])C([H])([H])[C@@]3([H])C(=O)N([H])[C@@]([H])(C([H])([H])c3c([H])c([H])c(O[H])c([H])c3[H])C(=O)N([H])[C@@]([H])([C@@]([H])(C([H])([H])[H])C([H])([H])C([H])([H])[H])C(=O)N([H])[C@@]([H])(C([H])([H])c3c([H])c([H])c([H])c([H])c3[H])C(=O)N3C([H])([H])C([H])([H])C([H])([H])[C@@]3([H])C(=O)N2[H])c([H])c1[H]


 63 68  0  0  0  0  0  0  0  0999 V2000
   -5.9751   -5.7155   11.8684 C   0  0  0  0  0  0  0  0  0  0  0  0
   -6.3136   -7.1059   11.5230 N   0  0  0  0  0  0  0  0  0  0  0  0
   -7.0241   -7.5136   10.3961 C   0  0  0  0  0  0  0  0  0  0  0  0
   -7.1023   -8.7605   10.1811 O   0  0  0  0  0  0  0  0  0  0  0  0
   -7.6914   -6.6032    9.4354 C   0  0  0  0  0  0  0  0  0  0  0  0
   -8.0240   -7.3237    8.2290 N   0  0  0  0  0  0  0  0  0  0  0  0
   -7.9955   -6.8413    6.9034 C   0  0  0  0  0  0  0  0  0  0  0  0
   -9.0676   -6.8816    6.1866 O   0  0  0  0  0  0  0  0  0  0  0  0
   -6.7992   -6.2657    6.2177 C   0  0  0  0  0  0  0  0  0  0  0  0
   -7.1945   -5.8922    4.7915 C   0  0  0  0  0  0  0  0  0  0  0  0
   -7.3170   -7.2659    4.1541 C   0  0  0  0  0  0  0  0  0  0  0  0
   -6.6411   -8.2492    5.1150 C   0  0  0  0  0  0  0  0  0  0  0  0
   -5.8312   -7.3317    5.9241 N   0  0  0  0  0  0  0  0  0  0  0  0
   -4.5017   -7.3172    6.3717 C   0  0  0  0  0  0  0  0  0  0  0  0
   -4.0792   -8.3295    7.0342 O   0  0  0  0  0  0  0  0  0  0  0  0
   -3.5105   -6.2235    6.1481 C   0  0  0  0  0  0  0  0  0  0  0  0
   -2.7054   -6.0258    7.3119 N   0  0  0  0  0  0  0  0  0  0  0  0
   -2.1059   -4.7930    7.7029 C   0  0  0  0  0  0  0  0  0  0  0  0
   -1.0604   -4.8781    8.4402 O   0  0  0  0  0  0  0  0  0  0  0  0
   -2.5797   -3.4954    7.3366 C   0  0  0  0  0  0  0  0  0  0  0  0
   -1.4768   -2.4269    7.2926 C   0  0  0  0  0  0  0  0  0  0  0  0
   -2.3039   -1.1680    7.1495 C   0  0  0  0  0  0  0  0  0  0  0  0
   -3.7497   -1.6236    7.2475 C   0  0  0  0  0  0  0  0  0  0  0  0
   -3.5920   -2.8295    8.1038 N   0  0  0  0  0  0  0  0  0  0  0  0
   -4.2752   -3.1698    9.2701 C   0  0  0  0  0  0  0  0  0  0  0  0
   -5.5716   -3.2851    9.1306 O   0  0  0  0  0  0  0  0  0  0  0  0
   -3.8500   -3.4307   10.6569 C   0  0  0  0  0  0  0  0  0  0  0  0
   -3.6985   -4.7922   11.0434 N   0  0  0  0  0  0  0  0  0  0  0  0
   -4.5075   -5.5950   11.8690 C   0  0  0  0  0  0  0  0  0  0  0  0
   -3.9133   -6.3258   12.7414 O   0  0  0  0  0  0  0  0  0  0  0  0
   -5.9581   -7.8182   12.2303 H   0  0  0  0  0  0  0  0  0  0  0  0
   -8.3350   -8.3327    8.3626 H   0  0  0  0  0  0  0  0  0  0  0  0
   -2.5353   -6.8589    7.9405 H   0  0  0  0  0  0  0  0  0  0  0  0
   -2.8233   -5.2693   10.6491 H   0  0  0  0  0  0  0  0  0  0  0  0
   -6.6321   -5.4352   13.1841 C   0  0  0  0  0  0  0  0  0  0  0  0
   -6.7450   -6.5833   14.1216 C   0  0  0  0  0  0  0  0  0  0  0  0
   -5.7160   -4.5477   15.3276 C   0  0  0  0  0  0  0  0  0  0  0  0
   -6.0808   -4.2400   13.9118 C   0  0  0  0  0  0  0  0  0  0  0  0
   -9.0419   -6.1746   10.0448 C   0  0  0  0  0  0  0  0  0  0  0  0
  -10.1852   -6.7907    9.3650 C   0  0  0  0  0  0  0  0  0  0  0  0
  -10.1403   -8.0776    8.8779 C   0  0  0  0  0  0  0  0  0  0  0  0
  -11.2382   -8.6247    8.2487 C   0  0  0  0  0  0  0  0  0  0  0  0
  -12.3927   -7.9003    8.0961 C   0  0  0  0  0  0  0  0  0  0  0  0
  -13.4864   -8.4522    7.4673 O   0  0  0  0  0  0  0  0  0  0  0  0
  -12.4666   -6.6153    8.5709 C   0  0  0  0  0  0  0  0  0  0  0  0
  -11.3532   -6.0863    9.1987 C   0  0  0  0  0  0  0  0  0  0  0  0
  -14.2071   -8.9671    7.9722 H   0  0  0  0  0  0  0  0  0  0  0  0
   -2.6915   -6.7079    4.9418 C   0  0  0  0  0  0  0  0  0  0  0  0
   -2.3296   -5.6556    4.0026 C   0  0  0  0  0  0  0  0  0  0  0  0
   -1.4525   -5.9201    2.9714 C   0  0  0  0  0  0  0  0  0  0  0  0
   -1.0602   -4.9749    2.0389 C   0  0  0  0  0  0  0  0  0  0  0  0
   -1.5623   -3.6933    2.1280 C   0  0  0  0  0  0  0  0  0  0  0  0
   -1.1759   -2.7337    1.1980 O   0  0  0  0  0  0  0  0  0  0  0  0
   -2.4423   -3.4178    3.1576 C   0  0  0  0  0  0  0  0  0  0  0  0
   -2.8253   -4.3782    4.0849 C   0  0  0  0  0  0  0  0  0  0  0  0
   -1.7078   -2.6145    0.3475 H   0  0  0  0  0  0  0  0  0  0  0  0
   -2.6055   -2.5981   11.0306 C   0  0  0  0  0  0  0  0  0  0  0  0
   -2.6106   -2.2187   12.4603 C   0  0  0  0  0  0  0  0  0  0  0  0
   -2.0637   -3.0448   13.4166 C   0  0  0  0  0  0  0  0  0  0  0  0
   -2.0689   -2.6778   14.7676 C   0  0  0  0  0  0  0  0  0  0  0  0
   -2.6169   -1.4910   15.1655 C   0  0  0  0  0  0  0  0  0  0  0  0
   -3.1681   -0.6574   14.2047 C   0  0  0  0  0  0  0  0  0  0  0  0
   -3.1639   -1.0221   12.8569 C   0  0  0  0  0  0  0  0  0  0  0  0
 37 38  1  0  0  0
 38 35  1  0  0  0
 35 36  1  0  0  0
 35  1  1  0  0  0
  1  2  1  0  0  0
  2  3  1  0  0  0
  3  4  2  0  0  0
  3  5  1  0  0  0
  5 39  1  0  0  0
 39 40  1  0  0  0
 40 41  2  0  0  0
 41 42  1  0  0  0
 42 43  2  0  0  0
 43 44  1  0  0  0
 43 45  1  0  0  0
 45 46  2  0  0  0
  5  6  1  0  0  0
  6  7  1  0  0  0
  7  8  2  0  0  0
  7  9  1  0  0  0
  9 10  1  0  0  0
 10 11  1  0  0  0
 11 12  1  0  0  0
 12 13  1  0  0  0
 13 14  1  0  0  0
 14 15  2  0  0  0
 14 16  1  0  0  0
 16 48  1  0  0  0
 48 49  1  0  0  0
 49 50  2  0  0  0
 50 51  1  0  0  0
 51 52  2  0  0  0
 52 53  1  0  0  0
 52 54  1  0  0  0
 54 55  2  0  0  0
 16 17  1  0  0  0
 17 18  1  0  0  0
 18 19  2  0  0  0
 18 20  1  0  0  0
 20 21  1  0  0  0
 21 22  1  0  0  0
 22 23  1  0  0  0
 23 24  1  0  0  0
 24 25  1  0  0  0
 25 26  2  0  0  0
 25 27  1  0  0  0
 27 57  1  0  0  0
 57 58  1  0  0  0
 58 59  2  0  0  0
 59 60  1  0  0  0
 60 61  2  0  0  0
 61 62  1  0  0  0
 62 63  2  0  0  0
 27 28  1  0  0  0
 28 29  1  0  0  0
 29 30  2  0  0  0
 29  1  1  0  0  0
 46 40  1  0  0  0
 13  9  1  0  0  0
 55 49  1  0  0  0
 24 20  1  0  0  0
 63 58  1  0  0  0
  2 31  1  0  0  0
 44 47  1  0  0  0
  6 32  1  0  0  0
 53 56  1  0  0  0
 17 33  1  0  0  0
 28 34  1  0  0  0
M  END
> <minimizedAffinity>
10.94244

> <CNNscore>
0.3128808439

> <CNNaffinity>
7.0245757103

> <CNN_VS>
2.1978552341

> <CNNaffinity_variance>
0.5206314325

$$$$
[H]c1c(C([H])([H])[H])nc(C([H])([H])Sc2c([H])c([H])c(F)c([H])c2[H])c(S(=O)(=O)N([H])c2c([H])c(C(=O)N([H])C3([H])C([H])([H])C([H])([H])N(C(=O)C([H])([H])[H])C([H])([H])C3([H])[H])c([H])c([H])c2OC([H])([H])[H])c1[H]


 42 45  0  0  0  0  0  0  0  0999 V2000
  -10.7418  -10.3215    6.7030 C   0  0  0  0  0  0  0  0  0  0  0  0
   -9.5200  -10.9756    6.5569 C   0  0  0  0  0  0  0  0  0  0  0  0
   -8.3364  -10.3612    6.9151 C   0  0  0  0  0  0  0  0  0  0  0  0
   -8.3571   -9.0822    7.4260 C   0  0  0  0  0  0  0  0  0  0  0  0
   -9.5984   -8.4637    7.5549 C   0  0  0  0  0  0  0  0  0  0  0  0
  -10.7888   -9.0346    7.2139 C   0  0  0  0  0  0  0  0  0  0  0  0
   -7.1403   -8.4372    7.8535 C   0  0  0  0  0  0  0  0  0  0  0  0
   -6.8928   -8.4830    9.1112 O   0  0  0  0  0  0  0  0  0  0  0  0
   -6.2012   -7.7666    7.0458 N   0  0  0  0  0  0  0  0  0  0  0  0
   -6.3709   -7.7308    6.0197 H   0  0  0  0  0  0  0  0  0  0  0  0
   -5.0245   -7.1362    7.5765 C   0  0  0  0  0  0  0  0  0  0  0  0
   -4.1987   -6.5244    6.4943 C   0  0  0  0  0  0  0  0  0  0  0  0
   -2.9315   -5.8978    7.0504 C   0  0  0  0  0  0  0  0  0  0  0  0
   -3.1330   -5.2181    8.2909 N   0  0  0  0  0  0  0  0  0  0  0  0
   -4.2955   -5.3481    9.1488 C   0  0  0  0  0  0  0  0  0  0  0  0
   -5.4691   -6.0151    8.5041 C   0  0  0  0  0  0  0  0  0  0  0  0
   -2.1193   -4.3357    8.7503 C   0  0  0  0  0  0  0  0  0  0  0  0
   -2.2589   -3.6000   10.0379 C   0  0  0  0  0  0  0  0  0  0  0  0
   -1.0627   -4.1607    8.0603 O   0  0  0  0  0  0  0  0  0  0  0  0
  -13.1415  -10.3874    6.1911 C   0  0  0  0  0  0  0  0  0  0  0  0
  -11.8950  -11.0008    6.3224 O   0  0  0  0  0  0  0  0  0  0  0  0
  -12.0488   -8.4290    7.3856 N   0  0  0  0  0  0  0  0  0  0  0  0
  -12.5375   -8.0283    6.5607 H   0  0  0  0  0  0  0  0  0  0  0  0
  -12.7972   -8.3310    8.9227 S   0  0  0  0  0  0  0  0  0  0  0  0
  -14.2216   -8.8801    8.8581 O   0  0  0  0  0  0  0  0  0  0  0  0
  -12.1219   -9.2145    9.9585 O   0  0  0  0  0  0  0  0  0  0  0  0
  -12.7858   -6.7057    9.5652 C   0  0  0  0  0  0  0  0  0  0  0  0
  -11.8597   -6.3061   10.5158 C   0  0  0  0  0  0  0  0  0  0  0  0
  -11.7979   -5.0537   11.0356 C   0  0  0  0  0  0  0  0  0  0  0  0
  -12.7107   -4.1326   10.5881 C   0  0  0  0  0  0  0  0  0  0  0  0
  -12.6548   -2.7587   11.1379 C   0  0  0  0  0  0  0  0  0  0  0  0
  -13.6200   -4.4903    9.6682 N   0  0  0  0  0  0  0  0  0  0  0  0
  -13.6964   -5.7232    9.1437 C   0  0  0  0  0  0  0  0  0  0  0  0
  -14.6947   -6.1584    8.1579 C   0  0  0  0  0  0  0  0  0  0  0  0
  -14.2070   -6.0719    6.4463 S   0  0  0  0  0  0  0  0  0  0  0  0
  -15.5047   -6.4942    5.3368 C   0  0  0  0  0  0  0  0  0  0  0  0
  -15.8704   -5.6586    4.3229 C   0  0  0  0  0  0  0  0  0  0  0  0
  -16.8917   -6.0231    3.4493 C   0  0  0  0  0  0  0  0  0  0  0  0
  -17.5630   -7.2075    3.5628 C   0  0  0  0  0  0  0  0  0  0  0  0
  -18.5602   -7.5614    2.7086 F   0  0  0  0  0  0  0  0  0  0  0  0
  -17.1773   -8.0405    4.5972 C   0  0  0  0  0  0  0  0  0  0  0  0
  -16.1753   -7.7083    5.4726 C   0  0  0  0  0  0  0  0  0  0  0  0
 20 21  1  0  0  0
 21  1  1  0  0  0
  1  2  2  0  0  0
  2  3  1  0  0  0
  3  4  2  0  0  0
  4  5  1  0  0  0
  5  6  2  0  0  0
  6 22  1  0  0  0
 22 24  1  0  0  0
 24 25  2  0  0  0
 24 26  2  0  0  0
 24 27  1  0  0  0
 27 28  2  0  0  0
 28 29  1  0  0  0
 29 30  2  0  0  0
 30 31  1  0  0  0
 30 32  1  0  0  0
 32 33  2  0  0  0
 33 34  1  0  0  0
 34 35  1  0  0  0
 35 36  1  0  0  0
 36 37  2  0  0  0
 37 38  1  0  0  0
 38 39  2  0  0  0
 39 40  1  0  0  0
 39 41  1  0  0  0
 41 42  2  0  0  0
  4  7  1  0  0  0
  7  8  2  0  0  0
  7  9  1  0  0  0
  9 11  1  0  0  0
 11 12  1  0  0  0
 12 13  1  0  0  0
 13 14  1  0  0  0
 14 15  1  0  0  0
 15 16  1  0  0  0
 14 17  1  0  0  0
 17 18  1  0  0  0
 17 19  2  0  0  0
  6  1  1  0  0  0
 33 27  1  0  0  0
 42 36  1  0  0  0
 16 11  1  0  0  0
 22 23  1  0  0  0
  9 10  1  0  0  0
M  END
> <minimizedAffinity>
0.18693

> <CNNscore>
0.3997641802

> <CNNaffinity>
7.1184668541

> <CNN_VS>
2.8457081318

> <CNNaffinity_variance>
0.1747451276

$$$$
[H]c1c(C([H])([H])[H])nc(C([H])([H])Sc2c([H])c([H])c(F)c([H])c2[H])c(S(=O)(=O)N([H])c2c([H])c(C(=O)N([H])C3([H])C([H])([H])C([H])([H])N(C(=O)C([H])([H])[H])C([H])([H])C3([H])[H])c([H])c([H])c2OC([H])([H])[H])c1[H]


 42 45  0  0  0  0  0  0  0  0999 V2000
   -7.2225   -8.8425    7.4607 C   0  0  0  0  0  0  0  0  0  0  0  0
   -6.1189   -9.1582    6.6707 C   0  0  0  0  0  0  0  0  0  0  0  0
   -5.2047   -8.1900    6.3054 C   0  0  0  0  0  0  0  0  0  0  0  0
   -5.3804   -6.8901    6.7259 C   0  0  0  0  0  0  0  0  0  0  0  0
   -6.4965   -6.6166    7.5130 C   0  0  0  0  0  0  0  0  0  0  0  0
   -7.4216   -7.5424    7.8957 C   0  0  0  0  0  0  0  0  0  0  0  0
   -4.4141   -5.8707    6.3996 C   0  0  0  0  0  0  0  0  0  0  0  0
   -3.2866   -5.9516    7.0056 O   0  0  0  0  0  0  0  0  0  0  0  0
   -4.5733   -4.8030    5.4948 N   0  0  0  0  0  0  0  0  0  0  0  0
   -5.4731   -4.7258    4.9779 H   0  0  0  0  0  0  0  0  0  0  0  0
   -3.5499   -3.8237    5.2556 C   0  0  0  0  0  0  0  0  0  0  0  0
   -3.7015   -3.1940    3.9110 C   0  0  0  0  0  0  0  0  0  0  0  0
   -2.5927   -2.1917    3.6395 C   0  0  0  0  0  0  0  0  0  0  0  0
   -2.2477   -1.4057    4.7816 N   0  0  0  0  0  0  0  0  0  0  0  0
   -2.6236   -1.6934    6.1529 C   0  0  0  0  0  0  0  0  0  0  0  0
   -3.6982   -2.7242    6.2968 C   0  0  0  0  0  0  0  0  0  0  0  0
   -1.4641   -0.2373    4.5860 C   0  0  0  0  0  0  0  0  0  0  0  0
   -1.0612    0.6251    5.7317 C   0  0  0  0  0  0  0  0  0  0  0  0
   -1.0886    0.0922    3.4141 O   0  0  0  0  0  0  0  0  0  0  0  0
   -9.2059  -10.2168    7.0107 C   0  0  0  0  0  0  0  0  0  0  0  0
   -8.1030   -9.8681    7.7913 O   0  0  0  0  0  0  0  0  0  0  0  0
   -8.5259   -7.2777    8.7289 N   0  0  0  0  0  0  0  0  0  0  0  0
   -8.5058   -7.5977    9.7174 H   0  0  0  0  0  0  0  0  0  0  0  0
   -9.9068   -6.4442    8.1539 S   0  0  0  0  0  0  0  0  0  0  0  0
   -9.6905   -4.9338    8.2360 O   0  0  0  0  0  0  0  0  0  0  0  0
  -10.1621   -6.6872    6.6755 O   0  0  0  0  0  0  0  0  0  0  0  0
  -11.3643   -6.9105    8.9982 C   0  0  0  0  0  0  0  0  0  0  0  0
  -11.7279   -6.3236   10.1999 C   0  0  0  0  0  0  0  0  0  0  0  0
  -12.8551   -6.6379   10.8877 C   0  0  0  0  0  0  0  0  0  0  0  0
  -13.6801   -7.5955   10.3547 C   0  0  0  0  0  0  0  0  0  0  0  0
  -14.9186   -7.9472   11.0866 C   0  0  0  0  0  0  0  0  0  0  0  0
  -13.3543   -8.1820    9.1924 N   0  0  0  0  0  0  0  0  0  0  0  0
  -12.2444   -7.8845    8.4991 C   0  0  0  0  0  0  0  0  0  0  0  0
  -11.8410   -8.5249    7.2403 C   0  0  0  0  0  0  0  0  0  0  0  0
  -13.1081   -9.4241    6.3680 S   0  0  0  0  0  0  0  0  0  0  0  0
  -14.2000   -8.3797    5.4678 C   0  0  0  0  0  0  0  0  0  0  0  0
  -14.7902   -8.7993    4.3120 C   0  0  0  0  0  0  0  0  0  0  0  0
  -15.6622   -7.9579    3.6259 C   0  0  0  0  0  0  0  0  0  0  0  0
  -15.9615   -6.6995    4.0654 C   0  0  0  0  0  0  0  0  0  0  0  0
  -16.8133   -5.8795    3.3935 F   0  0  0  0  0  0  0  0  0  0  0  0
  -15.3528   -6.2930    5.2388 C   0  0  0  0  0  0  0  0  0  0  0  0
  -14.4901   -7.0996    5.9359 C   0  0  0  0  0  0  0  0  0  0  0  0
 20 21  1  0  0  0
 21  1  1  0  0  0
  1  2  2  0  0  0
  2  3  1  0  0  0
  3  4  2  0  0  0
  4  5  1  0  0  0
  5  6  2  0  0  0
  6 22  1  0  0  0
 22 24  1  0  0  0
 24 25  2  0  0  0
 24 26  2  0  0  0
 24 27  1  0  0  0
 27 28  2  0  0  0
 28 29  1  0  0  0
 29 30  2  0  0  0
 30 31  1  0  0  0
 30 32  1  0  0  0
 32 33  2  0  0  0
 33 34  1  0  0  0
 34 35  1  0  0  0
 35 36  1  0  0  0
 36 37  2  0  0  0
 37 38  1  0  0  0
 38 39  2  0  0  0
 39 40  1  0  0  0
 39 41  1  0  0  0
 41 42  2  0  0  0
  4  7  1  0  0  0
  7  8  2  0  0  0
  7  9  1  0  0  0
  9 11  1  0  0  0
 11 12  1  0  0  0
 12 13  1  0  0  0
 13 14  1  0  0  0
 14 15  1  0  0  0
 15 16  1  0  0  0
 14 17  1  0  0  0
 17 18  1  0  0  0
 17 19  2  0  0  0
  6  1  1  0  0  0
 33 27  1  0  0  0
 42 36  1  0  0  0
 16 11  1  0  0  0
 22 23  1  0  0  0
  9 10  1  0  0  0
M  END
> <minimizedAffinity>
-6.38783

> <CNNscore>
0.3499508500

> <CNNaffinity>
6.8809585571

> <CNN_VS>
2.4079973698

> <CNNaffinity_variance>
0.2086075246

$$$$
[H]c1c(C([H])([H])[H])nc(C([H])([H])Sc2c([H])c([H])c(F)c([H])c2[H])c(S(=O)(=O)N([H])c2c([H])c(C(=O)N([H])C3([H])C([H])([H])C([H])([H])N(C(=O)C([H])([H])[H])C([H])([H])C3([H])[H])c([H])c([H])c2OC([H])([H])[H])c1[H]


 42 45  0  0  0  0  0  0  0  0999 V2000
  -12.6843   -9.4031    6.7876 C   0  0  0  0  0  0  0  0  0  0  0  0
  -11.7046  -10.0846    7.5069 C   0  0  0  0  0  0  0  0  0  0  0  0
  -10.4882   -9.4947    7.7881 C   0  0  0  0  0  0  0  0  0  0  0  0
  -10.2335   -8.2125    7.3541 C   0  0  0  0  0  0  0  0  0  0  0  0
  -11.2386   -7.5668    6.6378 C   0  0  0  0  0  0  0  0  0  0  0  0
  -12.4519   -8.1129    6.3396 C   0  0  0  0  0  0  0  0  0  0  0  0
   -8.9908   -7.5560    7.6770 C   0  0  0  0  0  0  0  0  0  0  0  0
   -8.8348   -7.2228    8.9057 O   0  0  0  0  0  0  0  0  0  0  0  0
   -7.9377   -7.2427    6.7957 N   0  0  0  0  0  0  0  0  0  0  0  0
   -8.0331   -7.5183    5.7968 H   0  0  0  0  0  0  0  0  0  0  0  0
   -6.7432   -6.5648    7.2170 C   0  0  0  0  0  0  0  0  0  0  0  0
   -5.9738   -7.3784    8.2035 C   0  0  0  0  0  0  0  0  0  0  0  0
   -4.7347   -6.6422    8.6836 C   0  0  0  0  0  0  0  0  0  0  0  0
   -4.0651   -5.9239    7.6459 N   0  0  0  0  0  0  0  0  0  0  0  0
   -4.6171   -5.6082    6.3420 C   0  0  0  0  0  0  0  0  0  0  0  0
   -5.8583   -6.3676    5.9950 C   0  0  0  0  0  0  0  0  0  0  0  0
   -2.7437   -5.4625    7.8877 C   0  0  0  0  0  0  0  0  0  0  0  0
   -1.9887   -4.7007    6.8541 C   0  0  0  0  0  0  0  0  0  0  0  0
   -2.1798   -5.6947    9.0063 O   0  0  0  0  0  0  0  0  0  0  0  0
  -14.5120  -10.0755    5.2934 C   0  0  0  0  0  0  0  0  0  0  0  0
  -13.8869  -10.0583    6.5409 O   0  0  0  0  0  0  0  0  0  0  0  0
  -13.4866   -7.4461    5.6552 N   0  0  0  0  0  0  0  0  0  0  0  0
  -13.4263   -7.3364    4.6235 H   0  0  0  0  0  0  0  0  0  0  0  0
  -14.8433   -6.8053    6.4804 S   0  0  0  0  0  0  0  0  0  0  0  0
  -14.7878   -5.2784    6.4923 O   0  0  0  0  0  0  0  0  0  0  0  0
  -16.1539   -7.1082    5.7729 O   0  0  0  0  0  0  0  0  0  0  0  0
  -14.9923   -7.4349    8.1040 C   0  0  0  0  0  0  0  0  0  0  0  0
  -15.9001   -8.4347    8.4157 C   0  0  0  0  0  0  0  0  0  0  0  0
  -16.0451   -8.9685    9.6553 C   0  0  0  0  0  0  0  0  0  0  0  0
  -15.2408   -8.4842   10.6554 C   0  0  0  0  0  0  0  0  0  0  0  0
  -15.3790   -9.0590   12.0132 C   0  0  0  0  0  0  0  0  0  0  0  0
  -14.3524   -7.5157   10.3840 N   0  0  0  0  0  0  0  0  0  0  0  0
  -14.1954   -6.9759    9.1654 C   0  0  0  0  0  0  0  0  0  0  0  0
  -13.2551   -5.8961    8.8376 C   0  0  0  0  0  0  0  0  0  0  0  0
  -13.0674   -4.6120   10.0585 S   0  0  0  0  0  0  0  0  0  0  0  0
  -11.9476   -5.0414   11.3451 C   0  0  0  0  0  0  0  0  0  0  0  0
  -12.2600   -4.8317   12.6560 C   0  0  0  0  0  0  0  0  0  0  0  0
  -11.3615   -5.1939   13.6562 C   0  0  0  0  0  0  0  0  0  0  0  0
  -10.1504   -5.7625   13.3804 C   0  0  0  0  0  0  0  0  0  0  0  0
   -9.2743   -6.1153   14.3589 F   0  0  0  0  0  0  0  0  0  0  0  0
   -9.8525   -5.9667   12.0453 C   0  0  0  0  0  0  0  0  0  0  0  0
  -10.7175   -5.6204   11.0390 C   0  0  0  0  0  0  0  0  0  0  0  0
 20 21  1  0  0  0
 21  1  1  0  0  0
  1  2  2  0  0  0
  2  3  1  0  0  0
  3  4  2  0  0  0
  4  5  1  0  0  0
  5  6  2  0  0  0
  6 22  1  0  0  0
 22 24  1  0  0  0
 24 25  2  0  0  0
 24 26  2  0  0  0
 24 27  1  0  0  0
 27 28  2  0  0  0
 28 29  1  0  0  0
 29 30  2  0  0  0
 30 31  1  0  0  0
 30 32  1  0  0  0
 32 33  2  0  0  0
 33 34  1  0  0  0
 34 35  1  0  0  0
 35 36  1  0  0  0
 36 37  2  0  0  0
 37 38  1  0  0  0
 38 39  2  0  0  0
 39 40  1  0  0  0
 39 41  1  0  0  0
 41 42  2  0  0  0
  4  7  1  0  0  0
  7  8  2  0  0  0
  7  9  1  0  0  0
  9 11  1  0  0  0
 11 12  1  0  0  0
 12 13  1  0  0  0
 13 14  1  0  0  0
 14 15  1  0  0  0
 15 16  1  0  0  0
 14 17  1  0  0  0
 17 18  1  0  0  0
 17 19  2  0  0  0
  6  1  1  0  0  0
 33 27  1  0  0  0
 42 36  1  0  0  0
 16 11  1  0  0  0
 22 23  1  0  0  0
  9 10  1  0  0  0
M  END
> <minimizedAffinity>
6.86770

> <CNNscore>
0.3226323426

> <CNNaffinity>
7.0330810547

> <CNN_VS>
2.2690994740

> <CNNaffinity_variance>
0.4365567565

$$$$
[H]c1c(C([H])([H])[H])nc(C([H])([H])Sc2c([H])c([H])c(F)c([H])c2[H])c(S(=O)(=O)N([H])c2c([H])c(C(=O)N([H])C3([H])C([H])([H])C([H])([H])N(C(=O)C([H])([H])[H])C([H])([H])C3([H])[H])c([H])c([H])c2OC([H])([H])[H])c1[H]


 42 45  0  0  0  0  0  0  0  0999 V2000
   -8.1653   -8.9415    7.3382 C   0  0  0  0  0  0  0  0  0  0  0  0
   -7.1949   -9.2313    6.3811 C   0  0  0  0  0  0  0  0  0  0  0  0
   -6.2645   -8.2842    6.0013 C   0  0  0  0  0  0  0  0  0  0  0  0
   -6.2905   -7.0319    6.5742 C   0  0  0  0  0  0  0  0  0  0  0  0
   -7.2768   -6.7828    7.5257 C   0  0  0  0  0  0  0  0  0  0  0  0
   -8.2126   -7.6891    7.9285 C   0  0  0  0  0  0  0  0  0  0  0  0
   -5.3001   -6.0415    6.2313 C   0  0  0  0  0  0  0  0  0  0  0  0
   -5.7022   -4.8236    6.2271 O   0  0  0  0  0  0  0  0  0  0  0  0
   -3.9489   -6.2650    5.9020 N   0  0  0  0  0  0  0  0  0  0  0  0
   -3.5943   -7.2432    5.9153 H   0  0  0  0  0  0  0  0  0  0  0  0
   -3.0450   -5.2043    5.5535 C   0  0  0  0  0  0  0  0  0  0  0  0
   -3.2864   -4.7169    4.1637 C   0  0  0  0  0  0  0  0  0  0  0  0
   -2.3008   -3.6269    3.7789 C   0  0  0  0  0  0  0  0  0  0  0  0
   -2.0284   -2.7094    4.8397 N   0  0  0  0  0  0  0  0  0  0  0  0
   -2.3489   -2.9139    6.2397 C   0  0  0  0  0  0  0  0  0  0  0  0
   -3.2994   -4.0396    6.4990 C   0  0  0  0  0  0  0  0  0  0  0  0
   -1.3833   -1.4840    4.5242 C   0  0  0  0  0  0  0  0  0  0  0  0
   -1.0618   -0.4843    5.5807 C   0  0  0  0  0  0  0  0  0  0  0  0
   -1.0647   -1.2205    3.3192 O   0  0  0  0  0  0  0  0  0  0  0  0
   -9.6392  -10.8108    6.7394 C   0  0  0  0  0  0  0  0  0  0  0  0
   -9.0707   -9.9436    7.6733 O   0  0  0  0  0  0  0  0  0  0  0  0
   -9.1821   -7.4547    8.9230 N   0  0  0  0  0  0  0  0  0  0  0  0
   -8.9725   -7.7103    9.9082 H   0  0  0  0  0  0  0  0  0  0  0  0
  -10.7031   -6.7620    8.5503 S   0  0  0  0  0  0  0  0  0  0  0  0
  -11.0870   -5.7216    9.6014 O   0  0  0  0  0  0  0  0  0  0  0  0
  -10.6814   -5.9677    7.2547 O   0  0  0  0  0  0  0  0  0  0  0  0
  -11.9582   -7.9662    8.3797 C   0  0  0  0  0  0  0  0  0  0  0  0
  -11.8459   -9.2205    8.9583 C   0  0  0  0  0  0  0  0  0  0  0  0
  -12.7966  -10.1853    8.8692 C   0  0  0  0  0  0  0  0  0  0  0  0
  -13.9353   -9.8940    8.1619 C   0  0  0  0  0  0  0  0  0  0  0  0
  -14.9874  -10.9311    8.0594 C   0  0  0  0  0  0  0  0  0  0  0  0
  -14.0725   -8.6877    7.5900 N   0  0  0  0  0  0  0  0  0  0  0  0
  -13.1435   -7.7223    7.6670 C   0  0  0  0  0  0  0  0  0  0  0  0
  -13.2461   -6.4023    7.0308 C   0  0  0  0  0  0  0  0  0  0  0  0
  -13.6518   -6.3892    5.2959 S   0  0  0  0  0  0  0  0  0  0  0  0
  -15.3418   -6.0140    4.9850 C   0  0  0  0  0  0  0  0  0  0  0  0
  -16.3443   -6.7885    5.4900 C   0  0  0  0  0  0  0  0  0  0  0  0
  -17.6747   -6.4613    5.2409 C   0  0  0  0  0  0  0  0  0  0  0  0
  -18.0331   -5.3745    4.4948 C   0  0  0  0  0  0  0  0  0  0  0  0
  -19.3331   -5.0569    4.2527 F   0  0  0  0  0  0  0  0  0  0  0  0
  -17.0020   -4.6022    3.9918 C   0  0  0  0  0  0  0  0  0  0  0  0
  -15.6829   -4.8997    4.2207 C   0  0  0  0  0  0  0  0  0  0  0  0
 20 21  1  0  0  0
 21  1  1  0  0  0
  1  2  2  0  0  0
  2  3  1  0  0  0
  3  4  2  0  0  0
  4  5  1  0  0  0
  5  6  2  0  0  0
  6 22  1  0  0  0
 22 24  1  0  0  0
 24 25  2  0  0  0
 24 26  2  0  0  0
 24 27  1  0  0  0
 27 28  2  0  0  0
 28 29  1  0  0  0
 29 30  2  0  0  0
 30 31  1  0  0  0
 30 32  1  0  0  0
 32 33  2  0  0  0
 33 34  1  0  0  0
 34 35  1  0  0  0
 35 36  1  0  0  0
 36 37  2  0  0  0
 37 38  1  0  0  0
 38 39  2  0  0  0
 39 40  1  0  0  0
 39 41  1  0  0  0
 41 42  2  0  0  0
  4  7  1  0  0  0
  7  8  2  0  0  0
  7  9  1  0  0  0
  9 11  1  0  0  0
 11 12  1  0  0  0
 12 13  1  0  0  0
 13 14  1  0  0  0
 14 15  1  0  0  0
 15 16  1  0  0  0
 14 17  1  0  0  0
 17 18  1  0  0  0
 17 19  2  0  0  0
  6  1  1  0  0  0
 33 27  1  0  0  0
 42 36  1  0  0  0
 16 11  1  0  0  0
 22 23  1  0  0  0
  9 10  1  0  0  0
M  END
> <minimizedAffinity>
-1.21651

> <CNNscore>
0.3011651337

> <CNNaffinity>
6.8323793411

> <CNN_VS>
2.0576744080

> <CNNaffinity_variance>
0.2693276107

$$$$
[H]c1c(C([H])([H])[H])nc(C([H])([H])Sc2c([H])c([H])c(F)c([H])c2[H])c(S(=O)(=O)N([H])c2c([H])c(C(=O)N([H])C3([H])C([H])([H])C([H])([H])N(C(=O)C([H])([H])[H])C([H])([H])C3([H])[H])c([H])c([H])c2OC([H])([H])[H])c1[H]


 42 45  0  0  0  0  0  0  0  0999 V2000
  -12.5456   -7.8824    9.0790 C   0  0  0  0  0  0  0  0  0  0  0  0
  -11.6869   -7.0718    9.8188 C   0  0  0  0  0  0  0  0  0  0  0  0
  -10.4171   -6.7775    9.3631 C   0  0  0  0  0  0  0  0  0  0  0  0
   -9.9869   -7.2896    8.1590 C   0  0  0  0  0  0  0  0  0  0  0  0
  -10.8753   -8.0958    7.4514 C   0  0  0  0  0  0  0  0  0  0  0  0
  -12.1360   -8.4100    7.8653 C   0  0  0  0  0  0  0  0  0  0  0  0
   -8.6841   -6.9572    7.6376 C   0  0  0  0  0  0  0  0  0  0  0  0
   -8.6690   -6.3713    6.4968 O   0  0  0  0  0  0  0  0  0  0  0  0
   -7.4355   -7.2052    8.2405 N   0  0  0  0  0  0  0  0  0  0  0  0
   -7.4222   -7.6639    9.1745 H   0  0  0  0  0  0  0  0  0  0  0  0
   -6.1873   -6.8504    7.6243 C   0  0  0  0  0  0  0  0  0  0  0  0
   -5.2650   -6.1962    8.5984 C   0  0  0  0  0  0  0  0  0  0  0  0
   -3.9629   -5.7797    7.9359 C   0  0  0  0  0  0  0  0  0  0  0  0
   -3.4747   -6.7373    6.9947 N   0  0  0  0  0  0  0  0  0  0  0  0
   -4.2356   -7.8378    6.4338 C   0  0  0  0  0  0  0  0  0  0  0  0
   -5.5177   -8.1305    7.1468 C   0  0  0  0  0  0  0  0  0  0  0  0
   -2.1313   -6.6219    6.5484 C   0  0  0  0  0  0  0  0  0  0  0  0
   -1.5581   -7.5803    5.5626 C   0  0  0  0  0  0  0  0  0  0  0  0
   -1.3894   -5.6844    6.9886 O   0  0  0  0  0  0  0  0  0  0  0  0
  -14.1730   -7.8557   10.9164 C   0  0  0  0  0  0  0  0  0  0  0  0
  -13.8112   -8.1370    9.5984 O   0  0  0  0  0  0  0  0  0  0  0  0
  -13.0524   -9.1874    7.1307 N   0  0  0  0  0  0  0  0  0  0  0  0
  -13.4005  -10.0798    7.5336 H   0  0  0  0  0  0  0  0  0  0  0  0
  -13.6065   -8.7022    5.5848 S   0  0  0  0  0  0  0  0  0  0  0  0
  -13.0670   -7.3159    5.2360 O   0  0  0  0  0  0  0  0  0  0  0  0
  -13.0705   -9.5838    4.4690 O   0  0  0  0  0  0  0  0  0  0  0  0
  -15.3495   -8.7404    5.4612 C   0  0  0  0  0  0  0  0  0  0  0  0
  -15.9903   -9.3856    4.4153 C   0  0  0  0  0  0  0  0  0  0  0  0
  -17.3391   -9.4577    4.2805 C   0  0  0  0  0  0  0  0  0  0  0  0
  -18.1084   -8.8532    5.2419 C   0  0  0  0  0  0  0  0  0  0  0  0
  -19.5821   -8.9271    5.1163 C   0  0  0  0  0  0  0  0  0  0  0  0
  -17.5164   -8.2203    6.2666 N   0  0  0  0  0  0  0  0  0  0  0  0
  -16.1852   -8.1384    6.4159 C   0  0  0  0  0  0  0  0  0  0  0  0
  -15.5023   -7.4308    7.5070 C   0  0  0  0  0  0  0  0  0  0  0  0
  -14.8885   -5.8008    7.1314 S   0  0  0  0  0  0  0  0  0  0  0  0
  -15.5625   -5.1339    5.6500 C   0  0  0  0  0  0  0  0  0  0  0  0
  -14.8226   -4.3300    4.8336 C   0  0  0  0  0  0  0  0  0  0  0  0
  -15.3756   -3.8265    3.6590 C   0  0  0  0  0  0  0  0  0  0  0  0
  -16.6569   -4.1051    3.2759 C   0  0  0  0  0  0  0  0  0  0  0  0
  -17.1950   -3.6120    2.1284 F   0  0  0  0  0  0  0  0  0  0  0  0
  -17.3905   -4.9216    4.1173 C   0  0  0  0  0  0  0  0  0  0  0  0
  -16.8726   -5.4321    5.2800 C   0  0  0  0  0  0  0  0  0  0  0  0
 20 21  1  0  0  0
 21  1  1  0  0  0
  1  2  2  0  0  0
  2  3  1  0  0  0
  3  4  2  0  0  0
  4  5  1  0  0  0
  5  6  2  0  0  0
  6 22  1  0  0  0
 22 24  1  0  0  0
 24 25  2  0  0  0
 24 26  2  0  0  0
 24 27  1  0  0  0
 27 28  2  0  0  0
 28 29  1  0  0  0
 29 30  2  0  0  0
 30 31  1  0  0  0
 30 32  1  0  0  0
 32 33  2  0  0  0
 33 34  1  0  0  0
 34 35  1  0  0  0
 35 36  1  0  0  0
 36 37  2  0  0  0
 37 38  1  0  0  0
 38 39  2  0  0  0
 39 40  1  0  0  0
 39 41  1  0  0  0
 41 42  2  0  0  0
  4  7  1  0  0  0
  7  8  2  0  0  0
  7  9  1  0  0  0
  9 11  1  0  0  0
 11 12  1  0  0  0
 12 13  1  0  0  0
 13 14  1  0  0  0
 14 15  1  0  0  0
 15 16  1  0  0  0
 14 17  1  0  0  0
 17 18  1  0  0  0
 17 19  2  0  0  0
  6  1  1  0  0  0
 33 27  1  0  0  0
 42 36  1  0  0  0
 16 11  1  0  0  0
 22 23  1  0  0  0
  9 10  1  0  0  0
M  END
> <minimizedAffinity>
-1.28073

> <CNNscore>
0.2825916111

> <CNNaffinity>
6.8726792336

> <CNN_VS>
1.9421614408

> <CNNaffinity_variance>
0.2174489051

$$$$
[H]c1c(C([H])([H])[H])nc(C([H])([H])Sc2c([H])c([H])c(F)c([H])c2[H])c(S(=O)(=O)N([H])c2c([H])c(C(=O)N([H])C3([H])C([H])([H])C([H])([H])N(C(=O)C([H])([H])[H])C([H])([H])C3([H])[H])c([H])c([H])c2OC([H])([H])[H])c1[H]


 42 45  0  0  0  0  0  0  0  0999 V2000
   -4.1984   -8.6744    6.5069 C   0  0  0  0  0  0  0  0  0  0  0  0
   -4.9294   -9.1721    5.4299 C   0  0  0  0  0  0  0  0  0  0  0  0
   -6.2993   -9.3258    5.5098 C   0  0  0  0  0  0  0  0  0  0  0  0
   -6.9595   -8.9830    6.6691 C   0  0  0  0  0  0  0  0  0  0  0  0
   -6.1920   -8.4904    7.7219 C   0  0  0  0  0  0  0  0  0  0  0  0
   -4.8393   -8.3231    7.6838 C   0  0  0  0  0  0  0  0  0  0  0  0
   -8.3948   -9.0873    6.7608 C   0  0  0  0  0  0  0  0  0  0  0  0
   -9.0604   -8.0921    6.3008 O   0  0  0  0  0  0  0  0  0  0  0  0
   -9.1397  -10.1555    7.2976 N   0  0  0  0  0  0  0  0  0  0  0  0
   -8.6229  -10.9822    7.6614 H   0  0  0  0  0  0  0  0  0  0  0  0
  -10.5749  -10.1520    7.3606 C   0  0  0  0  0  0  0  0  0  0  0  0
  -11.0682   -9.3342    8.5073 C   0  0  0  0  0  0  0  0  0  0  0  0
  -12.5840   -9.3678    8.6013 C   0  0  0  0  0  0  0  0  0  0  0  0
  -13.2317   -9.3110    7.3291 N   0  0  0  0  0  0  0  0  0  0  0  0
  -12.5956   -9.5318    6.0441 C   0  0  0  0  0  0  0  0  0  0  0  0
  -11.1003   -9.5148    6.0827 C   0  0  0  0  0  0  0  0  0  0  0  0
  -14.6213   -9.0196    7.2908 C   0  0  0  0  0  0  0  0  0  0  0  0
  -15.3626   -8.9520    6.0005 C   0  0  0  0  0  0  0  0  0  0  0  0
  -15.2614   -8.8117    8.3725 O   0  0  0  0  0  0  0  0  0  0  0  0
   -2.2253   -7.7418    5.3834 C   0  0  0  0  0  0  0  0  0  0  0  0
   -2.8211   -8.5453    6.3564 O   0  0  0  0  0  0  0  0  0  0  0  0
   -4.0668   -7.7828    8.7303 N   0  0  0  0  0  0  0  0  0  0  0  0
   -3.6356   -8.4220    9.4270 H   0  0  0  0  0  0  0  0  0  0  0  0
   -3.8221   -6.0954    8.8885 S   0  0  0  0  0  0  0  0  0  0  0  0
   -4.8250   -5.5015    9.8765 O   0  0  0  0  0  0  0  0  0  0  0  0
   -2.4740   -5.7557    9.5025 O   0  0  0  0  0  0  0  0  0  0  0  0
   -3.8970   -5.2658    7.3520 C   0  0  0  0  0  0  0  0  0  0  0  0
   -2.8271   -4.5276    6.8713 C   0  0  0  0  0  0  0  0  0  0  0  0
   -2.8279   -3.8776    5.6796 C   0  0  0  0  0  0  0  0  0  0  0  0
   -3.9599   -3.9611    4.9094 C   0  0  0  0  0  0  0  0  0  0  0  0
   -3.9776   -3.2648    3.6025 C   0  0  0  0  0  0  0  0  0  0  0  0
   -5.0124   -4.6684    5.3486 N   0  0  0  0  0  0  0  0  0  0  0  0
   -5.0299   -5.3167    6.5235 C   0  0  0  0  0  0  0  0  0  0  0  0
   -6.1722   -6.0758    7.0494 C   0  0  0  0  0  0  0  0  0  0  0  0
   -7.7865   -5.5583    6.5009 S   0  0  0  0  0  0  0  0  0  0  0  0
   -9.0536   -5.8906    7.6746 C   0  0  0  0  0  0  0  0  0  0  0  0
  -10.3662   -5.9355    7.3071 C   0  0  0  0  0  0  0  0  0  0  0  0
  -11.3488   -6.2148    8.2534 C   0  0  0  0  0  0  0  0  0  0  0  0
  -11.0538   -6.4508    9.5662 C   0  0  0  0  0  0  0  0  0  0  0  0
  -12.0152   -6.7233   10.4887 F   0  0  0  0  0  0  0  0  0  0  0  0
   -9.7173   -6.4006    9.9186 C   0  0  0  0  0  0  0  0  0  0  0  0
   -8.7280   -6.1281    9.0087 C   0  0  0  0  0  0  0  0  0  0  0  0
 20 21  1  0  0  0
 21  1  1  0  0  0
  1  2  2  0  0  0
  2  3  1  0  0  0
  3  4  2  0  0  0
  4  5  1  0  0  0
  5  6  2  0  0  0
  6 22  1  0  0  0
 22 24  1  0  0  0
 24 25  2  0  0  0
 24 26  2  0  0  0
 24 27  1  0  0  0
 27 28  2  0  0  0
 28 29  1  0  0  0
 29 30  2  0  0  0
 30 31  1  0  0  0
 30 32  1  0  0  0
 32 33  2  0  0  0
 33 34  1  0  0  0
 34 35  1  0  0  0
 35 36  1  0  0  0
 36 37  2  0  0  0
 37 38  1  0  0  0
 38 39  2  0  0  0
 39 40  1  0  0  0
 39 41  1  0  0  0
 41 42  2  0  0  0
  4  7  1  0  0  0
  7  8  2  0  0  0
  7  9  1  0  0  0
  9 11  1  0  0  0
 11 12  1  0  0  0
 12 13  1  0  0  0
 13 14  1  0  0  0
 14 15  1  0  0  0
 15 16  1  0  0  0
 14 17  1  0  0  0
 17 18  1  0  0  0
 17 19  2  0  0  0
  6  1  1  0  0  0
 33 27  1  0  0  0
 42 36  1  0  0  0
 16 11  1  0  0  0
 22 23  1  0  0  0
  9 10  1  0  0  0
M  END
> <minimizedAffinity>
5.84908

> <CNNscore>
0.2780227065

> <CNNaffinity>
6.7602853775

> <CNN_VS>
1.8795127869

> <CNNaffinity_variance>
0.2803765535

$$$$
[H]c1c(C([H])([H])[H])nc(C([H])([H])Sc2c([H])c([H])c(F)c([H])c2[H])c(S(=O)(=O)N([H])c2c([H])c(C(=O)N([H])C3([H])C([H])([H])C([H])([H])N(C(=O)C([H])([H])[H])C([H])([H])C3([H])[H])c([H])c([H])c2OC([H])([H])[H])c1[H]


 42 45  0  0  0  0  0  0  0  0999 V2000
  -13.0286   -9.6271    7.0589 C   0  0  0  0  0  0  0  0  0  0  0  0
  -13.8399   -9.7227    5.9299 C   0  0  0  0  0  0  0  0  0  0  0  0
  -14.9750   -8.9469    5.8014 C   0  0  0  0  0  0  0  0  0  0  0  0
  -15.3157   -8.0625    6.8009 C   0  0  0  0  0  0  0  0  0  0  0  0
  -14.4789   -7.9984    7.9125 C   0  0  0  0  0  0  0  0  0  0  0  0
  -13.3503   -8.7456    8.0781 C   0  0  0  0  0  0  0  0  0  0  0  0
  -16.4682   -7.2060    6.6688 C   0  0  0  0  0  0  0  0  0  0  0  0
  -17.1530   -7.0177    7.7368 O   0  0  0  0  0  0  0  0  0  0  0  0
  -16.9207   -6.5590    5.5023 N   0  0  0  0  0  0  0  0  0  0  0  0
  -16.3721   -6.6822    4.6267 H   0  0  0  0  0  0  0  0  0  0  0  0
  -18.0996   -5.7386    5.4724 C   0  0  0  0  0  0  0  0  0  0  0  0
  -17.8857   -4.4504    6.1951 C   0  0  0  0  0  0  0  0  0  0  0  0
  -19.1463   -3.6027    6.2029 C   0  0  0  0  0  0  0  0  0  0  0  0
  -19.8608   -3.6387    4.9662 N   0  0  0  0  0  0  0  0  0  0  0  0
  -19.6601   -4.6016    3.8998 C   0  0  0  0  0  0  0  0  0  0  0  0
  -18.4038   -5.4048    4.0195 C   0  0  0  0  0  0  0  0  0  0  0  0
  -20.8647   -2.6605    4.7371 C   0  0  0  0  0  0  0  0  0  0  0  0
  -21.6540   -2.6427    3.4739 C   0  0  0  0  0  0  0  0  0  0  0  0
  -21.1087   -1.7754    5.6203 O   0  0  0  0  0  0  0  0  0  0  0  0
  -10.8614  -10.3854    6.1910 C   0  0  0  0  0  0  0  0  0  0  0  0
  -11.9000  -10.4385    7.1216 O   0  0  0  0  0  0  0  0  0  0  0  0
  -12.4780   -8.6501    9.1798 N   0  0  0  0  0  0  0  0  0  0  0  0
  -12.3250   -9.4836    9.7814 H   0  0  0  0  0  0  0  0  0  0  0  0
  -11.6639   -7.1920    9.5582 S   0  0  0  0  0  0  0  0  0  0  0  0
  -12.5105   -5.9873    9.1501 O   0  0  0  0  0  0  0  0  0  0  0  0
  -11.4716   -7.0016   11.0537 O   0  0  0  0  0  0  0  0  0  0  0  0
  -10.0756   -7.1100    8.8335 C   0  0  0  0  0  0  0  0  0  0  0  0
   -8.9225   -7.1744    9.5998 C   0  0  0  0  0  0  0  0  0  0  0  0
   -7.6667   -7.1305    9.0864 C   0  0  0  0  0  0  0  0  0  0  0  0
   -7.5387   -7.0156    7.7255 C   0  0  0  0  0  0  0  0  0  0  0  0
   -6.1767   -6.9734    7.1456 C   0  0  0  0  0  0  0  0  0  0  0  0
   -8.6372   -6.9506    6.9574 N   0  0  0  0  0  0  0  0  0  0  0  0
   -9.8860   -6.9920    7.4470 C   0  0  0  0  0  0  0  0  0  0  0  0
  -11.1101   -6.8947    6.6410 C   0  0  0  0  0  0  0  0  0  0  0  0
  -11.0104   -5.8980    5.1674 S   0  0  0  0  0  0  0  0  0  0  0  0
  -12.5706   -5.2708    4.6516 C   0  0  0  0  0  0  0  0  0  0  0  0
  -12.6810   -4.4471    3.5702 C   0  0  0  0  0  0  0  0  0  0  0  0
  -13.9300   -3.9758    3.1741 C   0  0  0  0  0  0  0  0  0  0  0  0
  -15.0794   -4.3062    3.8344 C   0  0  0  0  0  0  0  0  0  0  0  0
  -16.2981   -3.8445    3.4458 F   0  0  0  0  0  0  0  0  0  0  0  0
  -14.9460   -5.1421    4.9281 C   0  0  0  0  0  0  0  0  0  0  0  0
  -13.7296   -5.6219    5.3413 C   0  0  0  0  0  0  0  0  0  0  0  0
 20 21  1  0  0  0
 21  1  1  0  0  0
  1  2  2  0  0  0
  2  3  1  0  0  0
  3  4  2  0  0  0
  4  5  1  0  0  0
  5  6  2  0  0  0
  6 22  1  0  0  0
 22 24  1  0  0  0
 24 25  2  0  0  0
 24 26  2  0  0  0
 24 27  1  0  0  0
 27 28  2  0  0  0
 28 29  1  0  0  0
 29 30  2  0  0  0
 30 31  1  0  0  0
 30 32  1  0  0  0
 32 33  2  0  0  0
 33 34  1  0  0  0
 34 35  1  0  0  0
 35 36  1  0  0  0
 36 37  2  0  0  0
 37 38  1  0  0  0
 38 39  2  0  0  0
 39 40  1  0  0  0
 39 41  1  0  0  0
 41 42  2  0  0  0
  4  7  1  0  0  0
  7  8  2  0  0  0
  7  9  1  0  0  0
  9 11  1  0  0  0
 11 12  1  0  0  0
 12 13  1  0  0  0
 13 14  1  0  0  0
 14 15  1  0  0  0
 15 16  1  0  0  0
 14 17  1  0  0  0
 17 18  1  0  0  0
 17 19  2  0  0  0
  6  1  1  0  0  0
 33 27  1  0  0  0
 42 36  1  0  0  0
 16 11  1  0  0  0
 22 23  1  0  0  0
  9 10  1  0  0  0
M  END
> <minimizedAffinity>
19.79131

> <CNNscore>
0.2687270343

> <CNNaffinity>
6.9360733032

> <CNN_VS>
1.8639104366

> <CNNaffinity_variance>
0.2670757174

$$$$
[H]c1c(C([H])([H])[H])nc(C([H])([H])Sc2c([H])c([H])c(F)c([H])c2[H])c(S(=O)(=O)N([H])c2c([H])c(C(=O)N([H])C3([H])C([H])([H])C([H])([H])N(C(=O)C([H])([H])[H])C([H])([H])C3([H])[H])c([H])c([H])c2OC([H])([H])[H])c1[H]


 42 45  0  0  0  0  0  0  0  0999 V2000
   -8.0302   -7.1797    8.8748 C   0  0  0  0  0  0  0  0  0  0  0  0
   -9.1421   -6.7207    9.5783 C   0  0  0  0  0  0  0  0  0  0  0  0
  -10.4166   -6.8626    9.0664 C   0  0  0  0  0  0  0  0  0  0  0  0
  -10.5985   -7.4671    7.8422 C   0  0  0  0  0  0  0  0  0  0  0  0
   -9.4614   -7.9108    7.1713 C   0  0  0  0  0  0  0  0  0  0  0  0
   -8.1870   -7.7904    7.6412 C   0  0  0  0  0  0  0  0  0  0  0  0
  -11.9223   -7.6718    7.3083 C   0  0  0  0  0  0  0  0  0  0  0  0
  -12.4969   -6.6345    6.8193 O   0  0  0  0  0  0  0  0  0  0  0  0
  -12.6480   -8.8783    7.2667 N   0  0  0  0  0  0  0  0  0  0  0  0
  -12.1964   -9.7376    7.6416 H   0  0  0  0  0  0  0  0  0  0  0  0
  -13.9767   -8.9716    6.7286 C   0  0  0  0  0  0  0  0  0  0  0  0
  -14.9414   -8.1452    7.5121 C   0  0  0  0  0  0  0  0  0  0  0  0
  -16.3545   -8.2798    6.9710 C   0  0  0  0  0  0  0  0  0  0  0  0
  -16.4133   -8.3181    5.5440 N   0  0  0  0  0  0  0  0  0  0  0  0
  -15.2891   -8.5450    4.6557 C   0  0  0  0  0  0  0  0  0  0  0  0
  -13.9492   -8.4231    5.3096 C   0  0  0  0  0  0  0  0  0  0  0  0
  -17.6717   -8.1253    4.9142 C   0  0  0  0  0  0  0  0  0  0  0  0
  -17.8084   -8.1600    3.4314 C   0  0  0  0  0  0  0  0  0  0  0  0
  -18.7140   -7.9197    5.6173 O   0  0  0  0  0  0  0  0  0  0  0  0
   -6.5713   -6.8740   10.8250 C   0  0  0  0  0  0  0  0  0  0  0  0
   -6.7757   -7.0041    9.4507 O   0  0  0  0  0  0  0  0  0  0  0  0
   -7.0397   -8.2788    6.9862 N   0  0  0  0  0  0  0  0  0  0  0  0
   -6.7504   -9.2658    7.1347 H   0  0  0  0  0  0  0  0  0  0  0  0
   -6.1035   -7.2856    5.9522 S   0  0  0  0  0  0  0  0  0  0  0  0
   -5.6968   -8.0564    4.6971 O   0  0  0  0  0  0  0  0  0  0  0  0
   -6.8904   -6.1057    5.4058 O   0  0  0  0  0  0  0  0  0  0  0  0
   -4.7006   -6.6235    6.7573 C   0  0  0  0  0  0  0  0  0  0  0  0
   -4.2819   -7.0931    7.9922 C   0  0  0  0  0  0  0  0  0  0  0  0
   -3.1923   -6.6247    8.6525 C   0  0  0  0  0  0  0  0  0  0  0  0
   -2.4661   -5.6260    8.0551 C   0  0  0  0  0  0  0  0  0  0  0  0
   -1.2696   -5.1067    8.7565 C   0  0  0  0  0  0  0  0  0  0  0  0
   -2.8473   -5.1507    6.8594 N   0  0  0  0  0  0  0  0  0  0  0  0
   -3.9213   -5.6008    6.1924 C   0  0  0  0  0  0  0  0  0  0  0  0
   -4.3850   -5.0858    4.8973 C   0  0  0  0  0  0  0  0  0  0  0  0
   -3.7639   -3.4876    4.4127 S   0  0  0  0  0  0  0  0  0  0  0  0
   -2.9828   -3.4995    2.8368 C   0  0  0  0  0  0  0  0  0  0  0  0
   -3.2853   -2.5670    1.8887 C   0  0  0  0  0  0  0  0  0  0  0  0
   -2.6419   -2.5901    0.6540 C   0  0  0  0  0  0  0  0  0  0  0  0
   -1.6990   -3.5268    0.3381 C   0  0  0  0  0  0  0  0  0  0  0  0
   -1.0720   -3.5474   -0.8685 F   0  0  0  0  0  0  0  0  0  0  0  0
   -1.4066   -4.4634    1.3128 C   0  0  0  0  0  0  0  0  0  0  0  0
   -2.0238   -4.4654    2.5375 C   0  0  0  0  0  0  0  0  0  0  0  0
 20 21  1  0  0  0
 21  1  1  0  0  0
  1  2  2  0  0  0
  2  3  1  0  0  0
  3  4  2  0  0  0
  4  5  1  0  0  0
  5  6  2  0  0  0
  6 22  1  0  0  0
 22 24  1  0  0  0
 24 25  2  0  0  0
 24 26  2  0  0  0
 24 27  1  0  0  0
 27 28  2  0  0  0
 28 29  1  0  0  0
 29 30  2  0  0  0
 30 31  1  0  0  0
 30 32  1  0  0  0
 32 33  2  0  0  0
 33 34  1  0  0  0
 34 35  1  0  0  0
 35 36  1  0  0  0
 36 37  2  0  0  0
 37 38  1  0  0  0
 38 39  2  0  0  0
 39 40  1  0  0  0
 39 41  1  0  0  0
 41 42  2  0  0  0
  4  7  1  0  0  0
  7  8  2  0  0  0
  7  9  1  0  0  0
  9 11  1  0  0  0
 11 12  1  0  0  0
 12 13  1  0  0  0
 13 14  1  0  0  0
 14 15  1  0  0  0
 15 16  1  0  0  0
 14 17  1  0  0  0
 17 18  1  0  0  0
 17 19  2  0  0  0
  6  1  1  0  0  0
 33 27  1  0  0  0
 42 36  1  0  0  0
 16 11  1  0  0  0
 22 23  1  0  0  0
  9 10  1  0  0  0
M  END
> <minimizedAffinity>
-1.61858

> <CNNscore>
0.2426275313

> <CNNaffinity>
6.7345976830

> <CNN_VS>
1.6339987516

> <CNNaffinity_variance>
0.6512854695

$$$$
[H]c1c(C([H])([H])[H])nc(C([H])([H])Sc2c([H])c([H])c(F)c([H])c2[H])c(S(=O)(=O)N([H])c2c([H])c(C(=O)N([H])C3([H])C([H])([H])C([H])([H])N(C(=O)C([H])([H])[H])C([H])([H])C3([H])[H])c([H])c([H])c2OC([H])([H])[H])c1[H]


 42 45  0  0  0  0  0  0  0  0999 V2000
   -8.4817   -9.1229    6.7814 C   0  0  0  0  0  0  0  0  0  0  0  0
   -7.2417   -8.8555    6.2046 C   0  0  0  0  0  0  0  0  0  0  0  0
   -6.3204   -8.0469    6.8402 C   0  0  0  0  0  0  0  0  0  0  0  0
   -6.6256   -7.4935    8.0641 C   0  0  0  0  0  0  0  0  0  0  0  0
   -7.8754   -7.7848    8.6054 C   0  0  0  0  0  0  0  0  0  0  0  0
   -8.8124   -8.5776    8.0113 C   0  0  0  0  0  0  0  0  0  0  0  0
   -5.6624   -6.6862    8.7710 C   0  0  0  0  0  0  0  0  0  0  0  0
   -5.8445   -6.5739   10.0357 O   0  0  0  0  0  0  0  0  0  0  0  0
   -4.5517   -6.0117    8.2273 N   0  0  0  0  0  0  0  0  0  0  0  0
   -4.3728   -6.1016    7.2062 H   0  0  0  0  0  0  0  0  0  0  0  0
   -3.6596   -5.2121    9.0200 C   0  0  0  0  0  0  0  0  0  0  0  0
   -3.1980   -4.0061    8.2718 C   0  0  0  0  0  0  0  0  0  0  0  0
   -2.2189   -3.1847    9.0931 C   0  0  0  0  0  0  0  0  0  0  0  0
   -2.5715   -3.0987   10.4749 N   0  0  0  0  0  0  0  0  0  0  0  0
   -3.5396   -3.9374   11.1559 C   0  0  0  0  0  0  0  0  0  0  0  0
   -4.4231   -4.7285   10.2440 C   0  0  0  0  0  0  0  0  0  0  0  0
   -1.9290   -2.1178   11.2764 C   0  0  0  0  0  0  0  0  0  0  0  0
   -2.2419   -1.9766   12.7259 C   0  0  0  0  0  0  0  0  0  0  0  0
   -1.0641   -1.3371   10.7611 O   0  0  0  0  0  0  0  0  0  0  0  0
   -9.4944  -11.3134    6.3331 C   0  0  0  0  0  0  0  0  0  0  0  0
   -9.3610   -9.9466    6.0854 O   0  0  0  0  0  0  0  0  0  0  0  0
  -10.0586   -8.9105    8.5770 N   0  0  0  0  0  0  0  0  0  0  0  0
  -10.1606   -9.8081    9.0908 H   0  0  0  0  0  0  0  0  0  0  0  0
  -11.4151   -7.8751    8.4368 S   0  0  0  0  0  0  0  0  0  0  0  0
  -12.1866   -7.8256    9.7547 O   0  0  0  0  0  0  0  0  0  0  0  0
  -11.0220   -6.4262    8.2000 O   0  0  0  0  0  0  0  0  0  0  0  0
  -12.4666   -8.3318    7.1175 C   0  0  0  0  0  0  0  0  0  0  0  0
  -12.2580   -9.4929    6.3900 C   0  0  0  0  0  0  0  0  0  0  0  0
  -13.0522   -9.9008    5.3675 C   0  0  0  0  0  0  0  0  0  0  0  0
  -14.1248   -9.1109    5.0400 C   0  0  0  0  0  0  0  0  0  0  0  0
  -15.0073   -9.5426    3.9320 C   0  0  0  0  0  0  0  0  0  0  0  0
  -14.3522   -7.9803    5.7263 N   0  0  0  0  0  0  0  0  0  0  0  0
  -13.5780   -7.5611    6.7392 C   0  0  0  0  0  0  0  0  0  0  0  0
  -13.7788   -6.3168    7.4934 C   0  0  0  0  0  0  0  0  0  0  0  0
  -14.8506   -5.1039    6.7485 S   0  0  0  0  0  0  0  0  0  0  0  0
  -15.9557   -5.7926    5.5661 C   0  0  0  0  0  0  0  0  0  0  0  0
  -16.9160   -6.6894    5.9316 C   0  0  0  0  0  0  0  0  0  0  0  0
  -17.7877   -7.2090    4.9781 C   0  0  0  0  0  0  0  0  0  0  0  0
  -17.7247   -6.8556    3.6600 C   0  0  0  0  0  0  0  0  0  0  0  0
  -18.5770   -7.3645    2.7305 F   0  0  0  0  0  0  0  0  0  0  0  0
  -16.7440   -5.9454    3.3098 C   0  0  0  0  0  0  0  0  0  0  0  0
  -15.8719   -5.4169    4.2267 C   0  0  0  0  0  0  0  0  0  0  0  0
 20 21  1  0  0  0
 21  1  1  0  0  0
  1  2  2  0  0  0
  2  3  1  0  0  0
  3  4  2  0  0  0
  4  5  1  0  0  0
  5  6  2  0  0  0
  6 22  1  0  0  0
 22 24  1  0  0  0
 24 25  2  0  0  0
 24 26  2  0  0  0
 24 27  1  0  0  0
 27 28  2  0  0  0
 28 29  1  0  0  0
 29 30  2  0  0  0
 30 31  1  0  0  0
 30 32  1  0  0  0
 32 33  2  0  0  0
 33 34  1  0  0  0
 34 35  1  0  0  0
 35 36  1  0  0  0
 36 37  2  0  0  0
 37 38  1  0  0  0
 38 39  2  0  0  0
 39 40  1  0  0  0
 39 41  1  0  0  0
 41 42  2  0  0  0
  4  7  1  0  0  0
  7  8  2  0  0  0
  7  9  1  0  0  0
  9 11  1  0  0  0
 11 12  1  0  0  0
 12 13  1  0  0  0
 13 14  1  0  0  0
 14 15  1  0  0  0
 15 16  1  0  0  0
 14 17  1  0  0  0
 17 18  1  0  0  0
 17 19  2  0  0  0
  6  1  1  0  0  0
 33 27  1  0  0  0
 42 36  1  0  0  0
 16 11  1  0  0  0
 22 23  1  0  0  0
  9 10  1  0  0  0
M  END
> <minimizedAffinity>
-2.85263

> <CNNscore>
0.2356629819

> <CNNaffinity>
6.5746064186

> <CNN_VS>
1.5493913889

> <CNNaffinity_variance>
0.1603345424

$$$$
[H]c1nc2c([H])c(OC([H])([H])[H])c(OC([H])([H])C([H])([H])C([H])([H])N3C([H])([H])C([H])([H])OC([H])([H])C3([H])[H])c([H])c2c(Oc2c([H])c([H])c(N([H])C(=O)N([H])c3c([H])c([H])c([H])c(C(F)(F)F)c3[H])c([H])c2F)c1[H]


 46 50  0  0  0  0  0  0  0  0999 V2000
   -7.4758   -7.6259    8.6108 O   0  0  0  0  0  0  0  0  0  0  0  0
   -3.3402   -4.8369    8.0760 C   0  0  0  0  0  0  0  0  0  0  0  0
   -3.8121   -5.0416    6.8192 C   0  0  0  0  0  0  0  0  0  0  0  0
   -4.9418   -5.7827    6.6119 C   0  0  0  0  0  0  0  0  0  0  0  0
   -5.4063   -5.9073    5.3759 N   0  0  0  0  0  0  0  0  0  0  0  0
   -6.5311   -6.5685    5.1554 C   0  0  0  0  0  0  0  0  0  0  0  0
   -7.2457   -7.1444    6.2132 C   0  0  0  0  0  0  0  0  0  0  0  0
   -6.7926   -7.0414    7.5194 C   0  0  0  0  0  0  0  0  0  0  0  0
   -5.6343   -6.3493    7.7186 C   0  0  0  0  0  0  0  0  0  0  0  0
   -5.1189   -6.1178    9.0008 C   0  0  0  0  0  0  0  0  0  0  0  0
   -3.9849   -5.3709    9.2081 C   0  0  0  0  0  0  0  0  0  0  0  0
   -2.2812   -2.7130    8.0311 C   0  0  0  0  0  0  0  0  0  0  0  0
   -2.1876   -4.0984    8.3597 O   0  0  0  0  0  0  0  0  0  0  0  0
   -3.4795   -5.1269   10.4416 O   0  0  0  0  0  0  0  0  0  0  0  0
   -3.7317   -4.0612   11.2721 C   0  0  0  0  0  0  0  0  0  0  0  0
   -3.8652   -4.5526   12.7437 C   0  0  0  0  0  0  0  0  0  0  0  0
   -5.2025   -5.1973   12.9589 C   0  0  0  0  0  0  0  0  0  0  0  0
   -5.2397   -5.7649   14.3002 N   0  0  0  0  0  0  0  0  0  0  0  0
   -4.9093   -4.6815   15.2028 C   0  0  0  0  0  0  0  0  0  0  0  0
   -5.0135   -5.1145   16.6197 C   0  0  0  0  0  0  0  0  0  0  0  0
   -4.8927   -6.4731   16.7413 O   0  0  0  0  0  0  0  0  0  0  0  0
   -3.8821   -6.9811   15.9121 C   0  0  0  0  0  0  0  0  0  0  0  0
   -4.2514   -6.8177   14.4575 C   0  0  0  0  0  0  0  0  0  0  0  0
   -8.8066   -7.9953    8.2515 C   0  0  0  0  0  0  0  0  0  0  0  0
   -9.8708   -7.1678    8.4261 C   0  0  0  0  0  0  0  0  0  0  0  0
  -11.1875   -7.5156    8.0548 C   0  0  0  0  0  0  0  0  0  0  0  0
  -11.4588   -8.7338    7.4856 C   0  0  0  0  0  0  0  0  0  0  0  0
  -10.3383   -9.5878    7.3173 C   0  0  0  0  0  0  0  0  0  0  0  0
   -9.0760   -9.2321    7.6857 C   0  0  0  0  0  0  0  0  0  0  0  0
   -8.0420  -10.1210    7.5476 F   0  0  0  0  0  0  0  0  0  0  0  0
  -12.6751   -9.1203    6.9301 N   0  0  0  0  0  0  0  0  0  0  0  0
  -13.7201   -8.2884    6.4449 C   0  0  0  0  0  0  0  0  0  0  0  0
  -13.5833   -7.0826    6.5379 O   0  0  0  0  0  0  0  0  0  0  0  0
  -14.8297   -8.9280    5.8604 N   0  0  0  0  0  0  0  0  0  0  0  0
  -12.9004  -10.1779    6.8433 H   0  0  0  0  0  0  0  0  0  0  0  0
  -14.9086   -9.9942    5.8255 H   0  0  0  0  0  0  0  0  0  0  0  0
  -15.9314   -8.2578    5.2582 C   0  0  0  0  0  0  0  0  0  0  0  0
  -16.9293   -9.0188    4.6575 C   0  0  0  0  0  0  0  0  0  0  0  0
  -17.9372   -8.3875    4.0235 C   0  0  0  0  0  0  0  0  0  0  0  0
  -18.0530   -6.9922    3.9251 C   0  0  0  0  0  0  0  0  0  0  0  0
  -17.0329   -6.2374    4.5451 C   0  0  0  0  0  0  0  0  0  0  0  0
  -16.0305   -6.8963    5.1768 C   0  0  0  0  0  0  0  0  0  0  0  0
  -17.0992   -4.7413    4.4809 C   0  0  0  0  0  0  0  0  0  0  0  0
  -17.3263   -4.4076    3.1506 F   0  0  0  0  0  0  0  0  0  0  0  0
  -18.0804   -4.2491    5.3229 F   0  0  0  0  0  0  0  0  0  0  0  0
  -15.9141   -4.1892    4.9267 F   0  0  0  0  0  0  0  0  0  0  0  0
 12 13  1  0  0  0
 13  2  1  0  0  0
  2  3  2  0  0  0
  3  4  1  0  0  0
  4  5  2  0  0  0
  5  6  1  0  0  0
  6  7  2  0  0  0
  7  8  1  0  0  0
  8  1  1  0  0  0
  1 24  1  0  0  0
 24 25  2  0  0  0
 25 26  1  0  0  0
 26 27  2  0  0  0
 27 31  1  0  0  0
 31 32  1  0  0  0
 32 33  2  0  0  0
 32 34  1  0  0  0
 34 37  1  0  0  0
 37 38  2  0  0  0
 38 39  1  0  0  0
 39 40  2  0  0  0
 40 41  1  0  0  0
 41 42  2  0  0  0
 41 43  1  0  0  0
 43 44  1  0  0  0
 43 45  1  0  0  0
 43 46  1  0  0  0
 27 28  1  0  0  0
 28 29  2  0  0  0
 29 30  1  0  0  0
  8  9  2  0  0  0
  9 10  1  0  0  0
 10 11  2  0  0  0
 11 14  1  0  0  0
 14 15  1  0  0  0
 15 16  1  0  0  0
 16 17  1  0  0  0
 17 18  1  0  0  0
 18 19  1  0  0  0
 19 20  1  0  0  0
 20 21  1  0  0  0
 21 22  1  0  0  0
 22 23  1  0  0  0
 11  2  1  0  0  0
 23 18  1  0  0  0
  9  4  1  0  0  0
 29 24  1  0  0  0
 42 37  1  0  0  0
 31 35  1  0  0  0
 34 36  1  0  0  0
M  END
> <minimizedAffinity>
-9.71484

> <CNNscore>
0.4849102795

> <CNNaffinity>
7.4562325478

> <CNN_VS>
3.6156039238

> <CNNaffinity_variance>
0.0207762141

$$$$
[H]c1nc2c([H])c(OC([H])([H])[H])c(OC([H])([H])C([H])([H])C([H])([H])N3C([H])([H])C([H])([H])OC([H])([H])C3([H])[H])c([H])c2c(Oc2c([H])c([H])c(N([H])C(=O)N([H])c3c([H])c([H])c([H])c(C(F)(F)F)c3[H])c([H])c2F)c1[H]


 46 50  0  0  0  0  0  0  0  0999 V2000
   -7.4584   -7.8305    8.5703 O   0  0  0  0  0  0  0  0  0  0  0  0
   -3.4548   -4.8270    8.2277 C   0  0  0  0  0  0  0  0  0  0  0  0
   -3.8922   -5.0052    6.9545 C   0  0  0  0  0  0  0  0  0  0  0  0
   -4.9801   -5.7912    6.6958 C   0  0  0  0  0  0  0  0  0  0  0  0
   -5.4145   -5.8899    5.4466 N   0  0  0  0  0  0  0  0  0  0  0  0
   -6.5012   -6.5954    5.1778 C   0  0  0  0  0  0  0  0  0  0  0  0
   -7.2067   -7.2457    6.1979 C   0  0  0  0  0  0  0  0  0  0  0  0
   -6.7841   -7.1718    7.5162 C   0  0  0  0  0  0  0  0  0  0  0  0
   -5.6650   -6.4331    7.7655 C   0  0  0  0  0  0  0  0  0  0  0  0
   -5.1859   -6.2270    9.0661 C   0  0  0  0  0  0  0  0  0  0  0  0
   -4.0940   -5.4350    9.3251 C   0  0  0  0  0  0  0  0  0  0  0  0
   -1.0937   -4.5940    8.1523 C   0  0  0  0  0  0  0  0  0  0  0  0
   -2.3453   -4.0454    8.5631 O   0  0  0  0  0  0  0  0  0  0  0  0
   -3.6246   -5.2151   10.5772 O   0  0  0  0  0  0  0  0  0  0  0  0
   -4.1203   -4.3665   11.5381 C   0  0  0  0  0  0  0  0  0  0  0  0
   -3.0041   -4.0148   12.5653 C   0  0  0  0  0  0  0  0  0  0  0  0
   -2.0565   -3.0090   11.9817 C   0  0  0  0  0  0  0  0  0  0  0  0
   -2.7549   -1.7395   11.8286 N   0  0  0  0  0  0  0  0  0  0  0  0
   -2.3092   -1.1871   10.5662 C   0  0  0  0  0  0  0  0  0  0  0  0
   -3.0323    0.0704   10.2470 C   0  0  0  0  0  0  0  0  0  0  0  0
   -3.5374    0.6609   11.3745 O   0  0  0  0  0  0  0  0  0  0  0  0
   -2.6258    0.6122   12.4394 C   0  0  0  0  0  0  0  0  0  0  0  0
   -2.4060   -0.8115   12.8903 C   0  0  0  0  0  0  0  0  0  0  0  0
   -8.7948   -8.1674    8.2001 C   0  0  0  0  0  0  0  0  0  0  0  0
   -9.8342   -7.3016    8.3339 C   0  0  0  0  0  0  0  0  0  0  0  0
  -11.1557   -7.6176    7.9514 C   0  0  0  0  0  0  0  0  0  0  0  0
  -11.4577   -8.8425    7.4126 C   0  0  0  0  0  0  0  0  0  0  0  0
  -10.3631   -9.7363    7.2868 C   0  0  0  0  0  0  0  0  0  0  0  0
   -9.0956   -9.4108    7.6652 C   0  0  0  0  0  0  0  0  0  0  0  0
   -8.0891  -10.3359    7.5692 F   0  0  0  0  0  0  0  0  0  0  0  0
  -12.6772   -9.2057    6.8488 N   0  0  0  0  0  0  0  0  0  0  0  0
  -13.7232   -8.3543    6.4007 C   0  0  0  0  0  0  0  0  0  0  0  0
  -13.5839   -7.1532    6.5389 O   0  0  0  0  0  0  0  0  0  0  0  0
  -14.8366   -8.9695    5.7976 N   0  0  0  0  0  0  0  0  0  0  0  0
  -12.9047  -10.2588    6.7228 H   0  0  0  0  0  0  0  0  0  0  0  0
  -14.9175  -10.0335    5.7225 H   0  0  0  0  0  0  0  0  0  0  0  0
  -15.9401   -8.2752    5.2268 C   0  0  0  0  0  0  0  0  0  0  0  0
  -16.9648   -9.0137    4.6434 C   0  0  0  0  0  0  0  0  0  0  0  0
  -17.9759   -8.3596    4.0382 C   0  0  0  0  0  0  0  0  0  0  0  0
  -18.0696   -6.9617    3.9538 C   0  0  0  0  0  0  0  0  0  0  0  0
  -17.0223   -6.2300    4.5560 C   0  0  0  0  0  0  0  0  0  0  0  0
  -16.0172   -6.9116    5.1587 C   0  0  0  0  0  0  0  0  0  0  0  0
  -17.0637   -4.7326    4.5054 C   0  0  0  0  0  0  0  0  0  0  0  0
  -15.8566   -4.2810    5.0263 F   0  0  0  0  0  0  0  0  0  0  0  0
  -17.2824   -4.2832    3.2153 F   0  0  0  0  0  0  0  0  0  0  0  0
  -18.1249   -4.2567    5.2506 F   0  0  0  0  0  0  0  0  0  0  0  0
 12 13  1  0  0  0
 13  2  1  0  0  0
  2  3  2  0  0  0
  3  4  1  0  0  0
  4  5  2  0  0  0
  5  6  1  0  0  0
  6  7  2  0  0  0
  7  8  1  0  0  0
  8  1  1  0  0  0
  1 24  1  0  0  0
 24 25  2  0  0  0
 25 26  1  0  0  0
 26 27  2  0  0  0
 27 31  1  0  0  0
 31 32  1  0  0  0
 32 33  2  0  0  0
 32 34  1  0  0  0
 34 37  1  0  0  0
 37 38  2  0  0  0
 38 39  1  0  0  0
 39 40  2  0  0  0
 40 41  1  0  0  0
 41 42  2  0  0  0
 41 43  1  0  0  0
 43 44  1  0  0  0
 43 45  1  0  0  0
 43 46  1  0  0  0
 27 28  1  0  0  0
 28 29  2  0  0  0
 29 30  1  0  0  0
  8  9  2  0  0  0
  9 10  1  0  0  0
 10 11  2  0  0  0
 11 14  1  0  0  0
 14 15  1  0  0  0
 15 16  1  0  0  0
 16 17  1  0  0  0
 17 18  1  0  0  0
 18 19  1  0  0  0
 19 20  1  0  0  0
 20 21  1  0  0  0
 21 22  1  0  0  0
 22 23  1  0  0  0
 11  2  1  0  0  0
 23 18  1  0  0  0
  9  4  1  0  0  0
 29 24  1  0  0  0
 42 37  1  0  0  0
 31 35  1  0  0  0
 34 36  1  0  0  0
M  END
> <minimizedAffinity>
-9.12019

> <CNNscore>
0.4609282315

> <CNNaffinity>
7.3045592308

> <CNN_VS>
3.3668775558

> <CNNaffinity_variance>
0.0764635950

$$$$
[H]c1nc2c([H])c(OC([H])([H])[H])c(OC([H])([H])C([H])([H])C([H])([H])N3C([H])([H])C([H])([H])OC([H])([H])C3([H])[H])c([H])c2c(Oc2c([H])c([H])c(N([H])C(=O)N([H])c3c([H])c([H])c([H])c(C(F)(F)F)c3[H])c([H])c2F)c1[H]


 46 50  0  0  0  0  0  0  0  0999 V2000
   -7.5604   -7.7746    8.4780 O   0  0  0  0  0  0  0  0  0  0  0  0
   -3.5409   -4.9692    7.4097 C   0  0  0  0  0  0  0  0  0  0  0  0
   -4.2201   -5.1008    6.2410 C   0  0  0  0  0  0  0  0  0  0  0  0
   -5.3772   -5.8262    6.1863 C   0  0  0  0  0  0  0  0  0  0  0  0
   -6.0446   -5.8791    5.0414 N   0  0  0  0  0  0  0  0  0  0  0  0
   -7.1982   -6.5240    4.9773 C   0  0  0  0  0  0  0  0  0  0  0  0
   -7.7314   -7.1576    6.1066 C   0  0  0  0  0  0  0  0  0  0  0  0
   -7.0638   -7.1303    7.3213 C   0  0  0  0  0  0  0  0  0  0  0  0
   -5.8803   -6.4534    7.3605 C   0  0  0  0  0  0  0  0  0  0  0  0
   -5.1537   -6.2966    8.5484 C   0  0  0  0  0  0  0  0  0  0  0  0
   -3.9922   -5.5654    8.6027 C   0  0  0  0  0  0  0  0  0  0  0  0
   -1.1934   -4.9399    7.0587 C   0  0  0  0  0  0  0  0  0  0  0  0
   -2.3483   -4.2507    7.5356 O   0  0  0  0  0  0  0  0  0  0  0  0
   -3.2836   -5.3934    9.7449 O   0  0  0  0  0  0  0  0  0  0  0  0
   -3.5219   -4.5130   10.7732 C   0  0  0  0  0  0  0  0  0  0  0  0
   -2.4070   -4.6405   11.8528 C   0  0  0  0  0  0  0  0  0  0  0  0
   -1.1932   -5.3044   11.2730 C   0  0  0  0  0  0  0  0  0  0  0  0
   -1.1918   -6.7070   11.6673 N   0  0  0  0  0  0  0  0  0  0  0  0
   -0.3119   -6.7997   12.8140 C   0  0  0  0  0  0  0  0  0  0  0  0
   -0.3058   -8.1752   13.3743 C   0  0  0  0  0  0  0  0  0  0  0  0
   -0.6900   -9.1008   12.4411 O   0  0  0  0  0  0  0  0  0  0  0  0
   -0.1226   -8.8390   11.1854 C   0  0  0  0  0  0  0  0  0  0  0  0
   -0.6671   -7.5539   10.6102 C   0  0  0  0  0  0  0  0  0  0  0  0
   -8.9805   -7.9066    8.4284 C   0  0  0  0  0  0  0  0  0  0  0  0
   -9.8242   -6.9281    8.8507 C   0  0  0  0  0  0  0  0  0  0  0  0
  -11.2298   -7.0406    8.7865 C   0  0  0  0  0  0  0  0  0  0  0  0
  -11.8223   -8.1698    8.2808 C   0  0  0  0  0  0  0  0  0  0  0  0
  -10.9276   -9.1838    7.8514 C   0  0  0  0  0  0  0  0  0  0  0  0
   -9.5735   -9.0546    7.9254 C   0  0  0  0  0  0  0  0  0  0  0  0
   -8.7610  -10.0907    7.5448 F   0  0  0  0  0  0  0  0  0  0  0  0
  -13.1791   -8.3276    8.0139 N   0  0  0  0  0  0  0  0  0  0  0  0
  -13.9094   -7.8647    6.8860 C   0  0  0  0  0  0  0  0  0  0  0  0
  -13.3143   -7.2200    6.0426 O   0  0  0  0  0  0  0  0  0  0  0  0
  -15.2705   -8.2172    6.8149 N   0  0  0  0  0  0  0  0  0  0  0  0
  -13.7974   -8.8566    8.7311 H   0  0  0  0  0  0  0  0  0  0  0  0
  -15.7493   -8.7672    7.5976 H   0  0  0  0  0  0  0  0  0  0  0  0
  -16.1363   -7.9058    5.7291 C   0  0  0  0  0  0  0  0  0  0  0  0
  -16.3220   -8.8552    4.7291 C   0  0  0  0  0  0  0  0  0  0  0  0
  -17.0833   -8.5379    3.6632 C   0  0  0  0  0  0  0  0  0  0  0  0
  -17.7130   -7.2958    3.4881 C   0  0  0  0  0  0  0  0  0  0  0  0
  -17.5161   -6.3475    4.5160 C   0  0  0  0  0  0  0  0  0  0  0  0
  -16.7465   -6.6914    5.5778 C   0  0  0  0  0  0  0  0  0  0  0  0
  -18.1648   -5.0019    4.3929 C   0  0  0  0  0  0  0  0  0  0  0  0
  -18.0869   -4.4040    5.6454 F   0  0  0  0  0  0  0  0  0  0  0  0
  -17.5572   -4.2437    3.4080 F   0  0  0  0  0  0  0  0  0  0  0  0
  -19.4816   -5.1385    3.9988 F   0  0  0  0  0  0  0  0  0  0  0  0
 12 13  1  0  0  0
 13  2  1  0  0  0
  2  3  2  0  0  0
  3  4  1  0  0  0
  4  5  2  0  0  0
  5  6  1  0  0  0
  6  7  2  0  0  0
  7  8  1  0  0  0
  8  1  1  0  0  0
  1 24  1  0  0  0
 24 25  2  0  0  0
 25 26  1  0  0  0
 26 27  2  0  0  0
 27 31  1  0  0  0
 31 32  1  0  0  0
 32 33  2  0  0  0
 32 34  1  0  0  0
 34 37  1  0  0  0
 37 38  2  0  0  0
 38 39  1  0  0  0
 39 40  2  0  0  0
 40 41  1  0  0  0
 41 42  2  0  0  0
 41 43  1  0  0  0
 43 44  1  0  0  0
 43 45  1  0  0  0
 43 46  1  0  0  0
 27 28  1  0  0  0
 28 29  2  0  0  0
 29 30  1  0  0  0
  8  9  2  0  0  0
  9 10  1  0  0  0
 10 11  2  0  0  0
 11 14  1  0  0  0
 14 15  1  0  0  0
 15 16  1  0  0  0
 16 17  1  0  0  0
 17 18  1  0  0  0
 18 19  1  0  0  0
 19 20  1  0  0  0
 20 21  1  0  0  0
 21 22  1  0  0  0
 22 23  1  0  0  0
 11  2  1  0  0  0
 23 18  1  0  0  0
  9  4  1  0  0  0
 29 24  1  0  0  0
 42 37  1  0  0  0
 31 35  1  0  0  0
 34 36  1  0  0  0
M  END
> <minimizedAffinity>
-8.08539

> <CNNscore>
0.3297930360

> <CNNaffinity>
7.3605155945

> <CNN_VS>
2.4274468422

> <CNNaffinity_variance>
0.1050649285

$$$$
[H]c1nc2c([H])c(OC([H])([H])[H])c(OC([H])([H])C([H])([H])C([H])([H])N3C([H])([H])C([H])([H])OC([H])([H])C3([H])[H])c([H])c2c(Oc2c([H])c([H])c(N([H])C(=O)N([H])c3c([H])c([H])c([H])c(C(F)(F)F)c3[H])c([H])c2F)c1[H]


 46 50  0  0  0  0  0  0  0  0999 V2000
   -7.2347   -7.7436    8.4570 O   0  0  0  0  0  0  0  0  0  0  0  0
   -3.2837   -4.7267    7.7822 C   0  0  0  0  0  0  0  0  0  0  0  0
   -3.8546   -4.8662    6.5579 C   0  0  0  0  0  0  0  0  0  0  0  0
   -4.9656   -5.6450    6.3926 C   0  0  0  0  0  0  0  0  0  0  0  0
   -5.5308   -5.7058    5.1943 N   0  0  0  0  0  0  0  0  0  0  0  0
   -6.6415   -6.4039    5.0213 C   0  0  0  0  0  0  0  0  0  0  0  0
   -7.2358   -7.0860    6.0903 C   0  0  0  0  0  0  0  0  0  0  0  0
   -6.6750   -7.0522    7.3578 C   0  0  0  0  0  0  0  0  0  0  0  0
   -5.5341   -6.3202    7.5090 C   0  0  0  0  0  0  0  0  0  0  0  0
   -4.9188   -6.1536    8.7569 C   0  0  0  0  0  0  0  0  0  0  0  0
   -3.8037   -5.3688    8.9222 C   0  0  0  0  0  0  0  0  0  0  0  0
   -2.3467   -2.5484    7.8901 C   0  0  0  0  0  0  0  0  0  0  0  0
   -2.1430   -3.9546    8.0213 O   0  0  0  0  0  0  0  0  0  0  0  0
   -3.2032   -5.1870   10.1234 O   0  0  0  0  0  0  0  0  0  0  0  0
   -1.9237   -5.5219   10.4976 C   0  0  0  0  0  0  0  0  0  0  0  0
   -1.3655   -6.6286    9.5550 C   0  0  0  0  0  0  0  0  0  0  0  0
   -1.1483   -7.9021   10.3173 C   0  0  0  0  0  0  0  0  0  0  0  0
   -0.6957   -8.9321    9.3917 N   0  0  0  0  0  0  0  0  0  0  0  0
   -1.6339   -8.9191    8.2883 C   0  0  0  0  0  0  0  0  0  0  0  0
   -1.2188   -9.8655    7.2215 C   0  0  0  0  0  0  0  0  0  0  0  0
   -0.3974  -10.8462    7.7100 O   0  0  0  0  0  0  0  0  0  0  0  0
   -0.8383  -11.3214    8.9538 C   0  0  0  0  0  0  0  0  0  0  0  0
   -0.7225  -10.2472   10.0080 C   0  0  0  0  0  0  0  0  0  0  0  0
   -8.6010   -8.0786    8.2173 C   0  0  0  0  0  0  0  0  0  0  0  0
   -9.6249   -7.2286    8.4946 C   0  0  0  0  0  0  0  0  0  0  0  0
  -10.9779   -7.5421    8.2419 C   0  0  0  0  0  0  0  0  0  0  0  0
  -11.3288   -8.7480    7.6900 C   0  0  0  0  0  0  0  0  0  0  0  0
  -10.2489   -9.6258    7.4137 C   0  0  0  0  0  0  0  0  0  0  0  0
   -8.9502   -9.3031    7.6685 C   0  0  0  0  0  0  0  0  0  0  0  0
   -7.9546  -10.2142    7.4298 F   0  0  0  0  0  0  0  0  0  0  0  0
  -12.5993   -9.1007    7.2445 N   0  0  0  0  0  0  0  0  0  0  0  0
  -13.5480   -8.2862    6.5691 C   0  0  0  0  0  0  0  0  0  0  0  0
  -13.2612   -7.1212    6.3644 O   0  0  0  0  0  0  0  0  0  0  0  0
  -14.7447   -8.9029    6.1574 N   0  0  0  0  0  0  0  0  0  0  0  0
  -12.9554  -10.1104    7.4188 H   0  0  0  0  0  0  0  0  0  0  0  0
  -14.9552   -9.9268    6.3844 H   0  0  0  0  0  0  0  0  0  0  0  0
  -15.7730   -8.2651    5.4081 C   0  0  0  0  0  0  0  0  0  0  0  0
  -16.6198   -9.0506    4.6324 C   0  0  0  0  0  0  0  0  0  0  0  0
  -17.5485   -8.4457    3.8655 C   0  0  0  0  0  0  0  0  0  0  0  0
  -17.7246   -7.0551    3.7933 C   0  0  0  0  0  0  0  0  0  0  0  0
  -16.8585   -6.2755    4.5914 C   0  0  0  0  0  0  0  0  0  0  0  0
  -15.9334   -6.9081    5.3543 C   0  0  0  0  0  0  0  0  0  0  0  0
  -16.9967   -4.7833    4.5639 C   0  0  0  0  0  0  0  0  0  0  0  0
  -18.1091   -4.4701    5.3365 F   0  0  0  0  0  0  0  0  0  0  0  0
  -15.8458   -4.1675    5.0226 F   0  0  0  0  0  0  0  0  0  0  0  0
  -17.1641   -4.3410    3.2661 F   0  0  0  0  0  0  0  0  0  0  0  0
 12 13  1  0  0  0
 13  2  1  0  0  0
  2  3  2  0  0  0
  3  4  1  0  0  0
  4  5  2  0  0  0
  5  6  1  0  0  0
  6  7  2  0  0  0
  7  8  1  0  0  0
  8  1  1  0  0  0
  1 24  1  0  0  0
 24 25  2  0  0  0
 25 26  1  0  0  0
 26 27  2  0  0  0
 27 31  1  0  0  0
 31 32  1  0  0  0
 32 33  2  0  0  0
 32 34  1  0  0  0
 34 37  1  0  0  0
 37 38  2  0  0  0
 38 39  1  0  0  0
 39 40  2  0  0  0
 40 41  1  0  0  0
 41 42  2  0  0  0
 41 43  1  0  0  0
 43 44  1  0  0  0
 43 45  1  0  0  0
 43 46  1  0  0  0
 27 28  1  0  0  0
 28 29  2  0  0  0
 29 30  1  0  0  0
  8  9  2  0  0  0
  9 10  1  0  0  0
 10 11  2  0  0  0
 11 14  1  0  0  0
 14 15  1  0  0  0
 15 16  1  0  0  0
 16 17  1  0  0  0
 17 18  1  0  0  0
 18 19  1  0  0  0
 19 20  1  0  0  0
 20 21  1  0  0  0
 21 22  1  0  0  0
 22 23  1  0  0  0
 11  2  1  0  0  0
 23 18  1  0  0  0
  9  4  1  0  0  0
 29 24  1  0  0  0
 42 37  1  0  0  0
 31 35  1  0  0  0
 34 36  1  0  0  0
M  END
> <minimizedAffinity>
-8.67085

> <CNNscore>
0.2582664490

> <CNNaffinity>
7.4293518066

> <CNN_VS>
1.9187523127

> <CNNaffinity_variance>
0.0520365834

$$$$
[H]c1nc2c([H])c(OC([H])([H])[H])c(OC([H])([H])C([H])([H])C([H])([H])N3C([H])([H])C([H])([H])OC([H])([H])C3([H])[H])c([H])c2c(Oc2c([H])c([H])c(N([H])C(=O)N([H])c3c([H])c([H])c([H])c(C(F)(F)F)c3[H])c([H])c2F)c1[H]


 46 50  0  0  0  0  0  0  0  0999 V2000
  -11.9368   -6.3475    6.8244 O   0  0  0  0  0  0  0  0  0  0  0  0
   -7.3797   -7.8907    8.2451 C   0  0  0  0  0  0  0  0  0  0  0  0
   -8.2470   -8.4279    9.1414 C   0  0  0  0  0  0  0  0  0  0  0  0
   -9.5891   -8.1894    9.0403 C   0  0  0  0  0  0  0  0  0  0  0  0
  -10.4098   -8.7824    9.8969 N   0  0  0  0  0  0  0  0  0  0  0  0
  -11.7176   -8.6164    9.7832 C   0  0  0  0  0  0  0  0  0  0  0  0
  -12.2552   -7.8182    8.7659 C   0  0  0  0  0  0  0  0  0  0  0  0
  -11.4324   -7.1768    7.8527 C   0  0  0  0  0  0  0  0  0  0  0  0
  -10.0892   -7.3704    7.9894 C   0  0  0  0  0  0  0  0  0  0  0  0
   -9.1657   -6.8328    7.0829 C   0  0  0  0  0  0  0  0  0  0  0  0
   -7.8175   -7.0752    7.1842 C   0  0  0  0  0  0  0  0  0  0  0  0
   -5.4007   -8.3929    7.0342 C   0  0  0  0  0  0  0  0  0  0  0  0
   -5.9962   -8.0855    8.2939 O   0  0  0  0  0  0  0  0  0  0  0  0
   -6.9118   -6.5735    6.3097 O   0  0  0  0  0  0  0  0  0  0  0  0
   -7.1086   -5.6452    5.3153 C   0  0  0  0  0  0  0  0  0  0  0  0
   -6.7991   -4.2165    5.8517 C   0  0  0  0  0  0  0  0  0  0  0  0
   -5.3487   -3.8883    5.6548 C   0  0  0  0  0  0  0  0  0  0  0  0
   -4.5749   -5.1209    5.7225 N   0  0  0  0  0  0  0  0  0  0  0  0
   -3.2168   -4.7609    5.3711 C   0  0  0  0  0  0  0  0  0  0  0  0
   -2.3034   -5.9247    5.5026 C   0  0  0  0  0  0  0  0  0  0  0  0
   -2.9836   -7.1103    5.4217 O   0  0  0  0  0  0  0  0  0  0  0  0
   -3.9618   -7.0806    4.4171 C   0  0  0  0  0  0  0  0  0  0  0  0
   -5.0571   -6.1022    4.7661 C   0  0  0  0  0  0  0  0  0  0  0  0
  -13.0160   -6.9761    6.1340 C   0  0  0  0  0  0  0  0  0  0  0  0
  -13.5260   -6.4905    4.9713 C   0  0  0  0  0  0  0  0  0  0  0  0
  -14.5791   -7.1162    4.2699 C   0  0  0  0  0  0  0  0  0  0  0  0
  -15.1482   -8.2721    4.7408 C   0  0  0  0  0  0  0  0  0  0  0  0
  -14.6091   -8.7612    5.9587 C   0  0  0  0  0  0  0  0  0  0  0  0
  -13.5938   -8.1389    6.6203 C   0  0  0  0  0  0  0  0  0  0  0  0
  -13.1512   -8.6298    7.8209 F   0  0  0  0  0  0  0  0  0  0  0  0
  -16.0681   -9.0633    4.0591 N   0  0  0  0  0  0  0  0  0  0  0  0
  -15.8771  -10.3669    3.5262 C   0  0  0  0  0  0  0  0  0  0  0  0
  -14.7762  -10.8747    3.6335 O   0  0  0  0  0  0  0  0  0  0  0  0
  -16.9944  -10.9890    2.9377 N   0  0  0  0  0  0  0  0  0  0  0  0
  -17.0656   -8.6753    3.8824 H   0  0  0  0  0  0  0  0  0  0  0  0
  -17.9346  -10.4864    2.8494 H   0  0  0  0  0  0  0  0  0  0  0  0
  -17.0092  -12.3147    2.4200 C   0  0  0  0  0  0  0  0  0  0  0  0
  -15.8531  -13.0827    2.5169 C   0  0  0  0  0  0  0  0  0  0  0  0
  -15.8396  -14.3119    1.9642 C   0  0  0  0  0  0  0  0  0  0  0  0
  -16.9287  -14.8815    1.2864 C   0  0  0  0  0  0  0  0  0  0  0  0
  -18.0942  -14.0880    1.2028 C   0  0  0  0  0  0  0  0  0  0  0  0
  -18.0822  -12.8555    1.7673 C   0  0  0  0  0  0  0  0  0  0  0  0
  -19.2953  -14.6391    0.4956 C   0  0  0  0  0  0  0  0  0  0  0  0
  -19.9276  -13.5632   -0.1169 F   0  0  0  0  0  0  0  0  0  0  0  0
  -18.9342  -15.6226   -0.4080 F   0  0  0  0  0  0  0  0  0  0  0  0
  -20.1424  -15.2539    1.3969 F   0  0  0  0  0  0  0  0  0  0  0  0
 12 13  1  0  0  0
 13  2  1  0  0  0
  2  3  2  0  0  0
  3  4  1  0  0  0
  4  5  2  0  0  0
  5  6  1  0  0  0
  6  7  2  0  0  0
  7  8  1  0  0  0
  8  1  1  0  0  0
  1 24  1  0  0  0
 24 25  2  0  0  0
 25 26  1  0  0  0
 26 27  2  0  0  0
 27 31  1  0  0  0
 31 32  1  0  0  0
 32 33  2  0  0  0
 32 34  1  0  0  0
 34 37  1  0  0  0
 37 38  2  0  0  0
 38 39  1  0  0  0
 39 40  2  0  0  0
 40 41  1  0  0  0
 41 42  2  0  0  0
 41 43  1  0  0  0
 43 44  1  0  0  0
 43 45  1  0  0  0
 43 46  1  0  0  0
 27 28  1  0  0  0
 28 29  2  0  0  0
 29 30  1  0  0  0
  8  9  2  0  0  0
  9 10  1  0  0  0
 10 11  2  0  0  0
 11 14  1  0  0  0
 14 15  1  0  0  0
 15 16  1  0  0  0
 16 17  1  0  0  0
 17 18  1  0  0  0
 18 19  1  0  0  0
 19 20  1  0  0  0
 20 21  1  0  0  0
 21 22  1  0  0  0
 22 23  1  0  0  0
 11  2  1  0  0  0
 23 18  1  0  0  0
  9  4  1  0  0  0
 29 24  1  0  0  0
 42 37  1  0  0  0
 31 35  1  0  0  0
 34 36  1  0  0  0
M  END
> <minimizedAffinity>
48.33429

> <CNNscore>
0.2119381279

> <CNNaffinity>
6.6795415878

> <CNN_VS>
1.4156495333

> <CNNaffinity_variance>
0.7338491678

$$$$
[H]c1nc2c([H])c(OC([H])([H])[H])c(OC([H])([H])C([H])([H])C([H])([H])N3C([H])([H])C([H])([H])OC([H])([H])C3([H])[H])c([H])c2c(Oc2c([H])c([H])c(N([H])C(=O)N([H])c3c([H])c([H])c([H])c(C(F)(F)F)c3[H])c([H])c2F)c1[H]


 46 50  0  0  0  0  0  0  0  0999 V2000
   -1.2207   -6.7765    8.3874 O   0  0  0  0  0  0  0  0  0  0  0  0
   -0.6927   -5.2275   13.1297 C   0  0  0  0  0  0  0  0  0  0  0  0
   -0.4424   -6.5622   13.1476 C   0  0  0  0  0  0  0  0  0  0  0  0
   -0.5118   -7.2989   11.9984 C   0  0  0  0  0  0  0  0  0  0  0  0
   -0.1993   -8.5869   12.0452 N   0  0  0  0  0  0  0  0  0  0  0  0
   -0.1997   -9.3086   10.9362 C   0  0  0  0  0  0  0  0  0  0  0  0
   -0.5278   -8.7316    9.7031 C   0  0  0  0  0  0  0  0  0  0  0  0
   -0.8649   -7.3900    9.6108 C   0  0  0  0  0  0  0  0  0  0  0  0
   -0.8502   -6.6684   10.7682 C   0  0  0  0  0  0  0  0  0  0  0  0
   -1.1020   -5.2901   10.7870 C   0  0  0  0  0  0  0  0  0  0  0  0
   -1.0297   -4.5504   11.9421 C   0  0  0  0  0  0  0  0  0  0  0  0
   -1.7926   -4.5268   15.1131 C   0  0  0  0  0  0  0  0  0  0  0  0
   -0.6487   -4.4161   14.2673 O   0  0  0  0  0  0  0  0  0  0  0  0
   -1.2582   -3.2151   11.9765 O   0  0  0  0  0  0  0  0  0  0  0  0
   -1.1338   -2.3011   10.9575 C   0  0  0  0  0  0  0  0  0  0  0  0
   -2.4940   -1.5817   10.7183 C   0  0  0  0  0  0  0  0  0  0  0  0
   -2.2650   -0.1642   10.2842 C   0  0  0  0  0  0  0  0  0  0  0  0
   -3.0182    0.7229   11.1608 N   0  0  0  0  0  0  0  0  0  0  0  0
   -3.3092    1.9065   10.3785 C   0  0  0  0  0  0  0  0  0  0  0  0
   -4.1672    2.8521   11.1373 C   0  0  0  0  0  0  0  0  0  0  0  0
   -4.0634    2.6533   12.4881 O   0  0  0  0  0  0  0  0  0  0  0  0
   -2.7363    2.4227   12.8789 C   0  0  0  0  0  0  0  0  0  0  0  0
   -2.2340    1.1137   12.3195 C   0  0  0  0  0  0  0  0  0  0  0  0
   -2.6250   -6.8684    8.1506 C   0  0  0  0  0  0  0  0  0  0  0  0
   -3.5155   -5.9770    8.6606 C   0  0  0  0  0  0  0  0  0  0  0  0
   -4.9038   -6.0471    8.4152 C   0  0  0  0  0  0  0  0  0  0  0  0
   -5.4296   -7.0416    7.6301 C   0  0  0  0  0  0  0  0  0  0  0  0
   -4.4874   -7.9674    7.1120 C   0  0  0  0  0  0  0  0  0  0  0  0
   -3.1515   -7.8819    7.3643 C   0  0  0  0  0  0  0  0  0  0  0  0
   -2.2966   -8.8372    6.8799 F   0  0  0  0  0  0  0  0  0  0  0  0
   -6.7458   -7.1168    7.1840 N   0  0  0  0  0  0  0  0  0  0  0  0
   -7.8576   -7.7185    7.8332 C   0  0  0  0  0  0  0  0  0  0  0  0
   -7.6676   -8.2735    8.8996 O   0  0  0  0  0  0  0  0  0  0  0  0
   -9.1104   -7.5982    7.2025 N   0  0  0  0  0  0  0  0  0  0  0  0
   -7.0003   -6.6824    6.2231 H   0  0  0  0  0  0  0  0  0  0  0  0
   -9.2164   -7.1185    6.2522 H   0  0  0  0  0  0  0  0  0  0  0  0
  -10.3406   -8.0721    7.7390 C   0  0  0  0  0  0  0  0  0  0  0  0
  -10.7982   -9.3280    7.3530 C   0  0  0  0  0  0  0  0  0  0  0  0
  -11.9968   -9.7506    7.8017 C   0  0  0  0  0  0  0  0  0  0  0  0
  -12.8300   -9.0000    8.6457 C   0  0  0  0  0  0  0  0  0  0  0  0
  -12.3456   -7.7301    9.0299 C   0  0  0  0  0  0  0  0  0  0  0  0
  -11.1370   -7.3286    8.5654 C   0  0  0  0  0  0  0  0  0  0  0  0
  -13.1850   -6.8790    9.9343 C   0  0  0  0  0  0  0  0  0  0  0  0
  -12.3378   -6.3866   10.9203 F   0  0  0  0  0  0  0  0  0  0  0  0
  -13.8138   -5.8698    9.2271 F   0  0  0  0  0  0  0  0  0  0  0  0
  -14.2000   -7.6302   10.4940 F   0  0  0  0  0  0  0  0  0  0  0  0
 12 13  1  0  0  0
 13  2  1  0  0  0
  2  3  2  0  0  0
  3  4  1  0  0  0
  4  5  2  0  0  0
  5  6  1  0  0  0
  6  7  2  0  0  0
  7  8  1  0  0  0
  8  1  1  0  0  0
  1 24  1  0  0  0
 24 25  2  0  0  0
 25 26  1  0  0  0
 26 27  2  0  0  0
 27 31  1  0  0  0
 31 32  1  0  0  0
 32 33  2  0  0  0
 32 34  1  0  0  0
 34 37  1  0  0  0
 37 38  2  0  0  0
 38 39  1  0  0  0
 39 40  2  0  0  0
 40 41  1  0  0  0
 41 42  2  0  0  0
 41 43  1  0  0  0
 43 44  1  0  0  0
 43 45  1  0  0  0
 43 46  1  0  0  0
 27 28  1  0  0  0
 28 29  2  0  0  0
 29 30  1  0  0  0
  8  9  2  0  0  0
  9 10  1  0  0  0
 10 11  2  0  0  0
 11 14  1  0  0  0
 14 15  1  0  0  0
 15 16  1  0  0  0
 16 17  1  0  0  0
 17 18  1  0  0  0
 18 19  1  0  0  0
 19 20  1  0  0  0
 20 21  1  0  0  0
 21 22  1  0  0  0
 22 23  1  0  0  0
 11  2  1  0  0  0
 23 18  1  0  0  0
  9  4  1  0  0  0
 29 24  1  0  0  0
 42 37  1  0  0  0
 31 35  1  0  0  0
 34 36  1  0  0  0
M  END
> <minimizedAffinity>
-7.02652

> <CNNscore>
0.1986535490

> <CNNaffinity>
6.4022569656

> <CNN_VS>
1.2718310356

> <CNNaffinity_variance>
0.0206659790

$$$$
[H]c1nc2c([H])c(OC([H])([H])[H])c(OC([H])([H])C([H])([H])C([H])([H])N3C([H])([H])C([H])([H])OC([H])([H])C3([H])[H])c([H])c2c(Oc2c([H])c([H])c(N([H])C(=O)N([H])c3c([H])c([H])c([H])c(C(F)(F)F)c3[H])c([H])c2F)c1[H]


 46 50  0  0  0  0  0  0  0  0999 V2000
   -4.4849   -6.1754    7.2405 O   0  0  0  0  0  0  0  0  0  0  0  0
   -1.1065   -5.7164    3.5603 C   0  0  0  0  0  0  0  0  0  0  0  0
   -0.8078   -6.8809    4.1920 C   0  0  0  0  0  0  0  0  0  0  0  0
   -1.5458   -7.3010    5.2631 C   0  0  0  0  0  0  0  0  0  0  0  0
   -1.2626   -8.4738    5.8137 N   0  0  0  0  0  0  0  0  0  0  0  0
   -2.0002   -8.9311    6.8126 C   0  0  0  0  0  0  0  0  0  0  0  0
   -3.0836   -8.1919    7.3033 C   0  0  0  0  0  0  0  0  0  0  0  0
   -3.4109   -6.9594    6.7592 C   0  0  0  0  0  0  0  0  0  0  0  0
   -2.6380   -6.5152    5.7269 C   0  0  0  0  0  0  0  0  0  0  0  0
   -2.9174   -5.3198    5.0512 C   0  0  0  0  0  0  0  0  0  0  0  0
   -2.1764   -4.8999    3.9736 C   0  0  0  0  0  0  0  0  0  0  0  0
   -0.2929   -6.1297    1.3689 C   0  0  0  0  0  0  0  0  0  0  0  0
   -0.3894   -5.2229    2.4664 O   0  0  0  0  0  0  0  0  0  0  0  0
   -2.4399   -3.7532    3.3012 O   0  0  0  0  0  0  0  0  0  0  0  0
   -3.6473   -3.1167    3.1390 C   0  0  0  0  0  0  0  0  0  0  0  0
   -3.7507   -2.5292    1.7007 C   0  0  0  0  0  0  0  0  0  0  0  0
   -3.0918   -3.4469    0.7138 C   0  0  0  0  0  0  0  0  0  0  0  0
   -3.8189   -3.3807   -0.5470 N   0  0  0  0  0  0  0  0  0  0  0  0
   -2.9951   -2.5965   -1.4436 C   0  0  0  0  0  0  0  0  0  0  0  0
   -3.5874   -2.5416   -2.8046 C   0  0  0  0  0  0  0  0  0  0  0  0
   -4.9355   -2.7799   -2.7770 O   0  0  0  0  0  0  0  0  0  0  0  0
   -5.5565   -2.1283   -1.7014 C   0  0  0  0  0  0  0  0  0  0  0  0
   -5.0978   -2.7108   -0.3865 C   0  0  0  0  0  0  0  0  0  0  0  0
   -5.6728   -6.9536    7.3802 C   0  0  0  0  0  0  0  0  0  0  0  0
   -6.1138   -7.4112    8.5818 C   0  0  0  0  0  0  0  0  0  0  0  0
   -7.2984   -8.1638    8.7334 C   0  0  0  0  0  0  0  0  0  0  0  0
   -8.0780   -8.4735    7.6480 C   0  0  0  0  0  0  0  0  0  0  0  0
   -7.5997   -7.9946    6.4011 C   0  0  0  0  0  0  0  0  0  0  0  0
   -6.4515   -7.2720    6.2780 C   0  0  0  0  0  0  0  0  0  0  0  0
   -6.0121   -6.8827    5.0396 F   0  0  0  0  0  0  0  0  0  0  0  0
   -9.3401   -9.0586    7.6924 N   0  0  0  0  0  0  0  0  0  0  0  0
  -10.6061   -8.4149    7.6429 C   0  0  0  0  0  0  0  0  0  0  0  0
  -10.6296   -7.1994    7.5850 O   0  0  0  0  0  0  0  0  0  0  0  0
  -11.7456   -9.2415    7.6330 N   0  0  0  0  0  0  0  0  0  0  0  0
   -9.4162  -10.1368    7.7834 H   0  0  0  0  0  0  0  0  0  0  0  0
  -11.6675  -10.3056    7.7090 H   0  0  0  0  0  0  0  0  0  0  0  0
  -13.0861   -8.7783    7.5133 C   0  0  0  0  0  0  0  0  0  0  0  0
  -13.7870   -8.4543    8.6707 C   0  0  0  0  0  0  0  0  0  0  0  0
  -15.0789   -8.0845    8.5677 C   0  0  0  0  0  0  0  0  0  0  0  0
  -15.7789   -8.0015    7.3540 C   0  0  0  0  0  0  0  0  0  0  0  0
  -15.0488   -8.3298    6.1903 C   0  0  0  0  0  0  0  0  0  0  0  0
  -13.7507   -8.6982    6.3208 C   0  0  0  0  0  0  0  0  0  0  0  0
  -15.7364   -8.2574    4.8604 C   0  0  0  0  0  0  0  0  0  0  0  0
  -17.0462   -8.6765    5.0638 F   0  0  0  0  0  0  0  0  0  0  0  0
  -15.6674   -6.9805    4.3323 F   0  0  0  0  0  0  0  0  0  0  0  0
  -15.0995   -9.0737    3.9461 F   0  0  0  0  0  0  0  0  0  0  0  0
 12 13  1  0  0  0
 13  2  1  0  0  0
  2  3  2  0  0  0
  3  4  1  0  0  0
  4  5  2  0  0  0
  5  6  1  0  0  0
  6  7  2  0  0  0
  7  8  1  0  0  0
  8  1  1  0  0  0
  1 24  1  0  0  0
 24 25  2  0  0  0
 25 26  1  0  0  0
 26 27  2  0  0  0
 27 31  1  0  0  0
 31 32  1  0  0  0
 32 33  2  0  0  0
 32 34  1  0  0  0
 34 37  1  0  0  0
 37 38  2  0  0  0
 38 39  1  0  0  0
 39 40  2  0  0  0
 40 41  1  0  0  0
 41 42  2  0  0  0
 41 43  1  0  0  0
 43 44  1  0  0  0
 43 45  1  0  0  0
 43 46  1  0  0  0
 27 28  1  0  0  0
 28 29  2  0  0  0
 29 30  1  0  0  0
  8  9  2  0  0  0
  9 10  1  0  0  0
 10 11  2  0  0  0
 11 14  1  0  0  0
 14 15  1  0  0  0
 15 16  1  0  0  0
 16 17  1  0  0  0
 17 18  1  0  0  0
 18 19  1  0  0  0
 19 20  1  0  0  0
 20 21  1  0  0  0
 21 22  1  0  0  0
 22 23  1  0  0  0
 11  2  1  0  0  0
 23 18  1  0  0  0
  9  4  1  0  0  0
 29 24  1  0  0  0
 42 37  1  0  0  0
 31 35  1  0  0  0
 34 36  1  0  0  0
M  END
> <minimizedAffinity>
-8.59439

> <CNNscore>
0.1945944130

> <CNNaffinity>
6.6047616005

> <CNN_VS>
1.2852497101

> <CNNaffinity_variance>
0.1559418887

$$$$
[H]c1nc2c([H])c(OC([H])([H])[H])c(OC([H])([H])C([H])([H])C([H])([H])N3C([H])([H])C([H])([H])OC([H])([H])C3([H])[H])c([H])c2c(Oc2c([H])c([H])c(N([H])C(=O)N([H])c3c([H])c([H])c([H])c(C(F)(F)F)c3[H])c([H])c2F)c1[H]


 46 50  0  0  0  0  0  0  0  0999 V2000
   -1.0005   -8.1536    7.9358 O   0  0  0  0  0  0  0  0  0  0  0  0
   -0.5088  -10.1666   12.5046 C   0  0  0  0  0  0  0  0  0  0  0  0
   -0.6995  -11.2123   11.6594 C   0  0  0  0  0  0  0  0  0  0  0  0
   -0.8784  -11.0017   10.3208 C   0  0  0  0  0  0  0  0  0  0  0  0
   -0.9986  -12.0515    9.5192 N   0  0  0  0  0  0  0  0  0  0  0  0
   -1.1120  -11.8767    8.2125 C   0  0  0  0  0  0  0  0  0  0  0  0
   -1.1079  -10.5916    7.6561 C   0  0  0  0  0  0  0  0  0  0  0  0
   -0.9890   -9.4674    8.4587 C   0  0  0  0  0  0  0  0  0  0  0  0
   -0.8674   -9.6769    9.8010 C   0  0  0  0  0  0  0  0  0  0  0  0
   -0.6681   -8.6223   10.7020 C   0  0  0  0  0  0  0  0  0  0  0  0
   -0.4861   -8.8354   12.0466 C   0  0  0  0  0  0  0  0  0  0  0  0
   -0.3204  -11.6605   14.3397 C   0  0  0  0  0  0  0  0  0  0  0  0
   -0.3289  -10.3084   13.8837 O   0  0  0  0  0  0  0  0  0  0  0  0
   -0.2802   -7.8286   12.9301 O   0  0  0  0  0  0  0  0  0  0  0  0
   -0.8055   -6.5585   12.9147 C   0  0  0  0  0  0  0  0  0  0  0  0
   -2.2236   -6.5609   13.5579 C   0  0  0  0  0  0  0  0  0  0  0  0
   -2.9876   -5.3392   13.1406 C   0  0  0  0  0  0  0  0  0  0  0  0
   -4.1397   -5.1831   14.0187 N   0  0  0  0  0  0  0  0  0  0  0  0
   -3.9984   -3.8810   14.6368 C   0  0  0  0  0  0  0  0  0  0  0  0
   -5.1745   -3.5609   15.4856 C   0  0  0  0  0  0  0  0  0  0  0  0
   -5.8312   -4.6944   15.8842 O   0  0  0  0  0  0  0  0  0  0  0  0
   -4.9374   -5.7091   16.2564 C   0  0  0  0  0  0  0  0  0  0  0  0
   -4.1512   -6.1935   15.0622 C   0  0  0  0  0  0  0  0  0  0  0  0
   -2.3305   -7.7191    7.6549 C   0  0  0  0  0  0  0  0  0  0  0  0
   -3.1297   -8.3404    6.7478 C   0  0  0  0  0  0  0  0  0  0  0  0
   -4.4535   -7.9314    6.4779 C   0  0  0  0  0  0  0  0  0  0  0  0
   -5.0072   -6.8630    7.1365 C   0  0  0  0  0  0  0  0  0  0  0  0
   -4.1572   -6.2217    8.0742 C   0  0  0  0  0  0  0  0  0  0  0  0
   -2.8812   -6.6322    8.3167 C   0  0  0  0  0  0  0  0  0  0  0  0
   -2.0900   -5.9392    9.1953 F   0  0  0  0  0  0  0  0  0  0  0  0
   -6.3423   -6.4738    7.0788 N   0  0  0  0  0  0  0  0  0  0  0  0
   -7.4576   -7.0715    7.7257 C   0  0  0  0  0  0  0  0  0  0  0  0
   -7.2646   -8.0676    8.3979 O   0  0  0  0  0  0  0  0  0  0  0  0
   -8.7061   -6.4417    7.5633 N   0  0  0  0  0  0  0  0  0  0  0  0
   -6.6139   -5.6175    6.4708 H   0  0  0  0  0  0  0  0  0  0  0  0
   -8.8229   -5.5794    6.9411 H   0  0  0  0  0  0  0  0  0  0  0  0
   -9.9139   -6.8544    8.1930 C   0  0  0  0  0  0  0  0  0  0  0  0
  -10.4880   -8.0626    7.8103 C   0  0  0  0  0  0  0  0  0  0  0  0
  -11.6687   -8.4229    8.3513 C   0  0  0  0  0  0  0  0  0  0  0  0
  -12.3716   -7.6520    9.2902 C   0  0  0  0  0  0  0  0  0  0  0  0
  -11.7701   -6.4316    9.6693 C   0  0  0  0  0  0  0  0  0  0  0  0
  -10.5823   -6.0923    9.1109 C   0  0  0  0  0  0  0  0  0  0  0  0
  -12.4671   -5.5623   10.6720 C   0  0  0  0  0  0  0  0  0  0  0  0
  -11.8695   -5.8121   11.9020 F   0  0  0  0  0  0  0  0  0  0  0  0
  -12.3943   -4.2286   10.3116 F   0  0  0  0  0  0  0  0  0  0  0  0
  -13.8143   -5.8640   10.7141 F   0  0  0  0  0  0  0  0  0  0  0  0
 12 13  1  0  0  0
 13  2  1  0  0  0
  2  3  2  0  0  0
  3  4  1  0  0  0
  4  5  2  0  0  0
  5  6  1  0  0  0
  6  7  2  0  0  0
  7  8  1  0  0  0
  8  1  1  0  0  0
  1 24  1  0  0  0
 24 25  2  0  0  0
 25 26  1  0  0  0
 26 27  2  0  0  0
 27 31  1  0  0  0
 31 32  1  0  0  0
 32 33  2  0  0  0
 32 34  1  0  0  0
 34 37  1  0  0  0
 37 38  2  0  0  0
 38 39  1  0  0  0
 39 40  2  0  0  0
 40 41  1  0  0  0
 41 42  2  0  0  0
 41 43  1  0  0  0
 43 44  1  0  0  0
 43 45  1  0  0  0
 43 46  1  0  0  0
 27 28  1  0  0  0
 28 29  2  0  0  0
 29 30  1  0  0  0
  8  9  2  0  0  0
  9 10  1  0  0  0
 10 11  2  0  0  0
 11 14  1  0  0  0
 14 15  1  0  0  0
 15 16  1  0  0  0
 16 17  1  0  0  0
 17 18  1  0  0  0
 18 19  1  0  0  0
 19 20  1  0  0  0
 20 21  1  0  0  0
 21 22  1  0  0  0
 22 23  1  0  0  0
 11  2  1  0  0  0
 23 18  1  0  0  0
  9  4  1  0  0  0
 29 24  1  0  0  0
 42 37  1  0  0  0
 31 35  1  0  0  0
 34 36  1  0  0  0
M  END
> <minimizedAffinity>
-8.23632

> <CNNscore>
0.1877125800

> <CNNaffinity>
6.2248039246

> <CNN_VS>
1.1684739590

> <CNNaffinity_variance>
0.4408489764

$$$$
[H]c1nc2c([H])c(OC([H])([H])[H])c(OC([H])([H])C([H])([H])C([H])([H])N3C([H])([H])C([H])([H])OC([H])([H])C3([H])[H])c([H])c2c(Oc2c([H])c([H])c(N([H])C(=O)N([H])c3c([H])c([H])c([H])c(C(F)(F)F)c3[H])c([H])c2F)c1[H]


 46 50  0  0  0  0  0  0  0  0999 V2000
  -10.0912   -8.7539    8.0436 O   0  0  0  0  0  0  0  0  0  0  0  0
  -14.8598   -7.3353    7.3990 C   0  0  0  0  0  0  0  0  0  0  0  0
  -14.3631   -6.5280    8.3715 C   0  0  0  0  0  0  0  0  0  0  0  0
  -13.0704   -6.6624    8.7950 C   0  0  0  0  0  0  0  0  0  0  0  0
  -12.6035   -5.8145    9.7015 N   0  0  0  0  0  0  0  0  0  0  0  0
  -11.3387   -5.8848   10.0837 C   0  0  0  0  0  0  0  0  0  0  0  0
  -10.4769   -6.8475    9.5437 C   0  0  0  0  0  0  0  0  0  0  0  0
  -10.9258   -7.7556    8.5971 C   0  0  0  0  0  0  0  0  0  0  0  0
  -12.2319   -7.6565    8.2168 C   0  0  0  0  0  0  0  0  0  0  0  0
  -12.7777   -8.4715    7.2162 C   0  0  0  0  0  0  0  0  0  0  0  0
  -14.0762   -8.3338    6.7899 C   0  0  0  0  0  0  0  0  0  0  0  0
  -17.1272   -7.9593    7.7221 C   0  0  0  0  0  0  0  0  0  0  0  0
  -16.1729   -7.2591    6.9252 O   0  0  0  0  0  0  0  0  0  0  0  0
  -14.6165   -9.1051    5.8154 O   0  0  0  0  0  0  0  0  0  0  0  0
  -14.1293   -9.3533    4.5543 C   0  0  0  0  0  0  0  0  0  0  0  0
  -14.7760   -8.3736    3.5312 C   0  0  0  0  0  0  0  0  0  0  0  0
  -16.2714   -8.4185    3.6396 C   0  0  0  0  0  0  0  0  0  0  0  0
  -16.7963   -7.0721    3.4545 N   0  0  0  0  0  0  0  0  0  0  0  0
  -15.8934   -6.1893    4.1637 C   0  0  0  0  0  0  0  0  0  0  0  0
  -16.2691   -4.7663    3.9640 C   0  0  0  0  0  0  0  0  0  0  0  0
  -17.5877   -4.6374    3.6180 O   0  0  0  0  0  0  0  0  0  0  0  0
  -18.4076   -5.4938    4.3674 C   0  0  0  0  0  0  0  0  0  0  0  0
  -18.1236   -6.9373    4.0290 C   0  0  0  0  0  0  0  0  0  0  0  0
   -8.8232   -8.2189    7.6664 C   0  0  0  0  0  0  0  0  0  0  0  0
   -8.6925   -7.0476    6.9892 C   0  0  0  0  0  0  0  0  0  0  0  0
   -7.4423   -6.4995    6.6297 C   0  0  0  0  0  0  0  0  0  0  0  0
   -6.2740   -7.1394    6.9574 C   0  0  0  0  0  0  0  0  0  0  0  0
   -6.4286   -8.3638    7.6574 C   0  0  0  0  0  0  0  0  0  0  0  0
   -7.6460   -8.8754    7.9917 C   0  0  0  0  0  0  0  0  0  0  0  0
   -7.7335  -10.0898    8.6209 F   0  0  0  0  0  0  0  0  0  0  0  0
   -4.9914   -6.6202    6.8069 N   0  0  0  0  0  0  0  0  0  0  0  0
   -4.4976   -5.7955    5.7601 C   0  0  0  0  0  0  0  0  0  0  0  0
   -5.2527   -5.5121    4.8486 O   0  0  0  0  0  0  0  0  0  0  0  0
   -3.1705   -5.3400    5.8746 N   0  0  0  0  0  0  0  0  0  0  0  0
   -4.2394   -6.8536    7.5530 H   0  0  0  0  0  0  0  0  0  0  0  0
   -2.5427   -5.6395    6.6873 H   0  0  0  0  0  0  0  0  0  0  0  0
   -2.5336   -4.4510    4.9637 C   0  0  0  0  0  0  0  0  0  0  0  0
   -2.3066   -3.1370    5.3607 C   0  0  0  0  0  0  0  0  0  0  0  0
   -1.7698   -2.2731    4.4765 C   0  0  0  0  0  0  0  0  0  0  0  0
   -1.4172   -2.6117    3.1608 C   0  0  0  0  0  0  0  0  0  0  0  0
   -1.6511   -3.9511    2.7785 C   0  0  0  0  0  0  0  0  0  0  0  0
   -2.1916   -4.8004    3.6866 C   0  0  0  0  0  0  0  0  0  0  0  0
   -1.2928   -4.3796    1.3876 C   0  0  0  0  0  0  0  0  0  0  0  0
   -1.1374   -5.7606    1.4219 F   0  0  0  0  0  0  0  0  0  0  0  0
   -2.2564   -3.9797    0.4790 F   0  0  0  0  0  0  0  0  0  0  0  0
   -0.1226   -3.7670    0.9836 F   0  0  0  0  0  0  0  0  0  0  0  0
 12 13  1  0  0  0
 13  2  1  0  0  0
  2  3  2  0  0  0
  3  4  1  0  0  0
  4  5  2  0  0  0
  5  6  1  0  0  0
  6  7  2  0  0  0
  7  8  1  0  0  0
  8  1  1  0  0  0
  1 24  1  0  0  0
 24 25  2  0  0  0
 25 26  1  0  0  0
 26 27  2  0  0  0
 27 31  1  0  0  0
 31 32  1  0  0  0
 32 33  2  0  0  0
 32 34  1  0  0  0
 34 37  1  0  0  0
 37 38  2  0  0  0
 38 39  1  0  0  0
 39 40  2  0  0  0
 40 41  1  0  0  0
 41 42  2  0  0  0
 41 43  1  0  0  0
 43 44  1  0  0  0
 43 45  1  0  0  0
 43 46  1  0  0  0
 27 28  1  0  0  0
 28 29  2  0  0  0
 29 30  1  0  0  0
  8  9  2  0  0  0
  9 10  1  0  0  0
 10 11  2  0  0  0
 11 14  1  0  0  0
 14 15  1  0  0  0
 15 16  1  0  0  0
 16 17  1  0  0  0
 17 18  1  0  0  0
 18 19  1  0  0  0
 19 20  1  0  0  0
 20 21  1  0  0  0
 21 22  1  0  0  0
 22 23  1  0  0  0
 11  2  1  0  0  0
 23 18  1  0  0  0
  9  4  1  0  0  0
 29 24  1  0  0  0
 42 37  1  0  0  0
 31 35  1  0  0  0
 34 36  1  0  0  0
M  END
> <minimizedAffinity>
-8.08851

> <CNNscore>
0.1610402167

> <CNNaffinity>
7.1657247543

> <CNN_VS>
1.1539698839

> <CNNaffinity_variance>
0.1959556788

$$$$
[H]OC(=O)[C@]([H])(C(=O)N([H])[C@]([H])(C(=O)N([H])[C@]([H])(C(=O)N([H])[C@]([H])(C(=O)O[H])C([H])([H])C([H])([H])C([H])([H])C([H])([H])N([H])[H])C([H])([H])C([H])(C([H])([H])[H])C([H])([H])[H])C([H])([H])c1c([H])c([H])c([H])c([H])c1[H])N([H])C(=O)[C@]([H])(N(C([H])([H])[H])C([H])([H])C([H])([H])[H])C([H])([H])c1c([H])c([H])c(O[H])c([H])c1[H]


 60 61  0  0  0  0  0  0  0  0999 V2000
   -2.5408   -1.5281    5.3347 C   0  0  0  0  0  0  0  0  0  0  0  0
   -2.0118   -0.6970    6.4241 N   0  0  0  0  0  0  0  0  0  0  0  0
   -2.0838   -1.1261    7.7636 C   0  0  0  0  0  0  0  0  0  0  0  0
   -2.6411   -2.2599    7.9700 O   0  0  0  0  0  0  0  0  0  0  0  0
   -1.5878    0.2040    6.1824 H   0  0  0  0  0  0  0  0  0  0  0  0
   -1.5954   -0.4178    8.9550 C   0  0  0  0  0  0  0  0  0  0  0  0
   -1.8767    1.0201    8.8238 C   0  0  0  0  0  0  0  0  0  0  0  0
   -2.5845    1.7301    9.7779 O   0  0  0  0  0  0  0  0  0  0  0  0
   -1.4716    1.6501    7.8178 O   0  0  0  0  0  0  0  0  0  0  0  0
   -2.8365    2.6916    9.6710 H   0  0  0  0  0  0  0  0  0  0  0  0
   -2.2437   -0.9100   10.1623 N   0  0  0  0  0  0  0  0  0  0  0  0
   -1.5974   -1.4113   11.3041 C   0  0  0  0  0  0  0  0  0  0  0  0
   -0.3147   -1.4105   11.2231 O   0  0  0  0  0  0  0  0  0  0  0  0
   -3.2919   -0.8900   10.1401 H   0  0  0  0  0  0  0  0  0  0  0  0
   -2.2530   -1.9096   12.5061 C   0  0  0  0  0  0  0  0  0  0  0  0
   -1.7199   -1.2686   13.6772 N   0  0  0  0  0  0  0  0  0  0  0  0
   -0.6801   -1.8890   14.3760 C   0  0  0  0  0  0  0  0  0  0  0  0
   -1.8902    0.1222   13.7163 C   0  0  0  0  0  0  0  0  0  0  0  0
   -1.2022    0.7953   14.8904 C   0  0  0  0  0  0  0  0  0  0  0  0
   -2.3294   -3.3867   12.6845 C   0  0  0  0  0  0  0  0  0  0  0  0
   -2.7172   -4.1580   11.4994 C   0  0  0  0  0  0  0  0  0  0  0  0
   -4.0022   -4.2975   11.0251 C   0  0  0  0  0  0  0  0  0  0  0  0
   -4.3349   -5.0243    9.9032 C   0  0  0  0  0  0  0  0  0  0  0  0
   -3.3688   -5.6799    9.1601 C   0  0  0  0  0  0  0  0  0  0  0  0
   -3.6896   -6.4132    8.0307 O   0  0  0  0  0  0  0  0  0  0  0  0
   -2.0662   -5.5512    9.6227 C   0  0  0  0  0  0  0  0  0  0  0  0
   -1.7437   -4.8274   10.7384 C   0  0  0  0  0  0  0  0  0  0  0  0
   -3.9113   -7.4053    8.1311 H   0  0  0  0  0  0  0  0  0  0  0  0
   -1.8573   -3.3827    3.7325 N   0  0  0  0  0  0  0  0  0  0  0  0
   -1.5483   -2.2915    4.6034 C   0  0  0  0  0  0  0  0  0  0  0  0
   -0.3199   -1.9617    4.7534 O   0  0  0  0  0  0  0  0  0  0  0  0
   -2.8866   -3.6369    3.6627 H   0  0  0  0  0  0  0  0  0  0  0  0
   -0.9119   -4.1342    2.9672 C   0  0  0  0  0  0  0  0  0  0  0  0
   -1.5073   -4.2579    1.5876 C   0  0  0  0  0  0  0  0  0  0  0  0
   -1.4361   -5.4168    1.0481 O   0  0  0  0  0  0  0  0  0  0  0  0
   -2.1130   -3.2480    0.8614 N   0  0  0  0  0  0  0  0  0  0  0  0
   -2.2356   -2.2944    1.1872 H   0  0  0  0  0  0  0  0  0  0  0  0
   -2.6346   -3.5710   -0.5097 C   0  0  0  0  0  0  0  0  0  0  0  0
   -1.5340   -3.2398   -1.4290 C   0  0  0  0  0  0  0  0  0  0  0  0
   -0.5629   -4.1414   -1.7663 O   0  0  0  0  0  0  0  0  0  0  0  0
   -1.5005   -2.0729   -1.9072 O   0  0  0  0  0  0  0  0  0  0  0  0
   -0.0195   -4.0942   -2.6181 H   0  0  0  0  0  0  0  0  0  0  0  0
   -3.8419   -2.7227   -0.6918 C   0  0  0  0  0  0  0  0  0  0  0  0
   -4.7650   -2.9691   -1.8013 C   0  0  0  0  0  0  0  0  0  0  0  0
   -5.4816   -1.8836   -2.4879 C   0  0  0  0  0  0  0  0  0  0  0  0
   -6.4661   -1.1043   -1.6759 C   0  0  0  0  0  0  0  0  0  0  0  0
   -7.6447   -0.7660   -2.4512 N   0  0  0  0  0  0  0  0  0  0  0  0
   -8.2266   -0.0523   -2.0034 H   0  0  0  0  0  0  0  0  0  0  0  0
   -8.1142   -1.5564   -2.8947 H   0  0  0  0  0  0  0  0  0  0  0  0
   -0.6530   -5.4885    3.5088 C   0  0  0  0  0  0  0  0  0  0  0  0
   -2.8473   -5.6837    4.7912 C   0  0  0  0  0  0  0  0  0  0  0  0
   -1.4060   -5.9896    4.6660 C   0  0  0  0  0  0  0  0  0  0  0  0
   -1.2271   -7.5110    4.8320 C   0  0  0  0  0  0  0  0  0  0  0  0
   -3.1465   -0.5216    4.3030 C   0  0  0  0  0  0  0  0  0  0  0  0
   -3.5018    0.7657    4.9051 C   0  0  0  0  0  0  0  0  0  0  0  0
   -4.4483    0.7874    5.9143 C   0  0  0  0  0  0  0  0  0  0  0  0
   -4.7746    1.9847    6.5332 C   0  0  0  0  0  0  0  0  0  0  0  0
   -4.1934    3.1794    6.1894 C   0  0  0  0  0  0  0  0  0  0  0  0
   -3.2490    3.1652    5.1847 C   0  0  0  0  0  0  0  0  0  0  0  0
   -2.9228    1.9757    4.5663 C   0  0  0  0  0  0  0  0  0  0  0  0
 51 52  1  0  0  0
 52 53  1  0  0  0
 52 50  1  0  0  0
 50 33  1  0  0  0
 33 29  1  0  0  0
 29 30  1  0  0  0
 30 31  2  0  0  0
 30  1  1  0  0  0
  1 54  1  0  0  0
 54 55  1  0  0  0
 55 56  2  0  0  0
 56 57  1  0  0  0
 57 58  2  0  0  0
 58 59  1  0  0  0
 59 60  2  0  0  0
  1  2  1  0  0  0
  2  3  1  0  0  0
  3  4  2  0  0  0
  3  6  1  0  0  0
  6 11  1  0  0  0
 11 12  1  0  0  0
 12 13  2  0  0  0
 12 15  1  0  0  0
 15 20  1  0  0  0
 20 21  1  0  0  0
 21 22  2  0  0  0
 22 23  1  0  0  0
 23 24  2  0  0  0
 24 25  1  0  0  0
 24 26  1  0  0  0
 26 27  2  0  0  0
 15 16  1  0  0  0
 16 17  1  0  0  0
 16 18  1  0  0  0
 18 19  1  0  0  0
  6  7  1  0  0  0
  7  8  1  0  0  0
  7  9  2  0  0  0
 33 34  1  0  0  0
 34 35  2  0  0  0
 34 36  1  0  0  0
 36 38  1  0  0  0
 38 43  1  0  0  0
 43 44  1  0  0  0
 44 45  1  0  0  0
 45 46  1  0  0  0
 46 47  1  0  0  0
 38 39  1  0  0  0
 39 40  1  0  0  0
 39 41  2  0  0  0
 60 55  1  0  0  0
 27 21  1  0  0  0
 29 32  1  0  0  0
  2  5  1  0  0  0
 11 14  1  0  0  0
 25 28  1  0  0  0
  8 10  1  0  0  0
 36 37  1  0  0  0
 47 48  1  0  0  0
 47 49  1  0  0  0
 40 42  1  0  0  0
M  END
> <minimizedAffinity>
-3.25368

> <CNNscore>
0.3263299763

> <CNNaffinity>
5.8946094513

> <CNN_VS>
1.9235877991

> <CNNaffinity_variance>
0.4045920372

$$$$
[H]OC(=O)[C@]([H])(C(=O)N([H])[C@]([H])(C(=O)N([H])[C@]([H])(C(=O)N([H])[C@]([H])(C(=O)O[H])C([H])([H])C([H])([H])C([H])([H])C([H])([H])N([H])[H])C([H])([H])C([H])(C([H])([H])[H])C([H])([H])[H])C([H])([H])c1c([H])c([H])c([H])c([H])c1[H])N([H])C(=O)[C@]([H])(N(C([H])([H])[H])C([H])([H])C([H])([H])[H])C([H])([H])c1c([H])c([H])c(O[H])c([H])c1[H]


 60 61  0  0  0  0  0  0  0  0999 V2000
   -3.8355    0.1694    2.8654 C   0  0  0  0  0  0  0  0  0  0  0  0
   -3.0238   -0.8709    3.5106 N   0  0  0  0  0  0  0  0  0  0  0  0
   -3.5817   -1.7297    4.4774 C   0  0  0  0  0  0  0  0  0  0  0  0
   -4.8152   -1.5418    4.7632 O   0  0  0  0  0  0  0  0  0  0  0  0
   -2.0399   -0.9553    3.2371 H   0  0  0  0  0  0  0  0  0  0  0  0
   -2.9074   -2.8167    5.2009 C   0  0  0  0  0  0  0  0  0  0  0  0
   -1.9444   -2.2493    6.1573 C   0  0  0  0  0  0  0  0  0  0  0  0
   -2.1625   -2.2532    7.5240 O   0  0  0  0  0  0  0  0  0  0  0  0
   -0.8775   -1.7353    5.7443 O   0  0  0  0  0  0  0  0  0  0  0  0
   -1.5470   -1.8154    8.1789 H   0  0  0  0  0  0  0  0  0  0  0  0
   -3.8641   -3.6337    5.9339 N   0  0  0  0  0  0  0  0  0  0  0  0
   -4.0245   -5.0243    5.8199 C   0  0  0  0  0  0  0  0  0  0  0  0
   -3.2255   -5.5770    4.9784 O   0  0  0  0  0  0  0  0  0  0  0  0
   -4.4879   -3.1027    6.5885 H   0  0  0  0  0  0  0  0  0  0  0  0
   -4.9897   -5.8347    6.5512 C   0  0  0  0  0  0  0  0  0  0  0  0
   -4.4018   -6.3631    7.7520 N   0  0  0  0  0  0  0  0  0  0  0  0
   -4.8087   -5.8521    8.9880 C   0  0  0  0  0  0  0  0  0  0  0  0
   -3.8986   -7.6663    7.6370 C   0  0  0  0  0  0  0  0  0  0  0  0
   -2.3843   -7.7513    7.7061 C   0  0  0  0  0  0  0  0  0  0  0  0
   -5.7137   -6.8923    5.7918 C   0  0  0  0  0  0  0  0  0  0  0  0
   -6.9604   -7.3759    6.3930 C   0  0  0  0  0  0  0  0  0  0  0  0
   -7.2642   -8.6949    6.6448 C   0  0  0  0  0  0  0  0  0  0  0  0
   -8.4431   -9.1183    7.2181 C   0  0  0  0  0  0  0  0  0  0  0  0
   -9.4259   -8.2168    7.5878 C   0  0  0  0  0  0  0  0  0  0  0  0
  -10.6146   -8.6290    8.1649 O   0  0  0  0  0  0  0  0  0  0  0  0
   -9.1380   -6.8811    7.3417 C   0  0  0  0  0  0  0  0  0  0  0  0
   -7.9644   -6.4684    6.7717 C   0  0  0  0  0  0  0  0  0  0  0  0
  -11.4092   -8.8461    7.5607 H   0  0  0  0  0  0  0  0  0  0  0  0
   -5.1866   -0.3168    0.7649 N   0  0  0  0  0  0  0  0  0  0  0  0
   -3.9713    0.0425    1.4272 C   0  0  0  0  0  0  0  0  0  0  0  0
   -2.9323    0.2669    0.7129 O   0  0  0  0  0  0  0  0  0  0  0  0
   -6.0129   -0.5209    1.4009 H   0  0  0  0  0  0  0  0  0  0  0  0
   -5.3691   -0.4158   -0.6497 C   0  0  0  0  0  0  0  0  0  0  0  0
   -6.6396    0.3373   -0.9526 C   0  0  0  0  0  0  0  0  0  0  0  0
   -6.5286    1.3195   -1.7664 O   0  0  0  0  0  0  0  0  0  0  0  0
   -7.8955    0.0691   -0.4379 N   0  0  0  0  0  0  0  0  0  0  0  0
   -8.1076   -0.6863    0.2063 H   0  0  0  0  0  0  0  0  0  0  0  0
   -9.0390    0.9491   -0.8550 C   0  0  0  0  0  0  0  0  0  0  0  0
   -9.7699    1.2466    0.3874 C   0  0  0  0  0  0  0  0  0  0  0  0
   -9.5848    0.5305    1.5374 O   0  0  0  0  0  0  0  0  0  0  0  0
  -10.5983    2.1979    0.3669 O   0  0  0  0  0  0  0  0  0  0  0  0
   -9.7754    0.8897    2.4634 H   0  0  0  0  0  0  0  0  0  0  0  0
   -9.8240    0.1526   -1.8347 C   0  0  0  0  0  0  0  0  0  0  0  0
  -10.8466    0.7915   -2.6652 C   0  0  0  0  0  0  0  0  0  0  0  0
  -10.5228    1.8237   -3.6617 C   0  0  0  0  0  0  0  0  0  0  0  0
  -11.1322    3.1740   -3.4586 C   0  0  0  0  0  0  0  0  0  0  0  0
  -11.7791    3.2757   -2.1642 N   0  0  0  0  0  0  0  0  0  0  0  0
  -12.3902    4.0935   -2.0857 H   0  0  0  0  0  0  0  0  0  0  0  0
  -11.1897    3.0409   -1.3646 H   0  0  0  0  0  0  0  0  0  0  0  0
   -5.5020   -1.8094   -1.1345 C   0  0  0  0  0  0  0  0  0  0  0  0
   -3.5819   -1.7181   -2.8086 C   0  0  0  0  0  0  0  0  0  0  0  0
   -4.3879   -2.4724   -1.8246 C   0  0  0  0  0  0  0  0  0  0  0  0
   -3.4202   -3.1278   -0.8204 C   0  0  0  0  0  0  0  0  0  0  0  0
   -3.0594    1.5058    3.1017 C   0  0  0  0  0  0  0  0  0  0  0  0
   -3.2505    2.0439    4.4507 C   0  0  0  0  0  0  0  0  0  0  0  0
   -2.2181    2.7583    5.0325 C   0  0  0  0  0  0  0  0  0  0  0  0
   -2.3842    3.3165    6.2910 C   0  0  0  0  0  0  0  0  0  0  0  0
   -3.5480    3.1952    7.0081 C   0  0  0  0  0  0  0  0  0  0  0  0
   -4.5813    2.4849    6.4343 C   0  0  0  0  0  0  0  0  0  0  0  0
   -4.4188    1.9274    5.1826 C   0  0  0  0  0  0  0  0  0  0  0  0
 51 52  1  0  0  0
 52 53  1  0  0  0
 52 50  1  0  0  0
 50 33  1  0  0  0
 33 29  1  0  0  0
 29 30  1  0  0  0
 30 31  2  0  0  0
 30  1  1  0  0  0
  1 54  1  0  0  0
 54 55  1  0  0  0
 55 56  2  0  0  0
 56 57  1  0  0  0
 57 58  2  0  0  0
 58 59  1  0  0  0
 59 60  2  0  0  0
  1  2  1  0  0  0
  2  3  1  0  0  0
  3  4  2  0  0  0
  3  6  1  0  0  0
  6 11  1  0  0  0
 11 12  1  0  0  0
 12 13  2  0  0  0
 12 15  1  0  0  0
 15 20  1  0  0  0
 20 21  1  0  0  0
 21 22  2  0  0  0
 22 23  1  0  0  0
 23 24  2  0  0  0
 24 25  1  0  0  0
 24 26  1  0  0  0
 26 27  2  0  0  0
 15 16  1  0  0  0
 16 17  1  0  0  0
 16 18  1  0  0  0
 18 19  1  0  0  0
  6  7  1  0  0  0
  7  8  1  0  0  0
  7  9  2  0  0  0
 33 34  1  0  0  0
 34 35  2  0  0  0
 34 36  1  0  0  0
 36 38  1  0  0  0
 38 43  1  0  0  0
 43 44  1  0  0  0
 44 45  1  0  0  0
 45 46  1  0  0  0
 46 47  1  0  0  0
 38 39  1  0  0  0
 39 40  1  0  0  0
 39 41  2  0  0  0
 60 55  1  0  0  0
 27 21  1  0  0  0
 29 32  1  0  0  0
  2  5  1  0  0  0
 11 14  1  0  0  0
 25 28  1  0  0  0
  8 10  1  0  0  0
 36 37  1  0  0  0
 47 48  1  0  0  0
 47 49  1  0  0  0
 40 42  1  0  0  0
M  END
> <minimizedAffinity>
-6.57937

> <CNNscore>
0.2544050217

> <CNNaffinity>
6.1608142853

> <CNN_VS>
1.5673420429

> <CNNaffinity_variance>
0.1546505690

$$$$
[H]OC(=O)[C@]([H])(C(=O)N([H])[C@]([H])(C(=O)N([H])[C@]([H])(C(=O)N([H])[C@]([H])(C(=O)O[H])C([H])([H])C([H])([H])C([H])([H])C([H])([H])N([H])[H])C([H])([H])C([H])(C([H])([H])[H])C([H])([H])[H])C([H])([H])c1c([H])c([H])c([H])c([H])c1[H])N([H])C(=O)[C@]([H])(N(C([H])([H])[H])C([H])([H])C([H])([H])[H])C([H])([H])c1c([H])c([H])c(O[H])c([H])c1[H]


 60 61  0  0  0  0  0  0  0  0999 V2000
   -2.4575    0.7103    6.5758 C   0  0  0  0  0  0  0  0  0  0  0  0
   -2.1315    0.6308    8.0058 N   0  0  0  0  0  0  0  0  0  0  0  0
   -2.7750   -0.2991    8.8452 C   0  0  0  0  0  0  0  0  0  0  0  0
   -3.6558   -1.0486    8.2964 O   0  0  0  0  0  0  0  0  0  0  0  0
   -1.4217    1.2705    8.3759 H   0  0  0  0  0  0  0  0  0  0  0  0
   -2.5542   -0.5051   10.2834 C   0  0  0  0  0  0  0  0  0  0  0  0
   -3.3011    0.5064   11.0469 C   0  0  0  0  0  0  0  0  0  0  0  0
   -4.0689    1.4827   10.4362 O   0  0  0  0  0  0  0  0  0  0  0  0
   -3.2563    0.5071   12.3002 O   0  0  0  0  0  0  0  0  0  0  0  0
   -4.5295    2.2131   10.9399 H   0  0  0  0  0  0  0  0  0  0  0  0
   -3.0019   -1.8264   10.7005 N   0  0  0  0  0  0  0  0  0  0  0  0
   -2.1833   -2.8726   11.1567 C   0  0  0  0  0  0  0  0  0  0  0  0
   -0.9319   -2.5818   11.1918 O   0  0  0  0  0  0  0  0  0  0  0  0
   -4.0356   -1.9859   10.6268 H   0  0  0  0  0  0  0  0  0  0  0  0
   -2.6375   -4.1953   11.5652 C   0  0  0  0  0  0  0  0  0  0  0  0
   -3.0528   -4.9639   10.4234 N   0  0  0  0  0  0  0  0  0  0  0  0
   -4.4162   -5.0591   10.1294 C   0  0  0  0  0  0  0  0  0  0  0  0
   -2.0841   -5.0964    9.4190 C   0  0  0  0  0  0  0  0  0  0  0  0
   -0.9177   -5.9900    9.8008 C   0  0  0  0  0  0  0  0  0  0  0  0
   -3.6435   -4.2677   12.6617 C   0  0  0  0  0  0  0  0  0  0  0  0
   -3.4074   -5.2919   13.6839 C   0  0  0  0  0  0  0  0  0  0  0  0
   -4.3536   -6.1670   14.1682 C   0  0  0  0  0  0  0  0  0  0  0  0
   -4.0994   -7.1245   15.1254 C   0  0  0  0  0  0  0  0  0  0  0  0
   -2.8386   -7.2711   15.6770 C   0  0  0  0  0  0  0  0  0  0  0  0
   -2.5698   -8.2293   16.6392 O   0  0  0  0  0  0  0  0  0  0  0  0
   -1.8703   -6.3973   15.2013 C   0  0  0  0  0  0  0  0  0  0  0  0
   -2.1307   -5.4485   14.2502 C   0  0  0  0  0  0  0  0  0  0  0  0
   -2.6860   -7.9873   17.6248 H   0  0  0  0  0  0  0  0  0  0  0  0
   -2.1003   -0.9175    4.6531 N   0  0  0  0  0  0  0  0  0  0  0  0
   -1.6106   -0.0819    5.7051 C   0  0  0  0  0  0  0  0  0  0  0  0
   -0.3458   -0.0245    5.8979 O   0  0  0  0  0  0  0  0  0  0  0  0
   -3.1572   -0.9543    4.5505 H   0  0  0  0  0  0  0  0  0  0  0  0
   -1.2967   -1.6830    3.7517 C   0  0  0  0  0  0  0  0  0  0  0  0
   -1.9614   -1.5593    2.4042 C   0  0  0  0  0  0  0  0  0  0  0  0
   -1.1851   -1.6246    1.3880 O   0  0  0  0  0  0  0  0  0  0  0  0
   -3.3132   -1.3825    2.1687 N   0  0  0  0  0  0  0  0  0  0  0  0
   -4.0239   -1.3254    2.8914 H   0  0  0  0  0  0  0  0  0  0  0  0
   -3.7792   -1.2675    0.7454 C   0  0  0  0  0  0  0  0  0  0  0  0
   -4.7091   -0.1267    0.7349 C   0  0  0  0  0  0  0  0  0  0  0  0
   -5.5235    0.1663    1.7935 O   0  0  0  0  0  0  0  0  0  0  0  0
   -4.7449    0.5911   -0.3020 O   0  0  0  0  0  0  0  0  0  0  0  0
   -5.8979    1.0871    1.9802 H   0  0  0  0  0  0  0  0  0  0  0  0
   -4.4248   -2.5683    0.4263 C   0  0  0  0  0  0  0  0  0  0  0  0
   -4.8061   -2.8930   -0.9495 C   0  0  0  0  0  0  0  0  0  0  0  0
   -4.0297   -2.4368   -2.1124 C   0  0  0  0  0  0  0  0  0  0  0  0
   -4.7862   -1.7441   -3.2004 C   0  0  0  0  0  0  0  0  0  0  0  0
   -5.8981   -0.9782   -2.6698 N   0  0  0  0  0  0  0  0  0  0  0  0
   -6.5600   -0.6811   -3.3924 H   0  0  0  0  0  0  0  0  0  0  0  0
   -5.6543   -0.3076   -1.9400 H   0  0  0  0  0  0  0  0  0  0  0  0
   -1.1976   -3.1155    4.1159 C   0  0  0  0  0  0  0  0  0  0  0  0
   -1.8102   -5.2141    2.8051 C   0  0  0  0  0  0  0  0  0  0  0  0
   -2.2107   -4.0765    3.6607 C   0  0  0  0  0  0  0  0  0  0  0  0
   -3.0219   -4.6356    4.8455 C   0  0  0  0  0  0  0  0  0  0  0  0
   -2.2022    2.1998    6.1753 C   0  0  0  0  0  0  0  0  0  0  0  0
   -3.0829    2.6584    5.0983 C   0  0  0  0  0  0  0  0  0  0  0  0
   -2.5559    2.8050    3.8273 C   0  0  0  0  0  0  0  0  0  0  0  0
   -3.3741    3.1963    2.7783 C   0  0  0  0  0  0  0  0  0  0  0  0
   -4.7130    3.4519    2.9380 C   0  0  0  0  0  0  0  0  0  0  0  0
   -5.2451    3.3075    4.2019 C   0  0  0  0  0  0  0  0  0  0  0  0
   -4.4334    2.9191    5.2480 C   0  0  0  0  0  0  0  0  0  0  0  0
 51 52  1  0  0  0
 52 53  1  0  0  0
 52 50  1  0  0  0
 50 33  1  0  0  0
 33 29  1  0  0  0
 29 30  1  0  0  0
 30 31  2  0  0  0
 30  1  1  0  0  0
  1 54  1  0  0  0
 54 55  1  0  0  0
 55 56  2  0  0  0
 56 57  1  0  0  0
 57 58  2  0  0  0
 58 59  1  0  0  0
 59 60  2  0  0  0
  1  2  1  0  0  0
  2  3  1  0  0  0
  3  4  2  0  0  0
  3  6  1  0  0  0
  6 11  1  0  0  0
 11 12  1  0  0  0
 12 13  2  0  0  0
 12 15  1  0  0  0
 15 20  1  0  0  0
 20 21  1  0  0  0
 21 22  2  0  0  0
 22 23  1  0  0  0
 23 24  2  0  0  0
 24 25  1  0  0  0
 24 26  1  0  0  0
 26 27  2  0  0  0
 15 16  1  0  0  0
 16 17  1  0  0  0
 16 18  1  0  0  0
 18 19  1  0  0  0
  6  7  1  0  0  0
  7  8  1  0  0  0
  7  9  2  0  0  0
 33 34  1  0  0  0
 34 35  2  0  0  0
 34 36  1  0  0  0
 36 38  1  0  0  0
 38 43  1  0  0  0
 43 44  1  0  0  0
 44 45  1  0  0  0
 45 46  1  0  0  0
 46 47  1  0  0  0
 38 39  1  0  0  0
 39 40  1  0  0  0
 39 41  2  0  0  0
 60 55  1  0  0  0
 27 21  1  0  0  0
 29 32  1  0  0  0
  2  5  1  0  0  0
 11 14  1  0  0  0
 25 28  1  0  0  0
  8 10  1  0  0  0
 36 37  1  0  0  0
 47 48  1  0  0  0
 47 49  1  0  0  0
 40 42  1  0  0  0
M  END
> <minimizedAffinity>
-3.67941

> <CNNscore>
0.2076718509

> <CNNaffinity>
5.5367269516

> <CNN_VS>
1.1498223543

> <CNNaffinity_variance>
0.2574214339

$$$$
[H]OC(=O)[C@]([H])(C(=O)N([H])[C@]([H])(C(=O)N([H])[C@]([H])(C(=O)N([H])[C@]([H])(C(=O)O[H])C([H])([H])C([H])([H])C([H])([H])C([H])([H])N([H])[H])C([H])([H])C([H])(C([H])([H])[H])C([H])([H])[H])C([H])([H])c1c([H])c([H])c([H])c([H])c1[H])N([H])C(=O)[C@]([H])(N(C([H])([H])[H])C([H])([H])C([H])([H])[H])C([H])([H])c1c([H])c([H])c(O[H])c([H])c1[H]


 60 61  0  0  0  0  0  0  0  0999 V2000
   -2.5156    0.2543    7.6100 C   0  0  0  0  0  0  0  0  0  0  0  0
   -1.9673   -0.0000    8.9487 N   0  0  0  0  0  0  0  0  0  0  0  0
   -2.7904   -0.4648    9.9927 C   0  0  0  0  0  0  0  0  0  0  0  0
   -4.0272   -0.6363    9.7105 O   0  0  0  0  0  0  0  0  0  0  0  0
   -0.9684    0.1694    9.1021 H   0  0  0  0  0  0  0  0  0  0  0  0
   -2.3925   -0.7720   11.3736 C   0  0  0  0  0  0  0  0  0  0  0  0
   -3.0540    0.1627   12.2970 C   0  0  0  0  0  0  0  0  0  0  0  0
   -3.6848   -0.2568   13.4553 O   0  0  0  0  0  0  0  0  0  0  0  0
   -3.0622    1.3918   12.0477 O   0  0  0  0  0  0  0  0  0  0  0  0
   -4.1916    0.3593   14.0578 H   0  0  0  0  0  0  0  0  0  0  0  0
   -2.7675   -2.1305   11.7394 N   0  0  0  0  0  0  0  0  0  0  0  0
   -1.8938   -3.2210   11.8826 C   0  0  0  0  0  0  0  0  0  0  0  0
   -0.6601   -2.9368   11.6610 O   0  0  0  0  0  0  0  0  0  0  0  0
   -3.7946   -2.2802   11.8878 H   0  0  0  0  0  0  0  0  0  0  0  0
   -2.2772   -4.5800   12.2415 C   0  0  0  0  0  0  0  0  0  0  0  0
   -1.7799   -5.5195   11.2736 N   0  0  0  0  0  0  0  0  0  0  0  0
   -1.0584   -6.6319   11.7168 C   0  0  0  0  0  0  0  0  0  0  0  0
   -2.4890   -5.5506   10.0649 C   0  0  0  0  0  0  0  0  0  0  0  0
   -1.8661   -6.4436    9.0069 C   0  0  0  0  0  0  0  0  0  0  0  0
   -3.7131   -4.8296   12.5505 C   0  0  0  0  0  0  0  0  0  0  0  0
   -4.0057   -5.3044   13.9064 C   0  0  0  0  0  0  0  0  0  0  0  0
   -4.6140   -4.5648   14.8956 C   0  0  0  0  0  0  0  0  0  0  0  0
   -4.8822   -5.0417   16.1598 C   0  0  0  0  0  0  0  0  0  0  0  0
   -4.5466   -6.3334   16.5259 C   0  0  0  0  0  0  0  0  0  0  0  0
   -4.8107   -6.8249   17.7927 O   0  0  0  0  0  0  0  0  0  0  0  0
   -3.9318   -7.0954   15.5416 C   0  0  0  0  0  0  0  0  0  0  0  0
   -3.6686   -6.6144   14.2878 C   0  0  0  0  0  0  0  0  0  0  0  0
   -4.1056   -6.7146   18.5236 H   0  0  0  0  0  0  0  0  0  0  0  0
   -2.8199   -1.4717    5.7654 N   0  0  0  0  0  0  0  0  0  0  0  0
   -2.0051   -0.6065    6.5606 C   0  0  0  0  0  0  0  0  0  0  0  0
   -0.7438   -0.5851    6.3393 O   0  0  0  0  0  0  0  0  0  0  0  0
   -3.8550   -1.4758    6.0052 H   0  0  0  0  0  0  0  0  0  0  0  0
   -2.3597   -2.3057    4.6992 C   0  0  0  0  0  0  0  0  0  0  0  0
   -3.2395   -1.9836    3.5180 C   0  0  0  0  0  0  0  0  0  0  0  0
   -4.4904   -1.8688    3.7655 O   0  0  0  0  0  0  0  0  0  0  0  0
   -2.8250   -1.8051    2.2102 N   0  0  0  0  0  0  0  0  0  0  0  0
   -1.8614   -1.8623    1.8956 H   0  0  0  0  0  0  0  0  0  0  0  0
   -3.8640   -1.5016    1.1688 C   0  0  0  0  0  0  0  0  0  0  0  0
   -3.5433   -2.3839    0.0353 C   0  0  0  0  0  0  0  0  0  0  0  0
   -3.3064   -1.9052   -1.2234 O   0  0  0  0  0  0  0  0  0  0  0  0
   -3.4970   -3.6256    0.2536 O   0  0  0  0  0  0  0  0  0  0  0  0
   -2.7606   -2.3944   -1.9204 H   0  0  0  0  0  0  0  0  0  0  0  0
   -3.7156   -0.0546    0.8612 C   0  0  0  0  0  0  0  0  0  0  0  0
   -4.8892    0.8189    0.8040 C   0  0  0  0  0  0  0  0  0  0  0  0
   -6.1122    0.4513    0.0743 C   0  0  0  0  0  0  0  0  0  0  0  0
   -6.5413    1.3648   -1.0289 C   0  0  0  0  0  0  0  0  0  0  0  0
   -5.4343    2.1654   -1.5168 N   0  0  0  0  0  0  0  0  0  0  0  0
   -5.7352    2.9477   -2.1049 H   0  0  0  0  0  0  0  0  0  0  0  0
   -4.6117    1.6364   -1.8090 H   0  0  0  0  0  0  0  0  0  0  0  0
   -2.4543   -3.7540    4.9960 C   0  0  0  0  0  0  0  0  0  0  0  0
   -0.5044   -4.4985    3.5327 C   0  0  0  0  0  0  0  0  0  0  0  0
   -1.8492   -4.7446    4.0962 C   0  0  0  0  0  0  0  0  0  0  0  0
   -1.8487   -6.1486    4.7313 C   0  0  0  0  0  0  0  0  0  0  0  0
   -2.0476    1.6990    7.2387 C   0  0  0  0  0  0  0  0  0  0  0  0
   -2.8591    2.3058    6.1808 C   0  0  0  0  0  0  0  0  0  0  0  0
   -2.2837    2.5133    4.9397 C   0  0  0  0  0  0  0  0  0  0  0  0
   -3.0386    3.0463    3.9058 C   0  0  0  0  0  0  0  0  0  0  0  0
   -4.3599    3.3871    4.0519 C   0  0  0  0  0  0  0  0  0  0  0  0
   -4.9401    3.1827    5.2860 C   0  0  0  0  0  0  0  0  0  0  0  0
   -4.1914    2.6534    6.3171 C   0  0  0  0  0  0  0  0  0  0  0  0
 51 52  1  0  0  0
 52 53  1  0  0  0
 52 50  1  0  0  0
 50 33  1  0  0  0
 33 29  1  0  0  0
 29 30  1  0  0  0
 30 31  2  0  0  0
 30  1  1  0  0  0
  1 54  1  0  0  0
 54 55  1  0  0  0
 55 56  2  0  0  0
 56 57  1  0  0  0
 57 58  2  0  0  0
 58 59  1  0  0  0
 59 60  2  0  0  0
  1  2  1  0  0  0
  2  3  1  0  0  0
  3  4  2  0  0  0
  3  6  1  0  0  0
  6 11  1  0  0  0
 11 12  1  0  0  0
 12 13  2  0  0  0
 12 15  1  0  0  0
 15 20  1  0  0  0
 20 21  1  0  0  0
 21 22  2  0  0  0
 22 23  1  0  0  0
 23 24  2  0  0  0
 24 25  1  0  0  0
 24 26  1  0  0  0
 26 27  2  0  0  0
 15 16  1  0  0  0
 16 17  1  0  0  0
 16 18  1  0  0  0
 18 19  1  0  0  0
  6  7  1  0  0  0
  7  8  1  0  0  0
  7  9  2  0  0  0
 33 34  1  0  0  0
 34 35  2  0  0  0
 34 36  1  0  0  0
 36 38  1  0  0  0
 38 43  1  0  0  0
 43 44  1  0  0  0
 44 45  1  0  0  0
 45 46  1  0  0  0
 46 47  1  0  0  0
 38 39  1  0  0  0
 39 40  1  0  0  0
 39 41  2  0  0  0
 60 55  1  0  0  0
 27 21  1  0  0  0
 29 32  1  0  0  0
  2  5  1  0  0  0
 11 14  1  0  0  0
 25 28  1  0  0  0
  8 10  1  0  0  0
 36 37  1  0  0  0
 47 48  1  0  0  0
 47 49  1  0  0  0
 40 42  1  0  0  0
M  END
> <minimizedAffinity>
-3.69151

> <CNNscore>
0.2059775889

> <CNNaffinity>
5.8321585655

> <CNN_VS>
1.2012939453

> <CNNaffinity_variance>
0.7977977991

$$$$
[H]OC(=O)[C@]([H])(C(=O)N([H])[C@]([H])(C(=O)N([H])[C@]([H])(C(=O)N([H])[C@]([H])(C(=O)O[H])C([H])([H])C([H])([H])C([H])([H])C([H])([H])N([H])[H])C([H])([H])C([H])(C([H])([H])[H])C([H])([H])[H])C([H])([H])c1c([H])c([H])c([H])c([H])c1[H])N([H])C(=O)[C@]([H])(N(C([H])([H])[H])C([H])([H])C([H])([H])[H])C([H])([H])c1c([H])c([H])c(O[H])c([H])c1[H]


 60 61  0  0  0  0  0  0  0  0999 V2000
   -7.7306   -6.8288    7.1497 C   0  0  0  0  0  0  0  0  0  0  0  0
   -6.4943   -6.0658    7.3660 N   0  0  0  0  0  0  0  0  0  0  0  0
   -5.3452   -6.3128    6.5902 C   0  0  0  0  0  0  0  0  0  0  0  0
   -5.4397   -7.2366    5.7091 O   0  0  0  0  0  0  0  0  0  0  0  0
   -6.4912   -5.3477    8.0969 H   0  0  0  0  0  0  0  0  0  0  0  0
   -4.0452   -5.6332    6.6793 C   0  0  0  0  0  0  0  0  0  0  0  0
   -3.8647   -4.7589    5.5102 C   0  0  0  0  0  0  0  0  0  0  0  0
   -4.5893   -3.5930    5.3338 O   0  0  0  0  0  0  0  0  0  0  0  0
   -3.0293   -5.0592    4.6243 O   0  0  0  0  0  0  0  0  0  0  0  0
   -4.5218   -3.0238    4.5147 H   0  0  0  0  0  0  0  0  0  0  0  0
   -3.9574   -4.8215    7.8849 N   0  0  0  0  0  0  0  0  0  0  0  0
   -2.9271   -4.8635    8.8386 C   0  0  0  0  0  0  0  0  0  0  0  0
   -2.0001   -5.7128    8.5717 O   0  0  0  0  0  0  0  0  0  0  0  0
   -4.7615   -4.1655    8.0349 H   0  0  0  0  0  0  0  0  0  0  0  0
   -2.8496   -4.0534   10.0472 C   0  0  0  0  0  0  0  0  0  0  0  0
   -2.0897   -2.8568    9.8077 N   0  0  0  0  0  0  0  0  0  0  0  0
   -0.6935   -2.9238    9.8322 C   0  0  0  0  0  0  0  0  0  0  0  0
   -2.7550   -1.8771    9.0579 C   0  0  0  0  0  0  0  0  0  0  0  0
   -3.7892   -1.0934    9.8462 C   0  0  0  0  0  0  0  0  0  0  0  0
   -2.4136   -4.7303   11.3007 C   0  0  0  0  0  0  0  0  0  0  0  0
   -3.4390   -4.8867   12.3369 C   0  0  0  0  0  0  0  0  0  0  0  0
   -3.1993   -4.9564   13.6908 C   0  0  0  0  0  0  0  0  0  0  0  0
   -4.1859   -5.0968   14.6419 C   0  0  0  0  0  0  0  0  0  0  0  0
   -5.5205   -5.1792   14.2850 C   0  0  0  0  0  0  0  0  0  0  0  0
   -6.5215   -5.3201   15.2306 O   0  0  0  0  0  0  0  0  0  0  0  0
   -5.7827   -5.1108   12.9233 C   0  0  0  0  0  0  0  0  0  0  0  0
   -4.7969   -4.9714   11.9845 C   0  0  0  0  0  0  0  0  0  0  0  0
   -6.8095   -6.2593   15.5106 H   0  0  0  0  0  0  0  0  0  0  0  0
   -9.7277   -7.3558    8.6356 N   0  0  0  0  0  0  0  0  0  0  0  0
   -8.8521   -6.4346    7.9803 C   0  0  0  0  0  0  0  0  0  0  0  0
   -9.0652   -5.1807    8.1301 O   0  0  0  0  0  0  0  0  0  0  0  0
   -9.5280   -8.3842    8.4584 H   0  0  0  0  0  0  0  0  0  0  0  0
  -10.8191   -7.0066    9.4907 C   0  0  0  0  0  0  0  0  0  0  0  0
  -12.0071   -7.7782    8.9747 C   0  0  0  0  0  0  0  0  0  0  0  0
  -12.3778   -8.7773    9.6845 O   0  0  0  0  0  0  0  0  0  0  0  0
  -12.7215   -7.5105    7.8206 N   0  0  0  0  0  0  0  0  0  0  0  0
  -12.5278   -6.7429    7.1850 H   0  0  0  0  0  0  0  0  0  0  0  0
  -13.8719   -8.4104    7.4702 C   0  0  0  0  0  0  0  0  0  0  0  0
  -13.2542   -9.6495    6.9708 C   0  0  0  0  0  0  0  0  0  0  0  0
  -13.1185  -10.7667    7.7474 O   0  0  0  0  0  0  0  0  0  0  0  0
  -12.8350   -9.6575    5.7810 O   0  0  0  0  0  0  0  0  0  0  0  0
  -13.0377  -11.7049    7.3783 H   0  0  0  0  0  0  0  0  0  0  0  0
  -14.6583   -7.6779    6.4428 C   0  0  0  0  0  0  0  0  0  0  0  0
  -14.3504   -6.2824    6.1242 C   0  0  0  0  0  0  0  0  0  0  0  0
  -14.7029   -5.6709    4.8338 C   0  0  0  0  0  0  0  0  0  0  0  0
  -16.1266   -5.2521    4.6508 C   0  0  0  0  0  0  0  0  0  0  0  0
  -16.8097   -6.0972    3.6898 N   0  0  0  0  0  0  0  0  0  0  0  0
  -17.7029   -5.7061    3.3771 H   0  0  0  0  0  0  0  0  0  0  0  0
  -16.7684   -7.0981    3.8853 H   0  0  0  0  0  0  0  0  0  0  0  0
  -11.1382   -5.5599    9.4842 C   0  0  0  0  0  0  0  0  0  0  0  0
  -13.4921   -5.0227   10.3016 C   0  0  0  0  0  0  0  0  0  0  0  0
  -12.0274   -4.9839   10.5013 C   0  0  0  0  0  0  0  0  0  0  0  0
  -11.7230   -5.5580   11.8985 C   0  0  0  0  0  0  0  0  0  0  0  0
   -7.3894   -8.2965    7.5666 C   0  0  0  0  0  0  0  0  0  0  0  0
   -8.1629   -9.2937    6.8228 C   0  0  0  0  0  0  0  0  0  0  0  0
   -7.8278   -9.5444    5.5039 C   0  0  0  0  0  0  0  0  0  0  0  0
   -8.5134  -10.5130    4.7864 C   0  0  0  0  0  0  0  0  0  0  0  0
   -9.5322  -11.2552    5.3290 C   0  0  0  0  0  0  0  0  0  0  0  0
   -9.8713  -11.0110    6.6431 C   0  0  0  0  0  0  0  0  0  0  0  0
   -9.1916  -10.0472    7.3595 C   0  0  0  0  0  0  0  0  0  0  0  0
 51 52  1  0  0  0
 52 53  1  0  0  0
 52 50  1  0  0  0
 50 33  1  0  0  0
 33 29  1  0  0  0
 29 30  1  0  0  0
 30 31  2  0  0  0
 30  1  1  0  0  0
  1 54  1  0  0  0
 54 55  1  0  0  0
 55 56  2  0  0  0
 56 57  1  0  0  0
 57 58  2  0  0  0
 58 59  1  0  0  0
 59 60  2  0  0  0
  1  2  1  0  0  0
  2  3  1  0  0  0
  3  4  2  0  0  0
  3  6  1  0  0  0
  6 11  1  0  0  0
 11 12  1  0  0  0
 12 13  2  0  0  0
 12 15  1  0  0  0
 15 20  1  0  0  0
 20 21  1  0  0  0
 21 22  2  0  0  0
 22 23  1  0  0  0
 23 24  2  0  0  0
 24 25  1  0  0  0
 24 26  1  0  0  0
 26 27  2  0  0  0
 15 16  1  0  0  0
 16 17  1  0  0  0
 16 18  1  0  0  0
 18 19  1  0  0  0
  6  7  1  0  0  0
  7  8  1  0  0  0
  7  9  2  0  0  0
 33 34  1  0  0  0
 34 35  2  0  0  0
 34 36  1  0  0  0
 36 38  1  0  0  0
 38 43  1  0  0  0
 43 44  1  0  0  0
 44 45  1  0  0  0
 45 46  1  0  0  0
 46 47  1  0  0  0
 38 39  1  0  0  0
 39 40  1  0  0  0
 39 41  2  0  0  0
 60 55  1  0  0  0
 27 21  1  0  0  0
 29 32  1  0  0  0
  2  5  1  0  0  0
 11 14  1  0  0  0
 25 28  1  0  0  0
  8 10  1  0  0  0
 36 37  1  0  0  0
 47 48  1  0  0  0
 47 49  1  0  0  0
 40 42  1  0  0  0
M  END
> <minimizedAffinity>
-4.08428

> <CNNscore>
0.1999870837

> <CNNaffinity>
7.1126775742

> <CNN_VS>
1.4224436283

> <CNNaffinity_variance>
0.1018700376

$$$$
[H]OC(=O)[C@]([H])(C(=O)N([H])[C@]([H])(C(=O)N([H])[C@]([H])(C(=O)N([H])[C@]([H])(C(=O)O[H])C([H])([H])C([H])([H])C([H])([H])C([H])([H])N([H])[H])C([H])([H])C([H])(C([H])([H])[H])C([H])([H])[H])C([H])([H])c1c([H])c([H])c([H])c([H])c1[H])N([H])C(=O)[C@]([H])(N(C([H])([H])[H])C([H])([H])C([H])([H])[H])C([H])([H])c1c([H])c([H])c(O[H])c([H])c1[H]


 60 61  0  0  0  0  0  0  0  0999 V2000
   -2.2689   -0.2307    6.6400 C   0  0  0  0  0  0  0  0  0  0  0  0
   -1.8531   -0.7089    7.9651 N   0  0  0  0  0  0  0  0  0  0  0  0
   -2.7844   -0.8396    9.0135 C   0  0  0  0  0  0  0  0  0  0  0  0
   -3.9922   -0.5089    8.7478 O   0  0  0  0  0  0  0  0  0  0  0  0
   -0.8661   -0.9458    8.1057 H   0  0  0  0  0  0  0  0  0  0  0  0
   -2.5273   -1.3088   10.3823 C   0  0  0  0  0  0  0  0  0  0  0  0
   -2.9317   -0.2711   11.3433 C   0  0  0  0  0  0  0  0  0  0  0  0
   -3.4221   -0.5728   12.6019 O   0  0  0  0  0  0  0  0  0  0  0  0
   -2.8395    0.9410   11.0348 O   0  0  0  0  0  0  0  0  0  0  0  0
   -3.7591    0.1194   13.2397 H   0  0  0  0  0  0  0  0  0  0  0  0
   -3.2736   -2.5254   10.6703 N   0  0  0  0  0  0  0  0  0  0  0  0
   -3.3507   -3.6635    9.8508 C   0  0  0  0  0  0  0  0  0  0  0  0
   -2.6794   -3.5696    8.7588 O   0  0  0  0  0  0  0  0  0  0  0  0
   -3.8054   -2.5136   11.5739 H   0  0  0  0  0  0  0  0  0  0  0  0
   -4.1060   -4.8749   10.1419 C   0  0  0  0  0  0  0  0  0  0  0  0
   -3.8859   -5.2960   11.4987 N   0  0  0  0  0  0  0  0  0  0  0  0
   -2.5782   -5.3423   11.9908 C   0  0  0  0  0  0  0  0  0  0  0  0
   -4.9770   -5.1074   12.3581 C   0  0  0  0  0  0  0  0  0  0  0  0
   -4.6314   -5.2343   13.8310 C   0  0  0  0  0  0  0  0  0  0  0  0
   -3.9689   -6.0145    9.1921 C   0  0  0  0  0  0  0  0  0  0  0  0
   -5.2112   -6.4907    8.5759 C   0  0  0  0  0  0  0  0  0  0  0  0
   -5.6052   -6.2398    7.2808 C   0  0  0  0  0  0  0  0  0  0  0  0
   -6.7769   -6.7075    6.7274 C   0  0  0  0  0  0  0  0  0  0  0  0
   -7.6581   -7.4823    7.4612 C   0  0  0  0  0  0  0  0  0  0  0  0
   -8.8384   -7.9587    6.9171 O   0  0  0  0  0  0  0  0  0  0  0  0
   -7.2783   -7.7463    8.7702 C   0  0  0  0  0  0  0  0  0  0  0  0
   -6.1126   -7.2779    9.3128 C   0  0  0  0  0  0  0  0  0  0  0  0
   -9.6839   -7.3907    6.9944 H   0  0  0  0  0  0  0  0  0  0  0  0
   -2.0874   -1.7301    4.5923 N   0  0  0  0  0  0  0  0  0  0  0  0
   -1.5362   -0.7947    5.5229 C   0  0  0  0  0  0  0  0  0  0  0  0
   -0.3191   -0.4274    5.3678 O   0  0  0  0  0  0  0  0  0  0  0  0
   -3.0907   -2.0260    4.7789 H   0  0  0  0  0  0  0  0  0  0  0  0
   -1.4099   -2.2789    3.4592 C   0  0  0  0  0  0  0  0  0  0  0  0
   -2.3022   -2.0039    2.2755 C   0  0  0  0  0  0  0  0  0  0  0  0
   -3.5011   -1.6467    2.5481 O   0  0  0  0  0  0  0  0  0  0  0  0
   -1.9496   -2.1026    0.9413 N   0  0  0  0  0  0  0  0  0  0  0  0
   -1.0292   -2.3667    0.6039 H   0  0  0  0  0  0  0  0  0  0  0  0
   -2.9927   -1.7975   -0.0955 C   0  0  0  0  0  0  0  0  0  0  0  0
   -2.9533   -2.9350   -1.0288 C   0  0  0  0  0  0  0  0  0  0  0  0
   -2.0499   -3.9540   -0.9062 O   0  0  0  0  0  0  0  0  0  0  0  0
   -3.7888   -2.9472   -1.9739 O   0  0  0  0  0  0  0  0  0  0  0  0
   -2.1948   -4.8847   -1.2746 H   0  0  0  0  0  0  0  0  0  0  0  0
   -2.5855   -0.5059   -0.7091 C   0  0  0  0  0  0  0  0  0  0  0  0
   -3.5277    0.6120   -0.7861 C   0  0  0  0  0  0  0  0  0  0  0  0
   -4.9786    0.4136   -0.9235 C   0  0  0  0  0  0  0  0  0  0  0  0
   -5.8193    1.6431   -1.0558 C   0  0  0  0  0  0  0  0  0  0  0  0
   -5.0410    2.7700   -1.5342 N   0  0  0  0  0  0  0  0  0  0  0  0
   -5.5238    3.6660   -1.4220 H   0  0  0  0  0  0  0  0  0  0  0  0
   -4.5307    2.6075   -2.4031 H   0  0  0  0  0  0  0  0  0  0  0  0
   -1.1711   -3.7375    3.5602 C   0  0  0  0  0  0  0  0  0  0  0  0
   -3.3776   -4.3337    4.6886 C   0  0  0  0  0  0  0  0  0  0  0  0
   -1.9257   -4.5561    4.5181 C   0  0  0  0  0  0  0  0  0  0  0  0
   -1.7017   -6.0596    4.2656 C   0  0  0  0  0  0  0  0  0  0  0  0
   -1.9443    1.2986    6.6314 C   0  0  0  0  0  0  0  0  0  0  0  0
   -2.7574    2.0473    5.6700 C   0  0  0  0  0  0  0  0  0  0  0  0
   -2.1495    2.5405    4.5290 C   0  0  0  0  0  0  0  0  0  0  0  0
   -2.9012    3.2164    3.5797 C   0  0  0  0  0  0  0  0  0  0  0  0
   -4.2505    3.4269    3.7152 C   0  0  0  0  0  0  0  0  0  0  0  0
   -4.8631    2.9379    4.8497 C   0  0  0  0  0  0  0  0  0  0  0  0
   -4.1177    2.2658    5.7966 C   0  0  0  0  0  0  0  0  0  0  0  0
 51 52  1  0  0  0
 52 53  1  0  0  0
 52 50  1  0  0  0
 50 33  1  0  0  0
 33 29  1  0  0  0
 29 30  1  0  0  0
 30 31  2  0  0  0
 30  1  1  0  0  0
  1 54  1  0  0  0
 54 55  1  0  0  0
 55 56  2  0  0  0
 56 57  1  0  0  0
 57 58  2  0  0  0
 58 59  1  0  0  0
 59 60  2  0  0  0
  1  2  1  0  0  0
  2  3  1  0  0  0
  3  4  2  0  0  0
  3  6  1  0  0  0
  6 11  1  0  0  0
 11 12  1  0  0  0
 12 13  2  0  0  0
 12 15  1  0  0  0
 15 20  1  0  0  0
 20 21  1  0  0  0
 21 22  2  0  0  0
 22 23  1  0  0  0
 23 24  2  0  0  0
 24 25  1  0  0  0
 24 26  1  0  0  0
 26 27  2  0  0  0
 15 16  1  0  0  0
 16 17  1  0  0  0
 16 18  1  0  0  0
 18 19  1  0  0  0
  6  7  1  0  0  0
  7  8  1  0  0  0
  7  9  2  0  0  0
 33 34  1  0  0  0
 34 35  2  0  0  0
 34 36  1  0  0  0
 36 38  1  0  0  0
 38 43  1  0  0  0
 43 44  1  0  0  0
 44 45  1  0  0  0
 45 46  1  0  0  0
 46 47  1  0  0  0
 38 39  1  0  0  0
 39 40  1  0  0  0
 39 41  2  0  0  0
 60 55  1  0  0  0
 27 21  1  0  0  0
 29 32  1  0  0  0
  2  5  1  0  0  0
 11 14  1  0  0  0
 25 28  1  0  0  0
  8 10  1  0  0  0
 36 37  1  0  0  0
 47 48  1  0  0  0
 47 49  1  0  0  0
 40 42  1  0  0  0
M  END
> <minimizedAffinity>
-3.79216

> <CNNscore>
0.1954778880

> <CNNaffinity>
6.1215963364

> <CNN_VS>
1.1966366768

> <CNNaffinity_variance>
0.7659847736

$$$$
[H]OC(=O)[C@]([H])(C(=O)N([H])[C@]([H])(C(=O)N([H])[C@]([H])(C(=O)N([H])[C@]([H])(C(=O)O[H])C([H])([H])C([H])([H])C([H])([H])C([H])([H])N([H])[H])C([H])([H])C([H])(C([H])([H])[H])C([H])([H])[H])C([H])([H])c1c([H])c([H])c([H])c([H])c1[H])N([H])C(=O)[C@]([H])(N(C([H])([H])[H])C([H])([H])C([H])([H])[H])C([H])([H])c1c([H])c([H])c(O[H])c([H])c1[H]


 60 61  0  0  0  0  0  0  0  0999 V2000
   -3.6633   -5.2412    6.4951 C   0  0  0  0  0  0  0  0  0  0  0  0
   -3.3551   -4.5357    7.7460 N   0  0  0  0  0  0  0  0  0  0  0  0
   -2.1899   -4.8345    8.4784 C   0  0  0  0  0  0  0  0  0  0  0  0
   -1.4360   -5.7525    8.0011 O   0  0  0  0  0  0  0  0  0  0  0  0
   -4.0113   -3.8189    8.0709 H   0  0  0  0  0  0  0  0  0  0  0  0
   -1.7411   -4.2152    9.7333 C   0  0  0  0  0  0  0  0  0  0  0  0
   -2.3511   -2.8837    9.8717 C   0  0  0  0  0  0  0  0  0  0  0  0
   -1.6025   -1.7197    9.8824 O   0  0  0  0  0  0  0  0  0  0  0  0
   -3.5948   -2.7715    9.9872 O   0  0  0  0  0  0  0  0  0  0  0  0
   -1.9977   -0.8148   10.0389 H   0  0  0  0  0  0  0  0  0  0  0  0
   -2.1212   -5.0225   10.8838 N   0  0  0  0  0  0  0  0  0  0  0  0
   -1.4000   -5.1477   12.0826 C   0  0  0  0  0  0  0  0  0  0  0  0
   -0.3129   -4.4627   12.1142 O   0  0  0  0  0  0  0  0  0  0  0  0
   -3.0135   -5.5612   10.7697 H   0  0  0  0  0  0  0  0  0  0  0  0
   -1.7826   -5.9638   13.2273 C   0  0  0  0  0  0  0  0  0  0  0  0
   -1.0511   -7.2014   13.2348 N   0  0  0  0  0  0  0  0  0  0  0  0
   -0.6566   -7.7635   12.0170 C   0  0  0  0  0  0  0  0  0  0  0  0
   -0.3400   -7.4579   14.4151 C   0  0  0  0  0  0  0  0  0  0  0  0
   -0.8589   -8.6481   15.2018 C   0  0  0  0  0  0  0  0  0  0  0  0
   -3.2374   -6.1932   13.4516 C   0  0  0  0  0  0  0  0  0  0  0  0
   -3.8801   -5.3234   14.4415 C   0  0  0  0  0  0  0  0  0  0  0  0
   -3.4244   -5.1003   15.7213 C   0  0  0  0  0  0  0  0  0  0  0  0
   -4.0473   -4.2707   16.6276 C   0  0  0  0  0  0  0  0  0  0  0  0
   -5.2057   -3.5888   16.2982 C   0  0  0  0  0  0  0  0  0  0  0  0
   -5.8413   -2.7520   17.1993 O   0  0  0  0  0  0  0  0  0  0  0  0
   -5.6813   -3.8009   15.0113 C   0  0  0  0  0  0  0  0  0  0  0  0
   -5.0568   -4.6268   14.1167 C   0  0  0  0  0  0  0  0  0  0  0  0
   -6.5574   -3.1405   17.8155 H   0  0  0  0  0  0  0  0  0  0  0  0
   -1.7988   -4.1423    5.1572 N   0  0  0  0  0  0  0  0  0  0  0  0
   -3.1387   -4.6230    5.2929 C   0  0  0  0  0  0  0  0  0  0  0  0
   -3.9323   -4.5030    4.2949 O   0  0  0  0  0  0  0  0  0  0  0  0
   -1.1872   -4.2380    6.0208 H   0  0  0  0  0  0  0  0  0  0  0  0
   -1.2350   -3.5620    3.9785 C   0  0  0  0  0  0  0  0  0  0  0  0
   -1.4605   -2.0767    4.1048 C   0  0  0  0  0  0  0  0  0  0  0  0
   -0.4163   -1.3413    4.0137 O   0  0  0  0  0  0  0  0  0  0  0  0
   -2.6744   -1.4451    4.3089 N   0  0  0  0  0  0  0  0  0  0  0  0
   -3.5680   -1.9204    4.3878 H   0  0  0  0  0  0  0  0  0  0  0  0
   -2.6880    0.0526    4.4215 C   0  0  0  0  0  0  0  0  0  0  0  0
   -3.1438    0.3323    5.7927 C   0  0  0  0  0  0  0  0  0  0  0  0
   -4.2537    1.0856    6.0580 O   0  0  0  0  0  0  0  0  0  0  0  0
   -2.4670   -0.1450    6.7444 O   0  0  0  0  0  0  0  0  0  0  0  0
   -4.7919    1.0173    6.9116 H   0  0  0  0  0  0  0  0  0  0  0  0
   -3.6265    0.5274    3.3706 C   0  0  0  0  0  0  0  0  0  0  0  0
   -3.9541   -0.3234    2.2250 C   0  0  0  0  0  0  0  0  0  0  0  0
   -3.9851    0.1870    0.8459 C   0  0  0  0  0  0  0  0  0  0  0  0
   -5.0800    1.1466    0.5049 C   0  0  0  0  0  0  0  0  0  0  0  0
   -6.3841    0.6039    0.8353 N   0  0  0  0  0  0  0  0  0  0  0  0
   -7.1547    1.1305    0.4143 H   0  0  0  0  0  0  0  0  0  0  0  0
   -6.4914    0.2889    1.8002 H   0  0  0  0  0  0  0  0  0  0  0  0
   -1.8581   -4.0440    2.7238 C   0  0  0  0  0  0  0  0  0  0  0  0
   -0.4905   -3.2875    0.7101 C   0  0  0  0  0  0  0  0  0  0  0  0
   -1.7498   -3.2627    1.4849 C   0  0  0  0  0  0  0  0  0  0  0  0
   -2.9077   -3.5832    0.5200 C   0  0  0  0  0  0  0  0  0  0  0  0
   -5.2196   -5.1809    6.3586 C   0  0  0  0  0  0  0  0  0  0  0  0
   -5.8625   -6.4748    6.5996 C   0  0  0  0  0  0  0  0  0  0  0  0
   -5.0833   -7.6180    6.5739 C   0  0  0  0  0  0  0  0  0  0  0  0
   -5.6548   -8.8529    6.8404 C   0  0  0  0  0  0  0  0  0  0  0  0
   -6.9862   -9.0053    7.1364 C   0  0  0  0  0  0  0  0  0  0  0  0
   -7.7689   -7.8703    7.1641 C   0  0  0  0  0  0  0  0  0  0  0  0
   -7.2033   -6.6401    6.8985 C   0  0  0  0  0  0  0  0  0  0  0  0
 51 52  1  0  0  0
 52 53  1  0  0  0
 52 50  1  0  0  0
 50 33  1  0  0  0
 33 29  1  0  0  0
 29 30  1  0  0  0
 30 31  2  0  0  0
 30  1  1  0  0  0
  1 54  1  0  0  0
 54 55  1  0  0  0
 55 56  2  0  0  0
 56 57  1  0  0  0
 57 58  2  0  0  0
 58 59  1  0  0  0
 59 60  2  0  0  0
  1  2  1  0  0  0
  2  3  1  0  0  0
  3  4  2  0  0  0
  3  6  1  0  0  0
  6 11  1  0  0  0
 11 12  1  0  0  0
 12 13  2  0  0  0
 12 15  1  0  0  0
 15 20  1  0  0  0
 20 21  1  0  0  0
 21 22  2  0  0  0
 22 23  1  0  0  0
 23 24  2  0  0  0
 24 25  1  0  0  0
 24 26  1  0  0  0
 26 27  2  0  0  0
 15 16  1  0  0  0
 16 17  1  0  0  0
 16 18  1  0  0  0
 18 19  1  0  0  0
  6  7  1  0  0  0
  7  8  1  0  0  0
  7  9  2  0  0  0
 33 34  1  0  0  0
 34 35  2  0  0  0
 34 36  1  0  0  0
 36 38  1  0  0  0
 38 43  1  0  0  0
 43 44  1  0  0  0
 44 45  1  0  0  0
 45 46  1  0  0  0
 46 47  1  0  0  0
 38 39  1  0  0  0
 39 40  1  0  0  0
 39 41  2  0  0  0
 60 55  1  0  0  0
 27 21  1  0  0  0
 29 32  1  0  0  0
  2  5  1  0  0  0
 11 14  1  0  0  0
 25 28  1  0  0  0
  8 10  1  0  0  0
 36 37  1  0  0  0
 47 48  1  0  0  0
 47 49  1  0  0  0
 40 42  1  0  0  0
M  END
> <minimizedAffinity>
-3.56844

> <CNNscore>
0.1760986298

> <CNNaffinity>
5.6904687881

> <CNN_VS>
1.0020837784

> <CNNaffinity_variance>
0.4296639562

$$$$
[H]OC(=O)[C@]([H])(C(=O)N([H])[C@]([H])(C(=O)N([H])[C@]([H])(C(=O)N([H])[C@]([H])(C(=O)O[H])C([H])([H])C([H])([H])C([H])([H])C([H])([H])N([H])[H])C([H])([H])C([H])(C([H])([H])[H])C([H])([H])[H])C([H])([H])c1c([H])c([H])c([H])c([H])c1[H])N([H])C(=O)[C@]([H])(N(C([H])([H])[H])C([H])([H])C([H])([H])[H])C([H])([H])c1c([H])c([H])c(O[H])c([H])c1[H]


 60 61  0  0  0  0  0  0  0  0999 V2000
   -9.7099   -7.2770    7.8540 C   0  0  0  0  0  0  0  0  0  0  0  0
  -10.6246   -8.3776    7.5230 N   0  0  0  0  0  0  0  0  0  0  0  0
  -11.9376   -8.1212    7.0830 C   0  0  0  0  0  0  0  0  0  0  0  0
  -12.2824   -6.8910    7.0035 O   0  0  0  0  0  0  0  0  0  0  0  0
  -10.2805   -9.3378    7.6203 H   0  0  0  0  0  0  0  0  0  0  0  0
  -12.9616   -9.1064    6.7081 C   0  0  0  0  0  0  0  0  0  0  0  0
  -13.1482  -10.0662    7.8072 C   0  0  0  0  0  0  0  0  0  0  0  0
  -12.3631  -10.0544    8.9469 O   0  0  0  0  0  0  0  0  0  0  0  0
  -14.0453  -10.9395    7.7330 O   0  0  0  0  0  0  0  0  0  0  0  0
  -12.4378  -10.7391    9.6715 H   0  0  0  0  0  0  0  0  0  0  0  0
  -14.2373   -8.4608    6.4331 N   0  0  0  0  0  0  0  0  0  0  0  0
  -14.8620   -8.3612    5.1791 C   0  0  0  0  0  0  0  0  0  0  0  0
  -14.2045   -8.9102    4.2208 O   0  0  0  0  0  0  0  0  0  0  0  0
  -14.7005   -8.0252    7.2669 H   0  0  0  0  0  0  0  0  0  0  0  0
  -16.1355   -7.7066    4.9098 C   0  0  0  0  0  0  0  0  0  0  0  0
  -15.9431   -6.5401    4.0919 N   0  0  0  0  0  0  0  0  0  0  0  0
  -17.0278   -6.0295    3.3728 C   0  0  0  0  0  0  0  0  0  0  0  0
  -14.8813   -5.7138    4.4853 C   0  0  0  0  0  0  0  0  0  0  0  0
  -15.1331   -4.2343    4.2557 C   0  0  0  0  0  0  0  0  0  0  0  0
  -17.0161   -7.4120    6.0748 C   0  0  0  0  0  0  0  0  0  0  0  0
  -18.1831   -8.2849    6.2354 C   0  0  0  0  0  0  0  0  0  0  0  0
  -18.8471   -8.9234    5.2122 C   0  0  0  0  0  0  0  0  0  0  0  0
  -19.9382   -9.7442    5.3956 C   0  0  0  0  0  0  0  0  0  0  0  0
  -20.4508   -9.9855    6.6582 C   0  0  0  0  0  0  0  0  0  0  0  0
  -21.5462  -10.8082    6.8562 O   0  0  0  0  0  0  0  0  0  0  0  0
  -19.7944   -9.3501    7.7037 C   0  0  0  0  0  0  0  0  0  0  0  0
  -18.7110   -8.5360    7.5134 C   0  0  0  0  0  0  0  0  0  0  0  0
  -22.4820  -10.3989    6.8411 H   0  0  0  0  0  0  0  0  0  0  0  0
   -7.2476   -6.6390    7.9177 N   0  0  0  0  0  0  0  0  0  0  0  0
   -8.3095   -7.5354    7.5804 C   0  0  0  0  0  0  0  0  0  0  0  0
   -8.0139   -8.6375    6.9990 O   0  0  0  0  0  0  0  0  0  0  0  0
   -7.5449   -5.7258    8.3724 H   0  0  0  0  0  0  0  0  0  0  0  0
   -5.8545   -6.8742    7.6984 C   0  0  0  0  0  0  0  0  0  0  0  0
   -5.1297   -5.8409    8.5228 C   0  0  0  0  0  0  0  0  0  0  0  0
   -4.7499   -4.7903    7.8974 O   0  0  0  0  0  0  0  0  0  0  0  0
   -4.8400   -5.9238    9.8732 N   0  0  0  0  0  0  0  0  0  0  0  0
   -5.0974   -6.7008   10.4737 H   0  0  0  0  0  0  0  0  0  0  0  0
   -4.0930   -4.7882   10.5124 C   0  0  0  0  0  0  0  0  0  0  0  0
   -2.6763   -5.1851   10.4683 C   0  0  0  0  0  0  0  0  0  0  0  0
   -1.9710   -5.2598    9.2994 O   0  0  0  0  0  0  0  0  0  0  0  0
   -2.1128   -5.4692   11.5607 O   0  0  0  0  0  0  0  0  0  0  0  0
   -0.9644   -5.1798    9.2409 H   0  0  0  0  0  0  0  0  0  0  0  0
   -4.6390   -4.6716   11.8904 C   0  0  0  0  0  0  0  0  0  0  0  0
   -5.6168   -5.6407   12.3886 C   0  0  0  0  0  0  0  0  0  0  0  0
   -6.5101   -5.3501   13.5205 C   0  0  0  0  0  0  0  0  0  0  0  0
   -5.9108   -4.6326   14.6874 C   0  0  0  0  0  0  0  0  0  0  0  0
   -6.4627   -3.2987   14.8315 N   0  0  0  0  0  0  0  0  0  0  0  0
   -5.9215   -2.7088   15.4699 H   0  0  0  0  0  0  0  0  0  0  0  0
   -7.4809   -3.2538   14.8864 H   0  0  0  0  0  0  0  0  0  0  0  0
   -5.4463   -6.7396    6.2807 C   0  0  0  0  0  0  0  0  0  0  0  0
   -3.0391   -6.2837    5.5773 C   0  0  0  0  0  0  0  0  0  0  0  0
   -4.1416   -7.2373    5.8258 C   0  0  0  0  0  0  0  0  0  0  0  0
   -3.6112   -8.3447    6.7569 C   0  0  0  0  0  0  0  0  0  0  0  0
   -9.8143   -7.1042    9.4043 C   0  0  0  0  0  0  0  0  0  0  0  0
  -11.0846   -6.5089    9.8262 C   0  0  0  0  0  0  0  0  0  0  0  0
  -11.1977   -5.1299    9.8436 C   0  0  0  0  0  0  0  0  0  0  0  0
  -12.4005   -4.5373   10.1972 C   0  0  0  0  0  0  0  0  0  0  0  0
  -13.5131   -5.2645   10.5389 C   0  0  0  0  0  0  0  0  0  0  0  0
  -13.4077   -6.6394   10.5234 C   0  0  0  0  0  0  0  0  0  0  0  0
  -12.2120   -7.2321   10.1729 C   0  0  0  0  0  0  0  0  0  0  0  0
 51 52  1  0  0  0
 52 53  1  0  0  0
 52 50  1  0  0  0
 50 33  1  0  0  0
 33 29  1  0  0  0
 29 30  1  0  0  0
 30 31  2  0  0  0
 30  1  1  0  0  0
  1 54  1  0  0  0
 54 55  1  0  0  0
 55 56  2  0  0  0
 56 57  1  0  0  0
 57 58  2  0  0  0
 58 59  1  0  0  0
 59 60  2  0  0  0
  1  2  1  0  0  0
  2  3  1  0  0  0
  3  4  2  0  0  0
  3  6  1  0  0  0
  6 11  1  0  0  0
 11 12  1  0  0  0
 12 13  2  0  0  0
 12 15  1  0  0  0
 15 20  1  0  0  0
 20 21  1  0  0  0
 21 22  2  0  0  0
 22 23  1  0  0  0
 23 24  2  0  0  0
 24 25  1  0  0  0
 24 26  1  0  0  0
 26 27  2  0  0  0
 15 16  1  0  0  0
 16 17  1  0  0  0
 16 18  1  0  0  0
 18 19  1  0  0  0
  6  7  1  0  0  0
  7  8  1  0  0  0
  7  9  2  0  0  0
 33 34  1  0  0  0
 34 35  2  0  0  0
 34 36  1  0  0  0
 36 38  1  0  0  0
 38 43  1  0  0  0
 43 44  1  0  0  0
 44 45  1  0  0  0
 45 46  1  0  0  0
 46 47  1  0  0  0
 38 39  1  0  0  0
 39 40  1  0  0  0
 39 41  2  0  0  0
 60 55  1  0  0  0
 27 21  1  0  0  0
 29 32  1  0  0  0
  2  5  1  0  0  0
 11 14  1  0  0  0
 25 28  1  0  0  0
  8 10  1  0  0  0
 36 37  1  0  0  0
 47 48  1  0  0  0
 47 49  1  0  0  0
 40 42  1  0  0  0
M  END
> <minimizedAffinity>
-5.19213

> <CNNscore>
0.1591060907

> <CNNaffinity>
7.1663489342

> <CNN_VS>
1.1402097940

> <CNNaffinity_variance>
0.0904360190

$$$$
[H]OC(=O)[C@]([H])(C(=O)N([H])[C@]([H])(C(=O)N([H])[C@]([H])(C(=O)N([H])[C@]([H])(C(=O)O[H])C([H])([H])C([H])([H])C([H])([H])C([H])([H])N([H])[H])C([H])([H])C([H])(C([H])([H])[H])C([H])([H])[H])C([H])([H])c1c([H])c([H])c([H])c([H])c1[H])N([H])C(=O)[C@]([H])(N(C([H])([H])[H])C([H])([H])C([H])([H])[H])C([H])([H])c1c([H])c([H])c(O[H])c([H])c1[H]


 60 61  0  0  0  0  0  0  0  0999 V2000
   -5.3861   -6.6313    6.9732 C   0  0  0  0  0  0  0  0  0  0  0  0
   -5.2677   -5.2291    6.5522 N   0  0  0  0  0  0  0  0  0  0  0  0
   -4.3003   -4.8353    5.6075 C   0  0  0  0  0  0  0  0  0  0  0  0
   -3.5353   -5.7573    5.1565 O   0  0  0  0  0  0  0  0  0  0  0  0
   -5.9095   -4.5449    6.9644 H   0  0  0  0  0  0  0  0  0  0  0  0
   -4.0645   -3.4832    5.0822 C   0  0  0  0  0  0  0  0  0  0  0  0
   -3.4162   -2.6594    6.1142 C   0  0  0  0  0  0  0  0  0  0  0  0
   -3.3594   -1.2786    6.0372 O   0  0  0  0  0  0  0  0  0  0  0  0
   -2.8862   -3.2043    7.1117 O   0  0  0  0  0  0  0  0  0  0  0  0
   -2.8679   -0.7122    6.6982 H   0  0  0  0  0  0  0  0  0  0  0  0
   -3.2052   -3.5176    3.9073 N   0  0  0  0  0  0  0  0  0  0  0  0
   -3.1513   -2.5488    2.8918 C   0  0  0  0  0  0  0  0  0  0  0  0
   -3.9538   -1.5604    3.0672 O   0  0  0  0  0  0  0  0  0  0  0  0
   -2.5925   -4.3653    3.8332 H   0  0  0  0  0  0  0  0  0  0  0  0
   -2.2942   -2.5936    1.7144 C   0  0  0  0  0  0  0  0  0  0  0  0
   -0.9204   -2.7816    2.0942 N   0  0  0  0  0  0  0  0  0  0  0  0
   -0.3104   -1.8356    2.9232 C   0  0  0  0  0  0  0  0  0  0  0  0
   -0.4780   -4.1114    2.0644 C   0  0  0  0  0  0  0  0  0  0  0  0
   -1.1422   -4.9587    0.9939 C   0  0  0  0  0  0  0  0  0  0  0  0
   -2.4355   -1.4934    0.7199 C   0  0  0  0  0  0  0  0  0  0  0  0
   -3.4914   -1.6650   -0.2827 C   0  0  0  0  0  0  0  0  0  0  0  0
   -3.9114   -2.8702   -0.7990 C   0  0  0  0  0  0  0  0  0  0  0  0
   -4.9125   -3.0001   -1.7365 C   0  0  0  0  0  0  0  0  0  0  0  0
   -5.5788   -1.8934   -2.2330 C   0  0  0  0  0  0  0  0  0  0  0  0
   -6.5865   -2.0101   -3.1748 O   0  0  0  0  0  0  0  0  0  0  0  0
   -5.1693   -0.6683   -1.7244 C   0  0  0  0  0  0  0  0  0  0  0  0
   -4.1738   -0.5475   -0.7932 C   0  0  0  0  0  0  0  0  0  0  0  0
   -6.3431   -1.9817   -4.1665 H   0  0  0  0  0  0  0  0  0  0  0  0
   -7.7672   -7.3277    7.5382 N   0  0  0  0  0  0  0  0  0  0  0  0
   -6.6482   -7.2680    6.6500 C   0  0  0  0  0  0  0  0  0  0  0  0
   -6.7588   -7.8094    5.4946 O   0  0  0  0  0  0  0  0  0  0  0  0
   -7.6177   -6.8900    8.4948 H   0  0  0  0  0  0  0  0  0  0  0  0
   -9.0380   -7.9125    7.2427 C   0  0  0  0  0  0  0  0  0  0  0  0
  -10.0615   -7.0243    7.9032 C   0  0  0  0  0  0  0  0  0  0  0  0
   -9.6648   -5.8476    8.2153 O   0  0  0  0  0  0  0  0  0  0  0  0
  -11.3704   -7.3600    8.2001 N   0  0  0  0  0  0  0  0  0  0  0  0
  -11.7991   -8.2566    7.9930 H   0  0  0  0  0  0  0  0  0  0  0  0
  -12.2334   -6.3330    8.8760 C   0  0  0  0  0  0  0  0  0  0  0  0
  -12.3273   -6.7705   10.2781 C   0  0  0  0  0  0  0  0  0  0  0  0
  -11.6773   -6.1254   11.2935 O   0  0  0  0  0  0  0  0  0  0  0  0
  -13.0340   -7.7848   10.5298 O   0  0  0  0  0  0  0  0  0  0  0  0
  -11.9711   -6.1545   12.2608 H   0  0  0  0  0  0  0  0  0  0  0  0
  -13.5322   -6.3591    8.1529 C   0  0  0  0  0  0  0  0  0  0  0  0
  -13.7886   -7.3625    7.1179 C   0  0  0  0  0  0  0  0  0  0  0  0
  -14.8698   -8.3533    7.2297 C   0  0  0  0  0  0  0  0  0  0  0  0
  -15.8079   -8.2027    8.3843 C   0  0  0  0  0  0  0  0  0  0  0  0
  -17.1886   -8.1448    7.9431 N   0  0  0  0  0  0  0  0  0  0  0  0
  -17.8286   -7.8203    8.6735 H   0  0  0  0  0  0  0  0  0  0  0  0
  -17.4894   -8.9230    7.3551 H   0  0  0  0  0  0  0  0  0  0  0  0
   -9.1887   -9.2940    7.7559 C   0  0  0  0  0  0  0  0  0  0  0  0
  -11.3826  -10.0500    6.7008 C   0  0  0  0  0  0  0  0  0  0  0  0
   -9.9555  -10.2943    7.0019 C   0  0  0  0  0  0  0  0  0  0  0  0
   -9.2480  -10.6623    5.6834 C   0  0  0  0  0  0  0  0  0  0  0  0
   -5.3135   -6.6021    8.5347 C   0  0  0  0  0  0  0  0  0  0  0  0
   -4.0796   -5.9918    9.0356 C   0  0  0  0  0  0  0  0  0  0  0  0
   -4.1741   -4.9699    9.9637 C   0  0  0  0  0  0  0  0  0  0  0  0
   -3.0235   -4.4012   10.4886 C   0  0  0  0  0  0  0  0  0  0  0  0
   -1.7638   -4.8090   10.1275 C   0  0  0  0  0  0  0  0  0  0  0  0
   -1.6619   -5.8273    9.2032 C   0  0  0  0  0  0  0  0  0  0  0  0
   -2.8051   -6.3946    8.6784 C   0  0  0  0  0  0  0  0  0  0  0  0
 51 52  1  0  0  0
 52 53  1  0  0  0
 52 50  1  0  0  0
 50 33  1  0  0  0
 33 29  1  0  0  0
 29 30  1  0  0  0
 30 31  2  0  0  0
 30  1  1  0  0  0
  1 54  1  0  0  0
 54 55  1  0  0  0
 55 56  2  0  0  0
 56 57  1  0  0  0
 57 58  2  0  0  0
 58 59  1  0  0  0
 59 60  2  0  0  0
  1  2  1  0  0  0
  2  3  1  0  0  0
  3  4  2  0  0  0
  3  6  1  0  0  0
  6 11  1  0  0  0
 11 12  1  0  0  0
 12 13  2  0  0  0
 12 15  1  0  0  0
 15 20  1  0  0  0
 20 21  1  0  0  0
 21 22  2  0  0  0
 22 23  1  0  0  0
 23 24  2  0  0  0
 24 25  1  0  0  0
 24 26  1  0  0  0
 26 27  2  0  0  0
 15 16  1  0  0  0
 16 17  1  0  0  0
 16 18  1  0  0  0
 18 19  1  0  0  0
  6  7  1  0  0  0
  7  8  1  0  0  0
  7  9  2  0  0  0
 33 34  1  0  0  0
 34 35  2  0  0  0
 34 36  1  0  0  0
 36 38  1  0  0  0
 38 43  1  0  0  0
 43 44  1  0  0  0
 44 45  1  0  0  0
 45 46  1  0  0  0
 46 47  1  0  0  0
 38 39  1  0  0  0
 39 40  1  0  0  0
 39 41  2  0  0  0
 60 55  1  0  0  0
 27 21  1  0  0  0
 29 32  1  0  0  0
  2  5  1  0  0  0
 11 14  1  0  0  0
 25 28  1  0  0  0
  8 10  1  0  0  0
 36 37  1  0  0  0
 47 48  1  0  0  0
 47 49  1  0  0  0
 40 42  1  0  0  0
M  END
> <minimizedAffinity>
-5.67749

> <CNNscore>
0.1534665227

> <CNNaffinity>
6.4188246727

> <CNN_VS>
0.9850746989

> <CNNaffinity_variance>
0.0976007134

$$$$
[H]c1c([H])c(-n2c(=O)c3c([H])nc4c([H])c([H])c([H])c([H])c4c3n2[H])c([H])c([H])c1Cl


 22 25  0  0  0  0  0  0  0  0999 V2000
   -7.7331   -7.2308    7.5462 N   0  0  0  0  0  0  0  0  0  0  0  0
   -8.6558   -6.5728    8.2462 N   0  0  0  0  0  0  0  0  0  0  0  0
   -9.7844   -7.3020    8.3051 C   0  0  0  0  0  0  0  0  0  0  0  0
   -9.5653   -8.4753    7.6101 C   0  0  0  0  0  0  0  0  0  0  0  0
  -10.5880   -9.4102    7.5209 C   0  0  0  0  0  0  0  0  0  0  0  0
  -11.7972   -9.2122    8.0930 N   0  0  0  0  0  0  0  0  0  0  0  0
  -12.0149   -8.0536    8.7797 C   0  0  0  0  0  0  0  0  0  0  0  0
  -13.2558   -7.8626    9.3604 C   0  0  0  0  0  0  0  0  0  0  0  0
  -13.4942   -6.7062   10.0540 C   0  0  0  0  0  0  0  0  0  0  0  0
  -12.5165   -5.7281   10.1831 C   0  0  0  0  0  0  0  0  0  0  0  0
  -11.2924   -5.9447    9.5957 C   0  0  0  0  0  0  0  0  0  0  0  0
  -11.0241   -7.0954    8.8934 C   0  0  0  0  0  0  0  0  0  0  0  0
   -8.2723   -8.3916    7.1520 C   0  0  0  0  0  0  0  0  0  0  0  0
   -7.7243   -9.2868    6.4740 O   0  0  0  0  0  0  0  0  0  0  0  0
   -8.5313   -5.6341    8.6859 H   0  0  0  0  0  0  0  0  0  0  0  0
   -2.1867   -5.2315    6.4765 Cl  0  0  0  0  0  0  0  0  0  0  0  0
   -3.8084   -5.8201    6.8095 C   0  0  0  0  0  0  0  0  0  0  0  0
   -4.1857   -6.1971    8.0796 C   0  0  0  0  0  0  0  0  0  0  0  0
   -5.4792   -6.6590    8.3071 C   0  0  0  0  0  0  0  0  0  0  0  0
   -6.4026   -6.7493    7.2803 C   0  0  0  0  0  0  0  0  0  0  0  0
   -6.0050   -6.3695    6.0281 C   0  0  0  0  0  0  0  0  0  0  0  0
   -4.7322   -5.9131    5.7948 C   0  0  0  0  0  0  0  0  0  0  0  0
 16 17  1  0  0  0
 17 18  2  0  0  0
 18 19  1  0  0  0
 19 20  2  0  0  0
 20 21  1  0  0  0
 21 22  2  0  0  0
 20  1  1  0  0  0
  1  2  1  0  0  0
  2  3  1  0  0  0
  3  4  2  0  0  0
  4  5  1  0  0  0
  5  6  2  0  0  0
  6  7  1  0  0  0
  7  8  2  0  0  0
  8  9  1  0  0  0
  9 10  2  0  0  0
 10 11  1  0  0  0
 11 12  2  0  0  0
  4 13  1  0  0  0
 13 14  2  0  0  0
 22 17  1  0  0  0
 13  1  1  0  0  0
 12  3  1  0  0  0
 12  7  1  0  0  0
  2 15  1  0  0  0
M  END
> <minimizedAffinity>
-9.12857

> <CNNscore>
0.7322500944

> <CNNaffinity>
5.9946355820

> <CNN_VS>
4.3895726204

> <CNNaffinity_variance>
0.1044963151

$$$$
[H]c1c([H])c(-n2c(=O)c3c([H])nc4c([H])c([H])c([H])c([H])c4c3n2[H])c([H])c([H])c1Cl


 22 25  0  0  0  0  0  0  0  0999 V2000
   -8.3676   -7.6666    7.9374 N   0  0  0  0  0  0  0  0  0  0  0  0
   -7.4466   -6.8875    8.5023 N   0  0  0  0  0  0  0  0  0  0  0  0
   -6.2360   -7.1743    7.9913 C   0  0  0  0  0  0  0  0  0  0  0  0
   -6.3989   -8.1814    7.0602 C   0  0  0  0  0  0  0  0  0  0  0  0
   -5.2870   -8.6629    6.3824 C   0  0  0  0  0  0  0  0  0  0  0  0
   -4.0436   -8.1787    6.6022 N   0  0  0  0  0  0  0  0  0  0  0  0
   -3.8813   -7.1840    7.5216 C   0  0  0  0  0  0  0  0  0  0  0  0
   -2.6047   -6.6970    7.7376 C   0  0  0  0  0  0  0  0  0  0  0  0
   -2.4208   -5.6985    8.6564 C   0  0  0  0  0  0  0  0  0  0  0  0
   -3.4885   -5.1700    9.3706 C   0  0  0  0  0  0  0  0  0  0  0  0
   -4.7463   -5.6730    9.1354 C   0  0  0  0  0  0  0  0  0  0  0  0
   -4.9616   -6.6751    8.2194 C   0  0  0  0  0  0  0  0  0  0  0  0
   -7.7447   -8.4603    7.0566 C   0  0  0  0  0  0  0  0  0  0  0  0
   -8.2640   -9.3307    6.3259 O   0  0  0  0  0  0  0  0  0  0  0  0
   -7.6271   -6.1621    9.2311 H   0  0  0  0  0  0  0  0  0  0  0  0
  -14.2250   -7.5656    9.1959 Cl  0  0  0  0  0  0  0  0  0  0  0  0
  -12.5097   -7.6134    8.8188 C   0  0  0  0  0  0  0  0  0  0  0  0
  -11.9459   -8.7008    8.1883 C   0  0  0  0  0  0  0  0  0  0  0  0
  -10.5828   -8.7046    7.9049 C   0  0  0  0  0  0  0  0  0  0  0  0
   -9.7740   -7.6340    8.2435 C   0  0  0  0  0  0  0  0  0  0  0  0
  -10.3561   -6.5659    8.8686 C   0  0  0  0  0  0  0  0  0  0  0  0
  -11.6985   -6.5537    9.1519 C   0  0  0  0  0  0  0  0  0  0  0  0
 16 17  1  0  0  0
 17 18  2  0  0  0
 18 19  1  0  0  0
 19 20  2  0  0  0
 20 21  1  0  0  0
 21 22  2  0  0  0
 20  1  1  0  0  0
  1  2  1  0  0  0
  2  3  1  0  0  0
  3  4  2  0  0  0
  4  5  1  0  0  0
  5  6  2  0  0  0
  6  7  1  0  0  0
  7  8  2  0  0  0
  8  9  1  0  0  0
  9 10  2  0  0  0
 10 11  1  0  0  0
 11 12  2  0  0  0
  4 13  1  0  0  0
 13 14  2  0  0  0
 22 17  1  0  0  0
 13  1  1  0  0  0
 12  3  1  0  0  0
 12  7  1  0  0  0
  2 15  1  0  0  0
M  END
> <minimizedAffinity>
-7.32603

> <CNNscore>
0.5629775524

> <CNNaffinity>
5.7121095657

> <CNN_VS>
3.2157895565

> <CNNaffinity_variance>
0.0498199239

$$$$
[H]c1c([H])c(-n2c(=O)c3c([H])nc4c([H])c([H])c([H])c([H])c4c3n2[H])c([H])c([H])c1Cl


 22 25  0  0  0  0  0  0  0  0999 V2000
  -16.0148   -7.9384    7.4051 N   0  0  0  0  0  0  0  0  0  0  0  0
  -17.0119   -8.7016    7.8496 N   0  0  0  0  0  0  0  0  0  0  0  0
  -17.9691   -8.7888    6.9088 C   0  0  0  0  0  0  0  0  0  0  0  0
  -17.5584   -8.0464    5.8190 C   0  0  0  0  0  0  0  0  0  0  0  0
  -18.3788   -7.9740    4.7012 C   0  0  0  0  0  0  0  0  0  0  0  0
  -19.5720   -8.6077    4.6410 N   0  0  0  0  0  0  0  0  0  0  0  0
  -19.9788   -9.3414    5.7168 C   0  0  0  0  0  0  0  0  0  0  0  0
  -21.2011   -9.9849    5.6432 C   0  0  0  0  0  0  0  0  0  0  0  0
  -21.6274  -10.7263    6.7126 C   0  0  0  0  0  0  0  0  0  0  0  0
  -20.8575  -10.8419    7.8628 C   0  0  0  0  0  0  0  0  0  0  0  0
  -19.6469  -10.1917    7.9083 C   0  0  0  0  0  0  0  0  0  0  0  0
  -19.1929   -9.4404    6.8505 C   0  0  0  0  0  0  0  0  0  0  0  0
  -16.3331   -7.5318    6.1693 C   0  0  0  0  0  0  0  0  0  0  0  0
  -15.6546   -6.8002    5.4171 O   0  0  0  0  0  0  0  0  0  0  0  0
  -17.0531   -9.1656    8.7840 H   0  0  0  0  0  0  0  0  0  0  0  0
  -11.0297   -6.6390   10.4651 Cl  0  0  0  0  0  0  0  0  0  0  0  0
  -12.4813   -7.0180    9.5507 C   0  0  0  0  0  0  0  0  0  0  0  0
  -12.4696   -7.0563    8.1736 C   0  0  0  0  0  0  0  0  0  0  0  0
  -13.6387   -7.3602    7.4814 C   0  0  0  0  0  0  0  0  0  0  0  0
  -14.8216   -7.6271    8.1482 C   0  0  0  0  0  0  0  0  0  0  0  0
  -14.8087   -7.5831    9.5150 C   0  0  0  0  0  0  0  0  0  0  0  0
  -13.6612   -7.2844   10.2054 C   0  0  0  0  0  0  0  0  0  0  0  0
 16 17  1  0  0  0
 17 18  2  0  0  0
 18 19  1  0  0  0
 19 20  2  0  0  0
 20 21  1  0  0  0
 21 22  2  0  0  0
 20  1  1  0  0  0
  1  2  1  0  0  0
  2  3  1  0  0  0
  3  4  2  0  0  0
  4  5  1  0  0  0
  5  6  2  0  0  0
  6  7  1  0  0  0
  7  8  2  0  0  0
  8  9  1  0  0  0
  9 10  2  0  0  0
 10 11  1  0  0  0
 11 12  2  0  0  0
  4 13  1  0  0  0
 13 14  2  0  0  0
 22 17  1  0  0  0
 13  1  1  0  0  0
 12  3  1  0  0  0
 12  7  1  0  0  0
  2 15  1  0  0  0
M  END
> <minimizedAffinity>
2.34773

> <CNNscore>
0.4499793351

> <CNNaffinity>
6.0117878914

> <CNN_VS>
2.7051804066

> <CNNaffinity_variance>
0.3010870814

$$$$
[H]c1c([H])c(-n2c(=O)c3c([H])nc4c([H])c([H])c([H])c([H])c4c3n2[H])c([H])c([H])c1Cl


 22 25  0  0  0  0  0  0  0  0999 V2000
  -12.6045   -8.2481    7.3937 N   0  0  0  0  0  0  0  0  0  0  0  0
  -13.2346   -8.1503    6.2241 N   0  0  0  0  0  0  0  0  0  0  0  0
  -14.5610   -8.0665    6.4303 C   0  0  0  0  0  0  0  0  0  0  0  0
  -14.7799   -8.1136    7.7932 C   0  0  0  0  0  0  0  0  0  0  0  0
  -16.0811   -8.0442    8.2725 C   0  0  0  0  0  0  0  0  0  0  0  0
  -17.1475   -7.9316    7.4485 N   0  0  0  0  0  0  0  0  0  0  0  0
  -16.9327   -7.8851    6.1021 C   0  0  0  0  0  0  0  0  0  0  0  0
  -18.0313   -7.7698    5.2696 C   0  0  0  0  0  0  0  0  0  0  0  0
  -17.8367   -7.7215    3.9150 C   0  0  0  0  0  0  0  0  0  0  0  0
  -16.5621   -7.7859    3.3667 C   0  0  0  0  0  0  0  0  0  0  0  0
  -15.4885   -7.9002    4.2180 C   0  0  0  0  0  0  0  0  0  0  0  0
  -15.6529   -7.9511    5.5818 C   0  0  0  0  0  0  0  0  0  0  0  0
  -13.5326   -8.2270    8.3591 C   0  0  0  0  0  0  0  0  0  0  0  0
  -13.3413   -8.2969    9.5918 O   0  0  0  0  0  0  0  0  0  0  0  0
  -12.7773   -8.1394    5.2856 H   0  0  0  0  0  0  0  0  0  0  0  0
   -6.6681   -8.7312    8.0486 Cl  0  0  0  0  0  0  0  0  0  0  0  0
   -8.4095   -8.6084    7.8499 C   0  0  0  0  0  0  0  0  0  0  0  0
   -9.1523   -9.6687    7.3788 C   0  0  0  0  0  0  0  0  0  0  0  0
  -10.5305   -9.5360    7.2338 C   0  0  0  0  0  0  0  0  0  0  0  0
  -11.1778   -8.3555    7.5541 C   0  0  0  0  0  0  0  0  0  0  0  0
  -10.4197   -7.3169    8.0197 C   0  0  0  0  0  0  0  0  0  0  0  0
   -9.0608   -7.4389    8.1657 C   0  0  0  0  0  0  0  0  0  0  0  0
 16 17  1  0  0  0
 17 18  2  0  0  0
 18 19  1  0  0  0
 19 20  2  0  0  0
 20 21  1  0  0  0
 21 22  2  0  0  0
 20  1  1  0  0  0
  1  2  1  0  0  0
  2  3  1  0  0  0
  3  4  2  0  0  0
  4  5  1  0  0  0
  5  6  2  0  0  0
  6  7  1  0  0  0
  7  8  2  0  0  0
  8  9  1  0  0  0
  9 10  2  0  0  0
 10 11  1  0  0  0
 11 12  2  0  0  0
  4 13  1  0  0  0
 13 14  2  0  0  0
 22 17  1  0  0  0
 13  1  1  0  0  0
 12  3  1  0  0  0
 12  7  1  0  0  0
  2 15  1  0  0  0
M  END
> <minimizedAffinity>
-8.72853

> <CNNscore>
0.3648930490

> <CNNaffinity>
6.4520492554

> <CNN_VS>
2.3543078899

> <CNNaffinity_variance>
0.0270638652

$$$$
[H]c1c([H])c(-n2c(=O)c3c([H])nc4c([H])c([H])c([H])c([H])c4c3n2[H])c([H])c([H])c1Cl


 22 25  0  0  0  0  0  0  0  0999 V2000
  -12.6066   -8.3121    7.3659 N   0  0  0  0  0  0  0  0  0  0  0  0
  -13.2454   -8.1997    6.2025 N   0  0  0  0  0  0  0  0  0  0  0  0
  -14.5681   -8.0924    6.4210 C   0  0  0  0  0  0  0  0  0  0  0  0
  -14.7754   -8.1390    7.7857 C   0  0  0  0  0  0  0  0  0  0  0  0
  -16.0706   -8.0472    8.2772 C   0  0  0  0  0  0  0  0  0  0  0  0
  -17.1423   -7.9129    7.4634 N   0  0  0  0  0  0  0  0  0  0  0  0
  -16.9390   -7.8668    6.1152 C   0  0  0  0  0  0  0  0  0  0  0  0
  -18.0430   -7.7293    5.2931 C   0  0  0  0  0  0  0  0  0  0  0  0
  -17.8599   -7.6809    3.9369 C   0  0  0  0  0  0  0  0  0  0  0  0
  -16.5918   -7.7671    3.3768 C   0  0  0  0  0  0  0  0  0  0  0  0
  -15.5127   -7.9032    4.2178 C   0  0  0  0  0  0  0  0  0  0  0  0
  -15.6655   -7.9547    5.5829 C   0  0  0  0  0  0  0  0  0  0  0  0
  -13.5252   -8.2767    8.3398 C   0  0  0  0  0  0  0  0  0  0  0  0
  -13.3239   -8.3533    9.5706 O   0  0  0  0  0  0  0  0  0  0  0  0
  -12.7966   -8.1947    5.2598 H   0  0  0  0  0  0  0  0  0  0  0  0
   -6.6700   -8.8332    7.9896 Cl  0  0  0  0  0  0  0  0  0  0  0  0
   -8.4096   -8.6614    7.8130 C   0  0  0  0  0  0  0  0  0  0  0  0
   -9.0453   -7.4762    8.1113 C   0  0  0  0  0  0  0  0  0  0  0  0
  -10.4256   -7.3758    7.9596 C   0  0  0  0  0  0  0  0  0  0  0  0
  -11.1806   -8.4460    7.5129 C   0  0  0  0  0  0  0  0  0  0  0  0
  -10.5276   -9.6121    7.2231 C   0  0  0  0  0  0  0  0  0  0  0  0
   -9.1676   -9.7201    7.3697 C   0  0  0  0  0  0  0  0  0  0  0  0
 16 17  1  0  0  0
 17 18  2  0  0  0
 18 19  1  0  0  0
 19 20  2  0  0  0
 20 21  1  0  0  0
 21 22  2  0  0  0
 20  1  1  0  0  0
  1  2  1  0  0  0
  2  3  1  0  0  0
  3  4  2  0  0  0
  4  5  1  0  0  0
  5  6  2  0  0  0
  6  7  1  0  0  0
  7  8  2  0  0  0
  8  9  1  0  0  0
  9 10  2  0  0  0
 10 11  1  0  0  0
 11 12  2  0  0  0
  4 13  1  0  0  0
 13 14  2  0  0  0
 22 17  1  0  0  0
 13  1  1  0  0  0
 12  3  1  0  0  0
 12  7  1  0  0  0
  2 15  1  0  0  0
M  END
> <minimizedAffinity>
-8.72502

> <CNNscore>
0.3640783727

> <CNNaffinity>
6.4437737465

> <CNN_VS>
2.3460385799

> <CNNaffinity_variance>
0.0245290771

$$$$
[H]c1c([H])c(-n2c(=O)c3c([H])nc4c([H])c([H])c([H])c([H])c4c3n2[H])c([H])c([H])c1Cl


 22 25  0  0  0  0  0  0  0  0999 V2000
   -7.1940   -7.1087    7.3370 N   0  0  0  0  0  0  0  0  0  0  0  0
   -6.4978   -6.6418    8.3721 N   0  0  0  0  0  0  0  0  0  0  0  0
   -5.3563   -6.0816    7.9341 C   0  0  0  0  0  0  0  0  0  0  0  0
   -5.3292   -6.1997    6.5582 C   0  0  0  0  0  0  0  0  0  0  0  0
   -4.2430   -5.6941    5.8566 C   0  0  0  0  0  0  0  0  0  0  0  0
   -3.2050   -5.0870    6.4753 N   0  0  0  0  0  0  0  0  0  0  0  0
   -3.2305   -4.9696    7.8342 C   0  0  0  0  0  0  0  0  0  0  0  0
   -2.1631   -4.3467    8.4555 C   0  0  0  0  0  0  0  0  0  0  0  0
   -2.1697   -4.2191    9.8189 C   0  0  0  0  0  0  0  0  0  0  0  0
   -3.2241   -4.7019   10.5834 C   0  0  0  0  0  0  0  0  0  0  0  0
   -4.2718   -5.3165    9.9392 C   0  0  0  0  0  0  0  0  0  0  0  0
   -4.2929   -5.4592    8.5722 C   0  0  0  0  0  0  0  0  0  0  0  0
   -6.4950   -6.8468    6.2249 C   0  0  0  0  0  0  0  0  0  0  0  0
   -6.8131   -7.1277    5.0497 O   0  0  0  0  0  0  0  0  0  0  0  0
   -6.7860   -6.6974    9.3741 H   0  0  0  0  0  0  0  0  0  0  0  0
  -12.5141   -9.8349    7.7467 Cl  0  0  0  0  0  0  0  0  0  0  0  0
  -10.9628   -9.0181    7.6312 C   0  0  0  0  0  0  0  0  0  0  0  0
  -10.8489   -7.6639    7.8569 C   0  0  0  0  0  0  0  0  0  0  0  0
   -9.6036   -7.0495    7.7566 C   0  0  0  0  0  0  0  0  0  0  0  0
   -8.4683   -7.7718    7.4333 C   0  0  0  0  0  0  0  0  0  0  0  0
   -8.6062   -9.1145    7.2137 C   0  0  0  0  0  0  0  0  0  0  0  0
   -9.8295   -9.7283    7.3103 C   0  0  0  0  0  0  0  0  0  0  0  0
 16 17  1  0  0  0
 17 18  2  0  0  0
 18 19  1  0  0  0
 19 20  2  0  0  0
 20 21  1  0  0  0
 21 22  2  0  0  0
 20  1  1  0  0  0
  1  2  1  0  0  0
  2  3  1  0  0  0
  3  4  2  0  0  0
  4  5  1  0  0  0
  5  6  2  0  0  0
  6  7  1  0  0  0
  7  8  2  0  0  0
  8  9  1  0  0  0
  9 10  2  0  0  0
 10 11  1  0  0  0
 11 12  2  0  0  0
  4 13  1  0  0  0
 13 14  2  0  0  0
 22 17  1  0  0  0
 13  1  1  0  0  0
 12  3  1  0  0  0
 12  7  1  0  0  0
  2 15  1  0  0  0
M  END
> <minimizedAffinity>
-7.45512

> <CNNscore>
0.3110595644

> <CNNaffinity>
5.2407174110

> <CNN_VS>
1.6301752329

> <CNNaffinity_variance>
0.0846698955

$$$$
[H]c1c([H])c(-n2c(=O)c3c([H])nc4c([H])c([H])c([H])c([H])c4c3n2[H])c([H])c([H])c1Cl


 22 25  0  0  0  0  0  0  0  0999 V2000
   -7.1863   -7.0988    7.3416 N   0  0  0  0  0  0  0  0  0  0  0  0
   -6.4863   -6.6447    8.3800 N   0  0  0  0  0  0  0  0  0  0  0  0
   -5.3416   -6.0883    7.9456 C   0  0  0  0  0  0  0  0  0  0  0  0
   -5.3163   -6.1955    6.5688 C   0  0  0  0  0  0  0  0  0  0  0  0
   -4.2274   -5.6912    5.8705 C   0  0  0  0  0  0  0  0  0  0  0  0
   -3.1851   -5.0957    6.4932 N   0  0  0  0  0  0  0  0  0  0  0  0
   -3.2088   -4.9891    7.8530 C   0  0  0  0  0  0  0  0  0  0  0  0
   -2.1370   -4.3780    8.4785 C   0  0  0  0  0  0  0  0  0  0  0  0
   -2.1418   -4.2613    9.8428 C   0  0  0  0  0  0  0  0  0  0  0  0
   -3.1987   -4.7435   10.6042 C   0  0  0  0  0  0  0  0  0  0  0  0
   -4.2508   -5.3463    9.9560 C   0  0  0  0  0  0  0  0  0  0  0  0
   -4.2737   -5.4778    8.5879 C   0  0  0  0  0  0  0  0  0  0  0  0
   -6.4864   -6.8324    6.2312 C   0  0  0  0  0  0  0  0  0  0  0  0
   -6.8071   -7.1018    5.0540 O   0  0  0  0  0  0  0  0  0  0  0  0
   -6.7742   -6.7065    9.3817 H   0  0  0  0  0  0  0  0  0  0  0  0
  -12.4906   -9.8606    7.7155 Cl  0  0  0  0  0  0  0  0  0  0  0  0
  -10.9266   -9.0682    7.6011 C   0  0  0  0  0  0  0  0  0  0  0  0
   -9.7894   -9.7739    7.2747 C   0  0  0  0  0  0  0  0  0  0  0  0
   -8.5665   -9.1134    7.1931 C   0  0  0  0  0  0  0  0  0  0  0  0
   -8.4647   -7.7544    7.4336 C   0  0  0  0  0  0  0  0  0  0  0  0
   -9.6071   -7.0751    7.7559 C   0  0  0  0  0  0  0  0  0  0  0  0
  -10.8164   -7.7180    7.8387 C   0  0  0  0  0  0  0  0  0  0  0  0
 16 17  1  0  0  0
 17 18  2  0  0  0
 18 19  1  0  0  0
 19 20  2  0  0  0
 20 21  1  0  0  0
 21 22  2  0  0  0
 20  1  1  0  0  0
  1  2  1  0  0  0
  2  3  1  0  0  0
  3  4  2  0  0  0
  4  5  1  0  0  0
  5  6  2  0  0  0
  6  7  1  0  0  0
  7  8  2  0  0  0
  8  9  1  0  0  0
  9 10  2  0  0  0
 10 11  1  0  0  0
 11 12  2  0  0  0
  4 13  1  0  0  0
 13 14  2  0  0  0
 22 17  1  0  0  0
 13  1  1  0  0  0
 12  3  1  0  0  0
 12  7  1  0  0  0
  2 15  1  0  0  0
M  END
> <minimizedAffinity>
-7.45303

> <CNNscore>
0.3072403371

> <CNNaffinity>
5.2319231033

> <CNN_VS>
1.6074578762

> <CNNaffinity_variance>
0.0849512666

$$$$
[H]c1c([H])c(-n2c(=O)c3c([H])nc4c([H])c([H])c([H])c([H])c4c3n2[H])c([H])c([H])c1Cl


 22 25  0  0  0  0  0  0  0  0999 V2000
   -5.6966   -6.7174    6.3744 N   0  0  0  0  0  0  0  0  0  0  0  0
   -5.5471   -5.5878    5.6846 N   0  0  0  0  0  0  0  0  0  0  0  0
   -4.2378   -5.3298    5.5170 C   0  0  0  0  0  0  0  0  0  0  0  0
   -3.5264   -6.3430    6.1292 C   0  0  0  0  0  0  0  0  0  0  0  0
   -2.1387   -6.3101    6.0983 C   0  0  0  0  0  0  0  0  0  0  0  0
   -1.4549   -5.3163    5.4871 N   0  0  0  0  0  0  0  0  0  0  0  0
   -2.1564   -4.3148    4.8820 C   0  0  0  0  0  0  0  0  0  0  0  0
   -1.4459   -3.3039    4.2602 C   0  0  0  0  0  0  0  0  0  0  0  0
   -2.1316   -2.2895    3.6471 C   0  0  0  0  0  0  0  0  0  0  0  0
   -3.5202   -2.2591    3.6395 C   0  0  0  0  0  0  0  0  0  0  0  0
   -4.2005   -3.2770    4.2653 C   0  0  0  0  0  0  0  0  0  0  0  0
   -3.5395   -4.3083    4.8889 C   0  0  0  0  0  0  0  0  0  0  0  0
   -4.4745   -7.1894    6.6525 C   0  0  0  0  0  0  0  0  0  0  0  0
   -4.1928   -8.2297    7.2846 O   0  0  0  0  0  0  0  0  0  0  0  0
   -6.3217   -4.9875    5.3246 H   0  0  0  0  0  0  0  0  0  0  0  0
  -10.9797   -9.1013    7.8942 Cl  0  0  0  0  0  0  0  0  0  0  0  0
   -9.4383   -8.3840    7.4509 C   0  0  0  0  0  0  0  0  0  0  0  0
   -9.2718   -7.0171    7.4065 C   0  0  0  0  0  0  0  0  0  0  0  0
   -8.0361   -6.4833    7.0509 C   0  0  0  0  0  0  0  0  0  0  0  0
   -6.9625   -7.2986    6.7386 C   0  0  0  0  0  0  0  0  0  0  0  0
   -7.1517   -8.6521    6.7895 C   0  0  0  0  0  0  0  0  0  0  0  0
   -8.3661   -9.1869    7.1388 C   0  0  0  0  0  0  0  0  0  0  0  0
 16 17  1  0  0  0
 17 18  2  0  0  0
 18 19  1  0  0  0
 19 20  2  0  0  0
 20 21  1  0  0  0
 21 22  2  0  0  0
 20  1  1  0  0  0
  1  2  1  0  0  0
  2  3  1  0  0  0
  3  4  2  0  0  0
  4  5  1  0  0  0
  5  6  2  0  0  0
  6  7  1  0  0  0
  7  8  2  0  0  0
  8  9  1  0  0  0
  9 10  2  0  0  0
 10 11  1  0  0  0
 11 12  2  0  0  0
  4 13  1  0  0  0
 13 14  2  0  0  0
 22 17  1  0  0  0
 13  1  1  0  0  0
 12  3  1  0  0  0
 12  7  1  0  0  0
  2 15  1  0  0  0
M  END
> <minimizedAffinity>
-6.63192

> <CNNscore>
0.2404042780

> <CNNaffinity>
4.9208688736

> <CNN_VS>
1.1829979420

> <CNNaffinity_variance>
0.1046202034

$$$$
[H]c1c([H])c(-n2c(=O)c3c([H])nc4c([H])c([H])c([H])c([H])c4c3n2[H])c([H])c([H])c1Cl


 22 25  0  0  0  0  0  0  0  0999 V2000
  -12.6319   -7.9480    7.2728 N   0  0  0  0  0  0  0  0  0  0  0  0
  -13.1110   -7.0952    6.3687 N   0  0  0  0  0  0  0  0  0  0  0  0
  -14.4551   -7.0914    6.4178 C   0  0  0  0  0  0  0  0  0  0  0  0
  -14.8439   -7.9831    7.3983 C   0  0  0  0  0  0  0  0  0  0  0  0
  -16.1972   -8.1655    7.6493 C   0  0  0  0  0  0  0  0  0  0  0  0
  -17.1534   -7.4979    6.9645 N   0  0  0  0  0  0  0  0  0  0  0  0
  -16.7707   -6.6169    5.9957 C   0  0  0  0  0  0  0  0  0  0  0  0
  -17.7579   -5.9402    5.3022 C   0  0  0  0  0  0  0  0  0  0  0  0
  -17.3943   -5.0516    4.3259 C   0  0  0  0  0  0  0  0  0  0  0  0
  -16.0588   -4.8201    4.0224 C   0  0  0  0  0  0  0  0  0  0  0  0
  -15.0988   -5.5066    4.7278 C   0  0  0  0  0  0  0  0  0  0  0  0
  -15.4335   -6.4047    5.7131 C   0  0  0  0  0  0  0  0  0  0  0  0
  -13.6755   -8.4967    7.9081 C   0  0  0  0  0  0  0  0  0  0  0  0
  -13.6402   -9.3449    8.8249 O   0  0  0  0  0  0  0  0  0  0  0  0
  -12.5387   -6.5140    5.7170 H   0  0  0  0  0  0  0  0  0  0  0  0
   -6.8195   -9.0678    8.2033 Cl  0  0  0  0  0  0  0  0  0  0  0  0
   -8.5261   -8.7580    7.9234 C   0  0  0  0  0  0  0  0  0  0  0  0
   -9.3513   -9.7257    7.3937 C   0  0  0  0  0  0  0  0  0  0  0  0
  -10.6990   -9.4453    7.1852 C   0  0  0  0  0  0  0  0  0  0  0  0
  -11.2342   -8.2085    7.4996 C   0  0  0  0  0  0  0  0  0  0  0  0
  -10.3957   -7.2640    8.0242 C   0  0  0  0  0  0  0  0  0  0  0  0
   -9.0663   -7.5316    8.2330 C   0  0  0  0  0  0  0  0  0  0  0  0
 16 17  1  0  0  0
 17 18  2  0  0  0
 18 19  1  0  0  0
 19 20  2  0  0  0
 20 21  1  0  0  0
 21 22  2  0  0  0
 20  1  1  0  0  0
  1  2  1  0  0  0
  2  3  1  0  0  0
  3  4  2  0  0  0
  4  5  1  0  0  0
  5  6  2  0  0  0
  6  7  1  0  0  0
  7  8  2  0  0  0
  8  9  1  0  0  0
  9 10  2  0  0  0
 10 11  1  0  0  0
 11 12  2  0  0  0
  4 13  1  0  0  0
 13 14  2  0  0  0
 22 17  1  0  0  0
 13  1  1  0  0  0
 12  3  1  0  0  0
 12  7  1  0  0  0
  2 15  1  0  0  0
M  END
> <minimizedAffinity>
-9.13329

> <CNNscore>
0.2358469218

> <CNNaffinity>
6.2388048172

> <CNN_VS>
1.4714028835

> <CNNaffinity_variance>
0.0523058772

$$$$
[H]c1nc([H])n(C([H])(c2nnn(C3([H])C([H])([H])C([H])([H])N(c4nc([H])c(C#N)c([H])c4[H])C([H])([H])C3([H])[H])c2[H])C([H])(C([H])([H])[H])C([H])([H])[H])n1


 28 31  0  0  0  0  0  0  0  0999 V2000
  -15.0182   -5.5519    4.4356 C   0  0  0  0  0  0  0  0  0  0  0  0
  -15.2934   -6.5070    5.3929 C   0  0  0  0  0  0  0  0  0  0  0  0
  -14.1401   -6.8705    5.9858 N   0  0  0  0  0  0  0  0  0  0  0  0
  -13.1616   -6.1662    5.4207 N   0  0  0  0  0  0  0  0  0  0  0  0
  -13.6875   -5.3766    4.4924 N   0  0  0  0  0  0  0  0  0  0  0  0
  -13.8977   -7.8290    7.0419 C   0  0  0  0  0  0  0  0  0  0  0  0
  -14.9596   -7.7423    8.0828 C   0  0  0  0  0  0  0  0  0  0  0  0
  -14.5450   -8.0871    9.4735 C   0  0  0  0  0  0  0  0  0  0  0  0
  -13.3388   -8.8338    9.6055 N   0  0  0  0  0  0  0  0  0  0  0  0
  -12.3262   -8.8908    8.5546 C   0  0  0  0  0  0  0  0  0  0  0  0
  -12.5522   -7.6601    7.6644 C   0  0  0  0  0  0  0  0  0  0  0  0
  -13.0639   -9.5706   10.8035 C   0  0  0  0  0  0  0  0  0  0  0  0
  -12.8289  -10.9280   10.7889 C   0  0  0  0  0  0  0  0  0  0  0  0
  -12.5572  -11.6632   11.9409 C   0  0  0  0  0  0  0  0  0  0  0  0
  -12.5261  -10.9858   13.1412 C   0  0  0  0  0  0  0  0  0  0  0  0
  -12.7641   -9.6292   13.1311 C   0  0  0  0  0  0  0  0  0  0  0  0
  -13.0197   -8.9654   12.0084 N   0  0  0  0  0  0  0  0  0  0  0  0
  -12.2502  -11.6884   14.3713 C   0  0  0  0  0  0  0  0  0  0  0  0
  -12.0468  -12.2592   15.3624 N   0  0  0  0  0  0  0  0  0  0  0  0
  -15.9625   -4.8588    3.5329 C   0  0  0  0  0  0  0  0  0  0  0  0
  -17.3159   -4.8730    4.0539 N   0  0  0  0  0  0  0  0  0  0  0  0
  -17.7569   -5.0872    5.2881 C   0  0  0  0  0  0  0  0  0  0  0  0
  -19.1171   -4.9945    5.2699 N   0  0  0  0  0  0  0  0  0  0  0  0
  -19.4941   -4.7249    4.0264 C   0  0  0  0  0  0  0  0  0  0  0  0
  -18.3769   -4.6520    3.2845 N   0  0  0  0  0  0  0  0  0  0  0  0
  -14.1934   -3.3077    2.6747 C   0  0  0  0  0  0  0  0  0  0  0  0
  -15.5825   -3.4185    3.2936 C   0  0  0  0  0  0  0  0  0  0  0  0
  -15.6996   -2.5685    4.5376 C   0  0  0  0  0  0  0  0  0  0  0  0
 26 27  1  0  0  0
 27 28  1  0  0  0
 27 20  1  0  0  0
 20  1  1  0  0  0
  1  2  2  0  0  0
  2  3  1  0  0  0
  3  4  1  0  0  0
  4  5  2  0  0  0
  3  6  1  0  0  0
  6  7  1  0  0  0
  7  8  1  0  0  0
  8  9  1  0  0  0
  9 10  1  0  0  0
 10 11  1  0  0  0
  9 12  1  0  0  0
 12 13  2  0  0  0
 13 14  1  0  0  0
 14 15  2  0  0  0
 15 16  1  0  0  0
 16 17  2  0  0  0
 15 18  1  0  0  0
 18 19  3  0  0  0
 20 21  1  0  0  0
 21 22  1  0  0  0
 22 23  2  0  0  0
 23 24  1  0  0  0
 24 25  2  0  0  0
  5  1  1  0  0  0
 11  6  1  0  0  0
 17 12  1  0  0  0
 25 21  1  0  0  0
M  END
> <minimizedAffinity>
26.22821

> <CNNscore>
0.4041883647

> <CNNaffinity>
6.5943174362

> <CNN_VS>
2.6653463840

> <CNNaffinity_variance>
1.6906893253

$$$$
[H]c1nc([H])n(C([H])(c2nnn(C3([H])C([H])([H])C([H])([H])N(c4nc([H])c(C#N)c([H])c4[H])C([H])([H])C3([H])[H])c2[H])C([H])(C([H])([H])[H])C([H])([H])[H])n1


 28 31  0  0  0  0  0  0  0  0999 V2000
   -3.7923   -8.7763    6.1121 C   0  0  0  0  0  0  0  0  0  0  0  0
   -4.1976   -8.5245    7.4070 C   0  0  0  0  0  0  0  0  0  0  0  0
   -5.5416   -8.4421    7.4317 N   0  0  0  0  0  0  0  0  0  0  0  0
   -5.9762   -8.6360    6.1881 N   0  0  0  0  0  0  0  0  0  0  0  0
   -4.9286   -8.8361    5.3980 N   0  0  0  0  0  0  0  0  0  0  0  0
   -6.4393   -8.1956    8.5390 C   0  0  0  0  0  0  0  0  0  0  0  0
   -7.6923   -7.5453    8.0636 C   0  0  0  0  0  0  0  0  0  0  0  0
   -8.3641   -6.6298    9.0307 C   0  0  0  0  0  0  0  0  0  0  0  0
   -7.9950   -6.7763   10.3990 N   0  0  0  0  0  0  0  0  0  0  0  0
   -6.7550   -7.4246   10.8174 C   0  0  0  0  0  0  0  0  0  0  0  0
   -5.8069   -7.3721    9.6105 C   0  0  0  0  0  0  0  0  0  0  0  0
   -8.8428   -6.2776   11.4411 C   0  0  0  0  0  0  0  0  0  0  0  0
   -8.3760   -6.0514   12.7174 C   0  0  0  0  0  0  0  0  0  0  0  0
   -9.1819   -5.5647   13.7446 C   0  0  0  0  0  0  0  0  0  0  0  0
  -10.5038   -5.3031   13.4532 C   0  0  0  0  0  0  0  0  0  0  0  0
  -10.9477   -5.5369   12.1705 C   0  0  0  0  0  0  0  0  0  0  0  0
  -10.1447   -6.0023   11.2192 N   0  0  0  0  0  0  0  0  0  0  0  0
  -11.3918   -4.7972   14.4723 C   0  0  0  0  0  0  0  0  0  0  0  0
  -12.0915   -4.3888   15.3048 N   0  0  0  0  0  0  0  0  0  0  0  0
   -2.4162   -8.9467    5.5981 C   0  0  0  0  0  0  0  0  0  0  0  0
   -1.9391   -7.7529    4.9271 N   0  0  0  0  0  0  0  0  0  0  0  0
   -1.8966   -6.4934    5.3459 C   0  0  0  0  0  0  0  0  0  0  0  0
   -1.3594   -5.7366    4.3471 N   0  0  0  0  0  0  0  0  0  0  0  0
   -1.0791   -6.5396    3.3285 C   0  0  0  0  0  0  0  0  0  0  0  0
   -1.4400   -7.7801    3.6955 N   0  0  0  0  0  0  0  0  0  0  0  0
   -1.7716  -10.6062    7.3596 C   0  0  0  0  0  0  0  0  0  0  0  0
   -1.4286   -9.2808    6.6886 C   0  0  0  0  0  0  0  0  0  0  0  0
   -1.2824   -8.1717    7.7048 C   0  0  0  0  0  0  0  0  0  0  0  0
 26 27  1  0  0  0
 27 28  1  0  0  0
 27 20  1  0  0  0
 20  1  1  0  0  0
  1  2  2  0  0  0
  2  3  1  0  0  0
  3  4  1  0  0  0
  4  5  2  0  0  0
  3  6  1  0  0  0
  6  7  1  0  0  0
  7  8  1  0  0  0
  8  9  1  0  0  0
  9 10  1  0  0  0
 10 11  1  0  0  0
  9 12  1  0  0  0
 12 13  2  0  0  0
 13 14  1  0  0  0
 14 15  2  0  0  0
 15 16  1  0  0  0
 16 17  2  0  0  0
 15 18  1  0  0  0
 18 19  3  0  0  0
 20 21  1  0  0  0
 21 22  1  0  0  0
 22 23  2  0  0  0
 23 24  1  0  0  0
 24 25  2  0  0  0
  5  1  1  0  0  0
 11  6  1  0  0  0
 17 12  1  0  0  0
 25 21  1  0  0  0
M  END
> <minimizedAffinity>
16.36763

> <CNNscore>
0.3993582726

> <CNNaffinity>
5.8186278343

> <CNN_VS>
2.3237171173

> <CNNaffinity_variance>
2.0090506077

$$$$
[H]c1nc([H])n(C([H])(c2nnn(C3([H])C([H])([H])C([H])([H])N(c4nc([H])c(C#N)c([H])c4[H])C([H])([H])C3([H])[H])c2[H])C([H])(C([H])([H])[H])C([H])([H])[H])n1


 28 31  0  0  0  0  0  0  0  0999 V2000
  -15.0428   -9.0081    5.2018 C   0  0  0  0  0  0  0  0  0  0  0  0
  -14.3053   -9.0929    6.3652 C   0  0  0  0  0  0  0  0  0  0  0  0
  -13.0781   -8.5868    6.1377 N   0  0  0  0  0  0  0  0  0  0  0  0
  -13.0385   -8.1925    4.8665 N   0  0  0  0  0  0  0  0  0  0  0  0
  -14.2149   -8.4448    4.3062 N   0  0  0  0  0  0  0  0  0  0  0  0
  -11.9475   -8.4492    7.0296 C   0  0  0  0  0  0  0  0  0  0  0  0
  -11.7637   -7.0257    7.4277 C   0  0  0  0  0  0  0  0  0  0  0  0
  -10.3636   -6.6008    7.7171 C   0  0  0  0  0  0  0  0  0  0  0  0
   -9.4293   -7.6437    7.9804 N   0  0  0  0  0  0  0  0  0  0  0  0
   -9.6548   -9.0277    7.5719 C   0  0  0  0  0  0  0  0  0  0  0  0
  -10.6874   -8.9841    6.4361 C   0  0  0  0  0  0  0  0  0  0  0  0
   -8.2022   -7.3682    8.6673 C   0  0  0  0  0  0  0  0  0  0  0  0
   -8.1669   -7.0856   10.0153 C   0  0  0  0  0  0  0  0  0  0  0  0
   -6.9853   -6.8175   10.7033 C   0  0  0  0  0  0  0  0  0  0  0  0
   -5.8073   -6.8401    9.9874 C   0  0  0  0  0  0  0  0  0  0  0  0
   -5.8674   -7.1249    8.6412 C   0  0  0  0  0  0  0  0  0  0  0  0
   -7.0170   -7.3751    8.0229 N   0  0  0  0  0  0  0  0  0  0  0  0
   -4.5486   -6.5713   10.6403 C   0  0  0  0  0  0  0  0  0  0  0  0
   -3.5451   -6.3496   11.1820 N   0  0  0  0  0  0  0  0  0  0  0  0
  -16.4386   -9.4362    4.9670 C   0  0  0  0  0  0  0  0  0  0  0  0
  -17.3526   -8.3103    4.9497 N   0  0  0  0  0  0  0  0  0  0  0  0
  -17.9945   -7.7431    3.9348 C   0  0  0  0  0  0  0  0  0  0  0  0
  -18.7383   -6.7137    4.4311 N   0  0  0  0  0  0  0  0  0  0  0  0
  -18.5440   -6.6614    5.7428 C   0  0  0  0  0  0  0  0  0  0  0  0
  -17.6886   -7.6493    6.0528 N   0  0  0  0  0  0  0  0  0  0  0  0
  -16.3138  -11.6643    3.8304 C   0  0  0  0  0  0  0  0  0  0  0  0
  -16.6050  -10.1770    3.6633 C   0  0  0  0  0  0  0  0  0  0  0  0
  -15.7865   -9.5789    2.5425 C   0  0  0  0  0  0  0  0  0  0  0  0
 26 27  1  0  0  0
 27 28  1  0  0  0
 27 20  1  0  0  0
 20  1  1  0  0  0
  1  2  2  0  0  0
  2  3  1  0  0  0
  3  4  1  0  0  0
  4  5  2  0  0  0
  3  6  1  0  0  0
  6  7  1  0  0  0
  7  8  1  0  0  0
  8  9  1  0  0  0
  9 10  1  0  0  0
 10 11  1  0  0  0
  9 12  1  0  0  0
 12 13  2  0  0  0
 13 14  1  0  0  0
 14 15  2  0  0  0
 15 16  1  0  0  0
 16 17  2  0  0  0
 15 18  1  0  0  0
 18 19  3  0  0  0
 20 21  1  0  0  0
 21 22  1  0  0  0
 22 23  2  0  0  0
 23 24  1  0  0  0
 24 25  2  0  0  0
  5  1  1  0  0  0
 11  6  1  0  0  0
 17 12  1  0  0  0
 25 21  1  0  0  0
M  END
> <minimizedAffinity>
14.96764

> <CNNscore>
0.3930798173

> <CNNaffinity>
6.7104120255

> <CNN_VS>
2.6377274990

> <CNNaffinity_variance>
4.0250039101

$$$$
[H]c1nc([H])n(C([H])(c2nnn(C3([H])C([H])([H])C([H])([H])N(c4nc([H])c(C#N)c([H])c4[H])C([H])([H])C3([H])[H])c2[H])C([H])(C([H])([H])[H])C([H])([H])[H])n1


 28 31  0  0  0  0  0  0  0  0999 V2000
  -14.0072   -7.7713    6.6964 C   0  0  0  0  0  0  0  0  0  0  0  0
  -12.9003   -7.7967    7.5201 C   0  0  0  0  0  0  0  0  0  0  0  0
  -11.9023   -7.1156    6.9253 N   0  0  0  0  0  0  0  0  0  0  0  0
  -12.3631   -6.6710    5.7578 N   0  0  0  0  0  0  0  0  0  0  0  0
  -13.6235   -7.0637    5.6208 N   0  0  0  0  0  0  0  0  0  0  0  0
  -10.5532   -6.8555    7.3781 C   0  0  0  0  0  0  0  0  0  0  0  0
   -9.7975   -6.0787    6.3562 C   0  0  0  0  0  0  0  0  0  0  0  0
   -8.3263   -6.3183    6.3055 C   0  0  0  0  0  0  0  0  0  0  0  0
   -7.7455   -6.9236    7.4571 N   0  0  0  0  0  0  0  0  0  0  0  0
   -8.5288   -7.6750    8.4344 C   0  0  0  0  0  0  0  0  0  0  0  0
   -9.8175   -8.1077    7.7200 C   0  0  0  0  0  0  0  0  0  0  0  0
   -6.3377   -6.8205    7.7044 C   0  0  0  0  0  0  0  0  0  0  0  0
   -5.4157   -6.7989    6.6810 C   0  0  0  0  0  0  0  0  0  0  0  0
   -4.0432   -6.6967    6.8986 C   0  0  0  0  0  0  0  0  0  0  0  0
   -3.6054   -6.6145    8.2033 C   0  0  0  0  0  0  0  0  0  0  0  0
   -4.5455   -6.6382    9.2097 C   0  0  0  0  0  0  0  0  0  0  0  0
   -5.8468   -6.7369    8.9582 N   0  0  0  0  0  0  0  0  0  0  0  0
   -2.1965   -6.5066    8.4972 C   0  0  0  0  0  0  0  0  0  0  0  0
   -1.0637   -6.4004    8.7314 N   0  0  0  0  0  0  0  0  0  0  0  0
  -15.3349   -8.3811    6.9246 C   0  0  0  0  0  0  0  0  0  0  0  0
  -15.6112   -8.5596    8.3370 N   0  0  0  0  0  0  0  0  0  0  0  0
  -16.7017   -9.0098    8.9468 C   0  0  0  0  0  0  0  0  0  0  0  0
  -16.4701   -8.9899   10.2903 N   0  0  0  0  0  0  0  0  0  0  0  0
  -15.2419   -8.5281   10.4888 C   0  0  0  0  0  0  0  0  0  0  0  0
  -14.7208   -8.2657    9.2790 N   0  0  0  0  0  0  0  0  0  0  0  0
  -17.3138   -8.3852    5.3896 C   0  0  0  0  0  0  0  0  0  0  0  0
  -16.4573   -7.5582    6.3421 C   0  0  0  0  0  0  0  0  0  0  0  0
  -15.9700   -6.2890    5.6822 C   0  0  0  0  0  0  0  0  0  0  0  0
 26 27  1  0  0  0
 27 28  1  0  0  0
 27 20  1  0  0  0
 20  1  1  0  0  0
  1  2  2  0  0  0
  2  3  1  0  0  0
  3  4  1  0  0  0
  4  5  2  0  0  0
  3  6  1  0  0  0
  6  7  1  0  0  0
  7  8  1  0  0  0
  8  9  1  0  0  0
  9 10  1  0  0  0
 10 11  1  0  0  0
  9 12  1  0  0  0
 12 13  2  0  0  0
 13 14  1  0  0  0
 14 15  2  0  0  0
 15 16  1  0  0  0
 16 17  2  0  0  0
 15 18  1  0  0  0
 18 19  3  0  0  0
 20 21  1  0  0  0
 21 22  1  0  0  0
 22 23  2  0  0  0
 23 24  1  0  0  0
 24 25  2  0  0  0
  5  1  1  0  0  0
 11  6  1  0  0  0
 17 12  1  0  0  0
 25 21  1  0  0  0
M  END
> <minimizedAffinity>
4.59721

> <CNNscore>
0.3135984838

> <CNNaffinity>
6.5271062851

> <CNN_VS>
2.0468907356

> <CNNaffinity_variance>
0.9060837030

$$$$
[H]c1nc([H])n(C([H])(c2nnn(C3([H])C([H])([H])C([H])([H])N(c4nc([H])c(C#N)c([H])c4[H])C([H])([H])C3([H])[H])c2[H])C([H])(C([H])([H])[H])C([H])([H])[H])n1


 28 31  0  0  0  0  0  0  0  0999 V2000
   -8.5306  -12.7631    2.4543 C   0  0  0  0  0  0  0  0  0  0  0  0
   -9.5089  -12.1857    3.2379 C   0  0  0  0  0  0  0  0  0  0  0  0
   -8.9830  -11.1202    3.8719 N   0  0  0  0  0  0  0  0  0  0  0  0
   -7.7077  -11.0246    3.5010 N   0  0  0  0  0  0  0  0  0  0  0  0
   -7.4369  -12.0084    2.6522 N   0  0  0  0  0  0  0  0  0  0  0  0
   -9.5950  -10.1912    4.7966 C   0  0  0  0  0  0  0  0  0  0  0  0
   -8.7092   -9.0151    5.0219 C   0  0  0  0  0  0  0  0  0  0  0  0
   -8.8056   -8.3682    6.3624 C   0  0  0  0  0  0  0  0  0  0  0  0
   -9.9765   -8.6588    7.1204 N   0  0  0  0  0  0  0  0  0  0  0  0
  -10.8165   -9.8249    6.8603 C   0  0  0  0  0  0  0  0  0  0  0  0
   -9.9414  -10.8313    6.0990 C   0  0  0  0  0  0  0  0  0  0  0  0
  -10.3818   -7.8016    8.1949 C   0  0  0  0  0  0  0  0  0  0  0  0
   -9.5643   -7.5460    9.2740 C   0  0  0  0  0  0  0  0  0  0  0  0
   -9.9372   -6.7142   10.3278 C   0  0  0  0  0  0  0  0  0  0  0  0
  -11.1841   -6.1287   10.2721 C   0  0  0  0  0  0  0  0  0  0  0  0
  -11.9837   -6.3990    9.1837 C   0  0  0  0  0  0  0  0  0  0  0  0
  -11.5890   -7.1994    8.1988 N   0  0  0  0  0  0  0  0  0  0  0  0
  -11.6311   -5.2564   11.3314 C   0  0  0  0  0  0  0  0  0  0  0  0
  -11.9984   -4.5696   12.1933 N   0  0  0  0  0  0  0  0  0  0  0  0
   -8.6375  -13.9512    1.5804 C   0  0  0  0  0  0  0  0  0  0  0  0
   -9.8413  -13.9201    0.7722 N   0  0  0  0  0  0  0  0  0  0  0  0
  -10.5872  -14.9155    0.3071 C   0  0  0  0  0  0  0  0  0  0  0  0
  -11.6172  -14.3724   -0.4023 N   0  0  0  0  0  0  0  0  0  0  0  0
  -11.4912  -13.0519   -0.3641 C   0  0  0  0  0  0  0  0  0  0  0  0
  -10.3938  -12.7830    0.3620 N   0  0  0  0  0  0  0  0  0  0  0  0
   -6.2961  -14.7999    1.3160 C   0  0  0  0  0  0  0  0  0  0  0  0
   -7.4635  -14.0869    0.6425 C   0  0  0  0  0  0  0  0  0  0  0  0
   -7.0326  -12.7651    0.0502 C   0  0  0  0  0  0  0  0  0  0  0  0
 26 27  1  0  0  0
 27 28  1  0  0  0
 27 20  1  0  0  0
 20  1  1  0  0  0
  1  2  2  0  0  0
  2  3  1  0  0  0
  3  4  1  0  0  0
  4  5  2  0  0  0
  3  6  1  0  0  0
  6  7  1  0  0  0
  7  8  1  0  0  0
  8  9  1  0  0  0
  9 10  1  0  0  0
 10 11  1  0  0  0
  9 12  1  0  0  0
 12 13  2  0  0  0
 13 14  1  0  0  0
 14 15  2  0  0  0
 15 16  1  0  0  0
 16 17  2  0  0  0
 15 18  1  0  0  0
 18 19  3  0  0  0
 20 21  1  0  0  0
 21 22  1  0  0  0
 22 23  2  0  0  0
 23 24  1  0  0  0
 24 25  2  0  0  0
  5  1  1  0  0  0
 11  6  1  0  0  0
 17 12  1  0  0  0
 25 21  1  0  0  0
M  END
> <minimizedAffinity>
34.72654

> <CNNscore>
0.2825089097

> <CNNaffinity>
5.5700097084

> <CNN_VS>
1.5735774040

> <CNNaffinity_variance>
0.6163450480

$$$$
[H]c1nc([H])n(C([H])(c2nnn(C3([H])C([H])([H])C([H])([H])N(c4nc([H])c(C#N)c([H])c4[H])C([H])([H])C3([H])[H])c2[H])C([H])(C([H])([H])[H])C([H])([H])[H])n1


 28 31  0  0  0  0  0  0  0  0999 V2000
  -16.7525   -7.2748    3.7466 C   0  0  0  0  0  0  0  0  0  0  0  0
  -16.6107   -7.9270    4.9545 C   0  0  0  0  0  0  0  0  0  0  0  0
  -15.3066   -7.9368    5.2907 N   0  0  0  0  0  0  0  0  0  0  0  0
  -14.6405   -7.3088    4.3239 N   0  0  0  0  0  0  0  0  0  0  0  0
  -15.5064   -6.9124    3.3993 N   0  0  0  0  0  0  0  0  0  0  0  0
  -14.6487   -8.4927    6.4530 C   0  0  0  0  0  0  0  0  0  0  0  0
  -15.5963   -9.3275    7.2429 C   0  0  0  0  0  0  0  0  0  0  0  0
  -15.3535   -9.3826    8.7135 C   0  0  0  0  0  0  0  0  0  0  0  0
  -14.0563   -8.9909    9.1539 N   0  0  0  0  0  0  0  0  0  0  0  0
  -13.1602   -8.1722    8.3417 C   0  0  0  0  0  0  0  0  0  0  0  0
  -14.0438   -7.4405    7.3208 C   0  0  0  0  0  0  0  0  0  0  0  0
  -13.5715   -9.3901   10.4420 C   0  0  0  0  0  0  0  0  0  0  0  0
  -14.4103   -9.5384   11.5248 C   0  0  0  0  0  0  0  0  0  0  0  0
  -13.9607   -9.9278   12.7848 C   0  0  0  0  0  0  0  0  0  0  0  0
  -12.6123  -10.1716   12.9373 C   0  0  0  0  0  0  0  0  0  0  0  0
  -11.7933  -10.0168   11.8408 C   0  0  0  0  0  0  0  0  0  0  0  0
  -12.2636   -9.6431   10.6552 N   0  0  0  0  0  0  0  0  0  0  0  0
  -12.0821  -10.5784   14.2164 C   0  0  0  0  0  0  0  0  0  0  0  0
  -11.6621  -10.8894   15.2539 N   0  0  0  0  0  0  0  0  0  0  0  0
  -17.9922   -7.0183    2.9823 C   0  0  0  0  0  0  0  0  0  0  0  0
  -18.8977   -6.1425    3.7008 N   0  0  0  0  0  0  0  0  0  0  0  0
  -18.7758   -5.5788    4.8970 C   0  0  0  0  0  0  0  0  0  0  0  0
  -19.8979   -4.8399    5.1293 N   0  0  0  0  0  0  0  0  0  0  0  0
  -20.6940   -4.9589    4.0743 C   0  0  0  0  0  0  0  0  0  0  0  0
  -20.0688   -5.7636    3.1994 N   0  0  0  0  0  0  0  0  0  0  0  0
  -18.9383   -6.4968    0.7229 C   0  0  0  0  0  0  0  0  0  0  0  0
  -17.7230   -6.3898    1.6374 C   0  0  0  0  0  0  0  0  0  0  0  0
  -16.4836   -6.9417    0.9717 C   0  0  0  0  0  0  0  0  0  0  0  0
 26 27  1  0  0  0
 27 28  1  0  0  0
 27 20  1  0  0  0
 20  1  1  0  0  0
  1  2  2  0  0  0
  2  3  1  0  0  0
  3  4  1  0  0  0
  4  5  2  0  0  0
  3  6  1  0  0  0
  6  7  1  0  0  0
  7  8  1  0  0  0
  8  9  1  0  0  0
  9 10  1  0  0  0
 10 11  1  0  0  0
  9 12  1  0  0  0
 12 13  2  0  0  0
 13 14  1  0  0  0
 14 15  2  0  0  0
 15 16  1  0  0  0
 16 17  2  0  0  0
 15 18  1  0  0  0
 18 19  3  0  0  0
 20 21  1  0  0  0
 21 22  1  0  0  0
 22 23  2  0  0  0
 23 24  1  0  0  0
 24 25  2  0  0  0
  5  1  1  0  0  0
 11  6  1  0  0  0
 17 12  1  0  0  0
 25 21  1  0  0  0
M  END
> <minimizedAffinity>
43.10926

> <CNNscore>
0.2701105177

> <CNNaffinity>
6.1106843948

> <CNN_VS>
1.6505601406

> <CNNaffinity_variance>
0.7548325658

$$$$
[H]c1nc([H])n(C([H])(c2nnn(C3([H])C([H])([H])C([H])([H])N(c4nc([H])c(C#N)c([H])c4[H])C([H])([H])C3([H])[H])c2[H])C([H])(C([H])([H])[H])C([H])([H])[H])n1


 28 31  0  0  0  0  0  0  0  0999 V2000
   -9.1866  -13.2386    4.7020 C   0  0  0  0  0  0  0  0  0  0  0  0
   -9.7558  -11.9815    4.7080 C   0  0  0  0  0  0  0  0  0  0  0  0
   -9.4526  -11.3745    5.8713 N   0  0  0  0  0  0  0  0  0  0  0  0
   -8.7123  -12.2224    6.5827 N   0  0  0  0  0  0  0  0  0  0  0  0
   -8.5531  -13.3386    5.8824 N   0  0  0  0  0  0  0  0  0  0  0  0
   -9.8091  -10.0589    6.3559 C   0  0  0  0  0  0  0  0  0  0  0  0
   -9.0977   -9.7585    7.6297 C   0  0  0  0  0  0  0  0  0  0  0  0
   -9.8097   -8.8585    8.5824 C   0  0  0  0  0  0  0  0  0  0  0  0
  -10.8655   -8.0718    8.0380 N   0  0  0  0  0  0  0  0  0  0  0  0
  -11.5323   -8.4054    6.7822 C   0  0  0  0  0  0  0  0  0  0  0  0
  -11.2813   -9.9008    6.5393 C   0  0  0  0  0  0  0  0  0  0  0  0
  -11.3279   -6.8990    8.7194 C   0  0  0  0  0  0  0  0  0  0  0  0
  -12.5973   -6.8137    9.2481 C   0  0  0  0  0  0  0  0  0  0  0  0
  -13.0663   -5.6846    9.9163 C   0  0  0  0  0  0  0  0  0  0  0  0
  -12.2082   -4.6133   10.0451 C   0  0  0  0  0  0  0  0  0  0  0  0
  -10.9444   -4.7215    9.5085 C   0  0  0  0  0  0  0  0  0  0  0  0
  -10.5364   -5.8181    8.8780 N   0  0  0  0  0  0  0  0  0  0  0  0
  -12.6322   -3.4137   10.7264 C   0  0  0  0  0  0  0  0  0  0  0  0
  -12.9799   -2.4410   11.2580 N   0  0  0  0  0  0  0  0  0  0  0  0
   -9.2463  -14.2678    3.6418 C   0  0  0  0  0  0  0  0  0  0  0  0
   -7.9490  -14.8692    3.3999 N   0  0  0  0  0  0  0  0  0  0  0  0
   -7.1640  -14.8121    2.3303 C   0  0  0  0  0  0  0  0  0  0  0  0
   -6.0444  -15.5451    2.5915 N   0  0  0  0  0  0  0  0  0  0  0  0
   -6.1555  -16.0427    3.8167 C   0  0  0  0  0  0  0  0  0  0  0  0
   -7.3326  -15.6206    4.3066 N   0  0  0  0  0  0  0  0  0  0  0  0
  -11.5286  -15.2110    3.2247 C   0  0  0  0  0  0  0  0  0  0  0  0
  -10.2096  -15.3816    3.9704 C   0  0  0  0  0  0  0  0  0  0  0  0
  -10.4346  -15.5405    5.4563 C   0  0  0  0  0  0  0  0  0  0  0  0
 26 27  1  0  0  0
 27 28  1  0  0  0
 27 20  1  0  0  0
 20  1  1  0  0  0
  1  2  2  0  0  0
  2  3  1  0  0  0
  3  4  1  0  0  0
  4  5  2  0  0  0
  3  6  1  0  0  0
  6  7  1  0  0  0
  7  8  1  0  0  0
  8  9  1  0  0  0
  9 10  1  0  0  0
 10 11  1  0  0  0
  9 12  1  0  0  0
 12 13  2  0  0  0
 13 14  1  0  0  0
 14 15  2  0  0  0
 15 16  1  0  0  0
 16 17  2  0  0  0
 15 18  1  0  0  0
 18 19  3  0  0  0
 20 21  1  0  0  0
 21 22  1  0  0  0
 22 23  2  0  0  0
 23 24  1  0  0  0
 24 25  2  0  0  0
  5  1  1  0  0  0
 11  6  1  0  0  0
 17 12  1  0  0  0
 25 21  1  0  0  0
M  END
> <minimizedAffinity>
29.98344

> <CNNscore>
0.2417118400

> <CNNaffinity>
5.8366899490

> <CNN_VS>
1.4107971191

> <CNNaffinity_variance>
0.7742288709

$$$$
[H]c1nc([H])n(C([H])(c2nnn(C3([H])C([H])([H])C([H])([H])N(c4nc([H])c(C#N)c([H])c4[H])C([H])([H])C3([H])[H])c2[H])C([H])(C([H])([H])[H])C([H])([H])[H])n1


 28 31  0  0  0  0  0  0  0  0999 V2000
  -14.3560   -5.4961    4.1849 C   0  0  0  0  0  0  0  0  0  0  0  0
  -13.4141   -6.2884    4.8090 C   0  0  0  0  0  0  0  0  0  0  0  0
  -12.2027   -5.7184    4.6617 N   0  0  0  0  0  0  0  0  0  0  0  0
  -12.3717   -4.5969    3.9642 N   0  0  0  0  0  0  0  0  0  0  0  0
  -13.6610   -4.4638    3.6787 N   0  0  0  0  0  0  0  0  0  0  0  0
  -10.9053   -6.1541    5.1303 C   0  0  0  0  0  0  0  0  0  0  0  0
  -10.9466   -6.4486    6.5898 C   0  0  0  0  0  0  0  0  0  0  0  0
   -9.6779   -6.2228    7.3410 C   0  0  0  0  0  0  0  0  0  0  0  0
   -8.4875   -6.1504    6.5614 N   0  0  0  0  0  0  0  0  0  0  0  0
   -8.4972   -5.8604    5.1300 C   0  0  0  0  0  0  0  0  0  0  0  0
   -9.8320   -5.1603    4.8362 C   0  0  0  0  0  0  0  0  0  0  0  0
   -7.2052   -6.3590    7.1662 C   0  0  0  0  0  0  0  0  0  0  0  0
   -7.0676   -6.9564    8.4000 C   0  0  0  0  0  0  0  0  0  0  0  0
   -5.8309   -7.1712    9.0050 C   0  0  0  0  0  0  0  0  0  0  0  0
   -4.7043   -6.7611    8.3243 C   0  0  0  0  0  0  0  0  0  0  0  0
   -4.8667   -6.1663    7.0927 C   0  0  0  0  0  0  0  0  0  0  0  0
   -6.0659   -5.9801    6.5509 N   0  0  0  0  0  0  0  0  0  0  0  0
   -3.3931   -6.9545    8.8954 C   0  0  0  0  0  0  0  0  0  0  0  0
   -2.3460   -7.1160    9.3717 N   0  0  0  0  0  0  0  0  0  0  0  0
  -15.8150   -5.7137    4.0819 C   0  0  0  0  0  0  0  0  0  0  0  0
  -16.1292   -7.0423    3.5927 N   0  0  0  0  0  0  0  0  0  0  0  0
  -15.3844   -8.1413    3.5584 C   0  0  0  0  0  0  0  0  0  0  0  0
  -16.1316   -9.1377    3.0033 N   0  0  0  0  0  0  0  0  0  0  0  0
  -17.3243   -8.6389    2.7038 C   0  0  0  0  0  0  0  0  0  0  0  0
  -17.3130   -7.3470    3.0708 N   0  0  0  0  0  0  0  0  0  0  0  0
  -15.5293   -5.5032    6.5610 C   0  0  0  0  0  0  0  0  0  0  0  0
  -16.5210   -5.5370    5.4035 C   0  0  0  0  0  0  0  0  0  0  0  0
  -17.5991   -6.5708    5.6331 C   0  0  0  0  0  0  0  0  0  0  0  0
 26 27  1  0  0  0
 27 28  1  0  0  0
 27 20  1  0  0  0
 20  1  1  0  0  0
  1  2  2  0  0  0
  2  3  1  0  0  0
  3  4  1  0  0  0
  4  5  2  0  0  0
  3  6  1  0  0  0
  6  7  1  0  0  0
  7  8  1  0  0  0
  8  9  1  0  0  0
  9 10  1  0  0  0
 10 11  1  0  0  0
  9 12  1  0  0  0
 12 13  2  0  0  0
 13 14  1  0  0  0
 14 15  2  0  0  0
 15 16  1  0  0  0
 16 17  2  0  0  0
 15 18  1  0  0  0
 18 19  3  0  0  0
 20 21  1  0  0  0
 21 22  1  0  0  0
 22 23  2  0  0  0
 23 24  1  0  0  0
 24 25  2  0  0  0
  5  1  1  0  0  0
 11  6  1  0  0  0
 17 12  1  0  0  0
 25 21  1  0  0  0
M  END
> <minimizedAffinity>
22.03562

> <CNNscore>
0.2231475264

> <CNNaffinity>
6.0334887505

> <CNN_VS>
1.3463580608

> <CNNaffinity_variance>
0.7569296956

$$$$
[H]c1nc([H])n(C([H])(c2nnn(C3([H])C([H])([H])C([H])([H])N(c4nc([H])c(C#N)c([H])c4[H])C([H])([H])C3([H])[H])c2[H])C([H])(C([H])([H])[H])C([H])([H])[H])n1


 28 31  0  0  0  0  0  0  0  0999 V2000
  -15.1132   -7.0255    6.5226 C   0  0  0  0  0  0  0  0  0  0  0  0
  -13.8775   -7.5836    6.2653 C   0  0  0  0  0  0  0  0  0  0  0  0
  -13.0661   -7.3402    7.3123 N   0  0  0  0  0  0  0  0  0  0  0  0
  -13.7670   -6.6477    8.2079 N   0  0  0  0  0  0  0  0  0  0  0  0
  -14.9928   -6.4592    7.7349 N   0  0  0  0  0  0  0  0  0  0  0  0
  -11.6849   -7.7133    7.5265 C   0  0  0  0  0  0  0  0  0  0  0  0
  -10.9236   -6.5832    8.1280 C   0  0  0  0  0  0  0  0  0  0  0  0
   -9.4747   -6.5099    7.7815 C   0  0  0  0  0  0  0  0  0  0  0  0
   -8.8870   -7.7031    7.2708 N   0  0  0  0  0  0  0  0  0  0  0  0
   -9.6761   -8.7870    6.6914 C   0  0  0  0  0  0  0  0  0  0  0  0
  -11.0194   -8.1721    6.2724 C   0  0  0  0  0  0  0  0  0  0  0  0
   -7.4663   -7.8883    7.3021 C   0  0  0  0  0  0  0  0  0  0  0  0
   -6.7319   -8.1025    6.1563 C   0  0  0  0  0  0  0  0  0  0  0  0
   -5.3502   -8.2823    6.1635 C   0  0  0  0  0  0  0  0  0  0  0  0
   -4.7047   -8.2411    7.3810 C   0  0  0  0  0  0  0  0  0  0  0  0
   -5.4596   -8.0257    8.5127 C   0  0  0  0  0  0  0  0  0  0  0  0
   -6.7772   -7.8588    8.4615 N   0  0  0  0  0  0  0  0  0  0  0  0
   -3.2747   -8.4199    7.4578 C   0  0  0  0  0  0  0  0  0  0  0  0
   -2.1211   -8.5450    7.5150 N   0  0  0  0  0  0  0  0  0  0  0  0
  -16.3201   -7.0348    5.6682 C   0  0  0  0  0  0  0  0  0  0  0  0
  -16.2483   -8.0592    4.6441 N   0  0  0  0  0  0  0  0  0  0  0  0
  -16.2988   -7.9535    3.3213 C   0  0  0  0  0  0  0  0  0  0  0  0
  -16.1887   -9.2067    2.7955 N   0  0  0  0  0  0  0  0  0  0  0  0
  -16.0723  -10.0654    3.8005 C   0  0  0  0  0  0  0  0  0  0  0  0
  -16.1101   -9.3485    4.9357 N   0  0  0  0  0  0  0  0  0  0  0  0
  -18.2428   -8.5883    6.0709 C   0  0  0  0  0  0  0  0  0  0  0  0
  -17.5852   -7.2679    6.4566 C   0  0  0  0  0  0  0  0  0  0  0  0
  -18.5593   -6.1172    6.3521 C   0  0  0  0  0  0  0  0  0  0  0  0
 26 27  1  0  0  0
 27 28  1  0  0  0
 27 20  1  0  0  0
 20  1  1  0  0  0
  1  2  2  0  0  0
  2  3  1  0  0  0
  3  4  1  0  0  0
  4  5  2  0  0  0
  3  6  1  0  0  0
  6  7  1  0  0  0
  7  8  1  0  0  0
  8  9  1  0  0  0
  9 10  1  0  0  0
 10 11  1  0  0  0
  9 12  1  0  0  0
 12 13  2  0  0  0
 13 14  1  0  0  0
 14 15  2  0  0  0
 15 16  1  0  0  0
 16 17  2  0  0  0
 15 18  1  0  0  0
 18 19  3  0  0  0
 20 21  1  0  0  0
 21 22  1  0  0  0
 22 23  2  0  0  0
 23 24  1  0  0  0
 24 25  2  0  0  0
  5  1  1  0  0  0
 11  6  1  0  0  0
 17 12  1  0  0  0
 25 21  1  0  0  0
M  END
> <minimizedAffinity>
3.66527

> <CNNscore>
0.2166412026

> <CNNaffinity>
6.4480009079

> <CNN_VS>
1.3969026804

> <CNNaffinity_variance>
0.5718443394

$$$$
[H]c1nc(N([H])c2c([H])c([H])c(N3C([H])([H])C(C([H])([H])[H])(C([H])([H])[H])C3([H])[H])c([H])c2OC([H])([H])[H])nc(N([H])c2c([H])c([H])c([H])c([H])c2S(=O)(=O)C([H])(C([H])([H])[H])C([H])([H])[H])c1Cl


 37 40  0  0  0  0  0  0  0  0999 V2000
   -9.1154   -8.1154    8.0742 C   0  0  0  0  0  0  0  0  0  0  0  0
   -8.5912   -9.2824    7.7420 N   0  0  0  0  0  0  0  0  0  0  0  0
   -7.3490   -9.4675    7.2883 C   0  0  0  0  0  0  0  0  0  0  0  0
   -6.5257   -8.3883    7.1426 C   0  0  0  0  0  0  0  0  0  0  0  0
   -4.8977   -8.4720    6.5662 Cl  0  0  0  0  0  0  0  0  0  0  0  0
   -7.0335   -7.1258    7.4814 C   0  0  0  0  0  0  0  0  0  0  0  0
   -8.2844   -7.0493    7.9242 N   0  0  0  0  0  0  0  0  0  0  0  0
  -10.4068   -7.8431    8.5559 N   0  0  0  0  0  0  0  0  0  0  0  0
  -10.4606   -7.5290    9.5948 H   0  0  0  0  0  0  0  0  0  0  0  0
  -12.6219   -6.9472    8.2000 C   0  0  0  0  0  0  0  0  0  0  0  0
  -13.8519   -6.9523    7.5931 C   0  0  0  0  0  0  0  0  0  0  0  0
  -14.0955   -7.9474    6.6708 C   0  0  0  0  0  0  0  0  0  0  0  0
  -13.1536   -8.8998    6.3643 C   0  0  0  0  0  0  0  0  0  0  0  0
  -11.9124   -8.8892    6.9812 C   0  0  0  0  0  0  0  0  0  0  0  0
  -11.6399   -7.9131    7.9021 C   0  0  0  0  0  0  0  0  0  0  0  0
  -15.3435   -7.9973    6.0189 N   0  0  0  0  0  0  0  0  0  0  0  0
  -15.8341   -8.4289    4.7261 C   0  0  0  0  0  0  0  0  0  0  0  0
  -16.8554   -7.2906    4.8418 C   0  0  0  0  0  0  0  0  0  0  0  0
  -18.1843   -7.5703    4.2255 C   0  0  0  0  0  0  0  0  0  0  0  0
  -16.2435   -5.9516    4.5580 C   0  0  0  0  0  0  0  0  0  0  0  0
  -16.7378   -7.6431    6.3260 C   0  0  0  0  0  0  0  0  0  0  0  0
  -13.1695   -5.7512   10.2444 C   0  0  0  0  0  0  0  0  0  0  0  0
  -12.3245   -5.9619    9.1408 O   0  0  0  0  0  0  0  0  0  0  0  0
   -6.2328   -5.9740    7.4032 N   0  0  0  0  0  0  0  0  0  0  0  0
   -6.5696   -5.2995    6.6488 H   0  0  0  0  0  0  0  0  0  0  0  0
   -5.1268   -5.6709    8.2055 C   0  0  0  0  0  0  0  0  0  0  0  0
   -5.0928   -5.8554    9.5798 C   0  0  0  0  0  0  0  0  0  0  0  0
   -4.0398   -5.4444   10.4009 C   0  0  0  0  0  0  0  0  0  0  0  0
   -2.9883   -4.8229    9.7924 C   0  0  0  0  0  0  0  0  0  0  0  0
   -2.9423   -4.6020    8.4432 C   0  0  0  0  0  0  0  0  0  0  0  0
   -4.0236   -5.0333    7.6469 C   0  0  0  0  0  0  0  0  0  0  0  0
   -3.8273   -4.8203    5.9608 S   0  0  0  0  0  0  0  0  0  0  0  0
   -4.8842   -5.4812    5.1041 O   0  0  0  0  0  0  0  0  0  0  0  0
   -3.9394   -3.2962    5.6644 O   0  0  0  0  0  0  0  0  0  0  0  0
   -2.2713   -5.2718    5.2781 C   0  0  0  0  0  0  0  0  0  0  0  0
   -2.1611   -4.9936    3.8233 C   0  0  0  0  0  0  0  0  0  0  0  0
   -1.9863   -6.7598    5.4774 C   0  0  0  0  0  0  0  0  0  0  0  0
 22 23  1  0  0  0
 23 10  1  0  0  0
 10 11  2  0  0  0
 11 12  1  0  0  0
 12 13  2  0  0  0
 13 14  1  0  0  0
 14 15  2  0  0  0
 15  8  1  0  0  0
  8  1  1  0  0  0
  1  2  2  0  0  0
  2  3  1  0  0  0
  3  4  2  0  0  0
  4  5  1  0  0  0
  4  6  1  0  0  0
  6 24  1  0  0  0
 24 26  1  0  0  0
 26 27  2  0  0  0
 27 28  1  0  0  0
 28 29  2  0  0  0
 29 30  1  0  0  0
 30 31  2  0  0  0
 31 32  1  0  0  0
 32 33  2  0  0  0
 32 34  2  0  0  0
 32 35  1  0  0  0
 35 36  1  0  0  0
 35 37  1  0  0  0
  6  7  2  0  0  0
 12 16  1  0  0  0
 16 17  1  0  0  0
 17 18  1  0  0  0
 18 19  1  0  0  0
 18 20  1  0  0  0
 18 21  1  0  0  0
 15 10  1  0  0  0
  7  1  1  0  0  0
 21 16  1  0  0  0
 31 26  1  0  0  0
  8  9  1  0  0  0
 24 25  1  0  0  0
M  END
> <minimizedAffinity>
-7.83175

> <CNNscore>
0.6854078174

> <CNNaffinity>
7.8951902390

> <CNN_VS>
5.4114251137

> <CNNaffinity_variance>
0.0027344078

$$$$
[H]c1nc(N([H])c2c([H])c([H])c(N3C([H])([H])C(C([H])([H])[H])(C([H])([H])[H])C3([H])[H])c([H])c2OC([H])([H])[H])nc(N([H])c2c([H])c([H])c([H])c([H])c2S(=O)(=O)C([H])(C([H])([H])[H])C([H])([H])[H])c1Cl


 37 40  0  0  0  0  0  0  0  0999 V2000
   -8.2738   -7.8123    8.1343 C   0  0  0  0  0  0  0  0  0  0  0  0
   -7.7807   -9.0100    7.8712 N   0  0  0  0  0  0  0  0  0  0  0  0
   -6.5747   -9.2489    7.3498 C   0  0  0  0  0  0  0  0  0  0  0  0
   -5.7581   -8.1963    7.0515 C   0  0  0  0  0  0  0  0  0  0  0  0
   -4.1754   -8.3495    6.3723 Cl  0  0  0  0  0  0  0  0  0  0  0  0
   -6.2339   -6.9031    7.3115 C   0  0  0  0  0  0  0  0  0  0  0  0
   -7.4499   -6.7733    7.8323 N   0  0  0  0  0  0  0  0  0  0  0  0
   -9.5265   -7.4836    8.6790 N   0  0  0  0  0  0  0  0  0  0  0  0
   -9.4994   -6.9945    9.6491 H   0  0  0  0  0  0  0  0  0  0  0  0
  -11.8401   -6.8034    8.5370 C   0  0  0  0  0  0  0  0  0  0  0  0
  -13.1208   -6.9415    8.0660 C   0  0  0  0  0  0  0  0  0  0  0  0
  -13.3657   -7.9892    7.2042 C   0  0  0  0  0  0  0  0  0  0  0  0
  -12.3766   -8.8649    6.8260 C   0  0  0  0  0  0  0  0  0  0  0  0
  -11.0843   -8.7198    7.3058 C   0  0  0  0  0  0  0  0  0  0  0  0
  -10.8091   -7.6885    8.1636 C   0  0  0  0  0  0  0  0  0  0  0  0
  -14.6648   -8.1754    6.6916 N   0  0  0  0  0  0  0  0  0  0  0  0
  -15.2442   -8.6512    5.4522 C   0  0  0  0  0  0  0  0  0  0  0  0
  -16.3669   -7.6362    5.7002 C   0  0  0  0  0  0  0  0  0  0  0  0
  -17.7163   -8.0601    5.2274 C   0  0  0  0  0  0  0  0  0  0  0  0
  -15.9432   -6.2349    5.3766 C   0  0  0  0  0  0  0  0  0  0  0  0
  -16.0473   -7.9829    7.1557 C   0  0  0  0  0  0  0  0  0  0  0  0
  -12.3839   -5.4739   10.4984 C   0  0  0  0  0  0  0  0  0  0  0  0
  -11.5391   -5.7600    9.4117 O   0  0  0  0  0  0  0  0  0  0  0  0
   -5.4345   -5.7720    7.0756 N   0  0  0  0  0  0  0  0  0  0  0  0
   -5.7025   -5.2703    6.1733 H   0  0  0  0  0  0  0  0  0  0  0  0
   -4.4096   -5.2887    7.8969 C   0  0  0  0  0  0  0  0  0  0  0  0
   -4.3928   -5.4266    9.2770 C   0  0  0  0  0  0  0  0  0  0  0  0
   -3.4363   -4.8437   10.1122 C   0  0  0  0  0  0  0  0  0  0  0  0
   -2.4667   -4.0942    9.5121 C   0  0  0  0  0  0  0  0  0  0  0  0
   -2.4105   -3.9080    8.1580 C   0  0  0  0  0  0  0  0  0  0  0  0
   -3.3926   -4.5144    7.3475 C   0  0  0  0  0  0  0  0  0  0  0  0
   -3.1760   -4.3240    5.6613 S   0  0  0  0  0  0  0  0  0  0  0  0
   -4.4250   -3.9543    4.8925 O   0  0  0  0  0  0  0  0  0  0  0  0
   -2.1855   -3.1426    5.4460 O   0  0  0  0  0  0  0  0  0  0  0  0
   -2.4323   -5.6635    4.7988 C   0  0  0  0  0  0  0  0  0  0  0  0
   -1.3199   -6.3031    5.5467 C   0  0  0  0  0  0  0  0  0  0  0  0
   -1.8720   -5.2150    3.4498 C   0  0  0  0  0  0  0  0  0  0  0  0
 22 23  1  0  0  0
 23 10  1  0  0  0
 10 11  2  0  0  0
 11 12  1  0  0  0
 12 13  2  0  0  0
 13 14  1  0  0  0
 14 15  2  0  0  0
 15  8  1  0  0  0
  8  1  1  0  0  0
  1  2  2  0  0  0
  2  3  1  0  0  0
  3  4  2  0  0  0
  4  5  1  0  0  0
  4  6  1  0  0  0
  6 24  1  0  0  0
 24 26  1  0  0  0
 26 27  2  0  0  0
 27 28  1  0  0  0
 28 29  2  0  0  0
 29 30  1  0  0  0
 30 31  2  0  0  0
 31 32  1  0  0  0
 32 33  2  0  0  0
 32 34  2  0  0  0
 32 35  1  0  0  0
 35 36  1  0  0  0
 35 37  1  0  0  0
  6  7  2  0  0  0
 12 16  1  0  0  0
 16 17  1  0  0  0
 17 18  1  0  0  0
 18 19  1  0  0  0
 18 20  1  0  0  0
 18 21  1  0  0  0
 15 10  1  0  0  0
  7  1  1  0  0  0
 21 16  1  0  0  0
 31 26  1  0  0  0
  8  9  1  0  0  0
 24 25  1  0  0  0
M  END
> <minimizedAffinity>
-7.41503

> <CNNscore>
0.6392278671

> <CNNaffinity>
7.6857986450

> <CNN_VS>
4.9129767418

> <CNNaffinity_variance>
0.0616119616

$$$$
[H]c1nc(N([H])c2c([H])c([H])c(N3C([H])([H])C(C([H])([H])[H])(C([H])([H])[H])C3([H])[H])c([H])c2OC([H])([H])[H])nc(N([H])c2c([H])c([H])c([H])c([H])c2S(=O)(=O)C([H])(C([H])([H])[H])C([H])([H])[H])c1Cl


 37 40  0  0  0  0  0  0  0  0999 V2000
   -9.0464   -8.2016    8.0514 C   0  0  0  0  0  0  0  0  0  0  0  0
   -8.6464   -9.2599    7.3680 N   0  0  0  0  0  0  0  0  0  0  0  0
   -7.4017   -9.4700    6.9324 C   0  0  0  0  0  0  0  0  0  0  0  0
   -6.4384   -8.5388    7.1948 C   0  0  0  0  0  0  0  0  0  0  0  0
   -4.7886   -8.6719    6.6946 Cl  0  0  0  0  0  0  0  0  0  0  0  0
   -6.8108   -7.3960    7.9172 C   0  0  0  0  0  0  0  0  0  0  0  0
   -8.0769   -7.2824    8.3056 N   0  0  0  0  0  0  0  0  0  0  0  0
  -10.3312   -7.9120    8.5406 N   0  0  0  0  0  0  0  0  0  0  0  0
  -10.3737   -7.5885    9.5771 H   0  0  0  0  0  0  0  0  0  0  0  0
  -12.5415   -6.9995    8.1977 C   0  0  0  0  0  0  0  0  0  0  0  0
  -13.7763   -6.9974    7.6005 C   0  0  0  0  0  0  0  0  0  0  0  0
  -14.0354   -7.9950    6.6852 C   0  0  0  0  0  0  0  0  0  0  0  0
  -13.1040   -8.9567    6.3760 C   0  0  0  0  0  0  0  0  0  0  0  0
  -11.8579   -8.9534    6.9831 C   0  0  0  0  0  0  0  0  0  0  0  0
  -11.5700   -7.9749    7.8969 C   0  0  0  0  0  0  0  0  0  0  0  0
  -15.2890   -8.0378    6.0434 N   0  0  0  0  0  0  0  0  0  0  0  0
  -15.7909   -8.4572    4.7510 C   0  0  0  0  0  0  0  0  0  0  0  0
  -16.8100   -7.3190    4.8856 C   0  0  0  0  0  0  0  0  0  0  0  0
  -18.1444   -7.5919    4.2780 C   0  0  0  0  0  0  0  0  0  0  0  0
  -16.1991   -5.9781    4.6088 C   0  0  0  0  0  0  0  0  0  0  0  0
  -16.6802   -7.6852    6.3655 C   0  0  0  0  0  0  0  0  0  0  0  0
  -13.0884   -5.7553   10.2134 C   0  0  0  0  0  0  0  0  0  0  0  0
  -12.2286   -6.0121    9.1311 O   0  0  0  0  0  0  0  0  0  0  0  0
   -5.8667   -6.4159    8.2667 N   0  0  0  0  0  0  0  0  0  0  0  0
   -5.8072   -6.2719    9.3218 H   0  0  0  0  0  0  0  0  0  0  0  0
   -5.0491   -5.6947    7.3893 C   0  0  0  0  0  0  0  0  0  0  0  0
   -5.2698   -5.6036    6.0229 C   0  0  0  0  0  0  0  0  0  0  0  0
   -4.3938   -4.9872    5.1259 C   0  0  0  0  0  0  0  0  0  0  0  0
   -3.2539   -4.4481    5.6476 C   0  0  0  0  0  0  0  0  0  0  0  0
   -2.9600   -4.4942    6.9828 C   0  0  0  0  0  0  0  0  0  0  0  0
   -3.8703   -5.1232    7.8575 C   0  0  0  0  0  0  0  0  0  0  0  0
   -3.4776   -5.0306    9.5199 S   0  0  0  0  0  0  0  0  0  0  0  0
   -4.6497   -5.1782   10.4644 O   0  0  0  0  0  0  0  0  0  0  0  0
   -2.5253   -6.2186    9.8439 O   0  0  0  0  0  0  0  0  0  0  0  0
   -2.5817   -3.6128   10.0476 C   0  0  0  0  0  0  0  0  0  0  0  0
   -2.0493   -3.7305   11.4292 C   0  0  0  0  0  0  0  0  0  0  0  0
   -3.4502   -2.3563   10.0025 C   0  0  0  0  0  0  0  0  0  0  0  0
 22 23  1  0  0  0
 23 10  1  0  0  0
 10 11  2  0  0  0
 11 12  1  0  0  0
 12 13  2  0  0  0
 13 14  1  0  0  0
 14 15  2  0  0  0
 15  8  1  0  0  0
  8  1  1  0  0  0
  1  2  2  0  0  0
  2  3  1  0  0  0
  3  4  2  0  0  0
  4  5  1  0  0  0
  4  6  1  0  0  0
  6 24  1  0  0  0
 24 26  1  0  0  0
 26 27  2  0  0  0
 27 28  1  0  0  0
 28 29  2  0  0  0
 29 30  1  0  0  0
 30 31  2  0  0  0
 31 32  1  0  0  0
 32 33  2  0  0  0
 32 34  2  0  0  0
 32 35  1  0  0  0
 35 36  1  0  0  0
 35 37  1  0  0  0
  6  7  2  0  0  0
 12 16  1  0  0  0
 16 17  1  0  0  0
 17 18  1  0  0  0
 18 19  1  0  0  0
 18 20  1  0  0  0
 18 21  1  0  0  0
 15 10  1  0  0  0
  7  1  1  0  0  0
 21 16  1  0  0  0
 31 26  1  0  0  0
  8  9  1  0  0  0
 24 25  1  0  0  0
M  END
> <minimizedAffinity>
-7.63946

> <CNNscore>
0.5997363329

> <CNNaffinity>
7.8003029823

> <CNN_VS>
4.6781249046

> <CNNaffinity_variance>
0.0187491346

$$$$
[H]c1nc(N([H])c2c([H])c([H])c(N3C([H])([H])C(C([H])([H])[H])(C([H])([H])[H])C3([H])[H])c([H])c2OC([H])([H])[H])nc(N([H])c2c([H])c([H])c([H])c([H])c2S(=O)(=O)C([H])(C([H])([H])[H])C([H])([H])[H])c1Cl


 37 40  0  0  0  0  0  0  0  0999 V2000
   -7.4883   -8.0991    8.3118 C   0  0  0  0  0  0  0  0  0  0  0  0
   -7.3396   -9.3544    7.9254 N   0  0  0  0  0  0  0  0  0  0  0  0
   -8.3133  -10.1340    7.4488 C   0  0  0  0  0  0  0  0  0  0  0  0
   -9.5766   -9.6284    7.3377 C   0  0  0  0  0  0  0  0  0  0  0  0
  -10.9354  -10.5163    6.7417 Cl  0  0  0  0  0  0  0  0  0  0  0  0
   -9.7885   -8.3002    7.7344 C   0  0  0  0  0  0  0  0  0  0  0  0
   -8.7514   -7.6086    8.1956 N   0  0  0  0  0  0  0  0  0  0  0  0
   -6.5171   -7.2209    8.8211 N   0  0  0  0  0  0  0  0  0  0  0  0
   -6.4916   -7.1309    9.9038 H   0  0  0  0  0  0  0  0  0  0  0  0
   -5.6299   -6.3705    6.7415 C   0  0  0  0  0  0  0  0  0  0  0  0
   -4.7388   -5.6213    6.0162 C   0  0  0  0  0  0  0  0  0  0  0  0
   -3.7747   -4.9323    6.7206 C   0  0  0  0  0  0  0  0  0  0  0  0
   -3.6994   -4.9864    8.0916 C   0  0  0  0  0  0  0  0  0  0  0  0
   -4.6030   -5.7454    8.8187 C   0  0  0  0  0  0  0  0  0  0  0  0
   -5.5729   -6.4413    8.1477 C   0  0  0  0  0  0  0  0  0  0  0  0
   -2.8350   -4.1479    6.0230 N   0  0  0  0  0  0  0  0  0  0  0  0
   -2.1984   -2.8604    6.2116 C   0  0  0  0  0  0  0  0  0  0  0  0
   -2.2240   -2.7327    4.6834 C   0  0  0  0  0  0  0  0  0  0  0  0
   -1.0681   -1.9985    4.0924 C   0  0  0  0  0  0  0  0  0  0  0  0
   -3.5873   -2.3803    4.1687 C   0  0  0  0  0  0  0  0  0  0  0  0
   -2.0510   -4.2496    4.7825 C   0  0  0  0  0  0  0  0  0  0  0  0
   -7.2747   -6.5358    4.9590 C   0  0  0  0  0  0  0  0  0  0  0  0
   -6.6249   -7.0867    6.0773 O   0  0  0  0  0  0  0  0  0  0  0  0
  -11.0497   -7.6944    7.6062 N   0  0  0  0  0  0  0  0  0  0  0  0
  -11.5000   -7.8974    6.6609 H   0  0  0  0  0  0  0  0  0  0  0  0
  -11.7080   -6.9254    8.5727 C   0  0  0  0  0  0  0  0  0  0  0  0
  -11.0652   -6.0510    9.4365 C   0  0  0  0  0  0  0  0  0  0  0  0
  -11.6986   -5.3722   10.4806 C   0  0  0  0  0  0  0  0  0  0  0  0
  -13.0341   -5.5992   10.6445 C   0  0  0  0  0  0  0  0  0  0  0  0
  -13.7432   -6.4454    9.8369 C   0  0  0  0  0  0  0  0  0  0  0  0
  -13.0693   -7.1110    8.7919 C   0  0  0  0  0  0  0  0  0  0  0  0
  -14.0567   -8.0564    7.7634 S   0  0  0  0  0  0  0  0  0  0  0  0
  -13.7457   -9.5366    7.7595 O   0  0  0  0  0  0  0  0  0  0  0  0
  -15.5208   -7.9364    8.2784 O   0  0  0  0  0  0  0  0  0  0  0  0
  -14.1572   -7.5589    6.0800 C   0  0  0  0  0  0  0  0  0  0  0  0
  -15.3326   -6.6996    5.7868 C   0  0  0  0  0  0  0  0  0  0  0  0
  -14.2345   -8.7659    5.1461 C   0  0  0  0  0  0  0  0  0  0  0  0
 22 23  1  0  0  0
 23 10  1  0  0  0
 10 11  2  0  0  0
 11 12  1  0  0  0
 12 13  2  0  0  0
 13 14  1  0  0  0
 14 15  2  0  0  0
 15  8  1  0  0  0
  8  1  1  0  0  0
  1  2  2  0  0  0
  2  3  1  0  0  0
  3  4  2  0  0  0
  4  5  1  0  0  0
  4  6  1  0  0  0
  6 24  1  0  0  0
 24 26  1  0  0  0
 26 27  2  0  0  0
 27 28  1  0  0  0
 28 29  2  0  0  0
 29 30  1  0  0  0
 30 31  2  0  0  0
 31 32  1  0  0  0
 32 33  2  0  0  0
 32 34  2  0  0  0
 32 35  1  0  0  0
 35 36  1  0  0  0
 35 37  1  0  0  0
  6  7  2  0  0  0
 12 16  1  0  0  0
 16 17  1  0  0  0
 17 18  1  0  0  0
 18 19  1  0  0  0
 18 20  1  0  0  0
 18 21  1  0  0  0
 15 10  1  0  0  0
  7  1  1  0  0  0
 21 16  1  0  0  0
 31 26  1  0  0  0
  8  9  1  0  0  0
 24 25  1  0  0  0
M  END
> <minimizedAffinity>
-8.68932

> <CNNscore>
0.4871557653

> <CNNaffinity>
7.4858255386

> <CNN_VS>
3.6467630863

> <CNNaffinity_variance>
0.0824865028

$$$$
[H]c1nc(N([H])c2c([H])c([H])c(N3C([H])([H])C(C([H])([H])[H])(C([H])([H])[H])C3([H])[H])c([H])c2OC([H])([H])[H])nc(N([H])c2c([H])c([H])c([H])c([H])c2S(=O)(=O)C([H])(C([H])([H])[H])C([H])([H])[H])c1Cl


 37 40  0  0  0  0  0  0  0  0999 V2000
   -8.0312   -7.9121    8.1771 C   0  0  0  0  0  0  0  0  0  0  0  0
   -7.4845   -9.0425    7.7643 N   0  0  0  0  0  0  0  0  0  0  0  0
   -6.2954   -9.1494    7.1663 C   0  0  0  0  0  0  0  0  0  0  0  0
   -5.5568   -8.0224    6.9467 C   0  0  0  0  0  0  0  0  0  0  0  0
   -4.0051   -8.0043    6.1841 Cl  0  0  0  0  0  0  0  0  0  0  0  0
   -6.0919   -6.7959    7.3660 C   0  0  0  0  0  0  0  0  0  0  0  0
   -7.2849   -6.7978    7.9522 N   0  0  0  0  0  0  0  0  0  0  0  0
   -9.2709   -7.7213    8.8102 N   0  0  0  0  0  0  0  0  0  0  0  0
   -9.2220   -7.4829    9.8693 H   0  0  0  0  0  0  0  0  0  0  0  0
  -10.9562   -8.9548    7.5963 C   0  0  0  0  0  0  0  0  0  0  0  0
  -12.2112   -9.0929    7.0603 C   0  0  0  0  0  0  0  0  0  0  0  0
  -13.0853   -8.0394    7.2228 C   0  0  0  0  0  0  0  0  0  0  0  0
  -12.7257   -6.8940    7.8913 C   0  0  0  0  0  0  0  0  0  0  0  0
  -11.4558   -6.7607    8.4306 C   0  0  0  0  0  0  0  0  0  0  0  0
  -10.5645   -7.7902    8.2861 C   0  0  0  0  0  0  0  0  0  0  0  0
  -14.3868   -8.1308    6.6910 N   0  0  0  0  0  0  0  0  0  0  0  0
  -14.9769   -8.5129    5.4245 C   0  0  0  0  0  0  0  0  0  0  0  0
  -16.0475   -7.4537    5.7143 C   0  0  0  0  0  0  0  0  0  0  0  0
  -17.4122   -7.7815    5.2099 C   0  0  0  0  0  0  0  0  0  0  0  0
  -15.5476   -6.0623    5.4653 C   0  0  0  0  0  0  0  0  0  0  0  0
  -15.7621   -7.8890    7.1531 C   0  0  0  0  0  0  0  0  0  0  0  0
   -9.9787  -10.7463    6.2752 C   0  0  0  0  0  0  0  0  0  0  0  0
  -10.0335   -9.9914    7.4599 O   0  0  0  0  0  0  0  0  0  0  0  0
   -5.3719   -5.5986    7.2176 N   0  0  0  0  0  0  0  0  0  0  0  0
   -5.7586   -4.9907    6.4312 H   0  0  0  0  0  0  0  0  0  0  0  0
   -4.2839   -5.1780    7.9910 C   0  0  0  0  0  0  0  0  0  0  0  0
   -4.2010   -5.3430    9.3657 C   0  0  0  0  0  0  0  0  0  0  0  0
   -3.1760   -4.8201   10.1583 C   0  0  0  0  0  0  0  0  0  0  0  0
   -2.2058   -4.1038    9.5199 C   0  0  0  0  0  0  0  0  0  0  0  0
   -2.2122   -3.8944    8.1681 C   0  0  0  0  0  0  0  0  0  0  0  0
   -3.2626   -4.4401    7.4012 C   0  0  0  0  0  0  0  0  0  0  0  0
   -3.1264   -4.2274    5.7092 S   0  0  0  0  0  0  0  0  0  0  0  0
   -1.9465   -4.9239    5.0687 O   0  0  0  0  0  0  0  0  0  0  0  0
   -4.3910   -4.8557    5.0540 O   0  0  0  0  0  0  0  0  0  0  0  0
   -3.1180   -2.5730    5.1139 C   0  0  0  0  0  0  0  0  0  0  0  0
   -3.9151   -1.6398    5.9505 C   0  0  0  0  0  0  0  0  0  0  0  0
   -3.6701   -2.4900    3.6915 C   0  0  0  0  0  0  0  0  0  0  0  0
 22 23  1  0  0  0
 23 10  1  0  0  0
 10 11  2  0  0  0
 11 12  1  0  0  0
 12 13  2  0  0  0
 13 14  1  0  0  0
 14 15  2  0  0  0
 15  8  1  0  0  0
  8  1  1  0  0  0
  1  2  2  0  0  0
  2  3  1  0  0  0
  3  4  2  0  0  0
  4  5  1  0  0  0
  4  6  1  0  0  0
  6 24  1  0  0  0
 24 26  1  0  0  0
 26 27  2  0  0  0
 27 28  1  0  0  0
 28 29  2  0  0  0
 29 30  1  0  0  0
 30 31  2  0  0  0
 31 32  1  0  0  0
 32 33  2  0  0  0
 32 34  2  0  0  0
 32 35  1  0  0  0
 35 36  1  0  0  0
 35 37  1  0  0  0
  6  7  2  0  0  0
 12 16  1  0  0  0
 16 17  1  0  0  0
 17 18  1  0  0  0
 18 19  1  0  0  0
 18 20  1  0  0  0
 18 21  1  0  0  0
 15 10  1  0  0  0
  7  1  1  0  0  0
 21 16  1  0  0  0
 31 26  1  0  0  0
  8  9  1  0  0  0
 24 25  1  0  0  0
M  END
> <minimizedAffinity>
-6.83154

> <CNNscore>
0.4477505684

> <CNNaffinity>
7.5062742233

> <CNN_VS>
3.3609385490

> <CNNaffinity_variance>
0.1466182321

$$$$
[H]c1nc(N([H])c2c([H])c([H])c(N3C([H])([H])C(C([H])([H])[H])(C([H])([H])[H])C3([H])[H])c([H])c2OC([H])([H])[H])nc(N([H])c2c([H])c([H])c([H])c([H])c2S(=O)(=O)C([H])(C([H])([H])[H])C([H])([H])[H])c1Cl


 37 40  0  0  0  0  0  0  0  0999 V2000
   -7.5331   -8.0737    8.1633 C   0  0  0  0  0  0  0  0  0  0  0  0
   -7.4428   -9.3545    7.8497 N   0  0  0  0  0  0  0  0  0  0  0  0
   -8.4598  -10.1241    7.4539 C   0  0  0  0  0  0  0  0  0  0  0  0
   -9.7074   -9.5789    7.3536 C   0  0  0  0  0  0  0  0  0  0  0  0
  -11.1170  -10.4491    6.8581 Cl  0  0  0  0  0  0  0  0  0  0  0  0
   -9.8579   -8.2223    7.6752 C   0  0  0  0  0  0  0  0  0  0  0  0
   -8.7812   -7.5438    8.0589 N   0  0  0  0  0  0  0  0  0  0  0  0
   -6.5140   -7.2037    8.5859 N   0  0  0  0  0  0  0  0  0  0  0  0
   -6.4162   -7.0877    9.6619 H   0  0  0  0  0  0  0  0  0  0  0  0
   -4.6666   -5.6492    8.5066 C   0  0  0  0  0  0  0  0  0  0  0  0
   -3.7388   -4.8976    7.8318 C   0  0  0  0  0  0  0  0  0  0  0  0
   -3.7531   -4.9659    6.4550 C   0  0  0  0  0  0  0  0  0  0  0  0
   -4.6544   -5.7501    5.7763 C   0  0  0  0  0  0  0  0  0  0  0  0
   -5.5897   -6.5073    6.4642 C   0  0  0  0  0  0  0  0  0  0  0  0
   -5.6008   -6.4610    7.8327 C   0  0  0  0  0  0  0  0  0  0  0  0
   -2.8206   -4.2130    5.7144 N   0  0  0  0  0  0  0  0  0  0  0  0
   -2.2651   -2.8768    5.7785 C   0  0  0  0  0  0  0  0  0  0  0  0
   -2.2148   -2.9288    4.2466 C   0  0  0  0  0  0  0  0  0  0  0  0
   -1.0698   -2.2006    3.6279 C   0  0  0  0  0  0  0  0  0  0  0  0
   -3.5653   -2.7204    3.6296 C   0  0  0  0  0  0  0  0  0  0  0  0
   -1.9664   -4.4110    4.5333 C   0  0  0  0  0  0  0  0  0  0  0  0
   -4.1062   -4.5483   10.6004 C   0  0  0  0  0  0  0  0  0  0  0  0
   -4.6949   -5.6159    9.9003 O   0  0  0  0  0  0  0  0  0  0  0  0
  -11.1004   -7.5782    7.5517 N   0  0  0  0  0  0  0  0  0  0  0  0
  -11.5333   -7.7192    6.5872 H   0  0  0  0  0  0  0  0  0  0  0  0
  -11.7620   -6.8446    8.5431 C   0  0  0  0  0  0  0  0  0  0  0  0
  -11.1212   -6.0095    9.4463 C   0  0  0  0  0  0  0  0  0  0  0  0
  -11.7591   -5.3693   10.5119 C   0  0  0  0  0  0  0  0  0  0  0  0
  -13.0972   -5.5945   10.6561 C   0  0  0  0  0  0  0  0  0  0  0  0
  -13.8046   -6.4034    9.8096 C   0  0  0  0  0  0  0  0  0  0  0  0
  -13.1261   -7.0306    8.7440 C   0  0  0  0  0  0  0  0  0  0  0  0
  -14.1106   -7.9279    7.6707 S   0  0  0  0  0  0  0  0  0  0  0  0
  -13.8544   -9.4185    7.6605 O   0  0  0  0  0  0  0  0  0  0  0  0
  -15.5866   -7.7589    8.1355 O   0  0  0  0  0  0  0  0  0  0  0  0
  -14.1330   -7.4097    5.9907 C   0  0  0  0  0  0  0  0  0  0  0  0
  -15.1553   -6.3705    5.7064 C   0  0  0  0  0  0  0  0  0  0  0  0
  -14.4056   -8.5824    5.0497 C   0  0  0  0  0  0  0  0  0  0  0  0
 22 23  1  0  0  0
 23 10  1  0  0  0
 10 11  2  0  0  0
 11 12  1  0  0  0
 12 13  2  0  0  0
 13 14  1  0  0  0
 14 15  2  0  0  0
 15  8  1  0  0  0
  8  1  1  0  0  0
  1  2  2  0  0  0
  2  3  1  0  0  0
  3  4  2  0  0  0
  4  5  1  0  0  0
  4  6  1  0  0  0
  6 24  1  0  0  0
 24 26  1  0  0  0
 26 27  2  0  0  0
 27 28  1  0  0  0
 28 29  2  0  0  0
 29 30  1  0  0  0
 30 31  2  0  0  0
 31 32  1  0  0  0
 32 33  2  0  0  0
 32 34  2  0  0  0
 32 35  1  0  0  0
 35 36  1  0  0  0
 35 37  1  0  0  0
  6  7  2  0  0  0
 12 16  1  0  0  0
 16 17  1  0  0  0
 17 18  1  0  0  0
 18 19  1  0  0  0
 18 20  1  0  0  0
 18 21  1  0  0  0
 15 10  1  0  0  0
  7  1  1  0  0  0
 21 16  1  0  0  0
 31 26  1  0  0  0
  8  9  1  0  0  0
 24 25  1  0  0  0
M  END
> <minimizedAffinity>
-8.68684

> <CNNscore>
0.3456433415

> <CNNaffinity>
7.2907614708

> <CNN_VS>
2.5200030804

> <CNNaffinity_variance>
0.1575605124

$$$$
[H]c1nc(N([H])c2c([H])c([H])c(N3C([H])([H])C(C([H])([H])[H])(C([H])([H])[H])C3([H])[H])c([H])c2OC([H])([H])[H])nc(N([H])c2c([H])c([H])c([H])c([H])c2S(=O)(=O)C([H])(C([H])([H])[H])C([H])([H])[H])c1Cl


 37 40  0  0  0  0  0  0  0  0999 V2000
   -7.9715   -7.9166    8.1277 C   0  0  0  0  0  0  0  0  0  0  0  0
   -7.5223   -8.7858    7.2392 N   0  0  0  0  0  0  0  0  0  0  0  0
   -6.3035   -8.7693    6.6936 C   0  0  0  0  0  0  0  0  0  0  0  0
   -5.4240   -7.7909    7.0584 C   0  0  0  0  0  0  0  0  0  0  0  0
   -3.8173   -7.6402    6.4374 Cl  0  0  0  0  0  0  0  0  0  0  0  0
   -5.8514   -6.8426    7.9989 C   0  0  0  0  0  0  0  0  0  0  0  0
   -7.0852   -6.9478    8.4819 N   0  0  0  0  0  0  0  0  0  0  0  0
   -9.2338   -7.8693    8.7429 N   0  0  0  0  0  0  0  0  0  0  0  0
   -9.2236   -7.6981    9.8159 H   0  0  0  0  0  0  0  0  0  0  0  0
  -11.4831   -7.0318    8.4694 C   0  0  0  0  0  0  0  0  0  0  0  0
  -12.7518   -7.1021    7.9530 C   0  0  0  0  0  0  0  0  0  0  0  0
  -13.0414   -8.1746    7.1367 C   0  0  0  0  0  0  0  0  0  0  0  0
  -12.1068   -9.1389    6.8459 C   0  0  0  0  0  0  0  0  0  0  0  0
  -10.8263   -9.0621    7.3711 C   0  0  0  0  0  0  0  0  0  0  0  0
  -10.5077   -8.0083    8.1855 C   0  0  0  0  0  0  0  0  0  0  0  0
  -14.3304   -8.2936    6.5805 N   0  0  0  0  0  0  0  0  0  0  0  0
  -14.8856   -8.5953    5.2771 C   0  0  0  0  0  0  0  0  0  0  0  0
  -16.0192   -7.6296    5.6438 C   0  0  0  0  0  0  0  0  0  0  0  0
  -17.3576   -7.9898    5.0931 C   0  0  0  0  0  0  0  0  0  0  0  0
  -15.5999   -6.1951    5.5254 C   0  0  0  0  0  0  0  0  0  0  0  0
  -15.7217   -8.1737    7.0425 C   0  0  0  0  0  0  0  0  0  0  0  0
  -11.7640   -5.8054   10.5496 C   0  0  0  0  0  0  0  0  0  0  0  0
  -11.1384   -5.9669    9.3010 O   0  0  0  0  0  0  0  0  0  0  0  0
   -4.9887   -5.8337    8.4593 N   0  0  0  0  0  0  0  0  0  0  0  0
   -4.5377   -5.2927    7.6584 H   0  0  0  0  0  0  0  0  0  0  0  0
   -4.7260   -5.5057    9.7943 C   0  0  0  0  0  0  0  0  0  0  0  0
   -5.4591   -5.9871   10.8689 C   0  0  0  0  0  0  0  0  0  0  0  0
   -5.2794   -5.5712   12.1906 C   0  0  0  0  0  0  0  0  0  0  0  0
   -4.3176   -4.6300   12.4166 C   0  0  0  0  0  0  0  0  0  0  0  0
   -3.5503   -4.1036   11.4137 C   0  0  0  0  0  0  0  0  0  0  0  0
   -3.7597   -4.5503   10.0924 C   0  0  0  0  0  0  0  0  0  0  0  0
   -2.6783   -3.9248    8.9237 S   0  0  0  0  0  0  0  0  0  0  0  0
   -3.3124   -3.5372    7.6064 O   0  0  0  0  0  0  0  0  0  0  0  0
   -2.0724   -2.6119    9.5003 O   0  0  0  0  0  0  0  0  0  0  0  0
   -1.2720   -4.9062    8.5357 C   0  0  0  0  0  0  0  0  0  0  0  0
   -1.1907   -5.2812    7.1009 C   0  0  0  0  0  0  0  0  0  0  0  0
   -1.2574   -6.2028    9.3442 C   0  0  0  0  0  0  0  0  0  0  0  0
 22 23  1  0  0  0
 23 10  1  0  0  0
 10 11  2  0  0  0
 11 12  1  0  0  0
 12 13  2  0  0  0
 13 14  1  0  0  0
 14 15  2  0  0  0
 15  8  1  0  0  0
  8  1  1  0  0  0
  1  2  2  0  0  0
  2  3  1  0  0  0
  3  4  2  0  0  0
  4  5  1  0  0  0
  4  6  1  0  0  0
  6 24  1  0  0  0
 24 26  1  0  0  0
 26 27  2  0  0  0
 27 28  1  0  0  0
 28 29  2  0  0  0
 29 30  1  0  0  0
 30 31  2  0  0  0
 31 32  1  0  0  0
 32 33  2  0  0  0
 32 34  2  0  0  0
 32 35  1  0  0  0
 35 36  1  0  0  0
 35 37  1  0  0  0
  6  7  2  0  0  0
 12 16  1  0  0  0
 16 17  1  0  0  0
 17 18  1  0  0  0
 18 19  1  0  0  0
 18 20  1  0  0  0
 18 21  1  0  0  0
 15 10  1  0  0  0
  7  1  1  0  0  0
 21 16  1  0  0  0
 31 26  1  0  0  0
  8  9  1  0  0  0
 24 25  1  0  0  0
M  END
> <minimizedAffinity>
-6.63420

> <CNNscore>
0.3340943158

> <CNNaffinity>
7.3811163902

> <CNN_VS>
2.4659891129

> <CNNaffinity_variance>
0.0067118690

$$$$
[H]c1nc(N([H])c2c([H])c([H])c(N3C([H])([H])C(C([H])([H])[H])(C([H])([H])[H])C3([H])[H])c([H])c2OC([H])([H])[H])nc(N([H])c2c([H])c([H])c([H])c([H])c2S(=O)(=O)C([H])(C([H])([H])[H])C([H])([H])[H])c1Cl


 37 40  0  0  0  0  0  0  0  0999 V2000
   -8.8577   -7.6880    7.6659 C   0  0  0  0  0  0  0  0  0  0  0  0
   -8.9471   -6.3703    7.7163 N   0  0  0  0  0  0  0  0  0  0  0  0
   -9.9306   -5.6872    8.3072 C   0  0  0  0  0  0  0  0  0  0  0  0
  -10.9421   -6.3707    8.9183 C   0  0  0  0  0  0  0  0  0  0  0  0
  -12.2803   -5.6251    9.7203 Cl  0  0  0  0  0  0  0  0  0  0  0  0
  -10.8950   -7.7720    8.8936 C   0  0  0  0  0  0  0  0  0  0  0  0
   -9.8716   -8.3560    8.2785 N   0  0  0  0  0  0  0  0  0  0  0  0
   -7.8593   -8.4736    7.0659 N   0  0  0  0  0  0  0  0  0  0  0  0
   -6.9170   -8.5221    7.6050 H   0  0  0  0  0  0  0  0  0  0  0  0
   -6.9924   -8.8668    4.8456 C   0  0  0  0  0  0  0  0  0  0  0  0
   -6.9643   -9.5465    3.6546 C   0  0  0  0  0  0  0  0  0  0  0  0
   -7.8562  -10.5863    3.5012 C   0  0  0  0  0  0  0  0  0  0  0  0
   -8.7410  -10.9363    4.4925 C   0  0  0  0  0  0  0  0  0  0  0  0
   -8.7645  -10.2453    5.6938 C   0  0  0  0  0  0  0  0  0  0  0  0
   -7.8905   -9.2071    5.8768 C   0  0  0  0  0  0  0  0  0  0  0  0
   -7.8680  -11.3167    2.2964 N   0  0  0  0  0  0  0  0  0  0  0  0
   -8.8762  -11.8245    1.3886 C   0  0  0  0  0  0  0  0  0  0  0  0
   -7.9248  -13.0026    1.1452 C   0  0  0  0  0  0  0  0  0  0  0  0
   -7.9552  -13.5628   -0.2366 C   0  0  0  0  0  0  0  0  0  0  0  0
   -7.9417  -13.9856    2.2771 C   0  0  0  0  0  0  0  0  0  0  0  0
   -6.8796  -11.9108    1.3833 C   0  0  0  0  0  0  0  0  0  0  0  0
   -6.5392   -6.4785    4.8784 C   0  0  0  0  0  0  0  0  0  0  0  0
   -6.1109   -7.8063    5.0519 O   0  0  0  0  0  0  0  0  0  0  0  0
  -11.8738   -8.5450    9.5404 N   0  0  0  0  0  0  0  0  0  0  0  0
  -11.4661   -9.4291    9.9759 H   0  0  0  0  0  0  0  0  0  0  0  0
  -13.2341   -8.2386    9.6603 C   0  0  0  0  0  0  0  0  0  0  0  0
  -13.8966   -8.1161   10.8727 C   0  0  0  0  0  0  0  0  0  0  0  0
  -15.2756   -7.9298   10.9980 C   0  0  0  0  0  0  0  0  0  0  0  0
  -15.9982   -7.8685    9.8420 C   0  0  0  0  0  0  0  0  0  0  0  0
  -15.4231   -7.9798    8.6058 C   0  0  0  0  0  0  0  0  0  0  0  0
  -14.0275   -8.1650    8.5199 C   0  0  0  0  0  0  0  0  0  0  0  0
  -13.3825   -8.1766    6.9355 S   0  0  0  0  0  0  0  0  0  0  0  0
  -13.9552   -7.1327    6.0028 O   0  0  0  0  0  0  0  0  0  0  0  0
  -11.8636   -7.8536    7.0450 O   0  0  0  0  0  0  0  0  0  0  0  0
  -13.4295   -9.7058    6.0690 C   0  0  0  0  0  0  0  0  0  0  0  0
  -12.2613  -10.5794    6.3482 C   0  0  0  0  0  0  0  0  0  0  0  0
  -13.4812   -9.4881    4.5574 C   0  0  0  0  0  0  0  0  0  0  0  0
 22 23  1  0  0  0
 23 10  1  0  0  0
 10 11  2  0  0  0
 11 12  1  0  0  0
 12 13  2  0  0  0
 13 14  1  0  0  0
 14 15  2  0  0  0
 15  8  1  0  0  0
  8  1  1  0  0  0
  1  2  2  0  0  0
  2  3  1  0  0  0
  3  4  2  0  0  0
  4  5  1  0  0  0
  4  6  1  0  0  0
  6 24  1  0  0  0
 24 26  1  0  0  0
 26 27  2  0  0  0
 27 28  1  0  0  0
 28 29  2  0  0  0
 29 30  1  0  0  0
 30 31  2  0  0  0
 31 32  1  0  0  0
 32 33  2  0  0  0
 32 34  2  0  0  0
 32 35  1  0  0  0
 35 36  1  0  0  0
 35 37  1  0  0  0
  6  7  2  0  0  0
 12 16  1  0  0  0
 16 17  1  0  0  0
 17 18  1  0  0  0
 18 19  1  0  0  0
 18 20  1  0  0  0
 18 21  1  0  0  0
 15 10  1  0  0  0
  7  1  1  0  0  0
 21 16  1  0  0  0
 31 26  1  0  0  0
  8  9  1  0  0  0
 24 25  1  0  0  0
M  END
> <minimizedAffinity>
9.86838

> <CNNscore>
0.3085314929

> <CNNaffinity>
6.9893279076

> <CNN_VS>
2.1564278603

> <CNNaffinity_variance>
0.2488368005

$$$$
[H]c1nc(N([H])c2c([H])c([H])c(N3C([H])([H])C(C([H])([H])[H])(C([H])([H])[H])C3([H])[H])c([H])c2OC([H])([H])[H])nc(N([H])c2c([H])c([H])c([H])c([H])c2S(=O)(=O)C([H])(C([H])([H])[H])C([H])([H])[H])c1Cl


 37 40  0  0  0  0  0  0  0  0999 V2000
   -8.8414   -3.4209   15.1557 C   0  0  0  0  0  0  0  0  0  0  0  0
   -9.2982   -2.1882   15.2929 N   0  0  0  0  0  0  0  0  0  0  0  0
   -8.5455   -1.1085   15.5183 C   0  0  0  0  0  0  0  0  0  0  0  0
   -7.1916   -1.2506   15.6218 C   0  0  0  0  0  0  0  0  0  0  0  0
   -6.0919    0.0515   15.9134 Cl  0  0  0  0  0  0  0  0  0  0  0  0
   -6.6552   -2.5389   15.4839 C   0  0  0  0  0  0  0  0  0  0  0  0
   -7.4914   -3.5477   15.2609 N   0  0  0  0  0  0  0  0  0  0  0  0
   -9.5672   -4.6003   14.9186 N   0  0  0  0  0  0  0  0  0  0  0  0
   -9.7022   -5.2464   15.7819 H   0  0  0  0  0  0  0  0  0  0  0  0
   -9.3156   -5.6574   12.7611 C   0  0  0  0  0  0  0  0  0  0  0  0
   -9.8164   -6.1472   11.5818 C   0  0  0  0  0  0  0  0  0  0  0  0
  -11.1771   -6.0468   11.3850 C   0  0  0  0  0  0  0  0  0  0  0  0
  -12.0068   -5.4816   12.3232 C   0  0  0  0  0  0  0  0  0  0  0  0
  -11.4944   -4.9884   13.5129 C   0  0  0  0  0  0  0  0  0  0  0  0
  -10.1464   -5.0737   13.7382 C   0  0  0  0  0  0  0  0  0  0  0  0
  -11.7420   -6.5348   10.1901 N   0  0  0  0  0  0  0  0  0  0  0  0
  -12.5537   -7.6700    9.8018 C   0  0  0  0  0  0  0  0  0  0  0  0
  -11.7909   -7.6373    8.4717 C   0  0  0  0  0  0  0  0  0  0  0  0
  -12.5874   -8.0418    7.2776 C   0  0  0  0  0  0  0  0  0  0  0  0
  -10.4130   -8.2149    8.5964 C   0  0  0  0  0  0  0  0  0  0  0  0
  -11.7856   -6.1376    8.7745 C   0  0  0  0  0  0  0  0  0  0  0  0
   -7.0765   -6.2848   12.0518 C   0  0  0  0  0  0  0  0  0  0  0  0
   -7.9457   -5.7343   13.0099 O   0  0  0  0  0  0  0  0  0  0  0  0
   -5.2683   -2.7591   15.5310 N   0  0  0  0  0  0  0  0  0  0  0  0
   -4.7725   -2.0691   16.1757 H   0  0  0  0  0  0  0  0  0  0  0  0
   -4.5594   -3.7614   14.8590 C   0  0  0  0  0  0  0  0  0  0  0  0
   -5.0133   -5.0634   14.7089 C   0  0  0  0  0  0  0  0  0  0  0  0
   -4.2603   -6.0969   14.1460 C   0  0  0  0  0  0  0  0  0  0  0  0
   -3.0005   -5.7846   13.7247 C   0  0  0  0  0  0  0  0  0  0  0  0
   -2.4765   -4.5258   13.8354 C   0  0  0  0  0  0  0  0  0  0  0  0
   -3.2681   -3.5082   14.4073 C   0  0  0  0  0  0  0  0  0  0  0  0
   -2.5757   -1.9439   14.3983 S   0  0  0  0  0  0  0  0  0  0  0  0
   -2.5420   -1.2504   15.7420 O   0  0  0  0  0  0  0  0  0  0  0  0
   -1.0879   -2.0920   13.9649 O   0  0  0  0  0  0  0  0  0  0  0  0
   -3.2384   -0.7876   13.2516 C   0  0  0  0  0  0  0  0  0  0  0  0
   -2.4639   -0.6987   11.9874 C   0  0  0  0  0  0  0  0  0  0  0  0
   -3.2948    0.6183   13.8478 C   0  0  0  0  0  0  0  0  0  0  0  0
 22 23  1  0  0  0
 23 10  1  0  0  0
 10 11  2  0  0  0
 11 12  1  0  0  0
 12 13  2  0  0  0
 13 14  1  0  0  0
 14 15  2  0  0  0
 15  8  1  0  0  0
  8  1  1  0  0  0
  1  2  2  0  0  0
  2  3  1  0  0  0
  3  4  2  0  0  0
  4  5  1  0  0  0
  4  6  1  0  0  0
  6 24  1  0  0  0
 24 26  1  0  0  0
 26 27  2  0  0  0
 27 28  1  0  0  0
 28 29  2  0  0  0
 29 30  1  0  0  0
 30 31  2  0  0  0
 31 32  1  0  0  0
 32 33  2  0  0  0
 32 34  2  0  0  0
 32 35  1  0  0  0
 35 36  1  0  0  0
 35 37  1  0  0  0
  6  7  2  0  0  0
 12 16  1  0  0  0
 16 17  1  0  0  0
 17 18  1  0  0  0
 18 19  1  0  0  0
 18 20  1  0  0  0
 18 21  1  0  0  0
 15 10  1  0  0  0
  7  1  1  0  0  0
 21 16  1  0  0  0
 31 26  1  0  0  0
  8  9  1  0  0  0
 24 25  1  0  0  0
M  END
> <minimizedAffinity>
8.67542

> <CNNscore>
0.3008530140

> <CNNaffinity>
6.4258718491

> <CNN_VS>
1.9332429171

> <CNNaffinity_variance>
1.1353027821

$$$$
[H]OC(=O)[C@@]([H])(N([H])C(=O)[C@@]([H])(N([H])[H])C([H])([H])c1c([H])c([H])c([H])c([H])c1[H])C([H])([H])c1c([H])c([H])c(-c2c([H])c([H])c([H])c([H])c2[H])c([H])c1[H]


 33 35  0  0  0  0  0  0  0  0999 V2000
   -2.3774   -3.9709    6.8448 C   0  0  0  0  0  0  0  0  0  0  0  0
   -3.7525   -6.1063    6.7778 C   0  0  0  0  0  0  0  0  0  0  0  0
   -4.7900   -5.4764    6.4758 O   0  0  0  0  0  0  0  0  0  0  0  0
   -2.5429   -5.4165    6.9716 N   0  0  0  0  0  0  0  0  0  0  0  0
   -1.7120   -5.9713    7.2224 H   0  0  0  0  0  0  0  0  0  0  0  0
   -4.9405   -8.1593    6.1935 N   0  0  0  0  0  0  0  0  0  0  0  0
   -3.8473   -7.5932    6.9217 C   0  0  0  0  0  0  0  0  0  0  0  0
   -5.8499   -7.7222    6.3900 H   0  0  0  0  0  0  0  0  0  0  0  0
   -4.7422   -8.2712    5.1706 H   0  0  0  0  0  0  0  0  0  0  0  0
   -2.5450   -8.1713    6.4621 C   0  0  0  0  0  0  0  0  0  0  0  0
   -2.0391   -9.2306    7.3729 C   0  0  0  0  0  0  0  0  0  0  0  0
   -1.5674   -8.9314    8.6318 C   0  0  0  0  0  0  0  0  0  0  0  0
   -1.0918   -9.9203    9.4898 C   0  0  0  0  0  0  0  0  0  0  0  0
   -1.0872  -11.2405    9.0803 C   0  0  0  0  0  0  0  0  0  0  0  0
   -1.5609  -11.5360    7.8174 C   0  0  0  0  0  0  0  0  0  0  0  0
   -2.0286  -10.5459    6.9795 C   0  0  0  0  0  0  0  0  0  0  0  0
   -2.5465   -3.5241    5.4750 C   0  0  0  0  0  0  0  0  0  0  0  0
   -1.8454   -3.9686    4.3738 O   0  0  0  0  0  0  0  0  0  0  0  0
   -3.4310   -2.6248    5.2696 O   0  0  0  0  0  0  0  0  0  0  0  0
   -2.1815   -3.9717    3.4365 H   0  0  0  0  0  0  0  0  0  0  0  0
   -1.1230   -3.5151    7.4852 C   0  0  0  0  0  0  0  0  0  0  0  0
   -1.3526   -2.7983    8.7466 C   0  0  0  0  0  0  0  0  0  0  0  0
   -1.3145   -3.3845   10.0028 C   0  0  0  0  0  0  0  0  0  0  0  0
   -1.5412   -2.6721   11.1616 C   0  0  0  0  0  0  0  0  0  0  0  0
   -1.8207   -1.3245   11.1288 C   0  0  0  0  0  0  0  0  0  0  0  0
   -1.8647   -0.7184    9.9010 C   0  0  0  0  0  0  0  0  0  0  0  0
   -1.6383   -1.4320    8.7505 C   0  0  0  0  0  0  0  0  0  0  0  0
   -2.0572   -0.5856   12.3567 C   0  0  0  0  0  0  0  0  0  0  0  0
   -2.9776    0.4310   12.4003 C   0  0  0  0  0  0  0  0  0  0  0  0
   -3.2081    1.1405   13.5679 C   0  0  0  0  0  0  0  0  0  0  0  0
   -2.5124    0.8380   14.7191 C   0  0  0  0  0  0  0  0  0  0  0  0
   -1.5876   -0.1826   14.6764 C   0  0  0  0  0  0  0  0  0  0  0  0
   -1.3633   -0.8816   13.5188 C   0  0  0  0  0  0  0  0  0  0  0  0
  6  7  1  0  0  0
  7 10  1  0  0  0
 10 11  1  0  0  0
 11 12  2  0  0  0
 12 13  1  0  0  0
 13 14  2  0  0  0
 14 15  1  0  0  0
 15 16  2  0  0  0
  7  2  1  0  0  0
  2  3  2  0  0  0
  2  4  1  0  0  0
  4  1  1  0  0  0
  1 21  1  0  0  0
 21 22  1  0  0  0
 22 23  2  0  0  0
 23 24  1  0  0  0
 24 25  2  0  0  0
 25 26  1  0  0  0
 26 27  2  0  0  0
 25 28  1  0  0  0
 28 29  2  0  0  0
 29 30  1  0  0  0
 30 31  2  0  0  0
 31 32  1  0  0  0
 32 33  2  0  0  0
  1 17  1  0  0  0
 17 18  1  0  0  0
 17 19  2  0  0  0
 16 11  1  0  0  0
 27 22  1  0  0  0
 33 28  1  0  0  0
  6  8  1  0  0  0
  6  9  1  0  0  0
  4  5  1  0  0  0
 18 20  1  0  0  0
M  END
> <minimizedAffinity>
-2.79080

> <CNNscore>
0.4691777229

> <CNNaffinity>
4.6797876358

> <CNN_VS>
2.1956520081

> <CNNaffinity_variance>
1.4304316044

$$$$
[H]OC(=O)[C@@]([H])(N([H])C(=O)[C@@]([H])(N([H])[H])C([H])([H])c1c([H])c([H])c([H])c([H])c1[H])C([H])([H])c1c([H])c([H])c(-c2c([H])c([H])c([H])c([H])c2[H])c([H])c1[H]


 33 35  0  0  0  0  0  0  0  0999 V2000
   -9.2884   -7.2674    7.6747 C   0  0  0  0  0  0  0  0  0  0  0  0
   -6.8327   -6.7150    8.0205 C   0  0  0  0  0  0  0  0  0  0  0  0
   -6.6852   -7.6779    8.8050 O   0  0  0  0  0  0  0  0  0  0  0  0
   -8.0889   -6.4681    7.4395 N   0  0  0  0  0  0  0  0  0  0  0  0
   -8.1696   -5.6634    6.8015 H   0  0  0  0  0  0  0  0  0  0  0  0
   -4.8831   -5.5338    8.8988 N   0  0  0  0  0  0  0  0  0  0  0  0
   -5.6435   -5.8536    7.7303 C   0  0  0  0  0  0  0  0  0  0  0  0
   -5.4371   -5.1322    9.6659 H   0  0  0  0  0  0  0  0  0  0  0  0
   -4.2470   -6.3090    9.2031 H   0  0  0  0  0  0  0  0  0  0  0  0
   -4.8000   -6.5781    6.7278 C   0  0  0  0  0  0  0  0  0  0  0  0
   -3.7616   -5.7058    6.1207 C   0  0  0  0  0  0  0  0  0  0  0  0
   -4.0993   -4.6099    5.3580 C   0  0  0  0  0  0  0  0  0  0  0  0
   -3.1301   -3.7888    4.7863 C   0  0  0  0  0  0  0  0  0  0  0  0
   -1.7907   -4.0693    4.9812 C   0  0  0  0  0  0  0  0  0  0  0  0
   -1.4566   -5.1690    5.7464 C   0  0  0  0  0  0  0  0  0  0  0  0
   -2.4275   -5.9723    6.3058 C   0  0  0  0  0  0  0  0  0  0  0  0
  -10.1426   -6.6776    8.6881 C   0  0  0  0  0  0  0  0  0  0  0  0
  -11.0888   -7.3331    9.4475 O   0  0  0  0  0  0  0  0  0  0  0  0
  -10.0074   -5.4235    8.8938 O   0  0  0  0  0  0  0  0  0  0  0  0
  -11.3906   -7.0614   10.3566 H   0  0  0  0  0  0  0  0  0  0  0  0
   -8.9494   -8.6885    7.9134 C   0  0  0  0  0  0  0  0  0  0  0  0
   -8.7888   -9.4546    6.6705 C   0  0  0  0  0  0  0  0  0  0  0  0
   -9.6177  -10.4931    6.2737 C   0  0  0  0  0  0  0  0  0  0  0  0
   -9.4258  -11.1886    5.0984 C   0  0  0  0  0  0  0  0  0  0  0  0
   -8.3871  -10.8823    4.2484 C   0  0  0  0  0  0  0  0  0  0  0  0
   -7.5517   -9.8602    4.6148 C   0  0  0  0  0  0  0  0  0  0  0  0
   -7.7470   -9.1711    5.7857 C   0  0  0  0  0  0  0  0  0  0  0  0
   -8.1962  -11.6223    3.0132 C   0  0  0  0  0  0  0  0  0  0  0  0
   -7.8914  -10.9730    1.8437 C   0  0  0  0  0  0  0  0  0  0  0  0
   -7.7083  -11.6723    0.6616 C   0  0  0  0  0  0  0  0  0  0  0  0
   -7.8297  -13.0454    0.6352 C   0  0  0  0  0  0  0  0  0  0  0  0
   -8.1361  -13.6985    1.8092 C   0  0  0  0  0  0  0  0  0  0  0  0
   -8.3160  -13.0021    2.9761 C   0  0  0  0  0  0  0  0  0  0  0  0
  6  7  1  0  0  0
  7 10  1  0  0  0
 10 11  1  0  0  0
 11 12  2  0  0  0
 12 13  1  0  0  0
 13 14  2  0  0  0
 14 15  1  0  0  0
 15 16  2  0  0  0
  7  2  1  0  0  0
  2  3  2  0  0  0
  2  4  1  0  0  0
  4  1  1  0  0  0
  1 21  1  0  0  0
 21 22  1  0  0  0
 22 23  2  0  0  0
 23 24  1  0  0  0
 24 25  2  0  0  0
 25 26  1  0  0  0
 26 27  2  0  0  0
 25 28  1  0  0  0
 28 29  2  0  0  0
 29 30  1  0  0  0
 30 31  2  0  0  0
 31 32  1  0  0  0
 32 33  2  0  0  0
  1 17  1  0  0  0
 17 18  1  0  0  0
 17 19  2  0  0  0
 16 11  1  0  0  0
 27 22  1  0  0  0
 33 28  1  0  0  0
  6  8  1  0  0  0
  6  9  1  0  0  0
  4  5  1  0  0  0
 18 20  1  0  0  0
M  END
> <minimizedAffinity>
2.34713

> <CNNscore>
0.3940314353

> <CNNaffinity>
5.3423686028

> <CNN_VS>
2.1050610542

> <CNNaffinity_variance>
0.6298618317

$$$$
[H]OC(=O)[C@@]([H])(N([H])C(=O)[C@@]([H])(N([H])[H])C([H])([H])c1c([H])c([H])c([H])c([H])c1[H])C([H])([H])c1c([H])c([H])c(-c2c([H])c([H])c([H])c([H])c2[H])c([H])c1[H]


 33 35  0  0  0  0  0  0  0  0999 V2000
  -17.6704   -7.8081    5.2179 C   0  0  0  0  0  0  0  0  0  0  0  0
  -15.5148   -9.0953    4.8276 C   0  0  0  0  0  0  0  0  0  0  0  0
  -15.5419   -9.5703    5.9843 O   0  0  0  0  0  0  0  0  0  0  0  0
  -16.5333   -8.2249    4.4014 N   0  0  0  0  0  0  0  0  0  0  0  0
  -16.4728   -7.8527    3.4428 H   0  0  0  0  0  0  0  0  0  0  0  0
  -14.5658   -9.0678    2.5768 N   0  0  0  0  0  0  0  0  0  0  0  0
  -14.3788   -9.4821    3.9330 C   0  0  0  0  0  0  0  0  0  0  0  0
  -15.4609   -9.3613    2.1655 H   0  0  0  0  0  0  0  0  0  0  0  0
  -14.3447   -8.0557    2.4195 H   0  0  0  0  0  0  0  0  0  0  0  0
  -13.1331   -8.8815    4.5064 C   0  0  0  0  0  0  0  0  0  0  0  0
  -12.7887   -9.4465    5.8368 C   0  0  0  0  0  0  0  0  0  0  0  0
  -13.7648   -9.8203    6.7337 C   0  0  0  0  0  0  0  0  0  0  0  0
  -13.4477  -10.3503    7.9823 C   0  0  0  0  0  0  0  0  0  0  0  0
  -12.1233  -10.5109    8.3439 C   0  0  0  0  0  0  0  0  0  0  0  0
  -11.1481  -10.1347    7.4417 C   0  0  0  0  0  0  0  0  0  0  0  0
  -11.4776   -9.6116    6.2093 C   0  0  0  0  0  0  0  0  0  0  0  0
  -18.9087   -7.8071    4.4622 C   0  0  0  0  0  0  0  0  0  0  0  0
  -19.3489   -6.8176    3.6085 O   0  0  0  0  0  0  0  0  0  0  0  0
  -19.6699   -8.8235    4.6063 O   0  0  0  0  0  0  0  0  0  0  0  0
  -19.9561   -6.9523    2.8309 H   0  0  0  0  0  0  0  0  0  0  0  0
  -17.3869   -6.5401    5.9273 C   0  0  0  0  0  0  0  0  0  0  0  0
  -16.1005   -6.5566    6.6360 C   0  0  0  0  0  0  0  0  0  0  0  0
  -15.8982   -7.1214    7.8862 C   0  0  0  0  0  0  0  0  0  0  0  0
  -14.6717   -7.1095    8.5166 C   0  0  0  0  0  0  0  0  0  0  0  0
  -13.5714   -6.5281    7.9279 C   0  0  0  0  0  0  0  0  0  0  0  0
  -13.7416   -5.9620    6.6920 C   0  0  0  0  0  0  0  0  0  0  0  0
  -14.9645   -5.9765    6.0688 C   0  0  0  0  0  0  0  0  0  0  0  0
  -12.2850   -6.5225    8.6023 C   0  0  0  0  0  0  0  0  0  0  0  0
  -12.1760   -6.1125    9.9070 C   0  0  0  0  0  0  0  0  0  0  0  0
  -10.9522   -6.1041   10.5566 C   0  0  0  0  0  0  0  0  0  0  0  0
   -9.8094   -6.5103    9.9008 C   0  0  0  0  0  0  0  0  0  0  0  0
   -9.9177   -6.9221    8.5903 C   0  0  0  0  0  0  0  0  0  0  0  0
  -11.1308   -6.9287    7.9523 C   0  0  0  0  0  0  0  0  0  0  0  0
  6  7  1  0  0  0
  7 10  1  0  0  0
 10 11  1  0  0  0
 11 12  2  0  0  0
 12 13  1  0  0  0
 13 14  2  0  0  0
 14 15  1  0  0  0
 15 16  2  0  0  0
  7  2  1  0  0  0
  2  3  2  0  0  0
  2  4  1  0  0  0
  4  1  1  0  0  0
  1 21  1  0  0  0
 21 22  1  0  0  0
 22 23  2  0  0  0
 23 24  1  0  0  0
 24 25  2  0  0  0
 25 26  1  0  0  0
 26 27  2  0  0  0
 25 28  1  0  0  0
 28 29  2  0  0  0
 29 30  1  0  0  0
 30 31  2  0  0  0
 31 32  1  0  0  0
 32 33  2  0  0  0
  1 17  1  0  0  0
 17 18  1  0  0  0
 17 19  2  0  0  0
 16 11  1  0  0  0
 27 22  1  0  0  0
 33 28  1  0  0  0
  6  8  1  0  0  0
  6  9  1  0  0  0
  4  5  1  0  0  0
 18 20  1  0  0  0
M  END
> <minimizedAffinity>
1.84780

> <CNNscore>
0.3119803071

> <CNNaffinity>
6.1929159164

> <CNN_VS>
1.9320677519

> <CNNaffinity_variance>
0.5865395069

$$$$
[H]OC(=O)[C@@]([H])(N([H])C(=O)[C@@]([H])(N([H])[H])C([H])([H])c1c([H])c([H])c([H])c([H])c1[H])C([H])([H])c1c([H])c([H])c(-c2c([H])c([H])c([H])c([H])c2[H])c([H])c1[H]


 33 35  0  0  0  0  0  0  0  0999 V2000
  -13.7553   -8.3648    8.2870 C   0  0  0  0  0  0  0  0  0  0  0  0
  -14.8479   -8.5466    6.0004 C   0  0  0  0  0  0  0  0  0  0  0  0
  -15.9937   -8.4942    6.4992 O   0  0  0  0  0  0  0  0  0  0  0  0
  -13.7160   -8.4887    6.8323 N   0  0  0  0  0  0  0  0  0  0  0  0
  -12.7904   -8.5383    6.3828 H   0  0  0  0  0  0  0  0  0  0  0  0
  -15.7702   -9.4644    3.9329 N   0  0  0  0  0  0  0  0  0  0  0  0
  -14.7314   -8.6707    4.5132 C   0  0  0  0  0  0  0  0  0  0  0  0
  -15.8821  -10.3919    4.3616 H   0  0  0  0  0  0  0  0  0  0  0  0
  -16.6728   -8.9445    3.8186 H   0  0  0  0  0  0  0  0  0  0  0  0
  -14.7401   -7.2850    3.9465 C   0  0  0  0  0  0  0  0  0  0  0  0
  -16.0557   -6.6130    4.1056 C   0  0  0  0  0  0  0  0  0  0  0  0
  -17.2061   -7.1486    3.5701 C   0  0  0  0  0  0  0  0  0  0  0  0
  -18.4421   -6.5228    3.7160 C   0  0  0  0  0  0  0  0  0  0  0  0
  -18.5311   -5.3330    4.4138 C   0  0  0  0  0  0  0  0  0  0  0  0
  -17.3754   -4.7996    4.9489 C   0  0  0  0  0  0  0  0  0  0  0  0
  -16.1592   -5.4309    4.7961 C   0  0  0  0  0  0  0  0  0  0  0  0
  -13.8563   -6.9810    8.7106 C   0  0  0  0  0  0  0  0  0  0  0  0
  -13.8397   -6.5164   10.0088 O   0  0  0  0  0  0  0  0  0  0  0  0
  -13.9776   -6.1057    7.7874 O   0  0  0  0  0  0  0  0  0  0  0  0
  -13.5321   -5.6140   10.2964 H   0  0  0  0  0  0  0  0  0  0  0  0
  -12.6499   -9.1183    8.9210 C   0  0  0  0  0  0  0  0  0  0  0  0
  -11.3230   -8.6432    8.5073 C   0  0  0  0  0  0  0  0  0  0  0  0
  -10.7961   -7.4018    8.8299 C   0  0  0  0  0  0  0  0  0  0  0  0
   -9.5452   -6.9956    8.4150 C   0  0  0  0  0  0  0  0  0  0  0  0
   -8.7458   -7.8140    7.6492 C   0  0  0  0  0  0  0  0  0  0  0  0
   -9.2406   -9.0471    7.3152 C   0  0  0  0  0  0  0  0  0  0  0  0
  -10.4863   -9.4465    7.7306 C   0  0  0  0  0  0  0  0  0  0  0  0
   -7.4300   -7.3745    7.2190 C   0  0  0  0  0  0  0  0  0  0  0  0
   -7.2266   -6.9020    5.9471 C   0  0  0  0  0  0  0  0  0  0  0  0
   -5.9741   -6.4815    5.5296 C   0  0  0  0  0  0  0  0  0  0  0  0
   -4.8976   -6.5295    6.3897 C   0  0  0  0  0  0  0  0  0  0  0  0
   -5.1006   -7.0040    7.6673 C   0  0  0  0  0  0  0  0  0  0  0  0
   -6.3417   -7.4187    8.0755 C   0  0  0  0  0  0  0  0  0  0  0  0
  6  7  1  0  0  0
  7 10  1  0  0  0
 10 11  1  0  0  0
 11 12  2  0  0  0
 12 13  1  0  0  0
 13 14  2  0  0  0
 14 15  1  0  0  0
 15 16  2  0  0  0
  7  2  1  0  0  0
  2  3  2  0  0  0
  2  4  1  0  0  0
  4  1  1  0  0  0
  1 21  1  0  0  0
 21 22  1  0  0  0
 22 23  2  0  0  0
 23 24  1  0  0  0
 24 25  2  0  0  0
 25 26  1  0  0  0
 26 27  2  0  0  0
 25 28  1  0  0  0
 28 29  2  0  0  0
 29 30  1  0  0  0
 30 31  2  0  0  0
 31 32  1  0  0  0
 32 33  2  0  0  0
  1 17  1  0  0  0
 17 18  1  0  0  0
 17 19  2  0  0  0
 16 11  1  0  0  0
 27 22  1  0  0  0
 33 28  1  0  0  0
  6  8  1  0  0  0
  6  9  1  0  0  0
  4  5  1  0  0  0
 18 20  1  0  0  0
M  END
> <minimizedAffinity>
-9.65568

> <CNNscore>
0.3016902506

> <CNNaffinity>
6.5249719620

> <CNN_VS>
1.9685204029

> <CNNaffinity_variance>
0.0495728627

$$$$
[H]OC(=O)[C@@]([H])(N([H])C(=O)[C@@]([H])(N([H])[H])C([H])([H])c1c([H])c([H])c([H])c([H])c1[H])C([H])([H])c1c([H])c([H])c(-c2c([H])c([H])c([H])c([H])c2[H])c([H])c1[H]


 33 35  0  0  0  0  0  0  0  0999 V2000
  -10.1297   -8.7566    7.8563 C   0  0  0  0  0  0  0  0  0  0  0  0
  -12.5944   -9.3712    7.9093 C   0  0  0  0  0  0  0  0  0  0  0  0
  -12.6378   -9.2552    9.1539 O   0  0  0  0  0  0  0  0  0  0  0  0
  -11.3892   -9.1395    7.2236 N   0  0  0  0  0  0  0  0  0  0  0  0
  -11.3944   -9.2486    6.1993 H   0  0  0  0  0  0  0  0  0  0  0  0
  -15.0219   -9.1519    7.7460 N   0  0  0  0  0  0  0  0  0  0  0  0
  -13.8505   -9.7585    7.1932 C   0  0  0  0  0  0  0  0  0  0  0  0
  -15.1306   -9.2898    8.7588 H   0  0  0  0  0  0  0  0  0  0  0  0
  -15.1554   -8.1579    7.4422 H   0  0  0  0  0  0  0  0  0  0  0  0
  -13.6815   -9.3773    5.7552 C   0  0  0  0  0  0  0  0  0  0  0  0
  -14.5320   -8.2220    5.3687 C   0  0  0  0  0  0  0  0  0  0  0  0
  -15.6607   -8.3865    4.5968 C   0  0  0  0  0  0  0  0  0  0  0  0
  -16.4616   -7.3069    4.2312 C   0  0  0  0  0  0  0  0  0  0  0  0
  -16.1268   -6.0319    4.6468 C   0  0  0  0  0  0  0  0  0  0  0  0
  -14.9944   -5.8715    5.4204 C   0  0  0  0  0  0  0  0  0  0  0  0
  -14.2116   -6.9500    5.7742 C   0  0  0  0  0  0  0  0  0  0  0  0
   -9.9369   -7.3187    7.8533 C   0  0  0  0  0  0  0  0  0  0  0  0
   -9.4211   -6.5616    6.8227 O   0  0  0  0  0  0  0  0  0  0  0  0
  -10.2748   -6.6922    8.9147 O   0  0  0  0  0  0  0  0  0  0  0  0
   -9.6269   -5.6027    6.6499 H   0  0  0  0  0  0  0  0  0  0  0  0
   -8.9934   -9.5262    7.3013 C   0  0  0  0  0  0  0  0  0  0  0  0
   -7.7126   -8.8159    7.4135 C   0  0  0  0  0  0  0  0  0  0  0  0
   -6.8224   -8.6286    6.3669 C   0  0  0  0  0  0  0  0  0  0  0  0
   -5.6271   -7.9580    6.5198 C   0  0  0  0  0  0  0  0  0  0  0  0
   -5.2526   -7.4337    7.7363 C   0  0  0  0  0  0  0  0  0  0  0  0
   -6.1128   -7.6035    8.7889 C   0  0  0  0  0  0  0  0  0  0  0  0
   -7.3014   -8.2718    8.6315 C   0  0  0  0  0  0  0  0  0  0  0  0
   -3.9911   -6.7292    7.8841 C   0  0  0  0  0  0  0  0  0  0  0  0
   -3.9601   -5.4172    8.2842 C   0  0  0  0  0  0  0  0  0  0  0  0
   -2.7605   -4.7387    8.4268 C   0  0  0  0  0  0  0  0  0  0  0  0
   -1.5636   -5.3720    8.1676 C   0  0  0  0  0  0  0  0  0  0  0  0
   -1.5935   -6.6896    7.7654 C   0  0  0  0  0  0  0  0  0  0  0  0
   -2.7829   -7.3565    7.6260 C   0  0  0  0  0  0  0  0  0  0  0  0
  6  7  1  0  0  0
  7 10  1  0  0  0
 10 11  1  0  0  0
 11 12  2  0  0  0
 12 13  1  0  0  0
 13 14  2  0  0  0
 14 15  1  0  0  0
 15 16  2  0  0  0
  7  2  1  0  0  0
  2  3  2  0  0  0
  2  4  1  0  0  0
  4  1  1  0  0  0
  1 21  1  0  0  0
 21 22  1  0  0  0
 22 23  2  0  0  0
 23 24  1  0  0  0
 24 25  2  0  0  0
 25 26  1  0  0  0
 26 27  2  0  0  0
 25 28  1  0  0  0
 28 29  2  0  0  0
 29 30  1  0  0  0
 30 31  2  0  0  0
 31 32  1  0  0  0
 32 33  2  0  0  0
  1 17  1  0  0  0
 17 18  1  0  0  0
 17 19  2  0  0  0
 16 11  1  0  0  0
 27 22  1  0  0  0
 33 28  1  0  0  0
  6  8  1  0  0  0
  6  9  1  0  0  0
  4  5  1  0  0  0
 18 20  1  0  0  0
M  END
> <minimizedAffinity>
-8.71993

> <CNNscore>
0.2702412009

> <CNNaffinity>
6.0037980080

> <CNN_VS>
1.6224735975

> <CNNaffinity_variance>
0.1540687978

$$$$
[H]OC(=O)[C@@]([H])(N([H])C(=O)[C@@]([H])(N([H])[H])C([H])([H])c1c([H])c([H])c([H])c([H])c1[H])C([H])([H])c1c([H])c([H])c(-c2c([H])c([H])c([H])c([H])c2[H])c([H])c1[H]


 33 35  0  0  0  0  0  0  0  0999 V2000
  -17.6628   -8.6390    5.6863 C   0  0  0  0  0  0  0  0  0  0  0  0
  -15.5376   -8.7655    4.2996 C   0  0  0  0  0  0  0  0  0  0  0  0
  -15.2187   -9.8597    4.8148 O   0  0  0  0  0  0  0  0  0  0  0  0
  -16.7251   -8.1236    4.6922 N   0  0  0  0  0  0  0  0  0  0  0  0
  -16.9503   -7.2225    4.2465 H   0  0  0  0  0  0  0  0  0  0  0  0
  -14.1415   -9.1441    2.3311 N   0  0  0  0  0  0  0  0  0  0  0  0
  -14.6240   -8.1784    3.2694 C   0  0  0  0  0  0  0  0  0  0  0  0
  -13.7103   -9.9720    2.7615 H   0  0  0  0  0  0  0  0  0  0  0  0
  -14.8367   -9.3759    1.5820 H   0  0  0  0  0  0  0  0  0  0  0  0
  -15.3772   -7.0885    2.5723 C   0  0  0  0  0  0  0  0  0  0  0  0
  -15.5430   -5.8791    3.4194 C   0  0  0  0  0  0  0  0  0  0  0  0
  -16.7845   -5.4690    3.8521 C   0  0  0  0  0  0  0  0  0  0  0  0
  -16.9458   -4.3360    4.6463 C   0  0  0  0  0  0  0  0  0  0  0  0
  -15.8399   -3.5944    5.0172 C   0  0  0  0  0  0  0  0  0  0  0  0
  -14.5972   -4.0090    4.5811 C   0  0  0  0  0  0  0  0  0  0  0  0
  -14.4535   -5.1329    3.7954 C   0  0  0  0  0  0  0  0  0  0  0  0
  -19.0352   -8.5764    5.2205 C   0  0  0  0  0  0  0  0  0  0  0  0
  -19.5882   -7.5955    4.4244 O   0  0  0  0  0  0  0  0  0  0  0  0
  -19.8103   -9.5231    5.5895 O   0  0  0  0  0  0  0  0  0  0  0  0
  -20.3604   -7.7179    3.8079 H   0  0  0  0  0  0  0  0  0  0  0  0
  -17.4384   -8.0167    7.0107 C   0  0  0  0  0  0  0  0  0  0  0  0
  -16.0144   -7.8763    7.3427 C   0  0  0  0  0  0  0  0  0  0  0  0
  -15.2898   -8.7847    8.0995 C   0  0  0  0  0  0  0  0  0  0  0  0
  -13.9532   -8.6093    8.3905 C   0  0  0  0  0  0  0  0  0  0  0  0
  -13.2619   -7.5083    7.9378 C   0  0  0  0  0  0  0  0  0  0  0  0
  -13.9525   -6.5937    7.1871 C   0  0  0  0  0  0  0  0  0  0  0  0
  -15.2828   -6.7729    6.9003 C   0  0  0  0  0  0  0  0  0  0  0  0
  -11.8541   -7.3356    8.2510 C   0  0  0  0  0  0  0  0  0  0  0  0
  -11.4504   -6.4350    9.2040 C   0  0  0  0  0  0  0  0  0  0  0  0
  -10.1093   -6.2646    9.5077 C   0  0  0  0  0  0  0  0  0  0  0  0
   -9.1449   -7.0016    8.8536 C   0  0  0  0  0  0  0  0  0  0  0  0
   -9.5493   -7.9062    7.8961 C   0  0  0  0  0  0  0  0  0  0  0  0
  -10.8773   -8.0712    7.5995 C   0  0  0  0  0  0  0  0  0  0  0  0
  6  7  1  0  0  0
  7 10  1  0  0  0
 10 11  1  0  0  0
 11 12  2  0  0  0
 12 13  1  0  0  0
 13 14  2  0  0  0
 14 15  1  0  0  0
 15 16  2  0  0  0
  7  2  1  0  0  0
  2  3  2  0  0  0
  2  4  1  0  0  0
  4  1  1  0  0  0
  1 21  1  0  0  0
 21 22  1  0  0  0
 22 23  2  0  0  0
 23 24  1  0  0  0
 24 25  2  0  0  0
 25 26  1  0  0  0
 26 27  2  0  0  0
 25 28  1  0  0  0
 28 29  2  0  0  0
 29 30  1  0  0  0
 30 31  2  0  0  0
 31 32  1  0  0  0
 32 33  2  0  0  0
  1 17  1  0  0  0
 17 18  1  0  0  0
 17 19  2  0  0  0
 16 11  1  0  0  0
 27 22  1  0  0  0
 33 28  1  0  0  0
  6  8  1  0  0  0
  6  9  1  0  0  0
  4  5  1  0  0  0
 18 20  1  0  0  0
M  END
> <minimizedAffinity>
-2.46945

> <CNNscore>
0.2696595490

> <CNNaffinity>
6.2396378517

> <CNN_VS>
1.6825779676

> <CNNaffinity_variance>
0.2027200758

$$$$
[H]OC(=O)[C@@]([H])(N([H])C(=O)[C@@]([H])(N([H])[H])C([H])([H])c1c([H])c([H])c([H])c([H])c1[H])C([H])([H])c1c([H])c([H])c(-c2c([H])c([H])c([H])c([H])c2[H])c([H])c1[H]


 33 35  0  0  0  0  0  0  0  0999 V2000
  -11.0361   -7.5625    8.4256 C   0  0  0  0  0  0  0  0  0  0  0  0
  -13.4142   -7.7808    7.5582 C   0  0  0  0  0  0  0  0  0  0  0  0
  -13.6178   -6.5538    7.6905 O   0  0  0  0  0  0  0  0  0  0  0  0
  -12.1663   -8.3274    7.9053 N   0  0  0  0  0  0  0  0  0  0  0  0
  -12.0398   -9.3426    7.7846 H   0  0  0  0  0  0  0  0  0  0  0  0
  -14.5893   -9.9211    7.6328 N   0  0  0  0  0  0  0  0  0  0  0  0
  -14.5285   -8.6271    7.0265 C   0  0  0  0  0  0  0  0  0  0  0  0
  -13.7026  -10.4406    7.6084 H   0  0  0  0  0  0  0  0  0  0  0  0
  -15.0448   -9.9147    8.5764 H   0  0  0  0  0  0  0  0  0  0  0  0
  -15.8048   -7.8758    7.2457 C   0  0  0  0  0  0  0  0  0  0  0  0
  -16.4375   -7.4445    5.9725 C   0  0  0  0  0  0  0  0  0  0  0  0
  -16.1894   -6.2027    5.4308 C   0  0  0  0  0  0  0  0  0  0  0  0
  -16.7799   -5.7930    4.2375 C   0  0  0  0  0  0  0  0  0  0  0  0
  -17.6394   -6.6445    3.5690 C   0  0  0  0  0  0  0  0  0  0  0  0
  -17.8854   -7.8883    4.1156 C   0  0  0  0  0  0  0  0  0  0  0  0
  -17.2932   -8.2796    5.2977 C   0  0  0  0  0  0  0  0  0  0  0  0
  -11.4207   -6.7174    9.5402 C   0  0  0  0  0  0  0  0  0  0  0  0
  -12.3606   -7.0097   10.5061 O   0  0  0  0  0  0  0  0  0  0  0  0
  -10.8326   -5.5867    9.6329 O   0  0  0  0  0  0  0  0  0  0  0  0
  -12.3650   -6.6529   11.4357 H   0  0  0  0  0  0  0  0  0  0  0  0
  -10.3212   -6.8537    7.3401 C   0  0  0  0  0  0  0  0  0  0  0  0
   -8.8657   -7.0428    7.3953 C   0  0  0  0  0  0  0  0  0  0  0  0
   -8.2014   -7.7524    8.3843 C   0  0  0  0  0  0  0  0  0  0  0  0
   -6.8304   -7.9004    8.3983 C   0  0  0  0  0  0  0  0  0  0  0  0
   -6.0416   -7.3434    7.4170 C   0  0  0  0  0  0  0  0  0  0  0  0
   -6.6709   -6.6366    6.4264 C   0  0  0  0  0  0  0  0  0  0  0  0
   -8.0358   -6.4921    6.4172 C   0  0  0  0  0  0  0  0  0  0  0  0
   -4.5986   -7.5071    7.4430 C   0  0  0  0  0  0  0  0  0  0  0  0
   -3.9857   -8.4706    6.6826 C   0  0  0  0  0  0  0  0  0  0  0  0
   -2.6098   -8.6328    6.7026 C   0  0  0  0  0  0  0  0  0  0  0  0
   -1.8216   -7.8236    7.4931 C   0  0  0  0  0  0  0  0  0  0  0  0
   -2.4361   -6.8558    8.2575 C   0  0  0  0  0  0  0  0  0  0  0  0
   -3.7977   -6.6993    8.2340 C   0  0  0  0  0  0  0  0  0  0  0  0
  6  7  1  0  0  0
  7 10  1  0  0  0
 10 11  1  0  0  0
 11 12  2  0  0  0
 12 13  1  0  0  0
 13 14  2  0  0  0
 14 15  1  0  0  0
 15 16  2  0  0  0
  7  2  1  0  0  0
  2  3  2  0  0  0
  2  4  1  0  0  0
  4  1  1  0  0  0
  1 21  1  0  0  0
 21 22  1  0  0  0
 22 23  2  0  0  0
 23 24  1  0  0  0
 24 25  2  0  0  0
 25 26  1  0  0  0
 26 27  2  0  0  0
 25 28  1  0  0  0
 28 29  2  0  0  0
 29 30  1  0  0  0
 30 31  2  0  0  0
 31 32  1  0  0  0
 32 33  2  0  0  0
  1 17  1  0  0  0
 17 18  1  0  0  0
 17 19  2  0  0  0
 16 11  1  0  0  0
 27 22  1  0  0  0
 33 28  1  0  0  0
  6  8  1  0  0  0
  6  9  1  0  0  0
  4  5  1  0  0  0
 18 20  1  0  0  0
M  END
> <minimizedAffinity>
-8.74476

> <CNNscore>
0.2333643436

> <CNNaffinity>
6.0334429741

> <CNN_VS>
1.4079904556

> <CNNaffinity_variance>
0.0807704031

$$$$
[H]OC(=O)[C@@]([H])(N([H])C(=O)[C@@]([H])(N([H])[H])C([H])([H])c1c([H])c([H])c([H])c([H])c1[H])C([H])([H])c1c([H])c([H])c(-c2c([H])c([H])c([H])c([H])c2[H])c([H])c1[H]


 33 35  0  0  0  0  0  0  0  0999 V2000
  -14.8417   -8.2782    8.0441 C   0  0  0  0  0  0  0  0  0  0  0  0
  -16.7915   -8.1358    6.4213 C   0  0  0  0  0  0  0  0  0  0  0  0
  -17.4924   -7.5205    7.2547 O   0  0  0  0  0  0  0  0  0  0  0  0
  -15.4852   -8.5319    6.7578 N   0  0  0  0  0  0  0  0  0  0  0  0
  -14.9418   -9.0393    6.0447 H   0  0  0  0  0  0  0  0  0  0  0  0
  -18.4852   -9.3410    5.1383 N   0  0  0  0  0  0  0  0  0  0  0  0
  -17.3859   -8.4279    5.0789 C   0  0  0  0  0  0  0  0  0  0  0  0
  -18.2804  -10.2162    5.6369 H   0  0  0  0  0  0  0  0  0  0  0  0
  -19.3824   -8.8892    5.4370 H   0  0  0  0  0  0  0  0  0  0  0  0
  -17.8103   -7.1214    4.4835 C   0  0  0  0  0  0  0  0  0  0  0  0
  -16.6877   -6.1543    4.3737 C   0  0  0  0  0  0  0  0  0  0  0  0
  -16.8514   -4.8237    4.6892 C   0  0  0  0  0  0  0  0  0  0  0  0
  -15.8026   -3.9126    4.5879 C   0  0  0  0  0  0  0  0  0  0  0  0
  -14.5597   -4.3411    4.1609 C   0  0  0  0  0  0  0  0  0  0  0  0
  -14.4000   -5.6759    3.8456 C   0  0  0  0  0  0  0  0  0  0  0  0
  -15.4479   -6.5657    3.9510 C   0  0  0  0  0  0  0  0  0  0  0  0
  -14.1787   -6.9882    8.0734 C   0  0  0  0  0  0  0  0  0  0  0  0
  -13.9080   -6.2293    9.1926 O   0  0  0  0  0  0  0  0  0  0  0  0
  -13.8133   -6.5050    6.9481 O   0  0  0  0  0  0  0  0  0  0  0  0
  -13.1611   -5.5769    9.2824 H   0  0  0  0  0  0  0  0  0  0  0  0
  -13.9844   -9.4148    8.4500 C   0  0  0  0  0  0  0  0  0  0  0  0
  -12.5603   -9.1840    8.1739 C   0  0  0  0  0  0  0  0  0  0  0  0
  -11.8348   -9.8340    7.1870 C   0  0  0  0  0  0  0  0  0  0  0  0
  -10.4959   -9.5883    6.9662 C   0  0  0  0  0  0  0  0  0  0  0  0
   -9.8030   -8.6724    7.7253 C   0  0  0  0  0  0  0  0  0  0  0  0
  -10.4944   -8.0146    8.7081 C   0  0  0  0  0  0  0  0  0  0  0  0
  -11.8271   -8.2628    8.9239 C   0  0  0  0  0  0  0  0  0  0  0  0
   -8.3929   -8.4225    7.4824 C   0  0  0  0  0  0  0  0  0  0  0  0
   -7.8011   -8.8125    6.3077 C   0  0  0  0  0  0  0  0  0  0  0  0
   -6.4565   -8.5779    6.0693 C   0  0  0  0  0  0  0  0  0  0  0  0
   -5.6789   -7.9430    7.0144 C   0  0  0  0  0  0  0  0  0  0  0  0
   -6.2722   -7.5511    8.1947 C   0  0  0  0  0  0  0  0  0  0  0  0
   -7.6029   -7.7854    8.4256 C   0  0  0  0  0  0  0  0  0  0  0  0
  6  7  1  0  0  0
  7 10  1  0  0  0
 10 11  1  0  0  0
 11 12  2  0  0  0
 12 13  1  0  0  0
 13 14  2  0  0  0
 14 15  1  0  0  0
 15 16  2  0  0  0
  7  2  1  0  0  0
  2  3  2  0  0  0
  2  4  1  0  0  0
  4  1  1  0  0  0
  1 21  1  0  0  0
 21 22  1  0  0  0
 22 23  2  0  0  0
 23 24  1  0  0  0
 24 25  2  0  0  0
 25 26  1  0  0  0
 26 27  2  0  0  0
 25 28  1  0  0  0
 28 29  2  0  0  0
 29 30  1  0  0  0
 30 31  2  0  0  0
 31 32  1  0  0  0
 32 33  2  0  0  0
  1 17  1  0  0  0
 17 18  1  0  0  0
 17 19  2  0  0  0
 16 11  1  0  0  0
 27 22  1  0  0  0
 33 28  1  0  0  0
  6  8  1  0  0  0
  6  9  1  0  0  0
  4  5  1  0  0  0
 18 20  1  0  0  0
M  END
> <minimizedAffinity>
-9.35163

> <CNNscore>
0.2253619730

> <CNNaffinity>
6.3431820869

> <CNN_VS>
1.4295120239

> <CNNaffinity_variance>
0.0243485086

$$$$
[H]OC(=O)[C@@]([H])(N([H])C(=O)[C@@]([H])(N([H])[H])C([H])([H])c1c([H])c([H])c([H])c([H])c1[H])C([H])([H])c1c([H])c([H])c(-c2c([H])c([H])c([H])c([H])c2[H])c([H])c1[H]


 33 35  0  0  0  0  0  0  0  0999 V2000
   -3.9375   -7.2003    6.7904 C   0  0  0  0  0  0  0  0  0  0  0  0
   -6.4240   -7.7201    6.7372 C   0  0  0  0  0  0  0  0  0  0  0  0
   -6.4896   -7.4764    5.5121 O   0  0  0  0  0  0  0  0  0  0  0  0
   -5.1972   -7.5988    7.4130 N   0  0  0  0  0  0  0  0  0  0  0  0
   -5.1859   -7.8053    8.4222 H   0  0  0  0  0  0  0  0  0  0  0  0
   -7.4515   -8.5526    8.7911 N   0  0  0  0  0  0  0  0  0  0  0  0
   -7.6773   -8.1377    7.4410 C   0  0  0  0  0  0  0  0  0  0  0  0
   -6.7257   -9.2729    8.8955 H   0  0  0  0  0  0  0  0  0  0  0  0
   -7.3446   -7.7510    9.4576 H   0  0  0  0  0  0  0  0  0  0  0  0
   -8.6255   -6.9803    7.3910 C   0  0  0  0  0  0  0  0  0  0  0  0
   -9.9339   -7.2883    8.0243 C   0  0  0  0  0  0  0  0  0  0  0  0
  -10.4908   -6.4528    8.9670 C   0  0  0  0  0  0  0  0  0  0  0  0
  -11.7169   -6.7367    9.5640 C   0  0  0  0  0  0  0  0  0  0  0  0
  -12.4036   -7.8831    9.2108 C   0  0  0  0  0  0  0  0  0  0  0  0
  -11.8415   -8.7179    8.2654 C   0  0  0  0  0  0  0  0  0  0  0  0
  -10.6269   -8.4233    7.6832 C   0  0  0  0  0  0  0  0  0  0  0  0
   -2.8270   -8.0164    7.2435 C   0  0  0  0  0  0  0  0  0  0  0  0
   -1.9622   -7.7252    8.2774 O   0  0  0  0  0  0  0  0  0  0  0  0
   -2.6279   -9.1129    6.6179 O   0  0  0  0  0  0  0  0  0  0  0  0
   -1.4731   -8.3950    8.8285 H   0  0  0  0  0  0  0  0  0  0  0  0
   -3.7141   -5.7421    6.9143 C   0  0  0  0  0  0  0  0  0  0  0  0
   -3.4225   -5.0969    5.6274 C   0  0  0  0  0  0  0  0  0  0  0  0
   -4.0251   -3.9321    5.1768 C   0  0  0  0  0  0  0  0  0  0  0  0
   -3.7228   -3.3636    3.9573 C   0  0  0  0  0  0  0  0  0  0  0  0
   -2.7946   -3.9321    3.1144 C   0  0  0  0  0  0  0  0  0  0  0  0
   -2.1828   -5.0839    3.5337 C   0  0  0  0  0  0  0  0  0  0  0  0
   -2.4872   -5.6457    4.7484 C   0  0  0  0  0  0  0  0  0  0  0  0
   -2.4850   -3.3231    1.8326 C   0  0  0  0  0  0  0  0  0  0  0  0
   -1.6678   -3.9571    0.9312 C   0  0  0  0  0  0  0  0  0  0  0  0
   -1.3677   -3.3820   -0.2932 C   0  0  0  0  0  0  0  0  0  0  0  0
   -1.8875   -2.1514   -0.6341 C   0  0  0  0  0  0  0  0  0  0  0  0
   -2.7081   -1.5136    0.2706 C   0  0  0  0  0  0  0  0  0  0  0  0
   -3.0021   -2.0869    1.4805 C   0  0  0  0  0  0  0  0  0  0  0  0
  6  7  1  0  0  0
  7 10  1  0  0  0
 10 11  1  0  0  0
 11 12  2  0  0  0
 12 13  1  0  0  0
 13 14  2  0  0  0
 14 15  1  0  0  0
 15 16  2  0  0  0
  7  2  1  0  0  0
  2  3  2  0  0  0
  2  4  1  0  0  0
  4  1  1  0  0  0
  1 21  1  0  0  0
 21 22  1  0  0  0
 22 23  2  0  0  0
 23 24  1  0  0  0
 24 25  2  0  0  0
 25 26  1  0  0  0
 26 27  2  0  0  0
 25 28  1  0  0  0
 28 29  2  0  0  0
 29 30  1  0  0  0
 30 31  2  0  0  0
 31 32  1  0  0  0
 32 33  2  0  0  0
  1 17  1  0  0  0
 17 18  1  0  0  0
 17 19  2  0  0  0
 16 11  1  0  0  0
 27 22  1  0  0  0
 33 28  1  0  0  0
  6  8  1  0  0  0
  6  9  1  0  0  0
  4  5  1  0  0  0
 18 20  1  0  0  0
M  END
> <minimizedAffinity>
-6.65290

> <CNNscore>
0.2149748951

> <CNNaffinity>
4.9812073708

> <CNN_VS>
1.0708345175

> <CNNaffinity_variance>
0.1878968477

$$$$
[H]OC(=O)[C@@]1([H])N(C(=O)c2nn(-c3c([H])c([H])c(N4C([H])([H])C([H])([H])N(C([H])([H])[H])C([H])([H])C4([H])[H])c([H])c3[H])c(C3([H])c4c(O[H])c(O[H])c([H])c([H])c4C([H])([H])C3([H])[H])c2[H])C([H])([H])C([H])([H])C1([H])[H]


 42 47  0  0  0  0  0  0  0  0999 V2000
   -7.4896   -8.7204    5.8500 C   0  0  0  0  0  0  0  0  0  0  0  0
   -6.2307   -8.3611    5.5076 N   0  0  0  0  0  0  0  0  0  0  0  0
   -5.9939   -8.9344    4.3469 N   0  0  0  0  0  0  0  0  0  0  0  0
   -7.0090   -9.6543    3.8862 C   0  0  0  0  0  0  0  0  0  0  0  0
   -7.9965   -9.5270    4.8548 C   0  0  0  0  0  0  0  0  0  0  0  0
  -10.1453   -7.8179    8.1159 C   0  0  0  0  0  0  0  0  0  0  0  0
  -11.4563   -7.9573    8.4836 C   0  0  0  0  0  0  0  0  0  0  0  0
  -12.2369   -9.0001    8.0309 C   0  0  0  0  0  0  0  0  0  0  0  0
  -11.6570   -9.9245    7.1789 C   0  0  0  0  0  0  0  0  0  0  0  0
  -12.4240  -10.9915    6.7053 O   0  0  0  0  0  0  0  0  0  0  0  0
  -10.3329   -9.7757    6.8133 C   0  0  0  0  0  0  0  0  0  0  0  0
   -9.7744  -10.7290    5.9480 O   0  0  0  0  0  0  0  0  0  0  0  0
   -9.5403   -8.7396    7.2565 C   0  0  0  0  0  0  0  0  0  0  0  0
   -8.1512   -8.2988    7.0815 C   0  0  0  0  0  0  0  0  0  0  0  0
   -8.2914   -6.7772    7.2115 C   0  0  0  0  0  0  0  0  0  0  0  0
   -9.1542   -6.7596    8.4881 C   0  0  0  0  0  0  0  0  0  0  0  0
  -13.3832  -11.0593    6.9982 H   0  0  0  0  0  0  0  0  0  0  0  0
  -10.3250  -11.5040    5.6019 H   0  0  0  0  0  0  0  0  0  0  0  0
   -7.0977  -10.4153    2.6468 C   0  0  0  0  0  0  0  0  0  0  0  0
   -7.7235  -11.6496    2.4848 N   0  0  0  0  0  0  0  0  0  0  0  0
   -7.8030  -12.3634    1.2228 C   0  0  0  0  0  0  0  0  0  0  0  0
   -7.5603  -13.7940    1.6255 C   0  0  0  0  0  0  0  0  0  0  0  0
   -8.0707  -13.8754    3.0265 C   0  0  0  0  0  0  0  0  0  0  0  0
   -8.3939  -12.4544    3.4603 C   0  0  0  0  0  0  0  0  0  0  0  0
   -6.5418   -9.8832    1.6105 O   0  0  0  0  0  0  0  0  0  0  0  0
   -9.1510  -12.2705    0.6202 C   0  0  0  0  0  0  0  0  0  0  0  0
   -9.8168  -13.4601    0.3413 O   0  0  0  0  0  0  0  0  0  0  0  0
   -9.7333  -11.1935    0.3438 O   0  0  0  0  0  0  0  0  0  0  0  0
  -10.1965  -13.6283   -0.5907 H   0  0  0  0  0  0  0  0  0  0  0  0
   -5.3166   -7.5172    6.2479 C   0  0  0  0  0  0  0  0  0  0  0  0
   -5.1962   -6.1875    5.9158 C   0  0  0  0  0  0  0  0  0  0  0  0
   -4.3234   -5.3642    6.6221 C   0  0  0  0  0  0  0  0  0  0  0  0
   -3.5542   -5.8282    7.6653 C   0  0  0  0  0  0  0  0  0  0  0  0
   -3.6898   -7.1613    7.9814 C   0  0  0  0  0  0  0  0  0  0  0  0
   -4.5657   -7.9970    7.2750 C   0  0  0  0  0  0  0  0  0  0  0  0
   -2.7067   -4.9266    8.3469 N   0  0  0  0  0  0  0  0  0  0  0  0
   -2.5411   -5.0376    9.8038 C   0  0  0  0  0  0  0  0  0  0  0  0
   -3.1848   -3.7777   10.3612 C   0  0  0  0  0  0  0  0  0  0  0  0
   -2.4945   -2.6191    9.8250 N   0  0  0  0  0  0  0  0  0  0  0  0
   -1.1954   -2.5030   10.4259 C   0  0  0  0  0  0  0  0  0  0  0  0
   -2.4529   -2.5675    8.4016 C   0  0  0  0  0  0  0  0  0  0  0  0
   -1.9687   -3.8448    7.7410 C   0  0  0  0  0  0  0  0  0  0  0  0
  6  7  2  0  0  0
  7  8  1  0  0  0
  8  9  2  0  0  0
  9 10  1  0  0  0
  9 11  1  0  0  0
 11 12  1  0  0  0
 11 13  2  0  0  0
 13 14  1  0  0  0
 14  1  1  0  0  0
  1  2  1  0  0  0
  2 30  1  0  0  0
 30 31  2  0  0  0
 31 32  1  0  0  0
 32 33  2  0  0  0
 33 36  1  0  0  0
 36 37  1  0  0  0
 37 38  1  0  0  0
 38 39  1  0  0  0
 39 40  1  0  0  0
 39 41  1  0  0  0
 41 42  1  0  0  0
 33 34  1  0  0  0
 34 35  2  0  0  0
  2  3  1  0  0  0
  3  4  2  0  0  0
  4 19  1  0  0  0
 19 20  1  0  0  0
 20 21  1  0  0  0
 21 26  1  0  0  0
 26 27  1  0  0  0
 26 28  2  0  0  0
 21 22  1  0  0  0
 22 23  1  0  0  0
 23 24  1  0  0  0
 19 25  2  0  0  0
  4  5  1  0  0  0
 14 15  1  0  0  0
 15 16  1  0  0  0
 13  6  1  0  0  0
  5  1  2  0  0  0
 16  6  1  0  0  0
 35 30  1  0  0  0
 42 36  1  0  0  0
 24 20  1  0  0  0
 10 17  1  0  0  0
 12 18  1  0  0  0
 27 29  1  0  0  0
M  END
> <minimizedAffinity>
7.40342

> <CNNscore>
0.5415531397

> <CNNaffinity>
6.8010835648

> <CNN_VS>
3.6831481457

> <CNNaffinity_variance>
0.4455045164

$$$$
[H]OC(=O)[C@@]1([H])N(C(=O)c2nn(-c3c([H])c([H])c(N4C([H])([H])C([H])([H])N(C([H])([H])[H])C([H])([H])C4([H])[H])c([H])c3[H])c(C3([H])c4c(O[H])c(O[H])c([H])c([H])c4C([H])([H])C3([H])[H])c2[H])C([H])([H])C([H])([H])C1([H])[H]


 42 47  0  0  0  0  0  0  0  0999 V2000
   -2.6446   -4.0572    5.5414 C   0  0  0  0  0  0  0  0  0  0  0  0
   -2.2096   -2.8300    5.9103 N   0  0  0  0  0  0  0  0  0  0  0  0
   -2.0264   -2.1601    4.7925 N   0  0  0  0  0  0  0  0  0  0  0  0
   -2.3094   -2.8541    3.6975 C   0  0  0  0  0  0  0  0  0  0  0  0
   -2.7154   -4.0971    4.1661 C   0  0  0  0  0  0  0  0  0  0  0  0
   -3.6046   -7.3161    6.7497 C   0  0  0  0  0  0  0  0  0  0  0  0
   -3.6307   -8.6693    6.5459 C   0  0  0  0  0  0  0  0  0  0  0  0
   -2.8215   -9.2855    5.6148 C   0  0  0  0  0  0  0  0  0  0  0  0
   -1.9622   -8.4924    4.8735 C   0  0  0  0  0  0  0  0  0  0  0  0
   -1.1304   -9.0899    3.9236 O   0  0  0  0  0  0  0  0  0  0  0  0
   -1.9426   -7.1273    5.0862 C   0  0  0  0  0  0  0  0  0  0  0  0
   -1.0611   -6.3508    4.3184 O   0  0  0  0  0  0  0  0  0  0  0  0
   -2.7449   -6.4970    6.0119 C   0  0  0  0  0  0  0  0  0  0  0  0
   -2.9675   -5.1249    6.4836 C   0  0  0  0  0  0  0  0  0  0  0  0
   -4.4498   -5.1694    6.8745 C   0  0  0  0  0  0  0  0  0  0  0  0
   -4.4065   -6.4744    7.6927 C   0  0  0  0  0  0  0  0  0  0  0  0
   -1.1790  -10.0867    3.8034 H   0  0  0  0  0  0  0  0  0  0  0  0
   -0.4562   -6.7781    3.6291 H   0  0  0  0  0  0  0  0  0  0  0  0
   -2.2253   -2.4332    2.3050 C   0  0  0  0  0  0  0  0  0  0  0  0
   -3.2747   -2.4147    1.3886 N   0  0  0  0  0  0  0  0  0  0  0  0
   -3.1473   -1.9682    0.0128 C   0  0  0  0  0  0  0  0  0  0  0  0
   -3.9766   -2.9690   -0.7475 C   0  0  0  0  0  0  0  0  0  0  0  0
   -5.0204   -3.4019    0.2285 C   0  0  0  0  0  0  0  0  0  0  0  0
   -4.6393   -2.8051    1.5740 C   0  0  0  0  0  0  0  0  0  0  0  0
   -1.0648   -2.0422    1.8972 O   0  0  0  0  0  0  0  0  0  0  0  0
   -3.7354   -0.6256   -0.1884 C   0  0  0  0  0  0  0  0  0  0  0  0
   -3.0068    0.2924   -0.9385 O   0  0  0  0  0  0  0  0  0  0  0  0
   -4.8447   -0.2595    0.2709 O   0  0  0  0  0  0  0  0  0  0  0  0
   -2.8132    1.2214   -0.5636 H   0  0  0  0  0  0  0  0  0  0  0  0
   -1.9886   -2.3336    7.2520 C   0  0  0  0  0  0  0  0  0  0  0  0
   -1.9469   -0.9771    7.4783 C   0  0  0  0  0  0  0  0  0  0  0  0
   -1.7385   -0.4865    8.7645 C   0  0  0  0  0  0  0  0  0  0  0  0
   -1.5681   -1.3149    9.8508 C   0  0  0  0  0  0  0  0  0  0  0  0
   -1.6134   -2.6683    9.6026 C   0  0  0  0  0  0  0  0  0  0  0  0
   -1.8220   -3.1704    8.3108 C   0  0  0  0  0  0  0  0  0  0  0  0
   -1.3815   -0.7415   11.1284 N   0  0  0  0  0  0  0  0  0  0  0  0
   -1.0769   -1.6040   12.2798 C   0  0  0  0  0  0  0  0  0  0  0  0
   -2.3039   -1.5016   13.1724 C   0  0  0  0  0  0  0  0  0  0  0  0
   -2.4850   -0.1166   13.5668 N   0  0  0  0  0  0  0  0  0  0  0  0
   -1.4741    0.2574   14.5156 C   0  0  0  0  0  0  0  0  0  0  0  0
   -2.5863    0.7956   12.4769 C   0  0  0  0  0  0  0  0  0  0  0  0
   -1.4838    0.6630   11.4428 C   0  0  0  0  0  0  0  0  0  0  0  0
  6  7  2  0  0  0
  7  8  1  0  0  0
  8  9  2  0  0  0
  9 10  1  0  0  0
  9 11  1  0  0  0
 11 12  1  0  0  0
 11 13  2  0  0  0
 13 14  1  0  0  0
 14  1  1  0  0  0
  1  2  1  0  0  0
  2 30  1  0  0  0
 30 31  2  0  0  0
 31 32  1  0  0  0
 32 33  2  0  0  0
 33 36  1  0  0  0
 36 37  1  0  0  0
 37 38  1  0  0  0
 38 39  1  0  0  0
 39 40  1  0  0  0
 39 41  1  0  0  0
 41 42  1  0  0  0
 33 34  1  0  0  0
 34 35  2  0  0  0
  2  3  1  0  0  0
  3  4  2  0  0  0
  4 19  1  0  0  0
 19 20  1  0  0  0
 20 21  1  0  0  0
 21 26  1  0  0  0
 26 27  1  0  0  0
 26 28  2  0  0  0
 21 22  1  0  0  0
 22 23  1  0  0  0
 23 24  1  0  0  0
 19 25  2  0  0  0
  4  5  1  0  0  0
 14 15  1  0  0  0
 15 16  1  0  0  0
 13  6  1  0  0  0
  5  1  2  0  0  0
 16  6  1  0  0  0
 35 30  1  0  0  0
 42 36  1  0  0  0
 24 20  1  0  0  0
 10 17  1  0  0  0
 12 18  1  0  0  0
 27 29  1  0  0  0
M  END
> <minimizedAffinity>
-2.61098

> <CNNscore>
0.4250431061

> <CNNaffinity>
6.1546616554

> <CNN_VS>
2.6159965992

> <CNNaffinity_variance>
1.2125387192

$$$$
[H]OC(=O)[C@@]1([H])N(C(=O)c2nn(-c3c([H])c([H])c(N4C([H])([H])C([H])([H])N(C([H])([H])[H])C([H])([H])C4([H])[H])c([H])c3[H])c(C3([H])c4c(O[H])c(O[H])c([H])c([H])c4C([H])([H])C3([H])[H])c2[H])C([H])([H])C([H])([H])C1([H])[H]


 42 47  0  0  0  0  0  0  0  0999 V2000
  -14.0687   -7.4122    8.7957 C   0  0  0  0  0  0  0  0  0  0  0  0
  -13.2132   -7.4747    7.7491 N   0  0  0  0  0  0  0  0  0  0  0  0
  -13.9528   -7.3408    6.6688 N   0  0  0  0  0  0  0  0  0  0  0  0
  -15.2474   -7.1922    6.9191 C   0  0  0  0  0  0  0  0  0  0  0  0
  -15.3435   -7.2361    8.3041 C   0  0  0  0  0  0  0  0  0  0  0  0
  -12.1323   -6.9001   11.7940 C   0  0  0  0  0  0  0  0  0  0  0  0
  -11.3058   -6.0839   12.5179 C   0  0  0  0  0  0  0  0  0  0  0  0
  -11.1806   -4.7384   12.2427 C   0  0  0  0  0  0  0  0  0  0  0  0
  -11.9237   -4.2164   11.1976 C   0  0  0  0  0  0  0  0  0  0  0  0
  -11.8172   -2.8565   10.8968 O   0  0  0  0  0  0  0  0  0  0  0  0
  -12.7555   -5.0480   10.4726 C   0  0  0  0  0  0  0  0  0  0  0  0
  -13.4950   -4.4888    9.4190 O   0  0  0  0  0  0  0  0  0  0  0  0
  -12.8910   -6.3937   10.7347 C   0  0  0  0  0  0  0  0  0  0  0  0
  -13.6574   -7.5221   10.1924 C   0  0  0  0  0  0  0  0  0  0  0  0
  -12.7091   -8.6970   10.4612 C   0  0  0  0  0  0  0  0  0  0  0  0
  -12.3881   -8.3685   11.9320 C   0  0  0  0  0  0  0  0  0  0  0  0
  -11.1994   -2.2901   11.4516 H   0  0  0  0  0  0  0  0  0  0  0  0
  -13.4221   -3.5045    9.1967 H   0  0  0  0  0  0  0  0  0  0  0  0
  -16.3437   -7.0178    5.9751 C   0  0  0  0  0  0  0  0  0  0  0  0
  -16.6996   -7.9017    4.9586 N   0  0  0  0  0  0  0  0  0  0  0  0
  -17.8144   -7.6942    4.0517 C   0  0  0  0  0  0  0  0  0  0  0  0
  -17.2614   -8.1430    2.7249 C   0  0  0  0  0  0  0  0  0  0  0  0
  -16.2449   -9.1779    3.0791 C   0  0  0  0  0  0  0  0  0  0  0  0
  -16.0910   -9.1441    4.5914 C   0  0  0  0  0  0  0  0  0  0  0  0
  -17.0422   -5.9404    6.1061 O   0  0  0  0  0  0  0  0  0  0  0  0
  -18.9694   -8.5543    4.3909 C   0  0  0  0  0  0  0  0  0  0  0  0
  -18.8120   -9.4661    5.4302 O   0  0  0  0  0  0  0  0  0  0  0  0
  -20.0792   -8.5173    3.8058 O   0  0  0  0  0  0  0  0  0  0  0  0
  -19.0369  -10.4509    5.2861 H   0  0  0  0  0  0  0  0  0  0  0  0
  -11.7764   -7.6479    7.7868 C   0  0  0  0  0  0  0  0  0  0  0  0
  -10.9820   -6.6432    8.2895 C   0  0  0  0  0  0  0  0  0  0  0  0
   -9.5992   -6.7985    8.3347 C   0  0  0  0  0  0  0  0  0  0  0  0
   -8.9706   -7.9395    7.8894 C   0  0  0  0  0  0  0  0  0  0  0  0
   -9.7836   -8.9323    7.3906 C   0  0  0  0  0  0  0  0  0  0  0  0
  -11.1765   -8.7837    7.3409 C   0  0  0  0  0  0  0  0  0  0  0  0
   -7.5642   -8.0307    7.9869 N   0  0  0  0  0  0  0  0  0  0  0  0
   -6.8086   -6.9731    8.6744 C   0  0  0  0  0  0  0  0  0  0  0  0
   -5.9990   -6.3025    7.5755 C   0  0  0  0  0  0  0  0  0  0  0  0
   -5.1219   -7.2871    6.9689 N   0  0  0  0  0  0  0  0  0  0  0  0
   -4.0576   -7.6172    7.8747 C   0  0  0  0  0  0  0  0  0  0  0  0
   -5.7929   -8.4366    6.4603 C   0  0  0  0  0  0  0  0  0  0  0  0
   -6.7504   -9.0892    7.4399 C   0  0  0  0  0  0  0  0  0  0  0  0
  6  7  2  0  0  0
  7  8  1  0  0  0
  8  9  2  0  0  0
  9 10  1  0  0  0
  9 11  1  0  0  0
 11 12  1  0  0  0
 11 13  2  0  0  0
 13 14  1  0  0  0
 14  1  1  0  0  0
  1  2  1  0  0  0
  2 30  1  0  0  0
 30 31  2  0  0  0
 31 32  1  0  0  0
 32 33  2  0  0  0
 33 36  1  0  0  0
 36 37  1  0  0  0
 37 38  1  0  0  0
 38 39  1  0  0  0
 39 40  1  0  0  0
 39 41  1  0  0  0
 41 42  1  0  0  0
 33 34  1  0  0  0
 34 35  2  0  0  0
  2  3  1  0  0  0
  3  4  2  0  0  0
  4 19  1  0  0  0
 19 20  1  0  0  0
 20 21  1  0  0  0
 21 26  1  0  0  0
 26 27  1  0  0  0
 26 28  2  0  0  0
 21 22  1  0  0  0
 22 23  1  0  0  0
 23 24  1  0  0  0
 19 25  2  0  0  0
  4  5  1  0  0  0
 14 15  1  0  0  0
 15 16  1  0  0  0
 13  6  1  0  0  0
  5  1  2  0  0  0
 16  6  1  0  0  0
 35 30  1  0  0  0
 42 36  1  0  0  0
 24 20  1  0  0  0
 10 17  1  0  0  0
 12 18  1  0  0  0
 27 29  1  0  0  0
M  END
> <minimizedAffinity>
9.64184

> <CNNscore>
0.4147358537

> <CNNaffinity>
7.3225007057

> <CNN_VS>
3.0369036198

> <CNNaffinity_variance>
0.7379651070

$$$$
[H]OC(=O)[C@@]1([H])N(C(=O)c2nn(-c3c([H])c([H])c(N4C([H])([H])C([H])([H])N(C([H])([H])[H])C([H])([H])C4([H])[H])c([H])c3[H])c(C3([H])c4c(O[H])c(O[H])c([H])c([H])c4C([H])([H])C3([H])[H])c2[H])C([H])([H])C([H])([H])C1([H])[H]


 42 47  0  0  0  0  0  0  0  0999 V2000
  -10.9590   -7.2578    9.2910 C   0  0  0  0  0  0  0  0  0  0  0  0
  -11.1006   -7.3481    7.9482 N   0  0  0  0  0  0  0  0  0  0  0  0
   -9.8812   -7.4352    7.4609 N   0  0  0  0  0  0  0  0  0  0  0  0
   -8.9299   -7.4100    8.3857 C   0  0  0  0  0  0  0  0  0  0  0  0
   -9.6144   -7.2945    9.5889 C   0  0  0  0  0  0  0  0  0  0  0  0
  -14.3530   -7.2688   10.5084 C   0  0  0  0  0  0  0  0  0  0  0  0
  -15.6254   -7.7607   10.3974 C   0  0  0  0  0  0  0  0  0  0  0  0
  -15.9072   -8.9096    9.6887 C   0  0  0  0  0  0  0  0  0  0  0  0
  -14.8556   -9.5717    9.0782 C   0  0  0  0  0  0  0  0  0  0  0  0
  -15.1117  -10.7385    8.3542 O   0  0  0  0  0  0  0  0  0  0  0  0
  -13.5745   -9.0677    9.1959 C   0  0  0  0  0  0  0  0  0  0  0  0
  -12.5302   -9.7615    8.5651 O   0  0  0  0  0  0  0  0  0  0  0  0
  -13.2770   -7.9214    9.8997 C   0  0  0  0  0  0  0  0  0  0  0  0
  -12.0772   -7.1398   10.2225 C   0  0  0  0  0  0  0  0  0  0  0  0
  -12.6494   -5.7200   10.3159 C   0  0  0  0  0  0  0  0  0  0  0  0
  -13.8580   -6.0454   11.2147 C   0  0  0  0  0  0  0  0  0  0  0  0
  -16.0597  -11.0678    8.2959 H   0  0  0  0  0  0  0  0  0  0  0  0
  -12.7097  -10.6071    8.0396 H   0  0  0  0  0  0  0  0  0  0  0  0
   -7.4856   -7.4868    8.2092 C   0  0  0  0  0  0  0  0  0  0  0  0
   -6.7646   -6.9983    7.1216 N   0  0  0  0  0  0  0  0  0  0  0  0
   -5.3203   -7.0813    6.9979 C   0  0  0  0  0  0  0  0  0  0  0  0
   -5.1230   -7.4327    5.5470 C   0  0  0  0  0  0  0  0  0  0  0  0
   -6.3032   -6.8317    4.8573 C   0  0  0  0  0  0  0  0  0  0  0  0
   -7.2453   -6.3403    5.9449 C   0  0  0  0  0  0  0  0  0  0  0  0
   -6.8256   -8.0623    9.1576 O   0  0  0  0  0  0  0  0  0  0  0  0
   -4.6685   -5.7783    7.2554 C   0  0  0  0  0  0  0  0  0  0  0  0
   -3.6787   -5.3653    6.3688 O   0  0  0  0  0  0  0  0  0  0  0  0
   -4.9472   -5.0220    8.2175 O   0  0  0  0  0  0  0  0  0  0  0  0
   -2.7637   -5.0804    6.7191 H   0  0  0  0  0  0  0  0  0  0  0  0
  -12.3303   -7.3542    7.1843 C   0  0  0  0  0  0  0  0  0  0  0  0
  -13.4510   -6.7388    7.6925 C   0  0  0  0  0  0  0  0  0  0  0  0
  -14.6390   -6.7344    6.9665 C   0  0  0  0  0  0  0  0  0  0  0  0
  -14.7500   -7.3315    5.7310 C   0  0  0  0  0  0  0  0  0  0  0  0
  -13.6172   -7.9413    5.2409 C   0  0  0  0  0  0  0  0  0  0  0  0
  -12.4175   -7.9508    5.9656 C   0  0  0  0  0  0  0  0  0  0  0  0
  -15.9841   -7.2674    5.0463 N   0  0  0  0  0  0  0  0  0  0  0  0
  -17.1147   -6.5407    5.6428 C   0  0  0  0  0  0  0  0  0  0  0  0
  -18.1369   -7.6189    5.9671 C   0  0  0  0  0  0  0  0  0  0  0  0
  -18.5150   -8.2940    4.7392 N   0  0  0  0  0  0  0  0  0  0  0  0
  -19.3347   -7.4286    3.9383 C   0  0  0  0  0  0  0  0  0  0  0  0
  -17.4214   -8.8487    4.0136 C   0  0  0  0  0  0  0  0  0  0  0  0
  -16.2734   -7.8857    3.7750 C   0  0  0  0  0  0  0  0  0  0  0  0
  6  7  2  0  0  0
  7  8  1  0  0  0
  8  9  2  0  0  0
  9 10  1  0  0  0
  9 11  1  0  0  0
 11 12  1  0  0  0
 11 13  2  0  0  0
 13 14  1  0  0  0
 14  1  1  0  0  0
  1  2  1  0  0  0
  2 30  1  0  0  0
 30 31  2  0  0  0
 31 32  1  0  0  0
 32 33  2  0  0  0
 33 36  1  0  0  0
 36 37  1  0  0  0
 37 38  1  0  0  0
 38 39  1  0  0  0
 39 40  1  0  0  0
 39 41  1  0  0  0
 41 42  1  0  0  0
 33 34  1  0  0  0
 34 35  2  0  0  0
  2  3  1  0  0  0
  3  4  2  0  0  0
  4 19  1  0  0  0
 19 20  1  0  0  0
 20 21  1  0  0  0
 21 26  1  0  0  0
 26 27  1  0  0  0
 26 28  2  0  0  0
 21 22  1  0  0  0
 22 23  1  0  0  0
 23 24  1  0  0  0
 19 25  2  0  0  0
  4  5  1  0  0  0
 14 15  1  0  0  0
 15 16  1  0  0  0
 13  6  1  0  0  0
  5  1  2  0  0  0
 16  6  1  0  0  0
 35 30  1  0  0  0
 42 36  1  0  0  0
 24 20  1  0  0  0
 10 17  1  0  0  0
 12 18  1  0  0  0
 27 29  1  0  0  0
M  END
> <minimizedAffinity>
3.08673

> <CNNscore>
0.3488825560

> <CNNaffinity>
7.3775696754

> <CNN_VS>
2.5739054680

> <CNNaffinity_variance>
0.8899617195

$$$$
[H]OC(=O)[C@@]1([H])N(C(=O)c2nn(-c3c([H])c([H])c(N4C([H])([H])C([H])([H])N(C([H])([H])[H])C([H])([H])C4([H])[H])c([H])c3[H])c(C3([H])c4c(O[H])c(O[H])c([H])c([H])c4C([H])([H])C3([H])[H])c2[H])C([H])([H])C([H])([H])C1([H])[H]


 42 47  0  0  0  0  0  0  0  0999 V2000
   -4.6011   -7.9880    6.9338 C   0  0  0  0  0  0  0  0  0  0  0  0
   -5.4169   -8.9809    7.3580 N   0  0  0  0  0  0  0  0  0  0  0  0
   -4.6322  -10.0004    7.6351 N   0  0  0  0  0  0  0  0  0  0  0  0
   -3.3442   -9.7593    7.4260 C   0  0  0  0  0  0  0  0  0  0  0  0
   -3.3032   -8.4488    6.9674 C   0  0  0  0  0  0  0  0  0  0  0  0
   -4.4872   -4.5204    5.9519 C   0  0  0  0  0  0  0  0  0  0  0  0
   -3.7906   -3.5041    5.3559 C   0  0  0  0  0  0  0  0  0  0  0  0
   -2.7065   -3.7409    4.5372 C   0  0  0  0  0  0  0  0  0  0  0  0
   -2.3275   -5.0553    4.3238 C   0  0  0  0  0  0  0  0  0  0  0  0
   -1.2333   -5.3248    3.4984 O   0  0  0  0  0  0  0  0  0  0  0  0
   -3.0367   -6.0747    4.9295 C   0  0  0  0  0  0  0  0  0  0  0  0
   -2.6272   -7.3962    4.6939 O   0  0  0  0  0  0  0  0  0  0  0  0
   -4.1212   -5.8544    5.7501 C   0  0  0  0  0  0  0  0  0  0  0  0
   -5.0701   -6.6691    6.5185 C   0  0  0  0  0  0  0  0  0  0  0  0
   -5.3973   -5.7377    7.6920 C   0  0  0  0  0  0  0  0  0  0  0  0
   -5.6669   -4.4616    6.8714 C   0  0  0  0  0  0  0  0  0  0  0  0
   -0.7476   -4.5511    3.0789 H   0  0  0  0  0  0  0  0  0  0  0  0
   -1.8357   -7.5974    4.0968 H   0  0  0  0  0  0  0  0  0  0  0  0
   -2.2068  -10.6480    7.6258 C   0  0  0  0  0  0  0  0  0  0  0  0
   -2.2493  -11.9205    8.1919 N   0  0  0  0  0  0  0  0  0  0  0  0
   -1.0898  -12.7794    8.3538 C   0  0  0  0  0  0  0  0  0  0  0  0
   -1.3015  -13.3829    9.7170 C   0  0  0  0  0  0  0  0  0  0  0  0
   -2.7853  -13.4114    9.8824 C   0  0  0  0  0  0  0  0  0  0  0  0
   -3.3732  -12.6372    8.7133 C   0  0  0  0  0  0  0  0  0  0  0  0
   -1.0600  -10.2022    7.2357 O   0  0  0  0  0  0  0  0  0  0  0  0
   -1.0694  -13.8728    7.3573 C   0  0  0  0  0  0  0  0  0  0  0  0
   -1.0601  -13.5195    6.0115 O   0  0  0  0  0  0  0  0  0  0  0  0
   -1.0601  -15.0949    7.6434 O   0  0  0  0  0  0  0  0  0  0  0  0
   -1.7490  -13.9177    5.3727 H   0  0  0  0  0  0  0  0  0  0  0  0
   -6.8580   -8.9488    7.4918 C   0  0  0  0  0  0  0  0  0  0  0  0
   -7.4659   -7.8489    8.0519 C   0  0  0  0  0  0  0  0  0  0  0  0
   -8.8512   -7.8038    8.1832 C   0  0  0  0  0  0  0  0  0  0  0  0
   -9.6649   -8.8338    7.7681 C   0  0  0  0  0  0  0  0  0  0  0  0
   -9.0367   -9.9245    7.2104 C   0  0  0  0  0  0  0  0  0  0  0  0
   -7.6427   -9.9782    7.0752 C   0  0  0  0  0  0  0  0  0  0  0  0
  -11.0640   -8.7055    7.9164 N   0  0  0  0  0  0  0  0  0  0  0  0
  -11.8764   -8.2136    6.7939 C   0  0  0  0  0  0  0  0  0  0  0  0
  -12.3968   -6.8624    7.2589 C   0  0  0  0  0  0  0  0  0  0  0  0
  -13.1904   -7.0510    8.4594 N   0  0  0  0  0  0  0  0  0  0  0  0
  -14.4379   -7.6797    8.1266 C   0  0  0  0  0  0  0  0  0  0  0  0
  -12.5034   -7.7102    9.5195 C   0  0  0  0  0  0  0  0  0  0  0  0
  -11.8129   -8.9991    9.1143 C   0  0  0  0  0  0  0  0  0  0  0  0
  6  7  2  0  0  0
  7  8  1  0  0  0
  8  9  2  0  0  0
  9 10  1  0  0  0
  9 11  1  0  0  0
 11 12  1  0  0  0
 11 13  2  0  0  0
 13 14  1  0  0  0
 14  1  1  0  0  0
  1  2  1  0  0  0
  2 30  1  0  0  0
 30 31  2  0  0  0
 31 32  1  0  0  0
 32 33  2  0  0  0
 33 36  1  0  0  0
 36 37  1  0  0  0
 37 38  1  0  0  0
 38 39  1  0  0  0
 39 40  1  0  0  0
 39 41  1  0  0  0
 41 42  1  0  0  0
 33 34  1  0  0  0
 34 35  2  0  0  0
  2  3  1  0  0  0
  3  4  2  0  0  0
  4 19  1  0  0  0
 19 20  1  0  0  0
 20 21  1  0  0  0
 21 26  1  0  0  0
 26 27  1  0  0  0
 26 28  2  0  0  0
 21 22  1  0  0  0
 22 23  1  0  0  0
 23 24  1  0  0  0
 19 25  2  0  0  0
  4  5  1  0  0  0
 14 15  1  0  0  0
 15 16  1  0  0  0
 13  6  1  0  0  0
  5  1  2  0  0  0
 16  6  1  0  0  0
 35 30  1  0  0  0
 42 36  1  0  0  0
 24 20  1  0  0  0
 10 17  1  0  0  0
 12 18  1  0  0  0
 27 29  1  0  0  0
M  END
> <minimizedAffinity>
5.65571

> <CNNscore>
0.3377507627

> <CNNaffinity>
6.5452399254

> <CNN_VS>
2.2106597424

> <CNNaffinity_variance>
1.1157240868

$$$$
[H]OC(=O)[C@@]1([H])N(C(=O)c2nn(-c3c([H])c([H])c(N4C([H])([H])C([H])([H])N(C([H])([H])[H])C([H])([H])C4([H])[H])c([H])c3[H])c(C3([H])c4c(O[H])c(O[H])c([H])c([H])c4C([H])([H])C3([H])[H])c2[H])C([H])([H])C([H])([H])C1([H])[H]


 42 47  0  0  0  0  0  0  0  0999 V2000
  -10.2521   -6.8112    8.9393 C   0  0  0  0  0  0  0  0  0  0  0  0
  -10.6092   -7.5866    7.8892 N   0  0  0  0  0  0  0  0  0  0  0  0
   -9.4980   -8.1427    7.4558 N   0  0  0  0  0  0  0  0  0  0  0  0
   -8.4185   -7.7936    8.1440 C   0  0  0  0  0  0  0  0  0  0  0  0
   -8.8908   -6.9235    9.1184 C   0  0  0  0  0  0  0  0  0  0  0  0
  -12.0957   -5.5855   11.7854 C   0  0  0  0  0  0  0  0  0  0  0  0
  -12.1419   -5.3764   13.1373 C   0  0  0  0  0  0  0  0  0  0  0  0
  -11.0086   -5.4083   13.9224 C   0  0  0  0  0  0  0  0  0  0  0  0
   -9.7959   -5.6607   13.3041 C   0  0  0  0  0  0  0  0  0  0  0  0
   -8.6314   -5.6981   14.0747 O   0  0  0  0  0  0  0  0  0  0  0  0
   -9.7590   -5.8703   11.9388 C   0  0  0  0  0  0  0  0  0  0  0  0
   -8.5145   -6.1243   11.3420 O   0  0  0  0  0  0  0  0  0  0  0  0
  -10.8819   -5.8422   11.1412 C   0  0  0  0  0  0  0  0  0  0  0  0
  -11.1918   -6.0076    9.7160 C   0  0  0  0  0  0  0  0  0  0  0  0
  -12.6042   -6.6023    9.7741 C   0  0  0  0  0  0  0  0  0  0  0  0
  -13.2056   -5.6030   10.7812 C   0  0  0  0  0  0  0  0  0  0  0  0
   -8.7067   -5.5396   15.0645 H   0  0  0  0  0  0  0  0  0  0  0  0
   -7.6678   -6.1524   11.8951 H   0  0  0  0  0  0  0  0  0  0  0  0
   -7.0372   -8.2137    7.9471 C   0  0  0  0  0  0  0  0  0  0  0  0
   -6.0236   -7.4547    7.3659 N   0  0  0  0  0  0  0  0  0  0  0  0
   -4.6538   -7.9095    7.2075 C   0  0  0  0  0  0  0  0  0  0  0  0
   -4.2865   -7.4107    5.8350 C   0  0  0  0  0  0  0  0  0  0  0  0
   -5.1192   -6.1847    5.6521 C   0  0  0  0  0  0  0  0  0  0  0  0
   -6.0875   -6.1318    6.8232 C   0  0  0  0  0  0  0  0  0  0  0  0
   -6.7392   -9.4013    8.3557 O   0  0  0  0  0  0  0  0  0  0  0  0
   -3.7458   -7.2798    8.1914 C   0  0  0  0  0  0  0  0  0  0  0  0
   -2.4157   -7.6884    8.1961 O   0  0  0  0  0  0  0  0  0  0  0  0
   -4.0936   -6.4039    9.0204 O   0  0  0  0  0  0  0  0  0  0  0  0
   -1.9777   -7.9968    9.0645 H   0  0  0  0  0  0  0  0  0  0  0  0
  -11.9348   -7.7824    7.3414 C   0  0  0  0  0  0  0  0  0  0  0  0
  -12.6779   -6.6928    6.9496 C   0  0  0  0  0  0  0  0  0  0  0  0
  -13.9527   -6.8676    6.4180 C   0  0  0  0  0  0  0  0  0  0  0  0
  -14.5215   -8.1113    6.2603 C   0  0  0  0  0  0  0  0  0  0  0  0
  -13.7613   -9.1879    6.6584 C   0  0  0  0  0  0  0  0  0  0  0  0
  -12.4773   -9.0206    7.1951 C   0  0  0  0  0  0  0  0  0  0  0  0
  -15.8122   -8.2089    5.6943 N   0  0  0  0  0  0  0  0  0  0  0  0
  -15.9732   -8.7155    4.3233 C   0  0  0  0  0  0  0  0  0  0  0  0
  -16.4659   -7.5178    3.5261 C   0  0  0  0  0  0  0  0  0  0  0  0
  -17.7256   -7.0647    4.0869 N   0  0  0  0  0  0  0  0  0  0  0  0
  -18.7668   -8.0011    3.7690 C   0  0  0  0  0  0  0  0  0  0  0  0
  -17.6700   -6.7483    5.4751 C   0  0  0  0  0  0  0  0  0  0  0  0
  -17.0446   -7.8268    6.3401 C   0  0  0  0  0  0  0  0  0  0  0  0
  6  7  2  0  0  0
  7  8  1  0  0  0
  8  9  2  0  0  0
  9 10  1  0  0  0
  9 11  1  0  0  0
 11 12  1  0  0  0
 11 13  2  0  0  0
 13 14  1  0  0  0
 14  1  1  0  0  0
  1  2  1  0  0  0
  2 30  1  0  0  0
 30 31  2  0  0  0
 31 32  1  0  0  0
 32 33  2  0  0  0
 33 36  1  0  0  0
 36 37  1  0  0  0
 37 38  1  0  0  0
 38 39  1  0  0  0
 39 40  1  0  0  0
 39 41  1  0  0  0
 41 42  1  0  0  0
 33 34  1  0  0  0
 34 35  2  0  0  0
  2  3  1  0  0  0
  3  4  2  0  0  0
  4 19  1  0  0  0
 19 20  1  0  0  0
 20 21  1  0  0  0
 21 26  1  0  0  0
 26 27  1  0  0  0
 26 28  2  0  0  0
 21 22  1  0  0  0
 22 23  1  0  0  0
 23 24  1  0  0  0
 19 25  2  0  0  0
  4  5  1  0  0  0
 14 15  1  0  0  0
 15 16  1  0  0  0
 13  6  1  0  0  0
  5  1  2  0  0  0
 16  6  1  0  0  0
 35 30  1  0  0  0
 42 36  1  0  0  0
 24 20  1  0  0  0
 10 17  1  0  0  0
 12 18  1  0  0  0
 27 29  1  0  0  0
M  END
> <minimizedAffinity>
1.17154

> <CNNscore>
0.3230114877

> <CNNaffinity>
7.1765770912

> <CNN_VS>
2.3181169033

> <CNNaffinity_variance>
0.3558995128

$$$$
[H]OC(=O)[C@@]1([H])N(C(=O)c2nn(-c3c([H])c([H])c(N4C([H])([H])C([H])([H])N(C([H])([H])[H])C([H])([H])C4([H])[H])c([H])c3[H])c(C3([H])c4c(O[H])c(O[H])c([H])c([H])c4C([H])([H])C3([H])[H])c2[H])C([H])([H])C([H])([H])C1([H])[H]


 42 47  0  0  0  0  0  0  0  0999 V2000
   -6.0516   -7.5850    7.2897 C   0  0  0  0  0  0  0  0  0  0  0  0
   -6.7345   -6.5504    7.8324 N   0  0  0  0  0  0  0  0  0  0  0  0
   -5.9091   -5.5255    7.8192 N   0  0  0  0  0  0  0  0  0  0  0  0
   -4.7179   -5.8015    7.3038 C   0  0  0  0  0  0  0  0  0  0  0  0
   -4.7912   -7.1432    6.9517 C   0  0  0  0  0  0  0  0  0  0  0  0
   -8.4357  -10.2889    7.3706 C   0  0  0  0  0  0  0  0  0  0  0  0
   -9.7452  -10.6846    7.3284 C   0  0  0  0  0  0  0  0  0  0  0  0
  -10.7468   -9.8545    6.8709 C   0  0  0  0  0  0  0  0  0  0  0  0
  -10.3955   -8.5849    6.4448 C   0  0  0  0  0  0  0  0  0  0  0  0
  -11.3894   -7.7228    5.9757 O   0  0  0  0  0  0  0  0  0  0  0  0
   -9.0710   -8.1942    6.4910 C   0  0  0  0  0  0  0  0  0  0  0  0
   -8.7471   -6.9009    6.0527 O   0  0  0  0  0  0  0  0  0  0  0  0
   -8.0593   -9.0114    6.9456 C   0  0  0  0  0  0  0  0  0  0  0  0
   -6.6040   -8.9255    7.1174 C   0  0  0  0  0  0  0  0  0  0  0  0
   -6.3815   -9.8401    8.3281 C   0  0  0  0  0  0  0  0  0  0  0  0
   -7.2254  -11.0337    7.8407 C   0  0  0  0  0  0  0  0  0  0  0  0
  -12.3396   -8.0504    5.9603 H   0  0  0  0  0  0  0  0  0  0  0  0
   -9.4627   -6.2723    5.7117 H   0  0  0  0  0  0  0  0  0  0  0  0
   -3.5729   -4.9170    7.1310 C   0  0  0  0  0  0  0  0  0  0  0  0
   -3.0147   -4.5252    5.9160 N   0  0  0  0  0  0  0  0  0  0  0  0
   -1.8823   -3.6248    5.7922 C   0  0  0  0  0  0  0  0  0  0  0  0
   -1.0697   -4.2500    4.6894 C   0  0  0  0  0  0  0  0  0  0  0  0
   -2.0773   -4.9534    3.8410 C   0  0  0  0  0  0  0  0  0  0  0  0
   -3.4005   -4.8927    4.5875 C   0  0  0  0  0  0  0  0  0  0  0  0
   -3.0374   -4.4604    8.2131 O   0  0  0  0  0  0  0  0  0  0  0  0
   -2.2972   -2.2728    5.3573 C   0  0  0  0  0  0  0  0  0  0  0  0
   -3.2037   -1.5865    6.1595 O   0  0  0  0  0  0  0  0  0  0  0  0
   -1.8879   -1.7045    4.3157 O   0  0  0  0  0  0  0  0  0  0  0  0
   -4.0540   -1.1958    5.7529 H   0  0  0  0  0  0  0  0  0  0  0  0
   -8.0947   -6.5479    8.3278 C   0  0  0  0  0  0  0  0  0  0  0  0
   -8.5154   -7.5521    9.1689 C   0  0  0  0  0  0  0  0  0  0  0  0
   -9.8199   -7.5596    9.6552 C   0  0  0  0  0  0  0  0  0  0  0  0
  -10.7345   -6.5843    9.3270 C   0  0  0  0  0  0  0  0  0  0  0  0
  -10.2933   -5.5888    8.4845 C   0  0  0  0  0  0  0  0  0  0  0  0
   -8.9819   -5.5743    7.9900 C   0  0  0  0  0  0  0  0  0  0  0  0
  -12.0342   -6.6494    9.8769 N   0  0  0  0  0  0  0  0  0  0  0  0
  -12.3814   -7.7341   10.8070 C   0  0  0  0  0  0  0  0  0  0  0  0
  -13.4038   -8.5725   10.0557 C   0  0  0  0  0  0  0  0  0  0  0  0
  -14.5519   -7.7431    9.7391 N   0  0  0  0  0  0  0  0  0  0  0  0
  -15.3034   -7.4727   10.9326 C   0  0  0  0  0  0  0  0  0  0  0  0
  -14.2390   -6.5641    9.0026 C   0  0  0  0  0  0  0  0  0  0  0  0
  -13.1139   -5.7350    9.5934 C   0  0  0  0  0  0  0  0  0  0  0  0
  6  7  2  0  0  0
  7  8  1  0  0  0
  8  9  2  0  0  0
  9 10  1  0  0  0
  9 11  1  0  0  0
 11 12  1  0  0  0
 11 13  2  0  0  0
 13 14  1  0  0  0
 14  1  1  0  0  0
  1  2  1  0  0  0
  2 30  1  0  0  0
 30 31  2  0  0  0
 31 32  1  0  0  0
 32 33  2  0  0  0
 33 36  1  0  0  0
 36 37  1  0  0  0
 37 38  1  0  0  0
 38 39  1  0  0  0
 39 40  1  0  0  0
 39 41  1  0  0  0
 41 42  1  0  0  0
 33 34  1  0  0  0
 34 35  2  0  0  0
  2  3  1  0  0  0
  3  4  2  0  0  0
  4 19  1  0  0  0
 19 20  1  0  0  0
 20 21  1  0  0  0
 21 26  1  0  0  0
 26 27  1  0  0  0
 26 28  2  0  0  0
 21 22  1  0  0  0
 22 23  1  0  0  0
 23 24  1  0  0  0
 19 25  2  0  0  0
  4  5  1  0  0  0
 14 15  1  0  0  0
 15 16  1  0  0  0
 13  6  1  0  0  0
  5  1  2  0  0  0
 16  6  1  0  0  0
 35 30  1  0  0  0
 42 36  1  0  0  0
 24 20  1  0  0  0
 10 17  1  0  0  0
 12 18  1  0  0  0
 27 29  1  0  0  0
M  END
> <minimizedAffinity>
8.68827

> <CNNscore>
0.2890170813

> <CNNaffinity>
6.4539413452

> <CNN_VS>
1.8652993441

> <CNNaffinity_variance>
0.6132832766

$$$$
[H]OC(=O)[C@@]1([H])N(C(=O)c2nn(-c3c([H])c([H])c(N4C([H])([H])C([H])([H])N(C([H])([H])[H])C([H])([H])C4([H])[H])c([H])c3[H])c(C3([H])c4c(O[H])c(O[H])c([H])c([H])c4C([H])([H])C3([H])[H])c2[H])C([H])([H])C([H])([H])C1([H])[H]


 42 47  0  0  0  0  0  0  0  0999 V2000
  -11.3380   -8.1173    8.6442 C   0  0  0  0  0  0  0  0  0  0  0  0
  -11.3714   -8.3515    7.3117 N   0  0  0  0  0  0  0  0  0  0  0  0
  -10.1270   -8.5878    6.9547 N   0  0  0  0  0  0  0  0  0  0  0  0
   -9.2598   -8.5286    7.9574 C   0  0  0  0  0  0  0  0  0  0  0  0
  -10.0322   -8.2222    9.0705 C   0  0  0  0  0  0  0  0  0  0  0  0
  -13.3862   -6.5625   11.1718 C   0  0  0  0  0  0  0  0  0  0  0  0
  -13.6350   -5.4668   11.9534 C   0  0  0  0  0  0  0  0  0  0  0  0
  -13.0904   -4.2305   11.6763 C   0  0  0  0  0  0  0  0  0  0  0  0
  -12.2694   -4.1153   10.5675 C   0  0  0  0  0  0  0  0  0  0  0  0
  -11.7046   -2.8747   10.2623 O   0  0  0  0  0  0  0  0  0  0  0  0
  -12.0241   -5.2268    9.7842 C   0  0  0  0  0  0  0  0  0  0  0  0
  -11.1872   -5.0774    8.6675 O   0  0  0  0  0  0  0  0  0  0  0  0
  -12.5601   -6.4682   10.0481 C   0  0  0  0  0  0  0  0  0  0  0  0
  -12.5174   -7.8066    9.4470 C   0  0  0  0  0  0  0  0  0  0  0  0
  -12.6724   -8.7043   10.6807 C   0  0  0  0  0  0  0  0  0  0  0  0
  -13.8692   -7.9718   11.3176 C   0  0  0  0  0  0  0  0  0  0  0  0
  -11.9114   -2.0939   10.8607 H   0  0  0  0  0  0  0  0  0  0  0  0
  -10.7755   -4.1813    8.4415 H   0  0  0  0  0  0  0  0  0  0  0  0
   -7.8178   -8.7359    7.9282 C   0  0  0  0  0  0  0  0  0  0  0  0
   -6.8852   -7.9255    7.2842 N   0  0  0  0  0  0  0  0  0  0  0  0
   -5.4526   -8.1620    7.2984 C   0  0  0  0  0  0  0  0  0  0  0  0
   -5.0421   -7.8473    5.8842 C   0  0  0  0  0  0  0  0  0  0  0  0
   -6.0346   -6.8287    5.4291 C   0  0  0  0  0  0  0  0  0  0  0  0
   -7.1034   -6.7434    6.5072 C   0  0  0  0  0  0  0  0  0  0  0  0
   -7.3780   -9.7696    8.5638 O   0  0  0  0  0  0  0  0  0  0  0  0
   -4.7484   -7.2306    8.2070 C   0  0  0  0  0  0  0  0  0  0  0  0
   -5.5139   -6.5328    9.1361 O   0  0  0  0  0  0  0  0  0  0  0  0
   -3.5098   -7.0277    8.1963 O   0  0  0  0  0  0  0  0  0  0  0  0
   -5.4395   -5.5173    9.2018 H   0  0  0  0  0  0  0  0  0  0  0  0
  -12.5270   -8.3518    6.4398 C   0  0  0  0  0  0  0  0  0  0  0  0
  -13.3000   -7.2187    6.3328 C   0  0  0  0  0  0  0  0  0  0  0  0
  -14.4120   -7.2046    5.4951 C   0  0  0  0  0  0  0  0  0  0  0  0
  -14.7859   -8.2987    4.7479 C   0  0  0  0  0  0  0  0  0  0  0  0
  -13.9990   -9.4219    4.8694 C   0  0  0  0  0  0  0  0  0  0  0  0
  -12.8783   -9.4446    5.7109 C   0  0  0  0  0  0  0  0  0  0  0  0
  -15.9155   -8.2007    3.9052 N   0  0  0  0  0  0  0  0  0  0  0  0
  -16.0174   -7.0920    2.9446 C   0  0  0  0  0  0  0  0  0  0  0  0
  -17.1799   -6.2514    3.4493 C   0  0  0  0  0  0  0  0  0  0  0  0
  -18.3801   -7.0674    3.4632 N   0  0  0  0  0  0  0  0  0  0  0  0
  -18.8274   -7.3011    2.1188 C   0  0  0  0  0  0  0  0  0  0  0  0
  -18.2663   -8.2659    4.2253 C   0  0  0  0  0  0  0  0  0  0  0  0
  -17.0423   -9.1020    3.9012 C   0  0  0  0  0  0  0  0  0  0  0  0
  6  7  2  0  0  0
  7  8  1  0  0  0
  8  9  2  0  0  0
  9 10  1  0  0  0
  9 11  1  0  0  0
 11 12  1  0  0  0
 11 13  2  0  0  0
 13 14  1  0  0  0
 14  1  1  0  0  0
  1  2  1  0  0  0
  2 30  1  0  0  0
 30 31  2  0  0  0
 31 32  1  0  0  0
 32 33  2  0  0  0
 33 36  1  0  0  0
 36 37  1  0  0  0
 37 38  1  0  0  0
 38 39  1  0  0  0
 39 40  1  0  0  0
 39 41  1  0  0  0
 41 42  1  0  0  0
 33 34  1  0  0  0
 34 35  2  0  0  0
  2  3  1  0  0  0
  3  4  2  0  0  0
  4 19  1  0  0  0
 19 20  1  0  0  0
 20 21  1  0  0  0
 21 26  1  0  0  0
 26 27  1  0  0  0
 26 28  2  0  0  0
 21 22  1  0  0  0
 22 23  1  0  0  0
 23 24  1  0  0  0
 19 25  2  0  0  0
  4  5  1  0  0  0
 14 15  1  0  0  0
 15 16  1  0  0  0
 13  6  1  0  0  0
  5  1  2  0  0  0
 16  6  1  0  0  0
 35 30  1  0  0  0
 42 36  1  0  0  0
 24 20  1  0  0  0
 10 17  1  0  0  0
 12 18  1  0  0  0
 27 29  1  0  0  0
M  END
> <minimizedAffinity>
4.59523

> <CNNscore>
0.2652599812

> <CNNaffinity>
7.0525627136

> <CNN_VS>
1.8707627058

> <CNNaffinity_variance>
1.0059843063

$$$$
[H]OC(=O)[C@@]1([H])N(C(=O)c2nn(-c3c([H])c([H])c(N4C([H])([H])C([H])([H])N(C([H])([H])[H])C([H])([H])C4([H])[H])c([H])c3[H])c(C3([H])c4c(O[H])c(O[H])c([H])c([H])c4C([H])([H])C3([H])[H])c2[H])C([H])([H])C([H])([H])C1([H])[H]


 42 47  0  0  0  0  0  0  0  0999 V2000
  -13.0510   -7.0315    7.8344 C   0  0  0  0  0  0  0  0  0  0  0  0
  -12.0764   -6.9868    6.8967 N   0  0  0  0  0  0  0  0  0  0  0  0
  -12.6730   -6.6602    5.7701 N   0  0  0  0  0  0  0  0  0  0  0  0
  -13.9827   -6.4821    5.8877 C   0  0  0  0  0  0  0  0  0  0  0  0
  -14.2492   -6.7203    7.2299 C   0  0  0  0  0  0  0  0  0  0  0  0
  -13.7537   -7.6748   11.3121 C   0  0  0  0  0  0  0  0  0  0  0  0
  -14.6438   -8.1103   12.2561 C   0  0  0  0  0  0  0  0  0  0  0  0
  -15.7605   -8.8485   11.9246 C   0  0  0  0  0  0  0  0  0  0  0  0
  -15.9690   -9.1481   10.5891 C   0  0  0  0  0  0  0  0  0  0  0  0
  -17.0917   -9.8950   10.2244 O   0  0  0  0  0  0  0  0  0  0  0  0
  -15.0650   -8.7043    9.6431 C   0  0  0  0  0  0  0  0  0  0  0  0
  -15.3048   -9.0240    8.2978 O   0  0  0  0  0  0  0  0  0  0  0  0
  -13.9455   -7.9659    9.9583 C   0  0  0  0  0  0  0  0  0  0  0  0
  -12.8180   -7.3630    9.2372 C   0  0  0  0  0  0  0  0  0  0  0  0
  -12.5094   -6.1419   10.1121 C   0  0  0  0  0  0  0  0  0  0  0  0
  -12.5074   -6.8616   11.4746 C   0  0  0  0  0  0  0  0  0  0  0  0
  -17.7220  -10.1966   10.9470 H   0  0  0  0  0  0  0  0  0  0  0  0
  -16.1161   -9.5648    8.0278 H   0  0  0  0  0  0  0  0  0  0  0  0
  -14.9483   -6.1165    4.8595 C   0  0  0  0  0  0  0  0  0  0  0  0
  -16.2134   -6.6741    4.6865 N   0  0  0  0  0  0  0  0  0  0  0  0
  -17.1509   -6.2636    3.6565 C   0  0  0  0  0  0  0  0  0  0  0  0
  -17.7351   -7.5701    3.1883 C   0  0  0  0  0  0  0  0  0  0  0  0
  -17.6594   -8.4592    4.3856 C   0  0  0  0  0  0  0  0  0  0  0  0
  -16.8486   -7.7157    5.4351 C   0  0  0  0  0  0  0  0  0  0  0  0
  -14.5846   -5.1870    4.0411 O   0  0  0  0  0  0  0  0  0  0  0  0
  -18.2454   -5.4331    4.2056 C   0  0  0  0  0  0  0  0  0  0  0  0
  -17.9179   -4.4969    5.1816 O   0  0  0  0  0  0  0  0  0  0  0  0
  -19.4467   -5.5159    3.8514 O   0  0  0  0  0  0  0  0  0  0  0  0
  -18.4274   -4.4789    6.0655 H   0  0  0  0  0  0  0  0  0  0  0  0
  -10.6619   -7.2381    7.0748 C   0  0  0  0  0  0  0  0  0  0  0  0
   -9.7645   -6.2032    6.9459 C   0  0  0  0  0  0  0  0  0  0  0  0
   -8.4018   -6.4308    7.1181 C   0  0  0  0  0  0  0  0  0  0  0  0
   -7.8945   -7.6745    7.4198 C   0  0  0  0  0  0  0  0  0  0  0  0
   -8.8092   -8.6959    7.5445 C   0  0  0  0  0  0  0  0  0  0  0  0
  -10.1826   -8.4754    7.3720 C   0  0  0  0  0  0  0  0  0  0  0  0
   -6.5010   -7.8222    7.5995 N   0  0  0  0  0  0  0  0  0  0  0  0
   -5.8439   -7.2051    8.7613 C   0  0  0  0  0  0  0  0  0  0  0  0
   -4.9565   -6.1208    8.1703 C   0  0  0  0  0  0  0  0  0  0  0  0
   -3.9983   -6.7352    7.2699 N   0  0  0  0  0  0  0  0  0  0  0  0
   -3.0129   -7.4579    8.0241 C   0  0  0  0  0  0  0  0  0  0  0  0
   -4.5848   -7.5167    6.2329 C   0  0  0  0  0  0  0  0  0  0  0  0
   -5.6090   -8.5285    6.7122 C   0  0  0  0  0  0  0  0  0  0  0  0
  6  7  2  0  0  0
  7  8  1  0  0  0
  8  9  2  0  0  0
  9 10  1  0  0  0
  9 11  1  0  0  0
 11 12  1  0  0  0
 11 13  2  0  0  0
 13 14  1  0  0  0
 14  1  1  0  0  0
  1  2  1  0  0  0
  2 30  1  0  0  0
 30 31  2  0  0  0
 31 32  1  0  0  0
 32 33  2  0  0  0
 33 36  1  0  0  0
 36 37  1  0  0  0
 37 38  1  0  0  0
 38 39  1  0  0  0
 39 40  1  0  0  0
 39 41  1  0  0  0
 41 42  1  0  0  0
 33 34  1  0  0  0
 34 35  2  0  0  0
  2  3  1  0  0  0
  3  4  2  0  0  0
  4 19  1  0  0  0
 19 20  1  0  0  0
 20 21  1  0  0  0
 21 26  1  0  0  0
 26 27  1  0  0  0
 26 28  2  0  0  0
 21 22  1  0  0  0
 22 23  1  0  0  0
 23 24  1  0  0  0
 19 25  2  0  0  0
  4  5  1  0  0  0
 14 15  1  0  0  0
 15 16  1  0  0  0
 13  6  1  0  0  0
  5  1  2  0  0  0
 16  6  1  0  0  0
 35 30  1  0  0  0
 42 36  1  0  0  0
 24 20  1  0  0  0
 10 17  1  0  0  0
 12 18  1  0  0  0
 27 29  1  0  0  0
M  END
> <minimizedAffinity>
4.43098

> <CNNscore>
0.2621577680

> <CNNaffinity>
7.0781097412

> <CNN_VS>
1.8555814028

> <CNNaffinity_variance>
0.5393596292

$$$$
[H]O[C@@]1(C([H])([H])[H])C([H])([H])C([H])([H])[C@@]2([H])[C@]3([H])C([H])([H])C([H])([H])C4=C([H])C(=O)C([H])([H])C([H])([H])[C@]4(C([H])([H])[H])[C@@]3([H])C([H])([H])C([H])([H])[C@@]12C([H])([H])[H]


 23 26  0  0  0  0  0  0  0  0999 V2000
  -17.8208   -7.4803    4.4195 C   0  0  0  0  0  0  0  0  0  0  0  0
  -16.7892   -7.1331    5.4443 C   0  0  0  0  0  0  0  0  0  0  0  0
  -17.3997   -7.1490    6.6873 O   0  0  0  0  0  0  0  0  0  0  0  0
  -16.3208   -5.7239    5.1734 C   0  0  0  0  0  0  0  0  0  0  0  0
  -14.9477   -5.7310    5.8077 C   0  0  0  0  0  0  0  0  0  0  0  0
  -14.3788   -7.0820    5.4268 C   0  0  0  0  0  0  0  0  0  0  0  0
  -13.4184   -7.4681    6.5474 C   0  0  0  0  0  0  0  0  0  0  0  0
  -12.2884   -6.5080    6.6562 C   0  0  0  0  0  0  0  0  0  0  0  0
  -11.5623   -6.9038    7.9523 C   0  0  0  0  0  0  0  0  0  0  0  0
  -11.0136   -8.2634    7.6927 C   0  0  0  0  0  0  0  0  0  0  0  0
   -9.7464   -8.4925    7.9790 C   0  0  0  0  0  0  0  0  0  0  0  0
   -9.0976   -9.7819    7.7685 C   0  0  0  0  0  0  0  0  0  0  0  0
   -8.1160  -10.1085    8.4509 O   0  0  0  0  0  0  0  0  0  0  0  0
   -9.6832  -10.6393    6.7125 C   0  0  0  0  0  0  0  0  0  0  0  0
  -10.9357  -10.0912    6.1231 C   0  0  0  0  0  0  0  0  0  0  0  0
  -11.8219   -9.3633    7.1271 C   0  0  0  0  0  0  0  0  0  0  0  0
  -12.1627  -10.4145    8.1952 C   0  0  0  0  0  0  0  0  0  0  0  0
  -13.0669   -8.9038    6.4417 C   0  0  0  0  0  0  0  0  0  0  0  0
  -14.3167   -9.6606    6.8759 C   0  0  0  0  0  0  0  0  0  0  0  0
  -15.5753   -8.9098    6.5622 C   0  0  0  0  0  0  0  0  0  0  0  0
  -15.5499   -8.0208    5.3762 C   0  0  0  0  0  0  0  0  0  0  0  0
  -15.6430   -8.7763    4.0680 C   0  0  0  0  0  0  0  0  0  0  0  0
  -17.0945   -6.3635    7.2248 H   0  0  0  0  0  0  0  0  0  0  0  0
  1  2  1  0  0  0
  2  3  1  0  0  0
  2  4  1  0  0  0
  4  5  1  0  0  0
  5  6  1  0  0  0
  6  7  1  0  0  0
  7  8  1  0  0  0
  8  9  1  0  0  0
  9 10  1  0  0  0
 10 11  2  0  0  0
 11 12  1  0  0  0
 12 13  2  0  0  0
 12 14  1  0  0  0
 14 15  1  0  0  0
 15 16  1  0  0  0
 16 17  1  0  0  0
 16 18  1  0  0  0
 18 19  1  0  0  0
 19 20  1  0  0  0
 20 21  1  0  0  0
 21 22  1  0  0  0
 21  2  1  0  0  0
 21  6  1  0  0  0
 18  7  1  0  0  0
 16 10  1  0  0  0
  3 23  1  0  0  0
M  END
> <minimizedAffinity>
-5.20093

> <CNNscore>
0.5077286959

> <CNNaffinity>
6.3817462921

> <CNN_VS>
3.2401957512

> <CNNaffinity_variance>
0.2423516959

$$$$
[H]O[C@@]1(C([H])([H])[H])C([H])([H])C([H])([H])[C@@]2([H])[C@]3([H])C([H])([H])C([H])([H])C4=C([H])C(=O)C([H])([H])C([H])([H])[C@]4(C([H])([H])[H])[C@@]3([H])C([H])([H])C([H])([H])[C@@]12C([H])([H])[H]


 23 26  0  0  0  0  0  0  0  0999 V2000
  -12.0602   -4.3522   11.8693 C   0  0  0  0  0  0  0  0  0  0  0  0
  -12.6750   -5.6111   11.3475 C   0  0  0  0  0  0  0  0  0  0  0  0
  -13.8660   -5.8170   12.0236 O   0  0  0  0  0  0  0  0  0  0  0  0
  -11.7468   -6.7542   11.6802 C   0  0  0  0  0  0  0  0  0  0  0  0
  -12.1265   -7.7723   10.6280 C   0  0  0  0  0  0  0  0  0  0  0  0
  -12.3110   -6.9453    9.3726 C   0  0  0  0  0  0  0  0  0  0  0  0
  -13.3454   -7.6829    8.5281 C   0  0  0  0  0  0  0  0  0  0  0  0
  -12.8634   -9.0301    8.1239 C   0  0  0  0  0  0  0  0  0  0  0  0
  -14.0892   -9.7112    7.4937 C   0  0  0  0  0  0  0  0  0  0  0  0
  -14.3877   -8.9206    6.2677 C   0  0  0  0  0  0  0  0  0  0  0  0
  -14.5718   -9.5690    5.1338 C   0  0  0  0  0  0  0  0  0  0  0  0
  -14.8691   -8.9045    3.8697 C   0  0  0  0  0  0  0  0  0  0  0  0
  -15.4860   -9.5030    2.9769 O   0  0  0  0  0  0  0  0  0  0  0  0
  -14.3926   -7.5081    3.7417 C   0  0  0  0  0  0  0  0  0  0  0  0
  -13.7967   -6.9625    4.9922 C   0  0  0  0  0  0  0  0  0  0  0  0
  -14.4834   -7.4462    6.2641 C   0  0  0  0  0  0  0  0  0  0  0  0
  -15.9420   -6.9799    6.1328 C   0  0  0  0  0  0  0  0  0  0  0  0
  -13.8406   -6.7989    7.4467 C   0  0  0  0  0  0  0  0  0  0  0  0
  -14.7298   -5.7716    8.1378 C   0  0  0  0  0  0  0  0  0  0  0  0
  -14.2891   -5.4892    9.5421 C   0  0  0  0  0  0  0  0  0  0  0  0
  -12.8406   -5.6167    9.8306 C   0  0  0  0  0  0  0  0  0  0  0  0
  -12.0289   -4.4489    9.3129 C   0  0  0  0  0  0  0  0  0  0  0  0
  -13.9528   -6.7814   12.2712 H   0  0  0  0  0  0  0  0  0  0  0  0
  1  2  1  0  0  0
  2  3  1  0  0  0
  2  4  1  0  0  0
  4  5  1  0  0  0
  5  6  1  0  0  0
  6  7  1  0  0  0
  7  8  1  0  0  0
  8  9  1  0  0  0
  9 10  1  0  0  0
 10 11  2  0  0  0
 11 12  1  0  0  0
 12 13  2  0  0  0
 12 14  1  0  0  0
 14 15  1  0  0  0
 15 16  1  0  0  0
 16 17  1  0  0  0
 16 18  1  0  0  0
 18 19  1  0  0  0
 19 20  1  0  0  0
 20 21  1  0  0  0
 21 22  1  0  0  0
 21  2  1  0  0  0
 21  6  1  0  0  0
 18  7  1  0  0  0
 16 10  1  0  0  0
  3 23  1  0  0  0
M  END
> <minimizedAffinity>
8.91103

> <CNNscore>
0.4812319875

> <CNNaffinity>
6.1499500275

> <CNN_VS>
2.9595527649

> <CNNaffinity_variance>
0.6771599650

$$$$
[H]O[C@@]1(C([H])([H])[H])C([H])([H])C([H])([H])[C@@]2([H])[C@]3([H])C([H])([H])C([H])([H])C4=C([H])C(=O)C([H])([H])C([H])([H])[C@]4(C([H])([H])[H])[C@@]3([H])C([H])([H])C([H])([H])[C@@]12C([H])([H])[H]


 23 26  0  0  0  0  0  0  0  0999 V2000
  -18.7683   -7.0718    4.2925 C   0  0  0  0  0  0  0  0  0  0  0  0
  -17.6193   -6.5845    5.1155 C   0  0  0  0  0  0  0  0  0  0  0  0
  -18.1165   -6.1690    6.3395 O   0  0  0  0  0  0  0  0  0  0  0  0
  -17.0270   -5.3822    4.4210 C   0  0  0  0  0  0  0  0  0  0  0  0
  -15.6123   -5.3862    4.9564 C   0  0  0  0  0  0  0  0  0  0  0  0
  -15.2284   -6.8513    4.9566 C   0  0  0  0  0  0  0  0  0  0  0  0
  -14.2208   -7.0246    6.0888 C   0  0  0  0  0  0  0  0  0  0  0  0
  -12.9884   -6.2269    5.8530 C   0  0  0  0  0  0  0  0  0  0  0  0
  -12.1985   -6.3297    7.1680 C   0  0  0  0  0  0  0  0  0  0  0  0
  -11.8248   -7.7660    7.2876 C   0  0  0  0  0  0  0  0  0  0  0  0
  -10.5696   -8.0659    7.5610 C   0  0  0  0  0  0  0  0  0  0  0  0
  -10.0849   -9.4345    7.7017 C   0  0  0  0  0  0  0  0  0  0  0  0
   -9.0883   -9.6781    8.3970 O   0  0  0  0  0  0  0  0  0  0  0  0
  -10.8501  -10.4730    6.9742 C   0  0  0  0  0  0  0  0  0  0  0  0
  -12.0828   -9.9576    6.3176 C   0  0  0  0  0  0  0  0  0  0  0  0
  -12.7937   -8.8674    7.1109 C   0  0  0  0  0  0  0  0  0  0  0  0
  -13.1510   -9.5201    8.4556 C   0  0  0  0  0  0  0  0  0  0  0  0
  -14.0370   -8.4644    6.3880 C   0  0  0  0  0  0  0  0  0  0  0  0
  -15.3184   -8.8997    7.0894 C   0  0  0  0  0  0  0  0  0  0  0  0
  -16.5111   -8.1130    6.6372 C   0  0  0  0  0  0  0  0  0  0  0  0
  -16.4939   -7.6071    5.2439 C   0  0  0  0  0  0  0  0  0  0  0  0
  -16.7826   -8.6834    4.2198 C   0  0  0  0  0  0  0  0  0  0  0  0
  -17.6823   -5.3097    6.6077 H   0  0  0  0  0  0  0  0  0  0  0  0
  1  2  1  0  0  0
  2  3  1  0  0  0
  2  4  1  0  0  0
  4  5  1  0  0  0
  5  6  1  0  0  0
  6  7  1  0  0  0
  7  8  1  0  0  0
  8  9  1  0  0  0
  9 10  1  0  0  0
 10 11  2  0  0  0
 11 12  1  0  0  0
 12 13  2  0  0  0
 12 14  1  0  0  0
 14 15  1  0  0  0
 15 16  1  0  0  0
 16 17  1  0  0  0
 16 18  1  0  0  0
 18 19  1  0  0  0
 19 20  1  0  0  0
 20 21  1  0  0  0
 21 22  1  0  0  0
 21  2  1  0  0  0
 21  6  1  0  0  0
 18  7  1  0  0  0
 16 10  1  0  0  0
  3 23  1  0  0  0
M  END
> <minimizedAffinity>
-2.85276

> <CNNscore>
0.4745070338

> <CNNaffinity>
6.3529329300

> <CNN_VS>
3.0145113468

> <CNNaffinity_variance>
0.3660283685

$$$$
[H]O[C@@]1(C([H])([H])[H])C([H])([H])C([H])([H])[C@@]2([H])[C@]3([H])C([H])([H])C([H])([H])C4=C([H])C(=O)C([H])([H])C([H])([H])[C@]4(C([H])([H])[H])[C@@]3([H])C([H])([H])C([H])([H])[C@@]12C([H])([H])[H]


 23 26  0  0  0  0  0  0  0  0999 V2000
  -17.5058   -7.8667    3.4620 C   0  0  0  0  0  0  0  0  0  0  0  0
  -16.9748   -7.9437    4.8573 C   0  0  0  0  0  0  0  0  0  0  0  0
  -17.4009   -9.1393    5.4113 O   0  0  0  0  0  0  0  0  0  0  0  0
  -17.5900   -6.8169    5.6516 C   0  0  0  0  0  0  0  0  0  0  0  0
  -16.5712   -6.6280    6.7535 C   0  0  0  0  0  0  0  0  0  0  0  0
  -15.2399   -6.7626    6.0441 C   0  0  0  0  0  0  0  0  0  0  0  0
  -14.2625   -7.3114    7.0788 C   0  0  0  0  0  0  0  0  0  0  0  0
  -14.0835   -6.3714    8.2167 C   0  0  0  0  0  0  0  0  0  0  0  0
  -13.2700   -7.1630    9.2537 C   0  0  0  0  0  0  0  0  0  0  0  0
  -11.9464   -7.3992    8.6137 C   0  0  0  0  0  0  0  0  0  0  0  0
  -10.8579   -7.1207    9.3049 C   0  0  0  0  0  0  0  0  0  0  0  0
   -9.5082   -7.3095    8.7850 C   0  0  0  0  0  0  0  0  0  0  0  0
   -8.5595   -7.5018    9.5590 O   0  0  0  0  0  0  0  0  0  0  0  0
   -9.3656   -7.2553    7.3119 C   0  0  0  0  0  0  0  0  0  0  0  0
  -10.6627   -7.1474    6.5891 C   0  0  0  0  0  0  0  0  0  0  0  0
  -11.7984   -7.9269    7.2416 C   0  0  0  0  0  0  0  0  0  0  0  0
  -11.3253   -9.3891    7.2519 C   0  0  0  0  0  0  0  0  0  0  0  0
  -13.0307   -7.7906    6.4086 C   0  0  0  0  0  0  0  0  0  0  0  0
  -13.4307   -9.0776    5.6965 C   0  0  0  0  0  0  0  0  0  0  0  0
  -14.8672   -9.0698    5.2695 C   0  0  0  0  0  0  0  0  0  0  0  0
  -15.4628   -7.7534    4.9378 C   0  0  0  0  0  0  0  0  0  0  0  0
  -15.0303   -7.2322    3.5843 C   0  0  0  0  0  0  0  0  0  0  0  0
  -17.7052   -8.9880    6.3512 H   0  0  0  0  0  0  0  0  0  0  0  0
  1  2  1  0  0  0
  2  3  1  0  0  0
  2  4  1  0  0  0
  4  5  1  0  0  0
  5  6  1  0  0  0
  6  7  1  0  0  0
  7  8  1  0  0  0
  8  9  1  0  0  0
  9 10  1  0  0  0
 10 11  2  0  0  0
 11 12  1  0  0  0
 12 13  2  0  0  0
 12 14  1  0  0  0
 14 15  1  0  0  0
 15 16  1  0  0  0
 16 17  1  0  0  0
 16 18  1  0  0  0
 18 19  1  0  0  0
 19 20  1  0  0  0
 20 21  1  0  0  0
 21 22  1  0  0  0
 21  2  1  0  0  0
 21  6  1  0  0  0
 18  7  1  0  0  0
 16 10  1  0  0  0
  3 23  1  0  0  0
M  END
> <minimizedAffinity>
-5.49047

> <CNNscore>
0.4679062665

> <CNNaffinity>
6.6071348190

> <CNN_VS>
3.0915198326

> <CNNaffinity_variance>
0.4332275391

$$$$
[H]O[C@@]1(C([H])([H])[H])C([H])([H])C([H])([H])[C@@]2([H])[C@]3([H])C([H])([H])C([H])([H])C4=C([H])C(=O)C([H])([H])C([H])([H])[C@]4(C([H])([H])[H])[C@@]3([H])C([H])([H])C([H])([H])[C@@]12C([H])([H])[H]


 23 26  0  0  0  0  0  0  0  0999 V2000
   -3.7431   -1.6405    4.5148 C   0  0  0  0  0  0  0  0  0  0  0  0
   -3.5385   -2.5888    5.6524 C   0  0  0  0  0  0  0  0  0  0  0  0
   -4.6992   -2.6066    6.4077 O   0  0  0  0  0  0  0  0  0  0  0  0
   -2.4279   -2.0440    6.5176 C   0  0  0  0  0  0  0  0  0  0  0  0
   -1.9249   -3.2992    7.1953 C   0  0  0  0  0  0  0  0  0  0  0  0
   -1.9379   -4.3373    6.0926 C   0  0  0  0  0  0  0  0  0  0  0  0
   -2.1716   -5.6800    6.7781 C   0  0  0  0  0  0  0  0  0  0  0  0
   -1.0665   -6.0176    7.7137 C   0  0  0  0  0  0  0  0  0  0  0  0
   -1.5637   -7.2574    8.4750 C   0  0  0  0  0  0  0  0  0  0  0  0
   -1.6676   -8.3304    7.4479 C   0  0  0  0  0  0  0  0  0  0  0  0
   -1.1226   -9.5028    7.7097 C   0  0  0  0  0  0  0  0  0  0  0  0
   -1.1593  -10.6287    6.7830 C   0  0  0  0  0  0  0  0  0  0  0  0
   -1.0854  -11.7913    7.2058 O   0  0  0  0  0  0  0  0  0  0  0  0
   -1.2873  -10.2853    5.3480 C   0  0  0  0  0  0  0  0  0  0  0  0
   -1.4931   -8.8324    5.0967 C   0  0  0  0  0  0  0  0  0  0  0  0
   -2.3491   -8.1400    6.1509 C   0  0  0  0  0  0  0  0  0  0  0  0
   -3.6991   -8.8737    6.1145 C   0  0  0  0  0  0  0  0  0  0  0  0
   -2.5319   -6.7068    5.7722 C   0  0  0  0  0  0  0  0  0  0  0  0
   -3.9530   -6.3676    5.3373 C   0  0  0  0  0  0  0  0  0  0  0  0
   -4.2384   -4.8986    5.4184 C   0  0  0  0  0  0  0  0  0  0  0  0
   -3.0954   -3.9789    5.2054 C   0  0  0  0  0  0  0  0  0  0  0  0
   -2.7034   -3.8493    3.7493 C   0  0  0  0  0  0  0  0  0  0  0  0
   -4.4707   -2.5907    7.3806 H   0  0  0  0  0  0  0  0  0  0  0  0
  1  2  1  0  0  0
  2  3  1  0  0  0
  2  4  1  0  0  0
  4  5  1  0  0  0
  5  6  1  0  0  0
  6  7  1  0  0  0
  7  8  1  0  0  0
  8  9  1  0  0  0
  9 10  1  0  0  0
 10 11  2  0  0  0
 11 12  1  0  0  0
 12 13  2  0  0  0
 12 14  1  0  0  0
 14 15  1  0  0  0
 15 16  1  0  0  0
 16 17  1  0  0  0
 16 18  1  0  0  0
 18 19  1  0  0  0
 19 20  1  0  0  0
 20 21  1  0  0  0
 21 22  1  0  0  0
 21  2  1  0  0  0
 21  6  1  0  0  0
 18  7  1  0  0  0
 16 10  1  0  0  0
  3 23  1  0  0  0
M  END
> <minimizedAffinity>
-2.55245

> <CNNscore>
0.4405594766

> <CNNaffinity>
4.6637516022

> <CNN_VS>
2.0546600819

> <CNNaffinity_variance>
0.3522985578

$$$$
[H]O[C@@]1(C([H])([H])[H])C([H])([H])C([H])([H])[C@@]2([H])[C@]3([H])C([H])([H])C([H])([H])C4=C([H])C(=O)C([H])([H])C([H])([H])[C@]4(C([H])([H])[H])[C@@]3([H])C([H])([H])C([H])([H])[C@@]12C([H])([H])[H]


 23 26  0  0  0  0  0  0  0  0999 V2000
   -3.8935   -7.2594    6.1024 C   0  0  0  0  0  0  0  0  0  0  0  0
   -5.0200   -6.6178    6.8470 C   0  0  0  0  0  0  0  0  0  0  0  0
   -5.2220   -5.3564    6.3123 O   0  0  0  0  0  0  0  0  0  0  0  0
   -4.5914   -6.4510    8.2848 C   0  0  0  0  0  0  0  0  0  0  0  0
   -5.9247   -6.4018    8.9974 C   0  0  0  0  0  0  0  0  0  0  0  0
   -6.7489   -7.4635    8.2992 C   0  0  0  0  0  0  0  0  0  0  0  0
   -8.2011   -7.0079    8.4025 C   0  0  0  0  0  0  0  0  0  0  0  0
   -8.6528   -6.9324    9.8170 C   0  0  0  0  0  0  0  0  0  0  0  0
  -10.0287   -6.2494    9.7522 C   0  0  0  0  0  0  0  0  0  0  0  0
  -10.9045   -7.2047    9.0192 C   0  0  0  0  0  0  0  0  0  0  0  0
  -12.0804   -7.5011    9.5384 C   0  0  0  0  0  0  0  0  0  0  0  0
  -13.0232   -8.4223    8.9136 C   0  0  0  0  0  0  0  0  0  0  0  0
  -14.2384   -8.3214    9.1351 O   0  0  0  0  0  0  0  0  0  0  0  0
  -12.4350   -9.4510    8.0253 C   0  0  0  0  0  0  0  0  0  0  0  0
  -10.9707   -9.2892    7.8104 C   0  0  0  0  0  0  0  0  0  0  0  0
  -10.5149   -7.8363    7.7416 C   0  0  0  0  0  0  0  0  0  0  0  0
  -11.2874   -7.2307    6.5590 C   0  0  0  0  0  0  0  0  0  0  0  0
   -9.0463   -7.7937    7.4728 C   0  0  0  0  0  0  0  0  0  0  0  0
   -8.6961   -7.2863    6.0788 C   0  0  0  0  0  0  0  0  0  0  0  0
   -7.2787   -6.8083    5.9858 C   0  0  0  0  0  0  0  0  0  0  0  0
   -6.2877   -7.4669    6.8700 C   0  0  0  0  0  0  0  0  0  0  0  0
   -5.8835   -8.8423    6.3848 C   0  0  0  0  0  0  0  0  0  0  0  0
   -5.3703   -4.6962    7.0478 H   0  0  0  0  0  0  0  0  0  0  0  0
  1  2  1  0  0  0
  2  3  1  0  0  0
  2  4  1  0  0  0
  4  5  1  0  0  0
  5  6  1  0  0  0
  6  7  1  0  0  0
  7  8  1  0  0  0
  8  9  1  0  0  0
  9 10  1  0  0  0
 10 11  2  0  0  0
 11 12  1  0  0  0
 12 13  2  0  0  0
 12 14  1  0  0  0
 14 15  1  0  0  0
 15 16  1  0  0  0
 16 17  1  0  0  0
 16 18  1  0  0  0
 18 19  1  0  0  0
 19 20  1  0  0  0
 20 21  1  0  0  0
 21 22  1  0  0  0
 21  2  1  0  0  0
 21  6  1  0  0  0
 18  7  1  0  0  0
 16 10  1  0  0  0
  3 23  1  0  0  0
M  END
> <minimizedAffinity>
-2.13273

> <CNNscore>
0.4316801131

> <CNNaffinity>
5.6465673447

> <CNN_VS>
2.4375107288

> <CNNaffinity_variance>
0.2716044188

$$$$
[H]O[C@@]1(C([H])([H])[H])C([H])([H])C([H])([H])[C@@]2([H])[C@]3([H])C([H])([H])C([H])([H])C4=C([H])C(=O)C([H])([H])C([H])([H])[C@]4(C([H])([H])[H])[C@@]3([H])C([H])([H])C([H])([H])[C@@]12C([H])([H])[H]


 23 26  0  0  0  0  0  0  0  0999 V2000
  -15.5048   -1.5022    5.7159 C   0  0  0  0  0  0  0  0  0  0  0  0
  -14.8523   -2.6827    5.0712 C   0  0  0  0  0  0  0  0  0  0  0  0
  -13.5832   -2.8161    5.6092 O   0  0  0  0  0  0  0  0  0  0  0  0
  -14.7050   -2.3855    3.5985 C   0  0  0  0  0  0  0  0  0  0  0  0
  -14.6412   -3.7777    3.0107 C   0  0  0  0  0  0  0  0  0  0  0  0
  -15.6837   -4.5499    3.7923 C   0  0  0  0  0  0  0  0  0  0  0  0
  -15.2063   -5.9986    3.8179 C   0  0  0  0  0  0  0  0  0  0  0  0
  -15.1362   -6.5770    2.4500 C   0  0  0  0  0  0  0  0  0  0  0  0
  -14.4312   -7.9309    2.6336 C   0  0  0  0  0  0  0  0  0  0  0  0
  -15.3662   -8.7498    3.4535 C   0  0  0  0  0  0  0  0  0  0  0  0
  -15.6487   -9.9727    3.0474 C   0  0  0  0  0  0  0  0  0  0  0  0
  -16.5495  -10.8676    3.7654 C   0  0  0  0  0  0  0  0  0  0  0  0
  -16.4315  -12.0964    3.6551 O   0  0  0  0  0  0  0  0  0  0  0  0
  -17.5794  -10.2156    4.6064 C   0  0  0  0  0  0  0  0  0  0  0  0
  -17.4386   -8.7355    4.6846 C   0  0  0  0  0  0  0  0  0  0  0  0
  -15.9925   -8.2540    4.6965 C   0  0  0  0  0  0  0  0  0  0  0  0
  -15.3644   -8.9056    5.9387 C   0  0  0  0  0  0  0  0  0  0  0  0
  -15.9705   -6.7664    4.8290 C   0  0  0  0  0  0  0  0  0  0  0  0
  -15.4564   -6.2822    6.1799 C   0  0  0  0  0  0  0  0  0  0  0  0
  -14.9998   -4.8554    6.1377 C   0  0  0  0  0  0  0  0  0  0  0  0
  -15.6816   -3.9596    5.1732 C   0  0  0  0  0  0  0  0  0  0  0  0
  -17.0589   -3.5329    5.6334 C   0  0  0  0  0  0  0  0  0  0  0  0
  -12.9273   -3.0215    4.8836 H   0  0  0  0  0  0  0  0  0  0  0  0
  1  2  1  0  0  0
  2  3  1  0  0  0
  2  4  1  0  0  0
  4  5  1  0  0  0
  5  6  1  0  0  0
  6  7  1  0  0  0
  7  8  1  0  0  0
  8  9  1  0  0  0
  9 10  1  0  0  0
 10 11  2  0  0  0
 11 12  1  0  0  0
 12 13  2  0  0  0
 12 14  1  0  0  0
 14 15  1  0  0  0
 15 16  1  0  0  0
 16 17  1  0  0  0
 16 18  1  0  0  0
 18 19  1  0  0  0
 19 20  1  0  0  0
 20 21  1  0  0  0
 21 22  1  0  0  0
 21  2  1  0  0  0
 21  6  1  0  0  0
 18  7  1  0  0  0
 16 10  1  0  0  0
  3 23  1  0  0  0
M  END
> <minimizedAffinity>
29.05556

> <CNNscore>
0.3763661981

> <CNNaffinity>
6.0995130539

> <CNN_VS>
2.2956504822

> <CNNaffinity_variance>
1.0831164122

$$$$
[H]O[C@@]1(C([H])([H])[H])C([H])([H])C([H])([H])[C@@]2([H])[C@]3([H])C([H])([H])C([H])([H])C4=C([H])C(=O)C([H])([H])C([H])([H])[C@]4(C([H])([H])[H])[C@@]3([H])C([H])([H])C([H])([H])[C@@]12C([H])([H])[H]


 23 26  0  0  0  0  0  0  0  0999 V2000
  -13.6482   -9.9063    1.9709 C   0  0  0  0  0  0  0  0  0  0  0  0
  -14.1551   -9.3518    3.2635 C   0  0  0  0  0  0  0  0  0  0  0  0
  -13.0606   -9.0216    4.0452 O   0  0  0  0  0  0  0  0  0  0  0  0
  -14.9194  -10.4451    3.9702 C   0  0  0  0  0  0  0  0  0  0  0  0
  -15.8429   -9.6450    4.8618 C   0  0  0  0  0  0  0  0  0  0  0  0
  -16.2916   -8.4965    3.9822 C   0  0  0  0  0  0  0  0  0  0  0  0
  -16.5728   -7.3283    4.9222 C   0  0  0  0  0  0  0  0  0  0  0  0
  -17.6759   -7.6398    5.8692 C   0  0  0  0  0  0  0  0  0  0  0  0
  -17.6710   -6.4745    6.8721 C   0  0  0  0  0  0  0  0  0  0  0  0
  -18.0464   -5.2732    6.0765 C   0  0  0  0  0  0  0  0  0  0  0  0
  -18.9956   -4.4847    6.5428 C   0  0  0  0  0  0  0  0  0  0  0  0
  -19.4487   -3.2816    5.8535 C   0  0  0  0  0  0  0  0  0  0  0  0
  -19.9539   -2.3466    6.4911 O   0  0  0  0  0  0  0  0  0  0  0  0
  -19.2643   -3.2659    4.3842 C   0  0  0  0  0  0  0  0  0  0  0  0
  -18.5156   -4.4424    3.8628 C   0  0  0  0  0  0  0  0  0  0  0  0
  -17.4073   -4.9278    4.7899 C   0  0  0  0  0  0  0  0  0  0  0  0
  -16.4582   -3.7283    4.9402 C   0  0  0  0  0  0  0  0  0  0  0  0
  -16.6936   -6.0713    4.1467 C   0  0  0  0  0  0  0  0  0  0  0  0
  -15.2761   -5.7320    3.7006 C   0  0  0  0  0  0  0  0  0  0  0  0
  -14.4323   -6.9550    3.5045 C   0  0  0  0  0  0  0  0  0  0  0  0
  -15.1300   -8.1923    3.0804 C   0  0  0  0  0  0  0  0  0  0  0  0
  -15.5080   -8.1858    1.6149 C   0  0  0  0  0  0  0  0  0  0  0  0
  -13.2180   -9.3117    4.9886 H   0  0  0  0  0  0  0  0  0  0  0  0
  1  2  1  0  0  0
  2  3  1  0  0  0
  2  4  1  0  0  0
  4  5  1  0  0  0
  5  6  1  0  0  0
  6  7  1  0  0  0
  7  8  1  0  0  0
  8  9  1  0  0  0
  9 10  1  0  0  0
 10 11  2  0  0  0
 11 12  1  0  0  0
 12 13  2  0  0  0
 12 14  1  0  0  0
 14 15  1  0  0  0
 15 16  1  0  0  0
 16 17  1  0  0  0
 16 18  1  0  0  0
 18 19  1  0  0  0
 19 20  1  0  0  0
 20 21  1  0  0  0
 21 22  1  0  0  0
 21  2  1  0  0  0
 21  6  1  0  0  0
 18  7  1  0  0  0
 16 10  1  0  0  0
  3 23  1  0  0  0
M  END
> <minimizedAffinity>
31.27654

> <CNNscore>
0.3362641335

> <CNNaffinity>
6.1206135750

> <CNN_VS>
2.0581429005

> <CNNaffinity_variance>
0.9748215675

$$$$
[H]O[C@@]1(C([H])([H])[H])C([H])([H])C([H])([H])[C@@]2([H])[C@]3([H])C([H])([H])C([H])([H])C4=C([H])C(=O)C([H])([H])C([H])([H])[C@]4(C([H])([H])[H])[C@@]3([H])C([H])([H])C([H])([H])[C@@]12C([H])([H])[H]


 23 26  0  0  0  0  0  0  0  0999 V2000
   -8.9693  -10.3575    7.4412 C   0  0  0  0  0  0  0  0  0  0  0  0
   -8.4047   -9.0393    7.0185 C   0  0  0  0  0  0  0  0  0  0  0  0
   -9.4068   -8.0899    7.1297 O   0  0  0  0  0  0  0  0  0  0  0  0
   -8.0211   -9.1434    5.5622 C   0  0  0  0  0  0  0  0  0  0  0  0
   -6.9647   -8.0670    5.4467 C   0  0  0  0  0  0  0  0  0  0  0  0
   -6.1604   -8.2094    6.7222 C   0  0  0  0  0  0  0  0  0  0  0  0
   -5.6190   -6.8187    7.0385 C   0  0  0  0  0  0  0  0  0  0  0  0
   -4.7058   -6.3301    5.9718 C   0  0  0  0  0  0  0  0  0  0  0  0
   -4.4429   -4.8574    6.3264 C   0  0  0  0  0  0  0  0  0  0  0  0
   -3.6990   -4.8931    7.6157 C   0  0  0  0  0  0  0  0  0  0  0  0
   -2.5960   -4.1774    7.7224 C   0  0  0  0  0  0  0  0  0  0  0  0
   -1.7835   -4.1328    8.9330 C   0  0  0  0  0  0  0  0  0  0  0  0
   -1.0750   -3.1456    9.1764 O   0  0  0  0  0  0  0  0  0  0  0  0
   -1.8687   -5.3181    9.8170 C   0  0  0  0  0  0  0  0  0  0  0  0
   -2.8852   -6.3157    9.3834 C   0  0  0  0  0  0  0  0  0  0  0  0
   -4.1380   -5.6949    8.7765 C   0  0  0  0  0  0  0  0  0  0  0  0
   -4.7196   -4.8035    9.8852 C   0  0  0  0  0  0  0  0  0  0  0  0
   -5.1045   -6.7789    8.4277 C   0  0  0  0  0  0  0  0  0  0  0  0
   -6.3409   -6.8034    9.3190 C   0  0  0  0  0  0  0  0  0  0  0  0
   -7.4808   -7.5474    8.6920 C   0  0  0  0  0  0  0  0  0  0  0  0
   -7.1344   -8.6582    7.7734 C   0  0  0  0  0  0  0  0  0  0  0  0
   -6.6836   -9.9075    8.4991 C   0  0  0  0  0  0  0  0  0  0  0  0
   -9.3934   -7.4879    6.3320 H   0  0  0  0  0  0  0  0  0  0  0  0
  1  2  1  0  0  0
  2  3  1  0  0  0
  2  4  1  0  0  0
  4  5  1  0  0  0
  5  6  1  0  0  0
  6  7  1  0  0  0
  7  8  1  0  0  0
  8  9  1  0  0  0
  9 10  1  0  0  0
 10 11  2  0  0  0
 11 12  1  0  0  0
 12 13  2  0  0  0
 12 14  1  0  0  0
 14 15  1  0  0  0
 15 16  1  0  0  0
 16 17  1  0  0  0
 16 18  1  0  0  0
 18 19  1  0  0  0
 19 20  1  0  0  0
 20 21  1  0  0  0
 21 22  1  0  0  0
 21  2  1  0  0  0
 21  6  1  0  0  0
 18  7  1  0  0  0
 16 10  1  0  0  0
  3 23  1  0  0  0
M  END
> <minimizedAffinity>
-2.43723

> <CNNscore>
0.3332011104

> <CNNaffinity>
4.9675087929

> <CNN_VS>
1.6551795006

> <CNNaffinity_variance>
0.3705214560

$$$$
[H]/C(=C1\C(=O)N([H])c2c([H])c([H])c(F)c([H])c21)c1c(C([H])([H])[H])c(C(=O)N([H])C([H])([H])C([H])([H])N(C([H])([H])C([H])([H])[H])C([H])([H])C([H])([H])[H])c(C([H])([H])[H])n1[H]


 32 34  0  0  0  0  0  0  0  0999 V2000
  -16.2982   -6.1098    4.7802 C   0  0  0  0  0  0  0  0  0  0  0  0
  -15.8515   -4.8655    4.3250 C   0  0  0  0  0  0  0  0  0  0  0  0
  -14.5379   -4.5856    3.6499 C   0  0  0  0  0  0  0  0  0  0  0  0
  -16.8107   -3.9775    4.5973 N   0  0  0  0  0  0  0  0  0  0  0  0
  -17.8490   -4.5439    5.1935 C   0  0  0  0  0  0  0  0  0  0  0  0
  -17.5412   -5.8794    5.3147 C   0  0  0  0  0  0  0  0  0  0  0  0
  -18.4367   -6.9233    5.9248 C   0  0  0  0  0  0  0  0  0  0  0  0
  -16.7457   -2.9380    4.3635 H   0  0  0  0  0  0  0  0  0  0  0  0
  -19.0474   -3.8991    5.6422 C   0  0  0  0  0  0  0  0  0  0  0  0
  -19.8641   -3.1741    4.9374 C   0  0  0  0  0  0  0  0  0  0  0  0
  -21.0907   -2.5166    5.4646 C   0  0  0  0  0  0  0  0  0  0  0  0
  -21.5162   -2.5344    6.6393 O   0  0  0  0  0  0  0  0  0  0  0  0
  -21.6849   -1.8598    4.3580 N   0  0  0  0  0  0  0  0  0  0  0  0
  -20.8837   -2.0924    3.2106 C   0  0  0  0  0  0  0  0  0  0  0  0
  -21.0853   -1.6595    1.9233 C   0  0  0  0  0  0  0  0  0  0  0  0
  -20.1977   -2.0111    0.9488 C   0  0  0  0  0  0  0  0  0  0  0  0
  -19.1146   -2.7960    1.2705 C   0  0  0  0  0  0  0  0  0  0  0  0
  -18.2718   -3.1055    0.2396 F   0  0  0  0  0  0  0  0  0  0  0  0
  -18.8868   -3.2455    2.5595 C   0  0  0  0  0  0  0  0  0  0  0  0
  -19.7793   -2.8856    3.5352 C   0  0  0  0  0  0  0  0  0  0  0  0
  -22.5803   -1.2893    4.3742 H   0  0  0  0  0  0  0  0  0  0  0  0
  -14.8458   -8.0151    5.6554 N   0  0  0  0  0  0  0  0  0  0  0  0
  -15.5230   -7.3461    4.6260 C   0  0  0  0  0  0  0  0  0  0  0  0
  -15.4734   -7.8262    3.4573 O   0  0  0  0  0  0  0  0  0  0  0  0
  -14.8556   -7.6510    6.6299 H   0  0  0  0  0  0  0  0  0  0  0  0
  -14.1065   -9.2273    5.3931 C   0  0  0  0  0  0  0  0  0  0  0  0
  -13.3984   -9.7850    6.5931 C   0  0  0  0  0  0  0  0  0  0  0  0
  -12.9388   -8.7748    7.4622 N   0  0  0  0  0  0  0  0  0  0  0  0
  -13.2520   -7.4310    9.5126 C   0  0  0  0  0  0  0  0  0  0  0  0
  -13.5544   -8.6631    8.6928 C   0  0  0  0  0  0  0  0  0  0  0  0
  -11.6709   -8.2352    7.2752 C   0  0  0  0  0  0  0  0  0  0  0  0
  -10.5673   -9.1697    7.6766 C   0  0  0  0  0  0  0  0  0  0  0  0
 29 30  1  0  0  0
 30 28  1  0  0  0
 28 31  1  0  0  0
 31 32  1  0  0  0
 28 27  1  0  0  0
 27 26  1  0  0  0
 26 22  1  0  0  0
 22 23  1  0  0  0
 23 24  2  0  0  0
 23  1  1  0  0  0
  1  2  2  0  0  0
  2  3  1  0  0  0
  2  4  1  0  0  0
  4  5  1  0  0  0
  5  9  1  0  0  0
  9 10  2  0  0  0
 10 11  1  0  0  0
 11 12  2  0  0  0
 11 13  1  0  0  0
 13 14  1  0  0  0
 14 15  2  0  0  0
 15 16  1  0  0  0
 16 17  2  0  0  0
 17 18  1  0  0  0
 17 19  1  0  0  0
 19 20  2  0  0  0
  5  6  2  0  0  0
  6  7  1  0  0  0
  6  1  1  0  0  0
 20 10  1  0  0  0
 20 14  1  0  0  0
 22 25  1  0  0  0
  4  8  1  0  0  0
 13 21  1  0  0  0
M  END
> <minimizedAffinity>
25.37696

> <CNNscore>
0.6123757958

> <CNNaffinity>
7.1987924576

> <CNN_VS>
4.4083662033

> <CNNaffinity_variance>
0.5619837046

$$$$
[H]/C(=C1\C(=O)N([H])c2c([H])c([H])c(F)c([H])c21)c1c(C([H])([H])[H])c(C(=O)N([H])C([H])([H])C([H])([H])N(C([H])([H])C([H])([H])[H])C([H])([H])C([H])([H])[H])c(C([H])([H])[H])n1[H]


 32 34  0  0  0  0  0  0  0  0999 V2000
  -13.0203   -7.5208    7.8609 C   0  0  0  0  0  0  0  0  0  0  0  0
  -12.4797   -6.7873    8.9215 C   0  0  0  0  0  0  0  0  0  0  0  0
  -13.1106   -5.5995    9.5929 C   0  0  0  0  0  0  0  0  0  0  0  0
  -11.3048   -7.3426    9.2276 N   0  0  0  0  0  0  0  0  0  0  0  0
  -11.0357   -8.3814    8.4512 C   0  0  0  0  0  0  0  0  0  0  0  0
  -12.1018   -8.5040    7.5901 C   0  0  0  0  0  0  0  0  0  0  0  0
  -12.2418   -9.5616    6.5291 C   0  0  0  0  0  0  0  0  0  0  0  0
  -10.6615   -6.9895   10.0028 H   0  0  0  0  0  0  0  0  0  0  0  0
   -9.8637   -9.2052    8.4827 C   0  0  0  0  0  0  0  0  0  0  0  0
   -8.7550   -9.0244    7.8292 C   0  0  0  0  0  0  0  0  0  0  0  0
   -7.5722   -9.9255    7.8927 C   0  0  0  0  0  0  0  0  0  0  0  0
   -7.4583  -10.9832    8.5482 O   0  0  0  0  0  0  0  0  0  0  0  0
   -6.5923   -9.3393    7.0529 N   0  0  0  0  0  0  0  0  0  0  0  0
   -7.1254   -8.1464    6.5003 C   0  0  0  0  0  0  0  0  0  0  0  0
   -6.5243   -7.2549    5.6465 C   0  0  0  0  0  0  0  0  0  0  0  0
   -7.2083   -6.1463    5.2412 C   0  0  0  0  0  0  0  0  0  0  0  0
   -8.4900   -5.9375    5.6956 C   0  0  0  0  0  0  0  0  0  0  0  0
   -9.1083   -4.8047    5.2447 F   0  0  0  0  0  0  0  0  0  0  0  0
   -9.1200   -6.8199    6.5558 C   0  0  0  0  0  0  0  0  0  0  0  0
   -8.4298   -7.9339    6.9563 C   0  0  0  0  0  0  0  0  0  0  0  0
   -5.6190   -9.7198    6.8646 H   0  0  0  0  0  0  0  0  0  0  0  0
  -15.5151   -7.9311    7.5240 N   0  0  0  0  0  0  0  0  0  0  0  0
  -14.3299   -7.2272    7.2676 C   0  0  0  0  0  0  0  0  0  0  0  0
  -14.3658   -6.2566    6.4580 O   0  0  0  0  0  0  0  0  0  0  0  0
  -15.5285   -8.7397    8.1784 H   0  0  0  0  0  0  0  0  0  0  0  0
  -16.7535   -7.5600    6.8810 C   0  0  0  0  0  0  0  0  0  0  0  0
  -17.0036   -8.2647    5.5798 C   0  0  0  0  0  0  0  0  0  0  0  0
  -16.9300   -7.3928    4.4748 N   0  0  0  0  0  0  0  0  0  0  0  0
  -14.9553   -8.7299    3.8258 C   0  0  0  0  0  0  0  0  0  0  0  0
  -15.8523   -7.5315    3.6233 C   0  0  0  0  0  0  0  0  0  0  0  0
  -18.0816   -6.7533    4.0292 C   0  0  0  0  0  0  0  0  0  0  0  0
  -18.0637   -5.2719    4.2689 C   0  0  0  0  0  0  0  0  0  0  0  0
 29 30  1  0  0  0
 30 28  1  0  0  0
 28 31  1  0  0  0
 31 32  1  0  0  0
 28 27  1  0  0  0
 27 26  1  0  0  0
 26 22  1  0  0  0
 22 23  1  0  0  0
 23 24  2  0  0  0
 23  1  1  0  0  0
  1  2  2  0  0  0
  2  3  1  0  0  0
  2  4  1  0  0  0
  4  5  1  0  0  0
  5  9  1  0  0  0
  9 10  2  0  0  0
 10 11  1  0  0  0
 11 12  2  0  0  0
 11 13  1  0  0  0
 13 14  1  0  0  0
 14 15  2  0  0  0
 15 16  1  0  0  0
 16 17  2  0  0  0
 17 18  1  0  0  0
 17 19  1  0  0  0
 19 20  2  0  0  0
  5  6  2  0  0  0
  6  7  1  0  0  0
  6  1  1  0  0  0
 20 10  1  0  0  0
 20 14  1  0  0  0
 22 25  1  0  0  0
  4  8  1  0  0  0
 13 21  1  0  0  0
M  END
> <minimizedAffinity>
-6.11249

> <CNNscore>
0.3328289986

> <CNNaffinity>
7.1551918983

> <CNN_VS>
2.3814554214

> <CNNaffinity_variance>
0.1487268656

$$$$
[H]/C(=C1\C(=O)N([H])c2c([H])c([H])c(F)c([H])c21)c1c(C([H])([H])[H])c(C(=O)N([H])C([H])([H])C([H])([H])N(C([H])([H])C([H])([H])[H])C([H])([H])C([H])([H])[H])c(C([H])([H])[H])n1[H]


 32 34  0  0  0  0  0  0  0  0999 V2000
  -11.5205   -8.2354    6.9927 C   0  0  0  0  0  0  0  0  0  0  0  0
  -11.6267   -9.6287    6.9433 C   0  0  0  0  0  0  0  0  0  0  0  0
  -12.8673  -10.4351    7.2085 C   0  0  0  0  0  0  0  0  0  0  0  0
  -10.4243  -10.1052    6.6120 N   0  0  0  0  0  0  0  0  0  0  0  0
   -9.5414   -9.1329    6.4402 C   0  0  0  0  0  0  0  0  0  0  0  0
  -10.2145   -7.9564    6.6761 C   0  0  0  0  0  0  0  0  0  0  0  0
   -9.6129   -6.5804    6.5849 C   0  0  0  0  0  0  0  0  0  0  0  0
  -10.2034  -11.1436    6.5014 H   0  0  0  0  0  0  0  0  0  0  0  0
   -8.1572   -9.2713    6.0966 C   0  0  0  0  0  0  0  0  0  0  0  0
   -7.1359   -8.7598    6.7166 C   0  0  0  0  0  0  0  0  0  0  0  0
   -5.7163   -8.9283    6.3025 C   0  0  0  0  0  0  0  0  0  0  0  0
   -5.2842   -9.5528    5.3103 O   0  0  0  0  0  0  0  0  0  0  0  0
   -4.9457   -8.2319    7.2670 N   0  0  0  0  0  0  0  0  0  0  0  0
   -5.8250   -7.6653    8.2252 C   0  0  0  0  0  0  0  0  0  0  0  0
   -5.5157   -6.9218    9.3372 C   0  0  0  0  0  0  0  0  0  0  0  0
   -6.5177   -6.4804   10.1510 C   0  0  0  0  0  0  0  0  0  0  0  0
   -7.8234   -6.7886    9.8459 C   0  0  0  0  0  0  0  0  0  0  0  0
   -8.7692   -6.3106   10.7095 F   0  0  0  0  0  0  0  0  0  0  0  0
   -8.1634   -7.5353    8.7314 C   0  0  0  0  0  0  0  0  0  0  0  0
   -7.1532   -7.9724    7.9151 C   0  0  0  0  0  0  0  0  0  0  0  0
   -3.8874   -8.1452    7.2803 H   0  0  0  0  0  0  0  0  0  0  0  0
  -13.9237   -7.4308    6.7039 N   0  0  0  0  0  0  0  0  0  0  0  0
  -12.6545   -7.3545    7.2948 C   0  0  0  0  0  0  0  0  0  0  0  0
  -12.4432   -6.4575    8.1607 O   0  0  0  0  0  0  0  0  0  0  0  0
  -14.1379   -8.1495    5.9829 H   0  0  0  0  0  0  0  0  0  0  0  0
  -14.9714   -6.5082    7.0723 C   0  0  0  0  0  0  0  0  0  0  0  0
  -16.0700   -7.1232    7.8894 C   0  0  0  0  0  0  0  0  0  0  0  0
  -15.5787   -8.0164    8.8628 N   0  0  0  0  0  0  0  0  0  0  0  0
  -17.4509   -9.6291    8.8130 C   0  0  0  0  0  0  0  0  0  0  0  0
  -15.9694   -9.3374    8.7717 C   0  0  0  0  0  0  0  0  0  0  0  0
  -14.4359   -7.6845    9.5821 C   0  0  0  0  0  0  0  0  0  0  0  0
  -14.4343   -8.2406   10.9761 C   0  0  0  0  0  0  0  0  0  0  0  0
 29 30  1  0  0  0
 30 28  1  0  0  0
 28 31  1  0  0  0
 31 32  1  0  0  0
 28 27  1  0  0  0
 27 26  1  0  0  0
 26 22  1  0  0  0
 22 23  1  0  0  0
 23 24  2  0  0  0
 23  1  1  0  0  0
  1  2  2  0  0  0
  2  3  1  0  0  0
  2  4  1  0  0  0
  4  5  1  0  0  0
  5  9  1  0  0  0
  9 10  2  0  0  0
 10 11  1  0  0  0
 11 12  2  0  0  0
 11 13  1  0  0  0
 13 14  1  0  0  0
 14 15  2  0  0  0
 15 16  1  0  0  0
 16 17  2  0  0  0
 17 18  1  0  0  0
 17 19  1  0  0  0
 19 20  2  0  0  0
  5  6  2  0  0  0
  6  7  1  0  0  0
  6  1  1  0  0  0
 20 10  1  0  0  0
 20 14  1  0  0  0
 22 25  1  0  0  0
  4  8  1  0  0  0
 13 21  1  0  0  0
M  END
> <minimizedAffinity>
9.85341

> <CNNscore>
0.3092355430

> <CNNaffinity>
6.5805654526

> <CNN_VS>
2.0349447727

> <CNNaffinity_variance>
1.3502967358

$$$$
[H]/C(=C1\C(=O)N([H])c2c([H])c([H])c(F)c([H])c21)c1c(C([H])([H])[H])c(C(=O)N([H])C([H])([H])C([H])([H])N(C([H])([H])C([H])([H])[H])C([H])([H])C([H])([H])[H])c(C([H])([H])[H])n1[H]


 32 34  0  0  0  0  0  0  0  0999 V2000
  -11.2783   -8.0589    7.8778 C   0  0  0  0  0  0  0  0  0  0  0  0
  -10.4664   -9.1038    7.4260 C   0  0  0  0  0  0  0  0  0  0  0  0
  -10.9062  -10.2727    6.5894 C   0  0  0  0  0  0  0  0  0  0  0  0
   -9.2307   -8.8649    7.8714 N   0  0  0  0  0  0  0  0  0  0  0  0
   -9.1712   -7.7461    8.5778 C   0  0  0  0  0  0  0  0  0  0  0  0
  -10.4471   -7.2312    8.5902 C   0  0  0  0  0  0  0  0  0  0  0  0
  -10.8590   -5.9522    9.2673 C   0  0  0  0  0  0  0  0  0  0  0  0
   -8.3944   -9.5006    7.6817 H   0  0  0  0  0  0  0  0  0  0  0  0
   -8.0181   -7.1874    9.2193 C   0  0  0  0  0  0  0  0  0  0  0  0
   -6.7964   -7.1775    8.7759 C   0  0  0  0  0  0  0  0  0  0  0  0
   -5.6336   -6.5915    9.4966 C   0  0  0  0  0  0  0  0  0  0  0  0
   -5.6338   -6.0465   10.6210 O   0  0  0  0  0  0  0  0  0  0  0  0
   -4.5158   -6.7774    8.6451 N   0  0  0  0  0  0  0  0  0  0  0  0
   -4.9501   -7.4354    7.4658 C   0  0  0  0  0  0  0  0  0  0  0  0
   -4.2112   -7.8024    6.3683 C   0  0  0  0  0  0  0  0  0  0  0  0
   -4.8275   -8.4159    5.3172 C   0  0  0  0  0  0  0  0  0  0  0  0
   -6.1810   -8.6562    5.3721 C   0  0  0  0  0  0  0  0  0  0  0  0
   -6.7245   -9.2741    4.2805 F   0  0  0  0  0  0  0  0  0  0  0  0
   -6.9495   -8.2977    6.4658 C   0  0  0  0  0  0  0  0  0  0  0  0
   -6.3244   -7.6856    7.5206 C   0  0  0  0  0  0  0  0  0  0  0  0
   -3.5175   -6.4761    8.8460 H   0  0  0  0  0  0  0  0  0  0  0  0
  -13.7258   -8.7318    8.1293 N   0  0  0  0  0  0  0  0  0  0  0  0
  -12.7067   -7.9567    7.5577 C   0  0  0  0  0  0  0  0  0  0  0  0
  -13.0188   -7.0932    6.6883 O   0  0  0  0  0  0  0  0  0  0  0  0
  -13.5120   -9.4575    8.8434 H   0  0  0  0  0  0  0  0  0  0  0  0
  -15.1040   -8.5521    7.7383 C   0  0  0  0  0  0  0  0  0  0  0  0
  -15.3237   -7.4308    6.7652 C   0  0  0  0  0  0  0  0  0  0  0  0
  -16.0708   -7.8354    5.6405 N   0  0  0  0  0  0  0  0  0  0  0  0
  -14.8842   -8.3128    3.5257 C   0  0  0  0  0  0  0  0  0  0  0  0
  -15.5130   -8.7898    4.8136 C   0  0  0  0  0  0  0  0  0  0  0  0
  -17.4451   -7.6245    5.6194 C   0  0  0  0  0  0  0  0  0  0  0  0
  -18.1932   -8.6875    4.8693 C   0  0  0  0  0  0  0  0  0  0  0  0
 29 30  1  0  0  0
 30 28  1  0  0  0
 28 31  1  0  0  0
 31 32  1  0  0  0
 28 27  1  0  0  0
 27 26  1  0  0  0
 26 22  1  0  0  0
 22 23  1  0  0  0
 23 24  2  0  0  0
 23  1  1  0  0  0
  1  2  2  0  0  0
  2  3  1  0  0  0
  2  4  1  0  0  0
  4  5  1  0  0  0
  5  9  1  0  0  0
  9 10  2  0  0  0
 10 11  1  0  0  0
 11 12  2  0  0  0
 11 13  1  0  0  0
 13 14  1  0  0  0
 14 15  2  0  0  0
 15 16  1  0  0  0
 16 17  2  0  0  0
 17 18  1  0  0  0
 17 19  1  0  0  0
 19 20  2  0  0  0
  5  6  2  0  0  0
  6  7  1  0  0  0
  6  1  1  0  0  0
 20 10  1  0  0  0
 20 14  1  0  0  0
 22 25  1  0  0  0
  4  8  1  0  0  0
 13 21  1  0  0  0
M  END
> <minimizedAffinity>
-5.19773

> <CNNscore>
0.2467599362

> <CNNaffinity>
6.7355384827

> <CNN_VS>
1.6620610952

> <CNNaffinity_variance>
0.0658232272

$$$$
[H]/C(=C1\C(=O)N([H])c2c([H])c([H])c(F)c([H])c21)c1c(C([H])([H])[H])c(C(=O)N([H])C([H])([H])C([H])([H])N(C([H])([H])C([H])([H])[H])C([H])([H])C([H])([H])[H])c(C([H])([H])[H])n1[H]


 32 34  0  0  0  0  0  0  0  0999 V2000
  -13.0262   -8.5465    7.0482 C   0  0  0  0  0  0  0  0  0  0  0  0
  -12.7930   -9.2973    5.8919 C   0  0  0  0  0  0  0  0  0  0  0  0
  -13.7058   -9.4035    4.7024 C   0  0  0  0  0  0  0  0  0  0  0  0
  -11.6086   -9.8951    6.0412 N   0  0  0  0  0  0  0  0  0  0  0  0
  -11.0494   -9.5933    7.2033 C   0  0  0  0  0  0  0  0  0  0  0  0
  -11.9269   -8.7496    7.8445 C   0  0  0  0  0  0  0  0  0  0  0  0
  -11.7050   -8.1356    9.2000 C   0  0  0  0  0  0  0  0  0  0  0  0
  -11.1687  -10.5389    5.3122 H   0  0  0  0  0  0  0  0  0  0  0  0
   -9.7925  -10.0621    7.7070 C   0  0  0  0  0  0  0  0  0  0  0  0
   -8.6314   -9.4910    7.5846 C   0  0  0  0  0  0  0  0  0  0  0  0
   -7.3539  -10.0351    8.1201 C   0  0  0  0  0  0  0  0  0  0  0  0
   -7.1861  -11.1072    8.7396 O   0  0  0  0  0  0  0  0  0  0  0  0
   -6.3566   -9.0859    7.7834 N   0  0  0  0  0  0  0  0  0  0  0  0
   -6.9695   -8.0147    7.0840 C   0  0  0  0  0  0  0  0  0  0  0  0
   -6.3890   -6.8763    6.5818 C   0  0  0  0  0  0  0  0  0  0  0  0
   -7.1644   -5.9483    5.9506 C   0  0  0  0  0  0  0  0  0  0  0  0
   -8.5173   -6.1664    5.8282 C   0  0  0  0  0  0  0  0  0  0  0  0
   -9.2254   -5.1907    5.1837 F   0  0  0  0  0  0  0  0  0  0  0  0
   -9.1282   -7.3049    6.3241 C   0  0  0  0  0  0  0  0  0  0  0  0
   -8.3437   -8.2358    6.9534 C   0  0  0  0  0  0  0  0  0  0  0  0
   -5.3223   -9.1547    8.0137 H   0  0  0  0  0  0  0  0  0  0  0  0
  -15.5404   -8.1217    6.9828 N   0  0  0  0  0  0  0  0  0  0  0  0
  -14.2224   -7.7183    7.2395 C   0  0  0  0  0  0  0  0  0  0  0  0
  -14.0212   -6.5460    7.6686 O   0  0  0  0  0  0  0  0  0  0  0  0
  -15.7497   -9.0752    6.6231 H   0  0  0  0  0  0  0  0  0  0  0  0
  -16.6487   -7.2227    7.2024 C   0  0  0  0  0  0  0  0  0  0  0  0
  -16.9893   -6.3686    6.0163 C   0  0  0  0  0  0  0  0  0  0  0  0
  -16.3621   -6.8156    4.8357 N   0  0  0  0  0  0  0  0  0  0  0  0
  -18.4639   -7.4140    3.6813 C   0  0  0  0  0  0  0  0  0  0  0  0
  -17.0390   -7.7384    4.0637 C   0  0  0  0  0  0  0  0  0  0  0  0
  -15.3514   -6.0497    4.2651 C   0  0  0  0  0  0  0  0  0  0  0  0
  -15.2885   -4.6539    4.8130 C   0  0  0  0  0  0  0  0  0  0  0  0
 29 30  1  0  0  0
 30 28  1  0  0  0
 28 31  1  0  0  0
 31 32  1  0  0  0
 28 27  1  0  0  0
 27 26  1  0  0  0
 26 22  1  0  0  0
 22 23  1  0  0  0
 23 24  2  0  0  0
 23  1  1  0  0  0
  1  2  2  0  0  0
  2  3  1  0  0  0
  2  4  1  0  0  0
  4  5  1  0  0  0
  5  9  1  0  0  0
  9 10  2  0  0  0
 10 11  1  0  0  0
 11 12  2  0  0  0
 11 13  1  0  0  0
 13 14  1  0  0  0
 14 15  2  0  0  0
 15 16  1  0  0  0
 16 17  2  0  0  0
 17 18  1  0  0  0
 17 19  1  0  0  0
 19 20  2  0  0  0
  5  6  2  0  0  0
  6  7  1  0  0  0
  6  1  1  0  0  0
 20 10  1  0  0  0
 20 14  1  0  0  0
 22 25  1  0  0  0
  4  8  1  0  0  0
 13 21  1  0  0  0
M  END
> <minimizedAffinity>
-3.41696

> <CNNscore>
0.2189348042

> <CNNaffinity>
7.0044364929

> <CNN_VS>
1.5335149765

> <CNNaffinity_variance>
0.1255013645

$$$$
[H]/C(=C1\C(=O)N([H])c2c([H])c([H])c(F)c([H])c21)c1c(C([H])([H])[H])c(C(=O)N([H])C([H])([H])C([H])([H])N(C([H])([H])C([H])([H])[H])C([H])([H])C([H])([H])[H])c(C([H])([H])[H])n1[H]


 32 34  0  0  0  0  0  0  0  0999 V2000
   -7.7390   -8.0282    7.6178 C   0  0  0  0  0  0  0  0  0  0  0  0
   -8.0312   -9.3471    7.9786 C   0  0  0  0  0  0  0  0  0  0  0  0
   -7.0646  -10.3471    8.5491 C   0  0  0  0  0  0  0  0  0  0  0  0
   -9.3269   -9.5478    7.7269 N   0  0  0  0  0  0  0  0  0  0  0  0
   -9.9043   -8.4638    7.2310 C   0  0  0  0  0  0  0  0  0  0  0  0
   -8.9209   -7.5043    7.1569 C   0  0  0  0  0  0  0  0  0  0  0  0
   -9.1183   -6.0973    6.6618 C   0  0  0  0  0  0  0  0  0  0  0  0
   -9.8333  -10.4709    7.9029 H   0  0  0  0  0  0  0  0  0  0  0  0
  -11.2726   -8.3174    6.8317 C   0  0  0  0  0  0  0  0  0  0  0  0
  -12.2219   -7.7090    7.4782 C   0  0  0  0  0  0  0  0  0  0  0  0
  -13.6328   -7.6012    7.0171 C   0  0  0  0  0  0  0  0  0  0  0  0
  -14.1293   -8.0792    5.9749 O   0  0  0  0  0  0  0  0  0  0  0  0
  -14.3070   -6.8416    8.0058 N   0  0  0  0  0  0  0  0  0  0  0  0
  -13.3783   -6.4937    9.0201 C   0  0  0  0  0  0  0  0  0  0  0  0
  -13.5896   -5.7546   10.1578 C   0  0  0  0  0  0  0  0  0  0  0  0
  -12.5488   -5.5137   11.0062 C   0  0  0  0  0  0  0  0  0  0  0  0
  -11.3023   -6.0136   10.7079 C   0  0  0  0  0  0  0  0  0  0  0  0
  -10.3121   -5.7292   11.6064 F   0  0  0  0  0  0  0  0  0  0  0  0
  -11.0614   -6.7620    9.5689 C   0  0  0  0  0  0  0  0  0  0  0  0
  -12.1115   -7.0046    8.7225 C   0  0  0  0  0  0  0  0  0  0  0  0
  -15.3338   -6.5709    7.9966 H   0  0  0  0  0  0  0  0  0  0  0  0
   -6.0637   -6.4715    8.7475 N   0  0  0  0  0  0  0  0  0  0  0  0
   -6.4105   -7.4270    7.7818 C   0  0  0  0  0  0  0  0  0  0  0  0
   -5.5226   -7.8166    6.9701 O   0  0  0  0  0  0  0  0  0  0  0  0
   -6.7651   -6.1193    9.4304 H   0  0  0  0  0  0  0  0  0  0  0  0
   -4.7231   -5.9404    8.8193 C   0  0  0  0  0  0  0  0  0  0  0  0
   -4.4409   -5.1554   10.0670 C   0  0  0  0  0  0  0  0  0  0  0  0
   -3.3500   -4.2763    9.9123 N   0  0  0  0  0  0  0  0  0  0  0  0
   -2.9743   -2.4264    8.3170 C   0  0  0  0  0  0  0  0  0  0  0  0
   -3.0075   -3.9042    8.6277 C   0  0  0  0  0  0  0  0  0  0  0  0
   -2.9439   -3.4931   10.9872 C   0  0  0  0  0  0  0  0  0  0  0  0
   -3.3362   -4.0679   12.3169 C   0  0  0  0  0  0  0  0  0  0  0  0
 29 30  1  0  0  0
 30 28  1  0  0  0
 28 31  1  0  0  0
 31 32  1  0  0  0
 28 27  1  0  0  0
 27 26  1  0  0  0
 26 22  1  0  0  0
 22 23  1  0  0  0
 23 24  2  0  0  0
 23  1  1  0  0  0
  1  2  2  0  0  0
  2  3  1  0  0  0
  2  4  1  0  0  0
  4  5  1  0  0  0
  5  9  1  0  0  0
  9 10  2  0  0  0
 10 11  1  0  0  0
 11 12  2  0  0  0
 11 13  1  0  0  0
 13 14  1  0  0  0
 14 15  2  0  0  0
 15 16  1  0  0  0
 16 17  2  0  0  0
 17 18  1  0  0  0
 17 19  1  0  0  0
 19 20  2  0  0  0
  5  6  2  0  0  0
  6  7  1  0  0  0
  6  1  1  0  0  0
 20 10  1  0  0  0
 20 14  1  0  0  0
 22 25  1  0  0  0
  4  8  1  0  0  0
 13 21  1  0  0  0
M  END
> <minimizedAffinity>
-5.56158

> <CNNscore>
0.2177077234

> <CNNaffinity>
6.2717123032

> <CNN_VS>
1.3654001951

> <CNNaffinity_variance>
0.0753653049

$$$$
[H]/C(=C1\C(=O)N([H])c2c([H])c([H])c(F)c([H])c21)c1c(C([H])([H])[H])c(C(=O)N([H])C([H])([H])C([H])([H])N(C([H])([H])C([H])([H])[H])C([H])([H])C([H])([H])[H])c(C([H])([H])[H])n1[H]


 32 34  0  0  0  0  0  0  0  0999 V2000
   -9.7216   -8.5187    7.5453 C   0  0  0  0  0  0  0  0  0  0  0  0
  -10.2083   -9.7761    7.1752 C   0  0  0  0  0  0  0  0  0  0  0  0
   -9.4751  -10.8101    6.3670 C   0  0  0  0  0  0  0  0  0  0  0  0
  -11.4402   -9.8866    7.6780 N   0  0  0  0  0  0  0  0  0  0  0  0
  -11.7961   -8.8009    8.3480 C   0  0  0  0  0  0  0  0  0  0  0  0
  -10.7290   -7.9357    8.2725 C   0  0  0  0  0  0  0  0  0  0  0  0
  -10.6736   -6.5708    8.9032 C   0  0  0  0  0  0  0  0  0  0  0  0
  -12.0614  -10.7456    7.5524 H   0  0  0  0  0  0  0  0  0  0  0  0
  -13.0462   -8.5605    9.0058 C   0  0  0  0  0  0  0  0  0  0  0  0
  -14.2101   -8.3958    8.4514 C   0  0  0  0  0  0  0  0  0  0  0  0
  -15.4758   -8.1349    9.1895 C   0  0  0  0  0  0  0  0  0  0  0  0
  -15.6232   -8.0145   10.4244 O   0  0  0  0  0  0  0  0  0  0  0  0
  -16.4896   -8.0487    8.2027 N   0  0  0  0  0  0  0  0  0  0  0  0
  -15.8981   -8.2453    6.9283 C   0  0  0  0  0  0  0  0  0  0  0  0
  -16.5035   -8.2578    5.6960 C   0  0  0  0  0  0  0  0  0  0  0  0
  -15.7523   -8.4849    4.5801 C   0  0  0  0  0  0  0  0  0  0  0  0
  -14.3993   -8.6999    4.7067 C   0  0  0  0  0  0  0  0  0  0  0  0
  -13.7164   -8.9202    3.5431 F   0  0  0  0  0  0  0  0  0  0  0  0
  -13.7635   -8.6919    5.9359 C   0  0  0  0  0  0  0  0  0  0  0  0
  -14.5222   -8.4590    7.0531 C   0  0  0  0  0  0  0  0  0  0  0  0
  -17.5216   -7.8701    8.3778 H   0  0  0  0  0  0  0  0  0  0  0  0
   -7.1752   -8.5954    7.6714 N   0  0  0  0  0  0  0  0  0  0  0  0
   -8.3759   -8.0459    7.2003 C   0  0  0  0  0  0  0  0  0  0  0  0
   -8.3213   -7.0569    6.4143 O   0  0  0  0  0  0  0  0  0  0  0  0
   -7.1750   -9.4053    8.3244 H   0  0  0  0  0  0  0  0  0  0  0  0
   -5.9003   -8.0488    7.2707 C   0  0  0  0  0  0  0  0  0  0  0  0
   -5.4229   -6.9141    8.1293 C   0  0  0  0  0  0  0  0  0  0  0  0
   -4.8020   -5.8966    7.3770 N   0  0  0  0  0  0  0  0  0  0  0  0
   -3.9529   -4.9794    9.5091 C   0  0  0  0  0  0  0  0  0  0  0  0
   -3.8453   -5.1285    8.0098 C   0  0  0  0  0  0  0  0  0  0  0  0
   -4.8250   -5.9610    5.9881 C   0  0  0  0  0  0  0  0  0  0  0  0
   -3.7775   -5.1032    5.3406 C   0  0  0  0  0  0  0  0  0  0  0  0
 29 30  1  0  0  0
 30 28  1  0  0  0
 28 31  1  0  0  0
 31 32  1  0  0  0
 28 27  1  0  0  0
 27 26  1  0  0  0
 26 22  1  0  0  0
 22 23  1  0  0  0
 23 24  2  0  0  0
 23  1  1  0  0  0
  1  2  2  0  0  0
  2  3  1  0  0  0
  2  4  1  0  0  0
  4  5  1  0  0  0
  5  9  1  0  0  0
  9 10  2  0  0  0
 10 11  1  0  0  0
 11 12  2  0  0  0
 11 13  1  0  0  0
 13 14  1  0  0  0
 14 15  2  0  0  0
 15 16  1  0  0  0
 16 17  2  0  0  0
 17 18  1  0  0  0
 17 19  1  0  0  0
 19 20  2  0  0  0
  5  6  2  0  0  0
  6  7  1  0  0  0
  6  1  1  0  0  0
 20 10  1  0  0  0
 20 14  1  0  0  0
 22 25  1  0  0  0
  4  8  1  0  0  0
 13 21  1  0  0  0
M  END
> <minimizedAffinity>
-7.63900

> <CNNscore>
0.2147429287

> <CNNaffinity>
6.7475142479

> <CNN_VS>
1.4489809275

> <CNNaffinity_variance>
0.0360040739

$$$$
[H]/C(=C1\C(=O)N([H])c2c([H])c([H])c(F)c([H])c21)c1c(C([H])([H])[H])c(C(=O)N([H])C([H])([H])C([H])([H])N(C([H])([H])C([H])([H])[H])C([H])([H])C([H])([H])[H])c(C([H])([H])[H])n1[H]


 32 34  0  0  0  0  0  0  0  0999 V2000
  -11.7257   -7.9517    7.8906 C   0  0  0  0  0  0  0  0  0  0  0  0
  -11.8361   -9.1586    7.1933 C   0  0  0  0  0  0  0  0  0  0  0  0
  -10.6976   -9.9982    6.6847 C   0  0  0  0  0  0  0  0  0  0  0  0
  -13.1383   -9.4261    7.0700 N   0  0  0  0  0  0  0  0  0  0  0  0
  -13.8872   -8.4896    7.6325 C   0  0  0  0  0  0  0  0  0  0  0  0
  -13.0151   -7.5596    8.1500 C   0  0  0  0  0  0  0  0  0  0  0  0
  -13.4165   -6.3164    8.8965 C   0  0  0  0  0  0  0  0  0  0  0  0
  -13.5263  -10.2893    6.5762 H   0  0  0  0  0  0  0  0  0  0  0  0
  -15.3184   -8.4382    7.6802 C   0  0  0  0  0  0  0  0  0  0  0  0
  -16.1037   -7.6742    6.9812 C   0  0  0  0  0  0  0  0  0  0  0  0
  -17.5883   -7.6565    7.0849 C   0  0  0  0  0  0  0  0  0  0  0  0
  -18.3037   -8.3369    7.8508 O   0  0  0  0  0  0  0  0  0  0  0  0
  -18.0323   -6.7046    6.1332 N   0  0  0  0  0  0  0  0  0  0  0  0
  -16.8994   -6.1621    5.4737 C   0  0  0  0  0  0  0  0  0  0  0  0
  -16.8592   -5.2215    4.4743 C   0  0  0  0  0  0  0  0  0  0  0  0
  -15.6558   -4.8432    3.9550 C   0  0  0  0  0  0  0  0  0  0  0  0
  -14.5003   -5.4115    4.4395 C   0  0  0  0  0  0  0  0  0  0  0  0
  -13.3356   -4.9806    3.8680 F   0  0  0  0  0  0  0  0  0  0  0  0
  -14.5118   -6.3608    5.4464 C   0  0  0  0  0  0  0  0  0  0  0  0
  -15.7231   -6.7339    5.9674 C   0  0  0  0  0  0  0  0  0  0  0  0
  -19.0411   -6.4373    5.9374 H   0  0  0  0  0  0  0  0  0  0  0  0
   -9.3272   -7.2364    7.3992 N   0  0  0  0  0  0  0  0  0  0  0  0
  -10.4376   -7.3465    8.2481 C   0  0  0  0  0  0  0  0  0  0  0  0
  -10.3450   -6.8978    9.4267 O   0  0  0  0  0  0  0  0  0  0  0  0
   -9.3587   -7.5980    6.4242 H   0  0  0  0  0  0  0  0  0  0  0  0
   -8.1016   -6.6241    7.8548 C   0  0  0  0  0  0  0  0  0  0  0  0
   -7.0658   -7.6028    8.3259 C   0  0  0  0  0  0  0  0  0  0  0  0
   -5.8069   -7.3783    7.7331 N   0  0  0  0  0  0  0  0  0  0  0  0
   -6.4432   -8.5390    5.6459 C   0  0  0  0  0  0  0  0  0  0  0  0
   -5.4215   -8.2254    6.7134 C   0  0  0  0  0  0  0  0  0  0  0  0
   -5.2045   -6.1310    7.8566 C   0  0  0  0  0  0  0  0  0  0  0  0
   -3.7211   -6.2112    8.0700 C   0  0  0  0  0  0  0  0  0  0  0  0
 29 30  1  0  0  0
 30 28  1  0  0  0
 28 31  1  0  0  0
 31 32  1  0  0  0
 28 27  1  0  0  0
 27 26  1  0  0  0
 26 22  1  0  0  0
 22 23  1  0  0  0
 23 24  2  0  0  0
 23  1  1  0  0  0
  1  2  2  0  0  0
  2  3  1  0  0  0
  2  4  1  0  0  0
  4  5  1  0  0  0
  5  9  1  0  0  0
  9 10  2  0  0  0
 10 11  1  0  0  0
 11 12  2  0  0  0
 11 13  1  0  0  0
 13 14  1  0  0  0
 14 15  2  0  0  0
 15 16  1  0  0  0
 16 17  2  0  0  0
 17 18  1  0  0  0
 17 19  1  0  0  0
 19 20  2  0  0  0
  5  6  2  0  0  0
  6  7  1  0  0  0
  6  1  1  0  0  0
 20 10  1  0  0  0
 20 14  1  0  0  0
 22 25  1  0  0  0
  4  8  1  0  0  0
 13 21  1  0  0  0
M  END
> <minimizedAffinity>
-7.27676

> <CNNscore>
0.2085092962

> <CNNaffinity>
6.9882025719

> <CNN_VS>
1.4571051598

> <CNNaffinity_variance>
0.1371874511

$$$$
[H]/C(=C1\C(=O)N([H])c2c([H])c([H])c(F)c([H])c21)c1c(C([H])([H])[H])c(C(=O)N([H])C([H])([H])C([H])([H])N(C([H])([H])C([H])([H])[H])C([H])([H])C([H])([H])[H])c(C([H])([H])[H])n1[H]


 32 34  0  0  0  0  0  0  0  0999 V2000
  -12.8845   -8.0197    7.8143 C   0  0  0  0  0  0  0  0  0  0  0  0
  -13.6596   -7.3312    8.7524 C   0  0  0  0  0  0  0  0  0  0  0  0
  -13.1488   -6.6028    9.9640 C   0  0  0  0  0  0  0  0  0  0  0  0
  -14.9335   -7.4380    8.3671 N   0  0  0  0  0  0  0  0  0  0  0  0
  -15.0514   -8.1411    7.2509 C   0  0  0  0  0  0  0  0  0  0  0  0
  -13.7755   -8.5121    6.8938 C   0  0  0  0  0  0  0  0  0  0  0  0
  -13.4164   -9.3186    5.6754 C   0  0  0  0  0  0  0  0  0  0  0  0
  -15.7553   -7.0095    8.8968 H   0  0  0  0  0  0  0  0  0  0  0  0
  -16.2622   -8.4698    6.5586 C   0  0  0  0  0  0  0  0  0  0  0  0
  -16.8666   -7.7651    5.6490 C   0  0  0  0  0  0  0  0  0  0  0  0
  -18.1339   -8.1541    4.9728 C   0  0  0  0  0  0  0  0  0  0  0  0
  -18.8174   -9.1806    5.1741 O   0  0  0  0  0  0  0  0  0  0  0  0
  -18.4135   -7.1180    4.0469 N   0  0  0  0  0  0  0  0  0  0  0  0
  -17.3866   -6.1433    4.1353 C   0  0  0  0  0  0  0  0  0  0  0  0
  -17.2446   -4.9815    3.4176 C   0  0  0  0  0  0  0  0  0  0  0  0
  -16.1635   -4.1802    3.6421 C   0  0  0  0  0  0  0  0  0  0  0  0
  -15.2307   -4.5496    4.5835 C   0  0  0  0  0  0  0  0  0  0  0  0
  -14.1769   -3.6948    4.7500 F   0  0  0  0  0  0  0  0  0  0  0  0
  -15.3494   -5.7143    5.3214 C   0  0  0  0  0  0  0  0  0  0  0  0
  -16.4395   -6.5132    5.0948 C   0  0  0  0  0  0  0  0  0  0  0  0
  -19.2474   -7.0712    3.3911 H   0  0  0  0  0  0  0  0  0  0  0  0
  -10.5495   -6.9995    7.9275 N   0  0  0  0  0  0  0  0  0  0  0  0
  -11.4208   -8.0971    7.8845 C   0  0  0  0  0  0  0  0  0  0  0  0
  -10.9283   -9.2616    7.9027 O   0  0  0  0  0  0  0  0  0  0  0  0
  -10.9124   -6.0247    7.9083 H   0  0  0  0  0  0  0  0  0  0  0  0
   -9.1195   -7.1882    7.9920 C   0  0  0  0  0  0  0  0  0  0  0  0
   -8.3411   -6.2922    7.0734 C   0  0  0  0  0  0  0  0  0  0  0  0
   -6.9986   -6.6996    6.9373 N   0  0  0  0  0  0  0  0  0  0  0  0
   -5.0591   -6.2884    8.4130 C   0  0  0  0  0  0  0  0  0  0  0  0
   -6.3197   -7.0538    8.0859 C   0  0  0  0  0  0  0  0  0  0  0  0
   -6.5395   -7.1429    5.7018 C   0  0  0  0  0  0  0  0  0  0  0  0
   -6.5581   -8.6375    5.5675 C   0  0  0  0  0  0  0  0  0  0  0  0
 29 30  1  0  0  0
 30 28  1  0  0  0
 28 31  1  0  0  0
 31 32  1  0  0  0
 28 27  1  0  0  0
 27 26  1  0  0  0
 26 22  1  0  0  0
 22 23  1  0  0  0
 23 24  2  0  0  0
 23  1  1  0  0  0
  1  2  2  0  0  0
  2  3  1  0  0  0
  2  4  1  0  0  0
  4  5  1  0  0  0
  5  9  1  0  0  0
  9 10  2  0  0  0
 10 11  1  0  0  0
 11 12  2  0  0  0
 11 13  1  0  0  0
 13 14  1  0  0  0
 14 15  2  0  0  0
 15 16  1  0  0  0
 16 17  2  0  0  0
 17 18  1  0  0  0
 17 19  1  0  0  0
 19 20  2  0  0  0
  5  6  2  0  0  0
  6  7  1  0  0  0
  6  1  1  0  0  0
 20 10  1  0  0  0
 20 14  1  0  0  0
 22 25  1  0  0  0
  4  8  1  0  0  0
 13 21  1  0  0  0
M  END
> <minimizedAffinity>
-8.85626

> <CNNscore>
0.1908081621

> <CNNaffinity>
7.0027236938

> <CNN_VS>
1.3361768723

> <CNNaffinity_variance>
0.0813712552

$$$$
[H]c1nc(N([H])[H])nc(-c2c([H])c([H])c(-c3c([H])c([H])c(C#N)c(C(F)(F)F)c3[H])c(C([H])(F)F)c2[H])c1Cl


 31 33  0  0  0  0  0  0  0  0999 V2000
  -11.6975   -6.1206   10.7161 C   0  0  0  0  0  0  0  0  0  0  0  0
  -13.0027   -5.7301   10.5300 C   0  0  0  0  0  0  0  0  0  0  0  0
  -13.6635   -6.1025    9.3941 C   0  0  0  0  0  0  0  0  0  0  0  0
  -13.0692   -6.8702    8.4017 C   0  0  0  0  0  0  0  0  0  0  0  0
  -11.7766   -7.2617    8.5778 C   0  0  0  0  0  0  0  0  0  0  0  0
  -11.0792   -6.8842    9.7482 C   0  0  0  0  0  0  0  0  0  0  0  0
   -7.7354   -5.8325   13.4484 N   0  0  0  0  0  0  0  0  0  0  0  0
   -9.1128   -5.5669   13.2907 C   0  0  0  0  0  0  0  0  0  0  0  0
   -9.7206   -5.9335   12.1626 N   0  0  0  0  0  0  0  0  0  0  0  0
  -11.0399   -5.7101   11.9436 C   0  0  0  0  0  0  0  0  0  0  0  0
  -11.7497   -5.0811   12.9405 C   0  0  0  0  0  0  0  0  0  0  0  0
  -13.4656   -4.7386   12.8060 Cl  0  0  0  0  0  0  0  0  0  0  0  0
  -11.1294   -4.6903   14.1280 C   0  0  0  0  0  0  0  0  0  0  0  0
   -9.8187   -4.9526   14.2569 N   0  0  0  0  0  0  0  0  0  0  0  0
   -7.1171   -5.2374   14.0352 H   0  0  0  0  0  0  0  0  0  0  0  0
   -7.3208   -6.6528   12.9611 H   0  0  0  0  0  0  0  0  0  0  0  0
  -13.8225   -7.2284    7.2274 C   0  0  0  0  0  0  0  0  0  0  0  0
  -13.9590   -8.5074    6.7390 C   0  0  0  0  0  0  0  0  0  0  0  0
  -14.6974   -8.7512    5.6035 C   0  0  0  0  0  0  0  0  0  0  0  0
  -15.3342   -7.7659    4.8941 C   0  0  0  0  0  0  0  0  0  0  0  0
  -15.1911   -6.4711    5.3955 C   0  0  0  0  0  0  0  0  0  0  0  0
  -14.4568   -6.2121    6.5284 C   0  0  0  0  0  0  0  0  0  0  0  0
  -15.8399   -5.3400    4.7004 C   0  0  0  0  0  0  0  0  0  0  0  0
  -15.3223   -4.1427    5.1991 F   0  0  0  0  0  0  0  0  0  0  0  0
  -15.5210   -5.3685    3.3605 F   0  0  0  0  0  0  0  0  0  0  0  0
  -17.2012   -5.3300    4.8188 F   0  0  0  0  0  0  0  0  0  0  0  0
  -16.1115   -7.9782    3.7088 C   0  0  0  0  0  0  0  0  0  0  0  0
  -16.7243   -8.1600    2.7438 N   0  0  0  0  0  0  0  0  0  0  0  0
  -11.0789   -8.0760    7.5709 C   0  0  0  0  0  0  0  0  0  0  0  0
   -9.8594   -7.6101    7.1855 F   0  0  0  0  0  0  0  0  0  0  0  0
  -11.0565   -9.3893    8.0223 F   0  0  0  0  0  0  0  0  0  0  0  0
  7  8  1  0  0  0
  8  9  2  0  0  0
  9 10  1  0  0  0
 10 11  2  0  0  0
 11 12  1  0  0  0
 11 13  1  0  0  0
 13 14  2  0  0  0
 10  1  1  0  0  0
  1  2  2  0  0  0
  2  3  1  0  0  0
  3  4  2  0  0  0
  4 17  1  0  0  0
 17 18  2  0  0  0
 18 19  1  0  0  0
 19 20  2  0  0  0
 20 27  1  0  0  0
 27 28  3  0  0  0
 20 21  1  0  0  0
 21 22  2  0  0  0
 21 23  1  0  0  0
 23 24  1  0  0  0
 23 25  1  0  0  0
 23 26  1  0  0  0
  4  5  1  0  0  0
  5  6  2  0  0  0
  5 29  1  0  0  0
 29 30  1  0  0  0
 29 31  1  0  0  0
 14  8  1  0  0  0
  6  1  1  0  0  0
 22 17  1  0  0  0
  7 15  1  0  0  0
  7 16  1  0  0  0
M  END
> <minimizedAffinity>
0.88023

> <CNNscore>
0.5737213492

> <CNNaffinity>
6.8375763893

> <CNN_VS>
3.9228634834

> <CNNaffinity_variance>
0.4447173476

$$$$
[H]c1nc(N([H])[H])nc(-c2c([H])c([H])c(-c3c([H])c([H])c(C#N)c(C(F)(F)F)c3[H])c(C([H])(F)F)c2[H])c1Cl


 31 33  0  0  0  0  0  0  0  0999 V2000
  -15.4600   -7.4067    6.1399 C   0  0  0  0  0  0  0  0  0  0  0  0
  -14.3877   -7.6856    5.3257 C   0  0  0  0  0  0  0  0  0  0  0  0
  -13.1259   -7.6893    5.8486 C   0  0  0  0  0  0  0  0  0  0  0  0
  -12.8707   -7.4202    7.1865 C   0  0  0  0  0  0  0  0  0  0  0  0
  -13.9271   -7.1430    8.0004 C   0  0  0  0  0  0  0  0  0  0  0  0
  -15.2392   -7.1355    7.4741 C   0  0  0  0  0  0  0  0  0  0  0  0
  -19.7030   -9.5838    5.4297 N   0  0  0  0  0  0  0  0  0  0  0  0
  -18.8582   -8.4801    5.1828 C   0  0  0  0  0  0  0  0  0  0  0  0
  -17.6458   -8.4529    5.7359 N   0  0  0  0  0  0  0  0  0  0  0  0
  -16.7828   -7.4253    5.5419 C   0  0  0  0  0  0  0  0  0  0  0  0
  -17.2023   -6.3887    4.7402 C   0  0  0  0  0  0  0  0  0  0  0  0
  -16.1904   -4.9992    4.3867 Cl  0  0  0  0  0  0  0  0  0  0  0  0
  -18.4684   -6.4006    4.1532 C   0  0  0  0  0  0  0  0  0  0  0  0
  -19.2556   -7.4599    4.4015 N   0  0  0  0  0  0  0  0  0  0  0  0
  -20.7395   -9.5032    5.4269 H   0  0  0  0  0  0  0  0  0  0  0  0
  -19.2761  -10.5127    5.6215 H   0  0  0  0  0  0  0  0  0  0  0  0
  -11.5155   -7.4400    7.6741 C   0  0  0  0  0  0  0  0  0  0  0  0
  -10.9606   -6.4875    8.4973 C   0  0  0  0  0  0  0  0  0  0  0  0
   -9.6511   -6.5900    8.9080 C   0  0  0  0  0  0  0  0  0  0  0  0
   -8.8249   -7.6197    8.5383 C   0  0  0  0  0  0  0  0  0  0  0  0
   -9.3948   -8.5820    7.7031 C   0  0  0  0  0  0  0  0  0  0  0  0
  -10.7012   -8.4931    7.2846 C   0  0  0  0  0  0  0  0  0  0  0  0
   -8.5843   -9.7312    7.2491 C   0  0  0  0  0  0  0  0  0  0  0  0
   -9.4066  -10.6217    6.5557 F   0  0  0  0  0  0  0  0  0  0  0  0
   -7.6321   -9.3062    6.3487 F   0  0  0  0  0  0  0  0  0  0  0  0
   -7.9523  -10.3931    8.2637 F   0  0  0  0  0  0  0  0  0  0  0  0
   -7.4577   -7.7626    8.9439 C   0  0  0  0  0  0  0  0  0  0  0  0
   -6.3520   -7.8583    9.2727 N   0  0  0  0  0  0  0  0  0  0  0  0
  -13.7367   -6.8478    9.4288 C   0  0  0  0  0  0  0  0  0  0  0  0
  -13.8534   -5.5366    9.7750 F   0  0  0  0  0  0  0  0  0  0  0  0
  -14.5666   -7.6919   10.1553 F   0  0  0  0  0  0  0  0  0  0  0  0
  7  8  1  0  0  0
  8  9  2  0  0  0
  9 10  1  0  0  0
 10 11  2  0  0  0
 11 12  1  0  0  0
 11 13  1  0  0  0
 13 14  2  0  0  0
 10  1  1  0  0  0
  1  2  2  0  0  0
  2  3  1  0  0  0
  3  4  2  0  0  0
  4 17  1  0  0  0
 17 18  2  0  0  0
 18 19  1  0  0  0
 19 20  2  0  0  0
 20 27  1  0  0  0
 27 28  3  0  0  0
 20 21  1  0  0  0
 21 22  2  0  0  0
 21 23  1  0  0  0
 23 24  1  0  0  0
 23 25  1  0  0  0
 23 26  1  0  0  0
  4  5  1  0  0  0
  5  6  2  0  0  0
  5 29  1  0  0  0
 29 30  1  0  0  0
 29 31  1  0  0  0
 14  8  1  0  0  0
  6  1  1  0  0  0
 22 17  1  0  0  0
  7 15  1  0  0  0
  7 16  1  0  0  0
M  END
> <minimizedAffinity>
-8.06701

> <CNNscore>
0.4968724549

> <CNNaffinity>
7.2077341080

> <CNN_VS>
3.5813245773

> <CNNaffinity_variance>
0.2311393321

$$$$
[H]c1nc(N([H])[H])nc(-c2c([H])c([H])c(-c3c([H])c([H])c(C#N)c(C(F)(F)F)c3[H])c(C([H])(F)F)c2[H])c1Cl


 31 33  0  0  0  0  0  0  0  0999 V2000
   -6.8274   -9.1244    4.6279 C   0  0  0  0  0  0  0  0  0  0  0  0
   -5.4622   -9.0709    4.7832 C   0  0  0  0  0  0  0  0  0  0  0  0
   -4.9093   -8.0973    5.5655 C   0  0  0  0  0  0  0  0  0  0  0  0
   -5.6740   -7.1429    6.2228 C   0  0  0  0  0  0  0  0  0  0  0  0
   -7.0271   -7.1885    6.0748 C   0  0  0  0  0  0  0  0  0  0  0  0
   -7.6145   -8.1902    5.2684 C   0  0  0  0  0  0  0  0  0  0  0  0
   -9.0111  -13.4006    4.1892 N   0  0  0  0  0  0  0  0  0  0  0  0
   -8.4319  -12.2734    3.5673 C   0  0  0  0  0  0  0  0  0  0  0  0
   -7.9398  -11.2938    4.3254 N   0  0  0  0  0  0  0  0  0  0  0  0
   -7.3699  -10.1833    3.7960 C   0  0  0  0  0  0  0  0  0  0  0  0
   -7.3118  -10.0938    2.4241 C   0  0  0  0  0  0  0  0  0  0  0  0
   -6.5909   -8.7244    1.5968 Cl  0  0  0  0  0  0  0  0  0  0  0  0
   -7.8222  -11.1100    1.6151 C   0  0  0  0  0  0  0  0  0  0  0  0
   -8.3688  -12.1729    2.2275 N   0  0  0  0  0  0  0  0  0  0  0  0
   -9.7669  -13.9566    3.7416 H   0  0  0  0  0  0  0  0  0  0  0  0
   -8.6715  -13.6880    5.1295 H   0  0  0  0  0  0  0  0  0  0  0  0
   -5.0275   -6.1426    7.0328 C   0  0  0  0  0  0  0  0  0  0  0  0
   -4.3109   -5.0751    6.5432 C   0  0  0  0  0  0  0  0  0  0  0  0
   -3.7233   -4.1712    7.3986 C   0  0  0  0  0  0  0  0  0  0  0  0
   -3.8054   -4.2643    8.7639 C   0  0  0  0  0  0  0  0  0  0  0  0
   -4.5337   -5.3499    9.2532 C   0  0  0  0  0  0  0  0  0  0  0  0
   -5.1263   -6.2608    8.4113 C   0  0  0  0  0  0  0  0  0  0  0  0
   -4.6793   -5.5373   10.7117 C   0  0  0  0  0  0  0  0  0  0  0  0
   -3.4554   -5.9519   11.2411 F   0  0  0  0  0  0  0  0  0  0  0  0
   -4.9697   -4.3319   11.3123 F   0  0  0  0  0  0  0  0  0  0  0  0
   -5.6502   -6.4349   11.0563 F   0  0  0  0  0  0  0  0  0  0  0  0
   -3.2086   -3.3452    9.6877 C   0  0  0  0  0  0  0  0  0  0  0  0
   -2.7366   -2.5881   10.4252 N   0  0  0  0  0  0  0  0  0  0  0  0
   -7.9036   -6.2118    6.7392 C   0  0  0  0  0  0  0  0  0  0  0  0
   -8.8440   -5.6339    5.9427 F   0  0  0  0  0  0  0  0  0  0  0  0
   -8.4290   -6.8114    7.8766 F   0  0  0  0  0  0  0  0  0  0  0  0
  7  8  1  0  0  0
  8  9  2  0  0  0
  9 10  1  0  0  0
 10 11  2  0  0  0
 11 12  1  0  0  0
 11 13  1  0  0  0
 13 14  2  0  0  0
 10  1  1  0  0  0
  1  2  2  0  0  0
  2  3  1  0  0  0
  3  4  2  0  0  0
  4 17  1  0  0  0
 17 18  2  0  0  0
 18 19  1  0  0  0
 19 20  2  0  0  0
 20 27  1  0  0  0
 27 28  3  0  0  0
 20 21  1  0  0  0
 21 22  2  0  0  0
 21 23  1  0  0  0
 23 24  1  0  0  0
 23 25  1  0  0  0
 23 26  1  0  0  0
  4  5  1  0  0  0
  5  6  2  0  0  0
  5 29  1  0  0  0
 29 30  1  0  0  0
 29 31  1  0  0  0
 14  8  1  0  0  0
  6  1  1  0  0  0
 22 17  1  0  0  0
  7 15  1  0  0  0
  7 16  1  0  0  0
M  END
> <minimizedAffinity>
15.69143

> <CNNscore>
0.4610984623

> <CNNaffinity>
5.5932474136

> <CNN_VS>
2.5790376663

> <CNNaffinity_variance>
0.9128502011

$$$$
[H]c1nc(N([H])[H])nc(-c2c([H])c([H])c(-c3c([H])c([H])c(C#N)c(C(F)(F)F)c3[H])c(C([H])(F)F)c2[H])c1Cl


 31 33  0  0  0  0  0  0  0  0999 V2000
   -6.7948   -9.4095    4.2949 C   0  0  0  0  0  0  0  0  0  0  0  0
   -5.4554   -9.4023    4.6057 C   0  0  0  0  0  0  0  0  0  0  0  0
   -4.9848   -8.5291    5.5446 C   0  0  0  0  0  0  0  0  0  0  0  0
   -5.8094   -7.6331    6.2115 C   0  0  0  0  0  0  0  0  0  0  0  0
   -7.1376   -7.6334    5.9101 C   0  0  0  0  0  0  0  0  0  0  0  0
   -7.6400   -8.5313    4.9406 C   0  0  0  0  0  0  0  0  0  0  0  0
   -8.5764  -13.7418    3.1530 N   0  0  0  0  0  0  0  0  0  0  0  0
   -8.1160  -12.4773    2.7267 C   0  0  0  0  0  0  0  0  0  0  0  0
   -7.7046  -11.5946    3.6368 N   0  0  0  0  0  0  0  0  0  0  0  0
   -7.2502  -10.3626    3.2989 C   0  0  0  0  0  0  0  0  0  0  0  0
   -7.2245  -10.0419    1.9611 C   0  0  0  0  0  0  0  0  0  0  0  0
   -6.6492   -8.4920    1.3725 Cl  0  0  0  0  0  0  0  0  0  0  0  0
   -7.6516  -10.9537    0.9948 C   0  0  0  0  0  0  0  0  0  0  0  0
   -8.0858  -12.1505    1.4224 N   0  0  0  0  0  0  0  0  0  0  0  0
   -9.2846  -14.2852    2.6201 H   0  0  0  0  0  0  0  0  0  0  0  0
   -8.1952  -14.1475    4.0317 H   0  0  0  0  0  0  0  0  0  0  0  0
   -5.2487   -6.7382    7.1911 C   0  0  0  0  0  0  0  0  0  0  0  0
   -5.4899   -6.8005    8.5442 C   0  0  0  0  0  0  0  0  0  0  0  0
   -4.9105   -5.8954    9.4039 C   0  0  0  0  0  0  0  0  0  0  0  0
   -4.0734   -4.8924    8.9883 C   0  0  0  0  0  0  0  0  0  0  0  0
   -3.8335   -4.8355    7.6144 C   0  0  0  0  0  0  0  0  0  0  0  0
   -4.4050   -5.7324    6.7434 C   0  0  0  0  0  0  0  0  0  0  0  0
   -2.9447   -3.7889    7.0682 C   0  0  0  0  0  0  0  0  0  0  0  0
   -3.4437   -2.5354    7.4284 F   0  0  0  0  0  0  0  0  0  0  0  0
   -1.6971   -3.8864    7.6442 F   0  0  0  0  0  0  0  0  0  0  0  0
   -2.7978   -3.8460    5.7109 F   0  0  0  0  0  0  0  0  0  0  0  0
   -3.4509   -3.9313    9.8504 C   0  0  0  0  0  0  0  0  0  0  0  0
   -2.9400   -3.1700   10.5568 N   0  0  0  0  0  0  0  0  0  0  0  0
   -8.0740   -6.7137    6.5741 C   0  0  0  0  0  0  0  0  0  0  0  0
   -8.7321   -5.8537    5.7493 F   0  0  0  0  0  0  0  0  0  0  0  0
   -8.9170   -7.4680    7.3798 F   0  0  0  0  0  0  0  0  0  0  0  0
  7  8  1  0  0  0
  8  9  2  0  0  0
  9 10  1  0  0  0
 10 11  2  0  0  0
 11 12  1  0  0  0
 11 13  1  0  0  0
 13 14  2  0  0  0
 10  1  1  0  0  0
  1  2  2  0  0  0
  2  3  1  0  0  0
  3  4  2  0  0  0
  4 17  1  0  0  0
 17 18  2  0  0  0
 18 19  1  0  0  0
 19 20  2  0  0  0
 20 27  1  0  0  0
 27 28  3  0  0  0
 20 21  1  0  0  0
 21 22  2  0  0  0
 21 23  1  0  0  0
 23 24  1  0  0  0
 23 25  1  0  0  0
 23 26  1  0  0  0
  4  5  1  0  0  0
  5  6  2  0  0  0
  5 29  1  0  0  0
 29 30  1  0  0  0
 29 31  1  0  0  0
 14  8  1  0  0  0
  6  1  1  0  0  0
 22 17  1  0  0  0
  7 15  1  0  0  0
  7 16  1  0  0  0
M  END
> <minimizedAffinity>
13.89187

> <CNNscore>
0.4481575787

> <CNNaffinity>
5.7741556168

> <CNN_VS>
2.5877315998

> <CNNaffinity_variance>
1.0403387547

$$$$
[H]c1nc(N([H])[H])nc(-c2c([H])c([H])c(-c3c([H])c([H])c(C#N)c(C(F)(F)F)c3[H])c(C([H])(F)F)c2[H])c1Cl


 31 33  0  0  0  0  0  0  0  0999 V2000
  -14.7794   -9.3456    5.2614 C   0  0  0  0  0  0  0  0  0  0  0  0
  -13.8397  -10.0291    5.9964 C   0  0  0  0  0  0  0  0  0  0  0  0
  -13.3465   -9.4756    7.1437 C   0  0  0  0  0  0  0  0  0  0  0  0
  -13.7566   -8.2341    7.6106 C   0  0  0  0  0  0  0  0  0  0  0  0
  -14.6874   -7.5500    6.8889 C   0  0  0  0  0  0  0  0  0  0  0  0
  -15.2074   -8.1096    5.6993 C   0  0  0  0  0  0  0  0  0  0  0  0
  -16.3618  -13.2622    2.9370 N   0  0  0  0  0  0  0  0  0  0  0  0
  -16.0526  -11.8852    2.9066 C   0  0  0  0  0  0  0  0  0  0  0  0
  -15.5987  -11.2963    4.0128 N   0  0  0  0  0  0  0  0  0  0  0  0
  -15.2822   -9.9785    4.0555 C   0  0  0  0  0  0  0  0  0  0  0  0
  -15.4457   -9.2501    2.8996 C   0  0  0  0  0  0  0  0  0  0  0  0
  -15.0641   -7.5402    2.7990 Cl  0  0  0  0  0  0  0  0  0  0  0  0
  -15.9200   -9.8505    1.7324 C   0  0  0  0  0  0  0  0  0  0  0  0
  -16.2080  -11.1612    1.7838 N   0  0  0  0  0  0  0  0  0  0  0  0
  -17.0880  -13.6836    2.3240 H   0  0  0  0  0  0  0  0  0  0  0  0
  -15.8460  -13.8806    3.5956 H   0  0  0  0  0  0  0  0  0  0  0  0
  -13.1962   -7.7074    8.8284 C   0  0  0  0  0  0  0  0  0  0  0  0
  -12.5290   -8.4508    9.7745 C   0  0  0  0  0  0  0  0  0  0  0  0
  -12.0316   -7.8574   10.9123 C   0  0  0  0  0  0  0  0  0  0  0  0
  -12.1599   -6.5192   11.1806 C   0  0  0  0  0  0  0  0  0  0  0  0
  -12.8379   -5.7715   10.2164 C   0  0  0  0  0  0  0  0  0  0  0  0
  -13.3404   -6.3500    9.0751 C   0  0  0  0  0  0  0  0  0  0  0  0
  -13.0282   -4.3196   10.4149 C   0  0  0  0  0  0  0  0  0  0  0  0
  -11.7774   -3.7050   10.5024 F   0  0  0  0  0  0  0  0  0  0  0  0
  -13.6489   -3.7735    9.3128 F   0  0  0  0  0  0  0  0  0  0  0  0
  -13.7655   -4.0082   11.5224 F   0  0  0  0  0  0  0  0  0  0  0  0
  -11.6569   -5.8638   12.3519 C   0  0  0  0  0  0  0  0  0  0  0  0
  -11.2672   -5.3397   13.3075 N   0  0  0  0  0  0  0  0  0  0  0  0
  -15.1712   -6.2293    7.3190 C   0  0  0  0  0  0  0  0  0  0  0  0
  -15.1625   -5.2630    6.3604 F   0  0  0  0  0  0  0  0  0  0  0  0
  -16.4092   -6.4026    7.9243 F   0  0  0  0  0  0  0  0  0  0  0  0
  7  8  1  0  0  0
  8  9  2  0  0  0
  9 10  1  0  0  0
 10 11  2  0  0  0
 11 12  1  0  0  0
 11 13  1  0  0  0
 13 14  2  0  0  0
 10  1  1  0  0  0
  1  2  2  0  0  0
  2  3  1  0  0  0
  3  4  2  0  0  0
  4 17  1  0  0  0
 17 18  2  0  0  0
 18 19  1  0  0  0
 19 20  2  0  0  0
 20 27  1  0  0  0
 27 28  3  0  0  0
 20 21  1  0  0  0
 21 22  2  0  0  0
 21 23  1  0  0  0
 23 24  1  0  0  0
 23 25  1  0  0  0
 23 26  1  0  0  0
  4  5  1  0  0  0
  5  6  2  0  0  0
  5 29  1  0  0  0
 29 30  1  0  0  0
 29 31  1  0  0  0
 14  8  1  0  0  0
  6  1  1  0  0  0
 22 17  1  0  0  0
  7 15  1  0  0  0
  7 16  1  0  0  0
M  END
> <minimizedAffinity>
19.07151

> <CNNscore>
0.4434777796

> <CNNaffinity>
6.3703088760

> <CNN_VS>
2.8250904083

> <CNNaffinity_variance>
1.3538806438

$$$$
[H]c1nc(N([H])[H])nc(-c2c([H])c([H])c(-c3c([H])c([H])c(C#N)c(C(F)(F)F)c3[H])c(C([H])(F)F)c2[H])c1Cl


 31 33  0  0  0  0  0  0  0  0999 V2000
  -15.4497   -7.8004    5.1093 C   0  0  0  0  0  0  0  0  0  0  0  0
  -14.5711   -8.7992    4.7615 C   0  0  0  0  0  0  0  0  0  0  0  0
  -13.4256   -8.9731    5.4848 C   0  0  0  0  0  0  0  0  0  0  0  0
  -13.1012   -8.1751    6.5737 C   0  0  0  0  0  0  0  0  0  0  0  0
  -13.9658   -7.1833    6.9255 C   0  0  0  0  0  0  0  0  0  0  0  0
  -15.1556   -6.9908    6.1866 C   0  0  0  0  0  0  0  0  0  0  0  0
  -19.7930   -5.8258    4.4138 N   0  0  0  0  0  0  0  0  0  0  0  0
  -18.7843   -6.7073    3.9686 C   0  0  0  0  0  0  0  0  0  0  0  0
  -17.6681   -6.8334    4.6860 N   0  0  0  0  0  0  0  0  0  0  0  0
  -16.6589   -7.6609    4.3181 C   0  0  0  0  0  0  0  0  0  0  0  0
  -16.8228   -8.3831    3.1585 C   0  0  0  0  0  0  0  0  0  0  0  0
  -15.6101   -9.5040    2.5646 Cl  0  0  0  0  0  0  0  0  0  0  0  0
  -17.9849   -8.2633    2.3950 C   0  0  0  0  0  0  0  0  0  0  0  0
  -18.9313   -7.4191    2.8369 N   0  0  0  0  0  0  0  0  0  0  0  0
  -20.4431   -5.3472    3.7589 H   0  0  0  0  0  0  0  0  0  0  0  0
  -19.8920   -5.6466    5.4337 H   0  0  0  0  0  0  0  0  0  0  0  0
  -11.8764   -8.4116    7.2938 C   0  0  0  0  0  0  0  0  0  0  0  0
  -11.7999   -8.8060    8.6097 C   0  0  0  0  0  0  0  0  0  0  0  0
  -10.5797   -9.0029    9.2148 C   0  0  0  0  0  0  0  0  0  0  0  0
   -9.3828   -8.8259    8.5701 C   0  0  0  0  0  0  0  0  0  0  0  0
   -9.4683   -8.4257    7.2356 C   0  0  0  0  0  0  0  0  0  0  0  0
  -10.6797   -8.2250    6.6177 C   0  0  0  0  0  0  0  0  0  0  0  0
   -8.2326   -8.2079    6.4550 C   0  0  0  0  0  0  0  0  0  0  0  0
   -7.3693   -9.2861    6.6604 F   0  0  0  0  0  0  0  0  0  0  0  0
   -8.5244   -8.1998    5.1086 F   0  0  0  0  0  0  0  0  0  0  0  0
   -7.5862   -7.0440    6.7625 F   0  0  0  0  0  0  0  0  0  0  0  0
   -8.0929   -9.0203    9.1638 C   0  0  0  0  0  0  0  0  0  0  0  0
   -7.0519   -9.1590    9.6506 N   0  0  0  0  0  0  0  0  0  0  0  0
  -13.6913   -6.2968    8.0667 C   0  0  0  0  0  0  0  0  0  0  0  0
  -14.4661   -5.1801    8.1389 F   0  0  0  0  0  0  0  0  0  0  0  0
  -13.7142   -7.0666    9.2226 F   0  0  0  0  0  0  0  0  0  0  0  0
  7  8  1  0  0  0
  8  9  2  0  0  0
  9 10  1  0  0  0
 10 11  2  0  0  0
 11 12  1  0  0  0
 11 13  1  0  0  0
 13 14  2  0  0  0
 10  1  1  0  0  0
  1  2  2  0  0  0
  2  3  1  0  0  0
  3  4  2  0  0  0
  4 17  1  0  0  0
 17 18  2  0  0  0
 18 19  1  0  0  0
 19 20  2  0  0  0
 20 27  1  0  0  0
 27 28  3  0  0  0
 20 21  1  0  0  0
 21 22  2  0  0  0
 21 23  1  0  0  0
 23 24  1  0  0  0
 23 25  1  0  0  0
 23 26  1  0  0  0
  4  5  1  0  0  0
  5  6  2  0  0  0
  5 29  1  0  0  0
 29 30  1  0  0  0
 29 31  1  0  0  0
 14  8  1  0  0  0
  6  1  1  0  0  0
 22 17  1  0  0  0
  7 15  1  0  0  0
  7 16  1  0  0  0
M  END
> <minimizedAffinity>
6.96030

> <CNNscore>
0.4154039025

> <CNNaffinity>
7.0607910156

> <CNN_VS>
2.9330801964

> <CNNaffinity_variance>
2.8411798477

$$$$
[H]c1nc(N([H])[H])nc(-c2c([H])c([H])c(-c3c([H])c([H])c(C#N)c(C(F)(F)F)c3[H])c(C([H])(F)F)c2[H])c1Cl


 31 33  0  0  0  0  0  0  0  0999 V2000
   -6.6460   -7.7918    7.7909 C   0  0  0  0  0  0  0  0  0  0  0  0
   -7.1623   -7.6968    9.0617 C   0  0  0  0  0  0  0  0  0  0  0  0
   -6.5551   -6.8865    9.9784 C   0  0  0  0  0  0  0  0  0  0  0  0
   -5.4217   -6.1414    9.6823 C   0  0  0  0  0  0  0  0  0  0  0  0
   -4.9035   -6.2293    8.4258 C   0  0  0  0  0  0  0  0  0  0  0  0
   -5.5206   -7.0636    7.4658 C   0  0  0  0  0  0  0  0  0  0  0  0
   -6.8928   -9.9062    3.4648 N   0  0  0  0  0  0  0  0  0  0  0  0
   -7.4671   -9.6923    4.7365 C   0  0  0  0  0  0  0  0  0  0  0  0
   -6.8382   -8.9061    5.6099 N   0  0  0  0  0  0  0  0  0  0  0  0
   -7.3317   -8.6569    6.8480 C   0  0  0  0  0  0  0  0  0  0  0  0
   -8.5262   -9.2509    7.1850 C   0  0  0  0  0  0  0  0  0  0  0  0
   -9.2939   -9.0096    8.7445 Cl  0  0  0  0  0  0  0  0  0  0  0  0
   -9.1981  -10.0771    6.2830 C   0  0  0  0  0  0  0  0  0  0  0  0
   -8.6339  -10.2669    5.0792 N   0  0  0  0  0  0  0  0  0  0  0  0
   -7.0457  -10.7812    2.9247 H   0  0  0  0  0  0  0  0  0  0  0  0
   -6.2943   -9.1631    3.0502 H   0  0  0  0  0  0  0  0  0  0  0  0
   -4.8300   -5.3063   10.6958 C   0  0  0  0  0  0  0  0  0  0  0  0
   -4.9472   -5.5100   12.0514 C   0  0  0  0  0  0  0  0  0  0  0  0
   -4.3480   -4.6523   12.9455 C   0  0  0  0  0  0  0  0  0  0  0  0
   -3.6106   -3.5617   12.5634 C   0  0  0  0  0  0  0  0  0  0  0  0
   -3.4962   -3.3614   11.1867 C   0  0  0  0  0  0  0  0  0  0  0  0
   -4.0890   -4.2094   10.2815 C   0  0  0  0  0  0  0  0  0  0  0  0
   -2.7214   -2.2119   10.6750 C   0  0  0  0  0  0  0  0  0  0  0  0
   -3.3722   -1.0294   11.0331 F   0  0  0  0  0  0  0  0  0  0  0  0
   -1.4864   -2.1710   11.2842 F   0  0  0  0  0  0  0  0  0  0  0  0
   -2.5333   -2.2345    9.3218 F   0  0  0  0  0  0  0  0  0  0  0  0
   -2.9716   -2.6458   13.4618 C   0  0  0  0  0  0  0  0  0  0  0  0
   -2.4457   -1.9212   14.1954 N   0  0  0  0  0  0  0  0  0  0  0  0
   -3.7048   -5.4706    8.0368 C   0  0  0  0  0  0  0  0  0  0  0  0
   -2.6338   -6.2222    7.6615 F   0  0  0  0  0  0  0  0  0  0  0  0
   -4.0830   -4.5275    7.0899 F   0  0  0  0  0  0  0  0  0  0  0  0
  7  8  1  0  0  0
  8  9  2  0  0  0
  9 10  1  0  0  0
 10 11  2  0  0  0
 11 12  1  0  0  0
 11 13  1  0  0  0
 13 14  2  0  0  0
 10  1  1  0  0  0
  1  2  2  0  0  0
  2  3  1  0  0  0
  3  4  2  0  0  0
  4 17  1  0  0  0
 17 18  2  0  0  0
 18 19  1  0  0  0
 19 20  2  0  0  0
 20 27  1  0  0  0
 27 28  3  0  0  0
 20 21  1  0  0  0
 21 22  2  0  0  0
 21 23  1  0  0  0
 23 24  1  0  0  0
 23 25  1  0  0  0
 23 26  1  0  0  0
  4  5  1  0  0  0
  5  6  2  0  0  0
  5 29  1  0  0  0
 29 30  1  0  0  0
 29 31  1  0  0  0
 14  8  1  0  0  0
  6  1  1  0  0  0
 22 17  1  0  0  0
  7 15  1  0  0  0
  7 16  1  0  0  0
M  END
> <minimizedAffinity>
3.07936

> <CNNscore>
0.4129279554

> <CNNaffinity>
5.9379129410

> <CNN_VS>
2.4519302845

> <CNNaffinity_variance>
2.6635177135

$$$$
[H]c1nc(N([H])[H])nc(-c2c([H])c([H])c(-c3c([H])c([H])c(C#N)c(C(F)(F)F)c3[H])c(C([H])(F)F)c2[H])c1Cl


 31 33  0  0  0  0  0  0  0  0999 V2000
  -13.7425   -8.5550    3.8187 C   0  0  0  0  0  0  0  0  0  0  0  0
  -12.9498   -9.4767    4.4610 C   0  0  0  0  0  0  0  0  0  0  0  0
  -12.8901   -9.4818    5.8255 C   0  0  0  0  0  0  0  0  0  0  0  0
  -13.6048   -8.5849    6.6080 C   0  0  0  0  0  0  0  0  0  0  0  0
  -14.3929   -7.6684    5.9802 C   0  0  0  0  0  0  0  0  0  0  0  0
  -14.4652   -7.6504    4.5684 C   0  0  0  0  0  0  0  0  0  0  0  0
  -12.1337  -10.3289   -0.3660 N   0  0  0  0  0  0  0  0  0  0  0  0
  -13.0023   -9.4498    0.3163 C   0  0  0  0  0  0  0  0  0  0  0  0
  -12.9767   -9.4145    1.6484 N   0  0  0  0  0  0  0  0  0  0  0  0
  -13.7824   -8.5950    2.3680 C   0  0  0  0  0  0  0  0  0  0  0  0
  -14.6459   -7.7828    1.6696 C   0  0  0  0  0  0  0  0  0  0  0  0
  -15.7370   -6.6606    2.4633 Cl  0  0  0  0  0  0  0  0  0  0  0  0
  -14.6862   -7.8069    0.2748 C   0  0  0  0  0  0  0  0  0  0  0  0
  -13.8516   -8.6505   -0.3538 N   0  0  0  0  0  0  0  0  0  0  0  0
  -12.3687  -10.7355   -1.2934 H   0  0  0  0  0  0  0  0  0  0  0  0
  -11.2247  -10.5810    0.0725 H   0  0  0  0  0  0  0  0  0  0  0  0
  -13.4970   -8.6441    8.0431 C   0  0  0  0  0  0  0  0  0  0  0  0
  -13.5739   -9.7958    8.7919 C   0  0  0  0  0  0  0  0  0  0  0  0
  -13.4639   -9.7515   10.1630 C   0  0  0  0  0  0  0  0  0  0  0  0
  -13.2748   -8.5896   10.8656 C   0  0  0  0  0  0  0  0  0  0  0  0
  -13.1979   -7.4254   10.0993 C   0  0  0  0  0  0  0  0  0  0  0  0
  -13.3060   -7.4538    8.7292 C   0  0  0  0  0  0  0  0  0  0  0  0
  -12.9958   -6.1217   10.7649 C   0  0  0  0  0  0  0  0  0  0  0  0
  -11.8322   -6.1799   11.5347 F   0  0  0  0  0  0  0  0  0  0  0  0
  -12.7836   -5.1414    9.8204 F   0  0  0  0  0  0  0  0  0  0  0  0
  -14.0435   -5.7392   11.5543 F   0  0  0  0  0  0  0  0  0  0  0  0
  -13.1555   -8.5012   12.2911 C   0  0  0  0  0  0  0  0  0  0  0  0
  -13.0789   -8.4294   13.4438 N   0  0  0  0  0  0  0  0  0  0  0  0
  -15.1797   -6.6855    6.7408 C   0  0  0  0  0  0  0  0  0  0  0  0
  -15.1081   -5.4037    6.2885 F   0  0  0  0  0  0  0  0  0  0  0  0
  -16.4781   -7.1667    6.8486 F   0  0  0  0  0  0  0  0  0  0  0  0
  7  8  1  0  0  0
  8  9  2  0  0  0
  9 10  1  0  0  0
 10 11  2  0  0  0
 11 12  1  0  0  0
 11 13  1  0  0  0
 13 14  2  0  0  0
 10  1  1  0  0  0
  1  2  2  0  0  0
  2  3  1  0  0  0
  3  4  2  0  0  0
  4 17  1  0  0  0
 17 18  2  0  0  0
 18 19  1  0  0  0
 19 20  2  0  0  0
 20 27  1  0  0  0
 27 28  3  0  0  0
 20 21  1  0  0  0
 21 22  2  0  0  0
 21 23  1  0  0  0
 23 24  1  0  0  0
 23 25  1  0  0  0
 23 26  1  0  0  0
  4  5  1  0  0  0
  5  6  2  0  0  0
  5 29  1  0  0  0
 29 30  1  0  0  0
 29 31  1  0  0  0
 14  8  1  0  0  0
  6  1  1  0  0  0
 22 17  1  0  0  0
  7 15  1  0  0  0
  7 16  1  0  0  0
M  END
> <minimizedAffinity>
25.85882

> <CNNscore>
0.4102407694

> <CNNaffinity>
6.1904335022

> <CNN_VS>
2.5395681858

> <CNNaffinity_variance>
1.1413028240

$$$$
[H]c1nc(N([H])[H])nc(-c2c([H])c([H])c(-c3c([H])c([H])c(C#N)c(C(F)(F)F)c3[H])c(C([H])(F)F)c2[H])c1Cl


 31 33  0  0  0  0  0  0  0  0999 V2000
   -6.8432   -8.7193    5.4987 C   0  0  0  0  0  0  0  0  0  0  0  0
   -5.4751   -8.6431    5.6122 C   0  0  0  0  0  0  0  0  0  0  0  0
   -4.9193   -7.7836    6.5166 C   0  0  0  0  0  0  0  0  0  0  0  0
   -5.6841   -6.9694    7.3410 C   0  0  0  0  0  0  0  0  0  0  0  0
   -7.0403   -7.0383    7.2355 C   0  0  0  0  0  0  0  0  0  0  0  0
   -7.6305   -7.9231    6.3041 C   0  0  0  0  0  0  0  0  0  0  0  0
   -6.8808  -10.6073    1.0623 N   0  0  0  0  0  0  0  0  0  0  0  0
   -7.4203  -10.5829    2.3666 C   0  0  0  0  0  0  0  0  0  0  0  0
   -6.9187   -9.7322    3.2618 N   0  0  0  0  0  0  0  0  0  0  0  0
   -7.3880   -9.6550    4.5316 C   0  0  0  0  0  0  0  0  0  0  0  0
   -8.4194  -10.4973    4.8779 C   0  0  0  0  0  0  0  0  0  0  0  0
   -9.1387  -10.5009    6.4786 Cl  0  0  0  0  0  0  0  0  0  0  0  0
   -8.9564  -11.3944    3.9535 C   0  0  0  0  0  0  0  0  0  0  0  0
   -8.4282  -11.4009    2.7188 N   0  0  0  0  0  0  0  0  0  0  0  0
   -6.8819  -11.4652    0.4753 H   0  0  0  0  0  0  0  0  0  0  0  0
   -6.4665   -9.7368    0.6715 H   0  0  0  0  0  0  0  0  0  0  0  0
   -5.0346   -6.0845    8.2737 C   0  0  0  0  0  0  0  0  0  0  0  0
   -5.1652   -6.1486    9.6418 C   0  0  0  0  0  0  0  0  0  0  0  0
   -4.5067   -5.2533   10.4535 C   0  0  0  0  0  0  0  0  0  0  0  0
   -3.6945   -4.2587    9.9734 C   0  0  0  0  0  0  0  0  0  0  0  0
   -3.5670   -4.1998    8.5846 C   0  0  0  0  0  0  0  0  0  0  0  0
   -4.2184   -5.0870    7.7610 C   0  0  0  0  0  0  0  0  0  0  0  0
   -2.7135   -3.1618    7.9702 C   0  0  0  0  0  0  0  0  0  0  0  0
   -3.1783   -1.9032    8.3573 F   0  0  0  0  0  0  0  0  0  0  0  0
   -1.4285   -3.2636    8.4566 F   0  0  0  0  0  0  0  0  0  0  0  0
   -2.6638   -3.2275    6.6062 F   0  0  0  0  0  0  0  0  0  0  0  0
   -2.9922   -3.3079   10.7841 C   0  0  0  0  0  0  0  0  0  0  0  0
   -2.4082   -2.5499   11.4353 N   0  0  0  0  0  0  0  0  0  0  0  0
   -7.9171   -6.2070    8.0743 C   0  0  0  0  0  0  0  0  0  0  0  0
   -8.8754   -5.5090    7.4056 F   0  0  0  0  0  0  0  0  0  0  0  0
   -8.4189   -7.0062    9.0935 F   0  0  0  0  0  0  0  0  0  0  0  0
  7  8  1  0  0  0
  8  9  2  0  0  0
  9 10  1  0  0  0
 10 11  2  0  0  0
 11 12  1  0  0  0
 11 13  1  0  0  0
 13 14  2  0  0  0
 10  1  1  0  0  0
  1  2  2  0  0  0
  2  3  1  0  0  0
  3  4  2  0  0  0
  4 17  1  0  0  0
 17 18  2  0  0  0
 18 19  1  0  0  0
 19 20  2  0  0  0
 20 27  1  0  0  0
 27 28  3  0  0  0
 20 21  1  0  0  0
 21 22  2  0  0  0
 21 23  1  0  0  0
 23 24  1  0  0  0
 23 25  1  0  0  0
 23 26  1  0  0  0
  4  5  1  0  0  0
  5  6  2  0  0  0
  5 29  1  0  0  0
 29 30  1  0  0  0
 29 31  1  0  0  0
 14  8  1  0  0  0
  6  1  1  0  0  0
 22 17  1  0  0  0
  7 15  1  0  0  0
  7 16  1  0  0  0
M  END
> <minimizedAffinity>
6.87651

> <CNNscore>
0.4014267623

> <CNNaffinity>
5.8599972725

> <CNN_VS>
2.3523597717

> <CNNaffinity_variance>
1.1208584309

$$$$
[H]c1nc(C([H])([H])C([H])([H])C([H])([H])OC(=O)N([H])c2nnc(C([H])([H])[H])s2)c([H])c([H])c1[H]


 20 21  0  0  0  0  0  0  0  0999 V2000
  -10.9863   -9.9204    7.1114 N   0  0  0  0  0  0  0  0  0  0  0  0
  -12.0913   -9.5433    7.9438 C   0  0  0  0  0  0  0  0  0  0  0  0
  -11.8684   -8.8267    8.9493 O   0  0  0  0  0  0  0  0  0  0  0  0
  -11.0672  -10.5086    6.2608 H   0  0  0  0  0  0  0  0  0  0  0  0
   -6.2522   -7.3933    8.3129 C   0  0  0  0  0  0  0  0  0  0  0  0
   -7.4489   -8.2632    8.0191 C   0  0  0  0  0  0  0  0  0  0  0  0
   -7.5169   -9.5901    8.0576 N   0  0  0  0  0  0  0  0  0  0  0  0
   -8.5974  -10.1761    7.7838 N   0  0  0  0  0  0  0  0  0  0  0  0
   -9.6710   -9.4673    7.4560 C   0  0  0  0  0  0  0  0  0  0  0  0
   -9.0472   -7.8680    7.5595 S   0  0  0  0  0  0  0  0  0  0  0  0
  -13.3779   -9.9423    7.6723 O   0  0  0  0  0  0  0  0  0  0  0  0
  -14.3766   -9.0189    7.3994 C   0  0  0  0  0  0  0  0  0  0  0  0
  -14.1375   -8.0897    6.2580 C   0  0  0  0  0  0  0  0  0  0  0  0
  -15.1047   -6.9134    6.4443 C   0  0  0  0  0  0  0  0  0  0  0  0
  -16.1777   -6.9566    5.4195 C   0  0  0  0  0  0  0  0  0  0  0  0
  -17.0875   -7.9843    5.4286 C   0  0  0  0  0  0  0  0  0  0  0  0
  -18.1114   -8.0725    4.4922 C   0  0  0  0  0  0  0  0  0  0  0  0
  -18.2114   -7.0923    3.5248 C   0  0  0  0  0  0  0  0  0  0  0  0
  -17.2744   -6.0667    3.5446 C   0  0  0  0  0  0  0  0  0  0  0  0
  -16.2978   -6.0193    4.4702 N   0  0  0  0  0  0  0  0  0  0  0  0
  5  6  1  0  0  0
  6  7  2  0  0  0
  7  8  1  0  0  0
  8  9  2  0  0  0
  9  1  1  0  0  0
  1  2  1  0  0  0
  2  3  2  0  0  0
  2 11  1  0  0  0
 11 12  1  0  0  0
 12 13  1  0  0  0
 13 14  1  0  0  0
 14 15  1  0  0  0
 15 16  2  0  0  0
 16 17  1  0  0  0
 17 18  2  0  0  0
 18 19  1  0  0  0
 19 20  2  0  0  0
  9 10  1  0  0  0
 10  6  1  0  0  0
 20 15  1  0  0  0
  1  4  1  0  0  0
M  END
> <minimizedAffinity>
-6.68823

> <CNNscore>
0.5886556506

> <CNNaffinity>
5.6897554398

> <CNN_VS>
3.3493065834

> <CNNaffinity_variance>
0.0598714948

$$$$
[H]c1nc(C([H])([H])C([H])([H])C([H])([H])OC(=O)N([H])c2nnc(C([H])([H])[H])s2)c([H])c([H])c1[H]


 20 21  0  0  0  0  0  0  0  0999 V2000
   -9.2755   -6.8115    8.0019 N   0  0  0  0  0  0  0  0  0  0  0  0
  -10.1282   -7.9625    8.0675 C   0  0  0  0  0  0  0  0  0  0  0  0
   -9.6892   -9.0597    7.6462 O   0  0  0  0  0  0  0  0  0  0  0  0
   -9.5454   -5.8630    8.3237 H   0  0  0  0  0  0  0  0  0  0  0  0
   -3.9938   -7.6257    6.7050 C   0  0  0  0  0  0  0  0  0  0  0  0
   -5.4668   -7.3426    6.8640 C   0  0  0  0  0  0  0  0  0  0  0  0
   -6.3125   -6.8993    5.9393 N   0  0  0  0  0  0  0  0  0  0  0  0
   -7.5235   -6.7104    6.2286 N   0  0  0  0  0  0  0  0  0  0  0  0
   -7.9566   -6.9545    7.4597 C   0  0  0  0  0  0  0  0  0  0  0  0
   -6.5052   -7.4851    8.2143 S   0  0  0  0  0  0  0  0  0  0  0  0
  -11.4035   -7.8969    8.5751 O   0  0  0  0  0  0  0  0  0  0  0  0
  -11.7560   -6.9417    9.5174 C   0  0  0  0  0  0  0  0  0  0  0  0
  -13.1605   -6.4427    9.4738 C   0  0  0  0  0  0  0  0  0  0  0  0
  -14.0389   -7.6462    9.1081 C   0  0  0  0  0  0  0  0  0  0  0  0
  -14.7892   -7.3795    7.8554 C   0  0  0  0  0  0  0  0  0  0  0  0
  -14.2327   -6.5854    6.8840 C   0  0  0  0  0  0  0  0  0  0  0  0
  -14.8920   -6.3039    5.6928 C   0  0  0  0  0  0  0  0  0  0  0  0
  -16.1464   -6.8430    5.4859 C   0  0  0  0  0  0  0  0  0  0  0  0
  -16.6799   -7.6420    6.4894 C   0  0  0  0  0  0  0  0  0  0  0  0
  -16.0069   -7.8894    7.6289 N   0  0  0  0  0  0  0  0  0  0  0  0
  5  6  1  0  0  0
  6  7  2  0  0  0
  7  8  1  0  0  0
  8  9  2  0  0  0
  9  1  1  0  0  0
  1  2  1  0  0  0
  2  3  2  0  0  0
  2 11  1  0  0  0
 11 12  1  0  0  0
 12 13  1  0  0  0
 13 14  1  0  0  0
 14 15  1  0  0  0
 15 16  2  0  0  0
 16 17  1  0  0  0
 17 18  2  0  0  0
 18 19  1  0  0  0
 19 20  2  0  0  0
  9 10  1  0  0  0
 10  6  1  0  0  0
 20 15  1  0  0  0
  1  4  1  0  0  0
M  END
> <minimizedAffinity>
-6.43342

> <CNNscore>
0.5360034108

> <CNNaffinity>
5.6971197128

> <CNN_VS>
3.0536756516

> <CNNaffinity_variance>
0.0385374874

$$$$
[H]c1nc(C([H])([H])C([H])([H])C([H])([H])OC(=O)N([H])c2nnc(C([H])([H])[H])s2)c([H])c([H])c1[H]


 20 21  0  0  0  0  0  0  0  0999 V2000
  -14.6766   -8.9125    6.1689 N   0  0  0  0  0  0  0  0  0  0  0  0
  -14.5446   -9.0624    7.5888 C   0  0  0  0  0  0  0  0  0  0  0  0
  -15.3596   -8.4665    8.3338 O   0  0  0  0  0  0  0  0  0  0  0  0
  -14.0545   -9.3629    5.4716 H   0  0  0  0  0  0  0  0  0  0  0  0
  -18.2032   -5.0994    4.3621 C   0  0  0  0  0  0  0  0  0  0  0  0
  -17.3808   -6.2836    4.8054 C   0  0  0  0  0  0  0  0  0  0  0  0
  -17.7164   -7.5688    4.7563 N   0  0  0  0  0  0  0  0  0  0  0  0
  -16.9142   -8.4479    5.1682 N   0  0  0  0  0  0  0  0  0  0  0  0
  -15.7308   -8.0904    5.6524 C   0  0  0  0  0  0  0  0  0  0  0  0
  -15.8167   -6.3807    5.4880 S   0  0  0  0  0  0  0  0  0  0  0  0
  -13.5574   -9.8349    8.1516 O   0  0  0  0  0  0  0  0  0  0  0  0
  -12.3806   -9.2705    8.6221 C   0  0  0  0  0  0  0  0  0  0  0  0
  -11.3134   -9.0068    7.6147 C   0  0  0  0  0  0  0  0  0  0  0  0
  -10.4999   -7.8182    8.1434 C   0  0  0  0  0  0  0  0  0  0  0  0
   -9.1335   -7.8259    7.5636 C   0  0  0  0  0  0  0  0  0  0  0  0
   -8.3609   -8.9568    7.6551 C   0  0  0  0  0  0  0  0  0  0  0  0
   -7.0753   -9.0174    7.1294 C   0  0  0  0  0  0  0  0  0  0  0  0
   -6.5645   -7.9016    6.4964 C   0  0  0  0  0  0  0  0  0  0  0  0
   -7.3729   -6.7742    6.4215 C   0  0  0  0  0  0  0  0  0  0  0  0
   -8.6135   -6.7580    6.9445 N   0  0  0  0  0  0  0  0  0  0  0  0
  5  6  1  0  0  0
  6  7  2  0  0  0
  7  8  1  0  0  0
  8  9  2  0  0  0
  9  1  1  0  0  0
  1  2  1  0  0  0
  2  3  2  0  0  0
  2 11  1  0  0  0
 11 12  1  0  0  0
 12 13  1  0  0  0
 13 14  1  0  0  0
 14 15  1  0  0  0
 15 16  2  0  0  0
 16 17  1  0  0  0
 17 18  2  0  0  0
 18 19  1  0  0  0
 19 20  2  0  0  0
  9 10  1  0  0  0
 10  6  1  0  0  0
 20 15  1  0  0  0
  1  4  1  0  0  0
M  END
> <minimizedAffinity>
-7.06473

> <CNNscore>
0.5189707875

> <CNNaffinity>
5.9237527847

> <CNN_VS>
3.0742547512

> <CNNaffinity_variance>
0.1271881312

$$$$
[H]c1nc(C([H])([H])C([H])([H])C([H])([H])OC(=O)N([H])c2nnc(C([H])([H])[H])s2)c([H])c([H])c1[H]


 20 21  0  0  0  0  0  0  0  0999 V2000
   -7.5846   -6.9455    7.7553 N   0  0  0  0  0  0  0  0  0  0  0  0
   -7.8535   -8.3539    7.7742 C   0  0  0  0  0  0  0  0  0  0  0  0
   -6.9538   -9.1421    7.3955 O   0  0  0  0  0  0  0  0  0  0  0  0
   -8.2611   -6.2157    8.0479 H   0  0  0  0  0  0  0  0  0  0  0  0
   -2.4537   -5.1799    6.8618 C   0  0  0  0  0  0  0  0  0  0  0  0
   -3.8837   -5.6582    6.9011 C   0  0  0  0  0  0  0  0  0  0  0  0
   -4.7000   -5.8622    5.8720 N   0  0  0  0  0  0  0  0  0  0  0  0
   -5.8763   -6.2665    6.0685 N   0  0  0  0  0  0  0  0  0  0  0  0
   -6.3024   -6.4895    7.3061 C   0  0  0  0  0  0  0  0  0  0  0  0
   -4.8977   -6.0815    8.2105 S   0  0  0  0  0  0  0  0  0  0  0  0
   -9.0606   -8.8600    8.1926 O   0  0  0  0  0  0  0  0  0  0  0  0
   -9.9046   -9.5279    7.3173 C   0  0  0  0  0  0  0  0  0  0  0  0
  -11.3029   -9.0204    7.2149 C   0  0  0  0  0  0  0  0  0  0  0  0
  -11.9185   -9.1555    8.6137 C   0  0  0  0  0  0  0  0  0  0  0  0
  -12.1509   -7.8161    9.2099 C   0  0  0  0  0  0  0  0  0  0  0  0
  -13.4242   -7.4341    9.5515 C   0  0  0  0  0  0  0  0  0  0  0  0
  -13.6970   -6.1916   10.1127 C   0  0  0  0  0  0  0  0  0  0  0  0
  -12.6498   -5.3184   10.3310 C   0  0  0  0  0  0  0  0  0  0  0  0
  -11.3741   -5.7369    9.9737 C   0  0  0  0  0  0  0  0  0  0  0  0
  -11.1538   -6.9498    9.4324 N   0  0  0  0  0  0  0  0  0  0  0  0
  5  6  1  0  0  0
  6  7  2  0  0  0
  7  8  1  0  0  0
  8  9  2  0  0  0
  9  1  1  0  0  0
  1  2  1  0  0  0
  2  3  2  0  0  0
  2 11  1  0  0  0
 11 12  1  0  0  0
 12 13  1  0  0  0
 13 14  1  0  0  0
 14 15  1  0  0  0
 15 16  2  0  0  0
 16 17  1  0  0  0
 17 18  2  0  0  0
 18 19  1  0  0  0
 19 20  2  0  0  0
  9 10  1  0  0  0
 10  6  1  0  0  0
 20 15  1  0  0  0
  1  4  1  0  0  0
M  END
> <minimizedAffinity>
-5.94703

> <CNNscore>
0.4979658127

> <CNNaffinity>
5.2008833885

> <CNN_VS>
2.5898621082

> <CNNaffinity_variance>
0.1565530747

$$$$
[H]c1nc(C([H])([H])C([H])([H])C([H])([H])OC(=O)N([H])c2nnc(C([H])([H])[H])s2)c([H])c([H])c1[H]


 20 21  0  0  0  0  0  0  0  0999 V2000
   -8.6627   -6.5960    7.7159 N   0  0  0  0  0  0  0  0  0  0  0  0
   -7.5923   -7.5340    7.8905 C   0  0  0  0  0  0  0  0  0  0  0  0
   -7.8435   -8.6377    8.4318 O   0  0  0  0  0  0  0  0  0  0  0  0
   -8.5569   -5.6603    7.2808 H   0  0  0  0  0  0  0  0  0  0  0  0
  -13.6087   -7.3259   10.0063 C   0  0  0  0  0  0  0  0  0  0  0  0
  -12.3028   -7.2825    9.2527 C   0  0  0  0  0  0  0  0  0  0  0  0
  -11.9212   -8.0602    8.2445 N   0  0  0  0  0  0  0  0  0  0  0  0
  -10.7901   -7.8992    7.7148 N   0  0  0  0  0  0  0  0  0  0  0  0
   -9.9769   -6.9508    8.1641 C   0  0  0  0  0  0  0  0  0  0  0  0
  -10.9334   -6.2738    9.4228 S   0  0  0  0  0  0  0  0  0  0  0  0
   -6.3087   -7.2592    7.4843 O   0  0  0  0  0  0  0  0  0  0  0  0
   -5.5399   -8.2115    6.8310 C   0  0  0  0  0  0  0  0  0  0  0  0
   -4.0599   -8.0466    6.9077 C   0  0  0  0  0  0  0  0  0  0  0  0
   -3.8035   -6.5757    7.2608 C   0  0  0  0  0  0  0  0  0  0  0  0
   -3.3243   -5.8320    6.0688 C   0  0  0  0  0  0  0  0  0  0  0  0
   -3.9313   -4.6540    5.7114 C   0  0  0  0  0  0  0  0  0  0  0  0
   -3.5220   -3.9183    4.6050 C   0  0  0  0  0  0  0  0  0  0  0  0
   -2.4711   -4.3927    3.8452 C   0  0  0  0  0  0  0  0  0  0  0  0
   -1.8796   -5.5878    4.2350 C   0  0  0  0  0  0  0  0  0  0  0  0
   -2.3074   -6.2692    5.3145 N   0  0  0  0  0  0  0  0  0  0  0  0
  5  6  1  0  0  0
  6  7  2  0  0  0
  7  8  1  0  0  0
  8  9  2  0  0  0
  9  1  1  0  0  0
  1  2  1  0  0  0
  2  3  2  0  0  0
  2 11  1  0  0  0
 11 12  1  0  0  0
 12 13  1  0  0  0
 13 14  1  0  0  0
 14 15  1  0  0  0
 15 16  2  0  0  0
 16 17  1  0  0  0
 17 18  2  0  0  0
 18 19  1  0  0  0
 19 20  2  0  0  0
  9 10  1  0  0  0
 10  6  1  0  0  0
 20 15  1  0  0  0
  1  4  1  0  0  0
M  END
> <minimizedAffinity>
-5.09072

> <CNNscore>
0.4467301965

> <CNNaffinity>
4.8228921890

> <CNN_VS>
2.1545314789

> <CNNaffinity_variance>
0.2214998454

$$$$
[H]c1nc(C([H])([H])C([H])([H])C([H])([H])OC(=O)N([H])c2nnc(C([H])([H])[H])s2)c([H])c([H])c1[H]


 20 21  0  0  0  0  0  0  0  0999 V2000
   -8.4903   -6.5584    7.9060 N   0  0  0  0  0  0  0  0  0  0  0  0
   -7.4811   -7.5559    8.1121 C   0  0  0  0  0  0  0  0  0  0  0  0
   -7.8261   -8.6750    8.5626 O   0  0  0  0  0  0  0  0  0  0  0  0
   -8.3066   -5.6058    7.5389 H   0  0  0  0  0  0  0  0  0  0  0  0
  -13.6388   -7.1839    9.7346 C   0  0  0  0  0  0  0  0  0  0  0  0
  -12.2741   -7.1571    9.0927 C   0  0  0  0  0  0  0  0  0  0  0  0
  -11.8470   -7.8811    8.0631 N   0  0  0  0  0  0  0  0  0  0  0  0
  -10.6694   -7.7435    7.6385 N   0  0  0  0  0  0  0  0  0  0  0  0
   -9.8526   -6.8736    8.2205 C   0  0  0  0  0  0  0  0  0  0  0  0
  -10.8775   -6.2369    9.4460 S   0  0  0  0  0  0  0  0  0  0  0  0
   -6.1564   -7.3214    7.8320 O   0  0  0  0  0  0  0  0  0  0  0  0
   -5.7696   -6.6725    6.6684 C   0  0  0  0  0  0  0  0  0  0  0  0
   -4.6970   -5.6448    6.7982 C   0  0  0  0  0  0  0  0  0  0  0  0
   -3.5087   -6.1486    5.9688 C   0  0  0  0  0  0  0  0  0  0  0  0
   -2.7759   -7.2098    6.7037 C   0  0  0  0  0  0  0  0  0  0  0  0
   -2.2270   -6.9337    7.9311 C   0  0  0  0  0  0  0  0  0  0  0  0
   -1.5311   -7.8906    8.6611 C   0  0  0  0  0  0  0  0  0  0  0  0
   -1.3908   -9.1573    8.1295 C   0  0  0  0  0  0  0  0  0  0  0  0
   -1.9584   -9.4027    6.8855 C   0  0  0  0  0  0  0  0  0  0  0  0
   -2.6249   -8.4464    6.2116 N   0  0  0  0  0  0  0  0  0  0  0  0
  5  6  1  0  0  0
  6  7  2  0  0  0
  7  8  1  0  0  0
  8  9  2  0  0  0
  9  1  1  0  0  0
  1  2  1  0  0  0
  2  3  2  0  0  0
  2 11  1  0  0  0
 11 12  1  0  0  0
 12 13  1  0  0  0
 13 14  1  0  0  0
 14 15  1  0  0  0
 15 16  2  0  0  0
 16 17  1  0  0  0
 17 18  2  0  0  0
 18 19  1  0  0  0
 19 20  2  0  0  0
  9 10  1  0  0  0
 10  6  1  0  0  0
 20 15  1  0  0  0
  1  4  1  0  0  0
M  END
> <minimizedAffinity>
-4.89581

> <CNNscore>
0.4167373776

> <CNNaffinity>
4.8257136345

> <CNN_VS>
2.0110552311

> <CNNaffinity_variance>
0.1436719596

$$$$
[H]c1nc(C([H])([H])C([H])([H])C([H])([H])OC(=O)N([H])c2nnc(C([H])([H])[H])s2)c([H])c([H])c1[H]


 20 21  0  0  0  0  0  0  0  0999 V2000
   -9.4988   -8.2125    7.7371 N   0  0  0  0  0  0  0  0  0  0  0  0
   -9.8217   -9.5610    7.3719 C   0  0  0  0  0  0  0  0  0  0  0  0
   -8.8968  -10.3169    6.9880 O   0  0  0  0  0  0  0  0  0  0  0  0
  -10.1903   -7.5127    8.0658 H   0  0  0  0  0  0  0  0  0  0  0  0
   -4.4916   -6.2175    6.6461 C   0  0  0  0  0  0  0  0  0  0  0  0
   -5.7837   -6.8323    7.1234 C   0  0  0  0  0  0  0  0  0  0  0  0
   -6.0026   -7.4777    8.2646 N   0  0  0  0  0  0  0  0  0  0  0  0
   -7.1465   -7.9374    8.5216 N   0  0  0  0  0  0  0  0  0  0  0  0
   -8.1360   -7.7772    7.6510 C   0  0  0  0  0  0  0  0  0  0  0  0
   -7.3319   -6.9092    6.4030 S   0  0  0  0  0  0  0  0  0  0  0  0
  -11.1067  -10.0443    7.4305 O   0  0  0  0  0  0  0  0  0  0  0  0
  -12.0702   -9.6426    6.5167 C   0  0  0  0  0  0  0  0  0  0  0  0
  -13.0874   -8.6654    7.0004 C   0  0  0  0  0  0  0  0  0  0  0  0
  -13.1747   -8.8449    8.5216 C   0  0  0  0  0  0  0  0  0  0  0  0
  -12.8151   -7.5824    9.2144 C   0  0  0  0  0  0  0  0  0  0  0  0
  -13.8048   -6.7221    9.6199 C   0  0  0  0  0  0  0  0  0  0  0  0
  -13.5231   -5.5272   10.2725 C   0  0  0  0  0  0  0  0  0  0  0  0
  -12.2039   -5.2008   10.5177 C   0  0  0  0  0  0  0  0  0  0  0  0
  -11.2277   -6.0938   10.0941 C   0  0  0  0  0  0  0  0  0  0  0  0
  -11.5443   -7.2412    9.4650 N   0  0  0  0  0  0  0  0  0  0  0  0
  5  6  1  0  0  0
  6  7  2  0  0  0
  7  8  1  0  0  0
  8  9  2  0  0  0
  9  1  1  0  0  0
  1  2  1  0  0  0
  2  3  2  0  0  0
  2 11  1  0  0  0
 11 12  1  0  0  0
 12 13  1  0  0  0
 13 14  1  0  0  0
 14 15  1  0  0  0
 15 16  2  0  0  0
 16 17  1  0  0  0
 17 18  2  0  0  0
 18 19  1  0  0  0
 19 20  2  0  0  0
  9 10  1  0  0  0
 10  6  1  0  0  0
 20 15  1  0  0  0
  1  4  1  0  0  0
M  END
> <minimizedAffinity>
-5.99788

> <CNNscore>
0.3924661279

> <CNNaffinity>
5.3919763565

> <CNN_VS>
2.1161680222

> <CNNaffinity_variance>
0.2430060208

$$$$
[H]c1nc(C([H])([H])C([H])([H])C([H])([H])OC(=O)N([H])c2nnc(C([H])([H])[H])s2)c([H])c([H])c1[H]


 20 21  0  0  0  0  0  0  0  0999 V2000
  -10.8506   -7.8269    7.9219 N   0  0  0  0  0  0  0  0  0  0  0  0
  -11.3309   -7.0569    9.0322 C   0  0  0  0  0  0  0  0  0  0  0  0
  -10.5329   -6.2866    9.6186 O   0  0  0  0  0  0  0  0  0  0  0  0
  -11.4305   -8.4896    7.3736 H   0  0  0  0  0  0  0  0  0  0  0  0
   -5.5021   -8.1037    6.6736 C   0  0  0  0  0  0  0  0  0  0  0  0
   -6.9622   -7.8351    6.9405 C   0  0  0  0  0  0  0  0  0  0  0  0
   -7.6423   -6.7217    6.6863 N   0  0  0  0  0  0  0  0  0  0  0  0
   -8.8674   -6.6506    6.9693 N   0  0  0  0  0  0  0  0  0  0  0  0
   -9.4810   -7.6898    7.5226 C   0  0  0  0  0  0  0  0  0  0  0  0
   -8.1842   -8.8147    7.6251 S   0  0  0  0  0  0  0  0  0  0  0  0
  -12.6315   -7.1393    9.4681 O   0  0  0  0  0  0  0  0  0  0  0  0
  -13.6634   -6.5189    8.7789 C   0  0  0  0  0  0  0  0  0  0  0  0
  -14.5400   -7.3963    7.9510 C   0  0  0  0  0  0  0  0  0  0  0  0
  -14.1128   -7.1866    6.4925 C   0  0  0  0  0  0  0  0  0  0  0  0
  -15.1660   -6.4568    5.7432 C   0  0  0  0  0  0  0  0  0  0  0  0
  -14.8266   -5.3740    4.9710 C   0  0  0  0  0  0  0  0  0  0  0  0
  -15.7733   -4.6555    4.2495 C   0  0  0  0  0  0  0  0  0  0  0  0
  -17.0954   -5.0484    4.3155 C   0  0  0  0  0  0  0  0  0  0  0  0
  -17.4041   -6.1482    5.1062 C   0  0  0  0  0  0  0  0  0  0  0  0
  -16.4555   -6.8163    5.7893 N   0  0  0  0  0  0  0  0  0  0  0  0
  5  6  1  0  0  0
  6  7  2  0  0  0
  7  8  1  0  0  0
  8  9  2  0  0  0
  9  1  1  0  0  0
  1  2  1  0  0  0
  2  3  2  0  0  0
  2 11  1  0  0  0
 11 12  1  0  0  0
 12 13  1  0  0  0
 13 14  1  0  0  0
 14 15  1  0  0  0
 15 16  2  0  0  0
 16 17  1  0  0  0
 17 18  2  0  0  0
 18 19  1  0  0  0
 19 20  2  0  0  0
  9 10  1  0  0  0
 10  6  1  0  0  0
 20 15  1  0  0  0
  1  4  1  0  0  0
M  END
> <minimizedAffinity>
-6.97605

> <CNNscore>
0.3643711805

> <CNNaffinity>
5.7127165794

> <CNN_VS>
2.0815491676

> <CNNaffinity_variance>
0.0302026756

$$$$
[H]c1nc(C([H])([H])C([H])([H])C([H])([H])OC(=O)N([H])c2nnc(C([H])([H])[H])s2)c([H])c([H])c1[H]


 20 21  0  0  0  0  0  0  0  0999 V2000
   -8.9554   -7.3669    7.1676 N   0  0  0  0  0  0  0  0  0  0  0  0
   -8.3102   -8.6475    7.1633 C   0  0  0  0  0  0  0  0  0  0  0  0
   -8.8819   -9.6096    7.7305 O   0  0  0  0  0  0  0  0  0  0  0  0
   -8.5652   -6.5125    6.7273 H   0  0  0  0  0  0  0  0  0  0  0  0
  -13.4237   -6.3179   10.1967 C   0  0  0  0  0  0  0  0  0  0  0  0
  -12.3210   -6.7280    9.2528 C   0  0  0  0  0  0  0  0  0  0  0  0
  -12.4069   -7.5525    8.2136 N   0  0  0  0  0  0  0  0  0  0  0  0
  -11.3881   -7.7976    7.5151 N   0  0  0  0  0  0  0  0  0  0  0  0
  -10.2257   -7.2316    7.8171 C   0  0  0  0  0  0  0  0  0  0  0  0
  -10.6674   -6.2993    9.1932 S   0  0  0  0  0  0  0  0  0  0  0  0
   -7.0922   -8.8481    6.5596 O   0  0  0  0  0  0  0  0  0  0  0  0
   -5.9130   -8.4307    7.1594 C   0  0  0  0  0  0  0  0  0  0  0  0
   -5.4549   -7.0464    6.8475 C   0  0  0  0  0  0  0  0  0  0  0  0
   -3.9276   -7.0502    6.9928 C   0  0  0  0  0  0  0  0  0  0  0  0
   -3.5210   -6.3144    8.2161 C   0  0  0  0  0  0  0  0  0  0  0  0
   -4.4253   -5.5039    8.8559 C   0  0  0  0  0  0  0  0  0  0  0  0
   -4.0966   -4.7929   10.0045 C   0  0  0  0  0  0  0  0  0  0  0  0
   -2.8181   -4.9096   10.5133 C   0  0  0  0  0  0  0  0  0  0  0  0
   -1.9282   -5.7381    9.8412 C   0  0  0  0  0  0  0  0  0  0  0  0
   -2.2881   -6.4093    8.7310 N   0  0  0  0  0  0  0  0  0  0  0  0
  5  6  1  0  0  0
  6  7  2  0  0  0
  7  8  1  0  0  0
  8  9  2  0  0  0
  9  1  1  0  0  0
  1  2  1  0  0  0
  2  3  2  0  0  0
  2 11  1  0  0  0
 11 12  1  0  0  0
 12 13  1  0  0  0
 13 14  1  0  0  0
 14 15  1  0  0  0
 15 16  2  0  0  0
 16 17  1  0  0  0
 17 18  2  0  0  0
 18 19  1  0  0  0
 19 20  2  0  0  0
  9 10  1  0  0  0
 10  6  1  0  0  0
 20 15  1  0  0  0
  1  4  1  0  0  0
M  END
> <minimizedAffinity>
-4.80906

> <CNNscore>
0.3602608740

> <CNNaffinity>
4.9026155472

> <CNN_VS>
1.7662205696

> <CNNaffinity_variance>
0.1490017176

$$$$
[H]OC1(c2c([H])c([H])c(OC([H])([H])[H])c([H])c2[H])C(=O)OC(c2c([H])c([H])c([H])c([H])c2[H])=C2c3c([H])c([H])c([H])c([H])c3OC1(C([H])([H])[H])O[C@@]2([H])O[H]


 35 39  0  0  0  0  0  0  0  0999 V2000
  -10.4176   -6.8129    8.0219 C   0  0  0  0  0  0  0  0  0  0  0  0
  -10.5005   -5.5475    7.5351 O   0  0  0  0  0  0  0  0  0  0  0  0
  -11.0326   -7.6641    6.9152 C   0  0  0  0  0  0  0  0  0  0  0  0
  -10.2072   -8.0852    6.1201 O   0  0  0  0  0  0  0  0  0  0  0  0
  -12.4208   -8.0234    6.6947 O   0  0  0  0  0  0  0  0  0  0  0  0
  -13.4066   -6.9351    6.9663 C   0  0  0  0  0  0  0  0  0  0  0  0
  -13.2784   -6.3578    8.0467 C   0  0  0  0  0  0  0  0  0  0  0  0
  -13.1226   -5.6438    9.3790 C   0  0  0  0  0  0  0  0  0  0  0  0
  -13.3468   -4.2903    9.2721 O   0  0  0  0  0  0  0  0  0  0  0  0
  -11.8269   -5.9374    9.8150 O   0  0  0  0  0  0  0  0  0  0  0  0
  -11.1009   -6.9549    9.3141 C   0  0  0  0  0  0  0  0  0  0  0  0
  -10.0063   -7.1317   10.4071 C   0  0  0  0  0  0  0  0  0  0  0  0
  -11.7130   -8.2814    9.4902 O   0  0  0  0  0  0  0  0  0  0  0  0
  -13.0749   -8.5303    9.0852 C   0  0  0  0  0  0  0  0  0  0  0  0
  -13.4264   -9.8351    9.4766 C   0  0  0  0  0  0  0  0  0  0  0  0
  -14.7044  -10.2563    9.1958 C   0  0  0  0  0  0  0  0  0  0  0  0
  -15.5501   -9.3994    8.5639 C   0  0  0  0  0  0  0  0  0  0  0  0
  -15.1564   -8.0897    8.1854 C   0  0  0  0  0  0  0  0  0  0  0  0
  -13.9713   -7.7591    8.4610 C   0  0  0  0  0  0  0  0  0  0  0  0
  -10.2528   -5.4810    6.5851 H   0  0  0  0  0  0  0  0  0  0  0  0
  -12.7318   -3.7203    9.7574 H   0  0  0  0  0  0  0  0  0  0  0  0
   -6.1702   -7.5082    7.9824 C   0  0  0  0  0  0  0  0  0  0  0  0
   -6.7431   -6.3762    7.4148 C   0  0  0  0  0  0  0  0  0  0  0  0
   -8.1054   -6.1755    7.4379 C   0  0  0  0  0  0  0  0  0  0  0  0
   -8.9492   -7.0870    8.0235 C   0  0  0  0  0  0  0  0  0  0  0  0
   -8.3943   -8.2098    8.5891 C   0  0  0  0  0  0  0  0  0  0  0  0
   -7.0351   -8.4041    8.5623 C   0  0  0  0  0  0  0  0  0  0  0  0
   -4.0832   -8.0340    6.8048 C   0  0  0  0  0  0  0  0  0  0  0  0
   -4.8078   -7.7468    7.9774 O   0  0  0  0  0  0  0  0  0  0  0  0
  -14.3547   -6.5397    6.2090 C   0  0  0  0  0  0  0  0  0  0  0  0
  -15.3880   -7.2401    5.6434 C   0  0  0  0  0  0  0  0  0  0  0  0
  -16.3582   -6.7148    4.8865 C   0  0  0  0  0  0  0  0  0  0  0  0
  -16.3847   -5.3702    4.6124 C   0  0  0  0  0  0  0  0  0  0  0  0
  -15.3963   -4.5862    5.1354 C   0  0  0  0  0  0  0  0  0  0  0  0
  -14.4370   -5.1619    5.8947 C   0  0  0  0  0  0  0  0  0  0  0  0
 28 29  1  0  0  0
 29 22  1  0  0  0
 22 23  2  0  0  0
 23 24  1  0  0  0
 24 25  2  0  0  0
 25 26  1  0  0  0
 26 27  2  0  0  0
 25  1  1  0  0  0
  1  2  1  0  0  0
  1  3  1  0  0  0
  3  4  2  0  0  0
  3  5  1  0  0  0
  5  6  1  0  0  0
  6  7  2  0  0  0
  7  8  1  0  0  0
  8  9  1  0  0  0
  8 10  1  0  0  0
 10 11  1  0  0  0
 11 12  1  0  0  0
 11 13  1  0  0  0
 13 14  1  0  0  0
 14 15  2  0  0  0
 15 16  1  0  0  0
 16 17  2  0  0  0
 17 18  1  0  0  0
 18 19  2  0  0  0
  6 30  1  0  0  0
 30 31  2  0  0  0
 31 32  1  0  0  0
 32 33  2  0  0  0
 33 34  1  0  0  0
 34 35  2  0  0  0
 27 22  1  0  0  0
 11  1  1  0  0  0
 19 14  1  0  0  0
 35 30  1  0  0  0
 19  7  1  0  0  0
  2 20  1  0  0  0
  9 21  1  0  0  0
M  END
> <minimizedAffinity>
6.35843

> <CNNscore>
0.4606427550

> <CNNaffinity>
5.9166212082

> <CNN_VS>
2.7254486084

> <CNNaffinity_variance>
1.0640767813

$$$$
[H]OC1(c2c([H])c([H])c(OC([H])([H])[H])c([H])c2[H])C(=O)OC(c2c([H])c([H])c([H])c([H])c2[H])=C2c3c([H])c([H])c([H])c([H])c3OC1(C([H])([H])[H])O[C@@]2([H])O[H]


 35 39  0  0  0  0  0  0  0  0999 V2000
   -9.5800   -7.9894    7.3523 C   0  0  0  0  0  0  0  0  0  0  0  0
   -9.2593   -8.6166    6.1909 O   0  0  0  0  0  0  0  0  0  0  0  0
   -8.9819   -6.5960    7.1846 C   0  0  0  0  0  0  0  0  0  0  0  0
   -9.7700   -5.7896    6.7159 O   0  0  0  0  0  0  0  0  0  0  0  0
   -7.6464   -6.1240    7.4984 O   0  0  0  0  0  0  0  0  0  0  0  0
   -6.5457   -7.0806    7.1766 C   0  0  0  0  0  0  0  0  0  0  0  0
   -6.7029   -8.2310    7.5877 C   0  0  0  0  0  0  0  0  0  0  0  0
   -6.8940   -9.6511    8.0935 C   0  0  0  0  0  0  0  0  0  0  0  0
   -6.4623  -10.5889    7.1836 O   0  0  0  0  0  0  0  0  0  0  0  0
   -8.2582   -9.7703    8.3763 O   0  0  0  0  0  0  0  0  0  0  0  0
   -9.0683   -8.7054    8.5280 C   0  0  0  0  0  0  0  0  0  0  0  0
  -10.2881   -9.3367    9.2610 C   0  0  0  0  0  0  0  0  0  0  0  0
   -8.6812   -7.7994    9.6210 O   0  0  0  0  0  0  0  0  0  0  0  0
   -7.3354   -7.2901    9.7217 C   0  0  0  0  0  0  0  0  0  0  0  0
   -7.2245   -6.5528   10.9147 C   0  0  0  0  0  0  0  0  0  0  0  0
   -6.0000   -5.9992   11.2038 C   0  0  0  0  0  0  0  0  0  0  0  0
   -4.9741   -6.1927   10.3328 C   0  0  0  0  0  0  0  0  0  0  0  0
   -5.1270   -6.9440    9.1388 C   0  0  0  0  0  0  0  0  0  0  0  0
   -6.2731   -7.4223    8.9206 C   0  0  0  0  0  0  0  0  0  0  0  0
   -9.3908   -8.0513    5.3963 H   0  0  0  0  0  0  0  0  0  0  0  0
   -7.0350  -11.3620    7.0692 H   0  0  0  0  0  0  0  0  0  0  0  0
  -13.8615   -7.6623    7.0567 C   0  0  0  0  0  0  0  0  0  0  0  0
  -13.1496   -8.6818    6.4359 C   0  0  0  0  0  0  0  0  0  0  0  0
  -11.7791   -8.7656    6.5430 C   0  0  0  0  0  0  0  0  0  0  0  0
  -11.0644   -7.8442    7.2682 C   0  0  0  0  0  0  0  0  0  0  0  0
  -11.7574   -6.8321    7.8877 C   0  0  0  0  0  0  0  0  0  0  0  0
  -13.1239   -6.7541    7.7765 C   0  0  0  0  0  0  0  0  0  0  0  0
  -15.9932   -8.1120    5.9287 C   0  0  0  0  0  0  0  0  0  0  0  0
  -15.2368   -7.5427    6.9710 O   0  0  0  0  0  0  0  0  0  0  0  0
   -5.4738   -6.8406    6.5272 C   0  0  0  0  0  0  0  0  0  0  0  0
   -4.9859   -5.6618    6.0266 C   0  0  0  0  0  0  0  0  0  0  0  0
   -3.8209   -5.5147    5.3854 C   0  0  0  0  0  0  0  0  0  0  0  0
   -2.9940   -6.5900    5.1759 C   0  0  0  0  0  0  0  0  0  0  0  0
   -3.3929   -7.8102    5.6418 C   0  0  0  0  0  0  0  0  0  0  0  0
   -4.5786   -7.9099    6.2842 C   0  0  0  0  0  0  0  0  0  0  0  0
 28 29  1  0  0  0
 29 22  1  0  0  0
 22 23  2  0  0  0
 23 24  1  0  0  0
 24 25  2  0  0  0
 25 26  1  0  0  0
 26 27  2  0  0  0
 25  1  1  0  0  0
  1  2  1  0  0  0
  1  3  1  0  0  0
  3  4  2  0  0  0
  3  5  1  0  0  0
  5  6  1  0  0  0
  6  7  2  0  0  0
  7  8  1  0  0  0
  8  9  1  0  0  0
  8 10  1  0  0  0
 10 11  1  0  0  0
 11 12  1  0  0  0
 11 13  1  0  0  0
 13 14  1  0  0  0
 14 15  2  0  0  0
 15 16  1  0  0  0
 16 17  2  0  0  0
 17 18  1  0  0  0
 18 19  2  0  0  0
  6 30  1  0  0  0
 30 31  2  0  0  0
 31 32  1  0  0  0
 32 33  2  0  0  0
 33 34  1  0  0  0
 34 35  2  0  0  0
 27 22  1  0  0  0
 11  1  1  0  0  0
 19 14  1  0  0  0
 35 30  1  0  0  0
 19  7  1  0  0  0
  2 20  1  0  0  0
  9 21  1  0  0  0
M  END
> <minimizedAffinity>
10.16129

> <CNNscore>
0.4539091587

> <CNNaffinity>
5.7236084938

> <CNN_VS>
2.5979983807

> <CNNaffinity_variance>
2.3431365490

$$$$
[H]OC1(c2c([H])c([H])c(OC([H])([H])[H])c([H])c2[H])C(=O)OC(c2c([H])c([H])c([H])c([H])c2[H])=C2c3c([H])c([H])c([H])c([H])c3OC1(C([H])([H])[H])O[C@@]2([H])O[H]


 35 39  0  0  0  0  0  0  0  0999 V2000
   -9.6375   -8.4147    7.8496 C   0  0  0  0  0  0  0  0  0  0  0  0
   -9.4403   -8.6325    9.1758 O   0  0  0  0  0  0  0  0  0  0  0  0
  -10.0067   -6.9361    7.7798 C   0  0  0  0  0  0  0  0  0  0  0  0
   -9.0427   -6.2099    7.5942 O   0  0  0  0  0  0  0  0  0  0  0  0
  -11.3077   -6.3058    7.9016 O   0  0  0  0  0  0  0  0  0  0  0  0
  -12.2040   -6.9004    8.9375 C   0  0  0  0  0  0  0  0  0  0  0  0
  -12.3217   -8.1259    8.9000 C   0  0  0  0  0  0  0  0  0  0  0  0
  -12.4689   -9.6377    8.8560 C   0  0  0  0  0  0  0  0  0  0  0  0
  -12.5035  -10.1928   10.1147 O   0  0  0  0  0  0  0  0  0  0  0  0
  -11.3884  -10.0999    8.0983 O   0  0  0  0  0  0  0  0  0  0  0  0
  -10.6676   -9.2994    7.2903 C   0  0  0  0  0  0  0  0  0  0  0  0
   -9.9507  -10.3352    6.3753 C   0  0  0  0  0  0  0  0  0  0  0  0
  -11.4469   -8.6582    6.2193 O   0  0  0  0  0  0  0  0  0  0  0  0
  -12.6588   -7.9339    6.5148 C   0  0  0  0  0  0  0  0  0  0  0  0
  -13.2476   -7.5338    5.3013 C   0  0  0  0  0  0  0  0  0  0  0  0
  -14.4335   -6.8423    5.3723 C   0  0  0  0  0  0  0  0  0  0  0  0
  -14.9678   -6.5865    6.5961 C   0  0  0  0  0  0  0  0  0  0  0  0
  -14.3420   -7.0079    7.7978 C   0  0  0  0  0  0  0  0  0  0  0  0
  -13.2531   -7.6315    7.6738 C   0  0  0  0  0  0  0  0  0  0  0  0
   -8.9299   -7.9147    9.6145 H   0  0  0  0  0  0  0  0  0  0  0  0
  -11.9908  -11.0064   10.2323 H   0  0  0  0  0  0  0  0  0  0  0  0
   -5.7186   -8.7484    6.1014 C   0  0  0  0  0  0  0  0  0  0  0  0
   -6.7321   -7.9993    5.5156 C   0  0  0  0  0  0  0  0  0  0  0  0
   -7.9794   -7.9082    6.0925 C   0  0  0  0  0  0  0  0  0  0  0  0
   -8.2682   -8.5544    7.2692 C   0  0  0  0  0  0  0  0  0  0  0  0
   -7.2736   -9.2973    7.8586 C   0  0  0  0  0  0  0  0  0  0  0  0
   -6.0322   -9.3843    7.2780 C   0  0  0  0  0  0  0  0  0  0  0  0
   -3.2920   -8.3991    6.1947 C   0  0  0  0  0  0  0  0  0  0  0  0
   -4.4546   -8.8663    5.5522 O   0  0  0  0  0  0  0  0  0  0  0  0
  -12.8515   -6.2855    9.8492 C   0  0  0  0  0  0  0  0  0  0  0  0
  -13.7960   -6.7455   10.7293 C   0  0  0  0  0  0  0  0  0  0  0  0
  -14.3921   -6.0153   11.6788 C   0  0  0  0  0  0  0  0  0  0  0  0
  -14.0808   -4.6887   11.8434 C   0  0  0  0  0  0  0  0  0  0  0  0
  -13.1460   -4.1382   11.0138 C   0  0  0  0  0  0  0  0  0  0  0  0
  -12.5703   -4.9156   10.0691 C   0  0  0  0  0  0  0  0  0  0  0  0
 28 29  1  0  0  0
 29 22  1  0  0  0
 22 23  2  0  0  0
 23 24  1  0  0  0
 24 25  2  0  0  0
 25 26  1  0  0  0
 26 27  2  0  0  0
 25  1  1  0  0  0
  1  2  1  0  0  0
  1  3  1  0  0  0
  3  4  2  0  0  0
  3  5  1  0  0  0
  5  6  1  0  0  0
  6  7  2  0  0  0
  7  8  1  0  0  0
  8  9  1  0  0  0
  8 10  1  0  0  0
 10 11  1  0  0  0
 11 12  1  0  0  0
 11 13  1  0  0  0
 13 14  1  0  0  0
 14 15  2  0  0  0
 15 16  1  0  0  0
 16 17  2  0  0  0
 17 18  1  0  0  0
 18 19  2  0  0  0
  6 30  1  0  0  0
 30 31  2  0  0  0
 31 32  1  0  0  0
 32 33  2  0  0  0
 33 34  1  0  0  0
 34 35  2  0  0  0
 27 22  1  0  0  0
 11  1  1  0  0  0
 19 14  1  0  0  0
 35 30  1  0  0  0
 19  7  1  0  0  0
  2 20  1  0  0  0
  9 21  1  0  0  0
M  END
> <minimizedAffinity>
3.91801

> <CNNscore>
0.4536887705

> <CNNaffinity>
5.8353052139

> <CNN_VS>
2.6474125385

> <CNNaffinity_variance>
1.0261447430

$$$$
[H]OC1(c2c([H])c([H])c(OC([H])([H])[H])c([H])c2[H])C(=O)OC(c2c([H])c([H])c([H])c([H])c2[H])=C2c3c([H])c([H])c([H])c([H])c3OC1(C([H])([H])[H])O[C@@]2([H])O[H]


 35 39  0  0  0  0  0  0  0  0999 V2000
  -11.6269   -7.2260    8.1074 C   0  0  0  0  0  0  0  0  0  0  0  0
  -11.4219   -5.9011    8.3259 O   0  0  0  0  0  0  0  0  0  0  0  0
  -11.0539   -7.8886    9.3564 C   0  0  0  0  0  0  0  0  0  0  0  0
  -11.8881   -8.0654   10.2304 O   0  0  0  0  0  0  0  0  0  0  0  0
   -9.6955   -8.3190    9.6288 O   0  0  0  0  0  0  0  0  0  0  0  0
   -8.6290   -7.4004    9.1300 C   0  0  0  0  0  0  0  0  0  0  0  0
   -8.7397   -7.0433    7.9565 C   0  0  0  0  0  0  0  0  0  0  0  0
   -8.8738   -6.6012    6.5088 C   0  0  0  0  0  0  0  0  0  0  0  0
   -8.5319   -5.2795    6.3359 O   0  0  0  0  0  0  0  0  0  0  0  0
  -10.2022   -6.8593    6.1571 O   0  0  0  0  0  0  0  0  0  0  0  0
  -10.9970   -7.6859    6.8629 C   0  0  0  0  0  0  0  0  0  0  0  0
  -12.1348   -7.9804    5.8418 C   0  0  0  0  0  0  0  0  0  0  0  0
  -10.5058   -9.0701    6.9526 O   0  0  0  0  0  0  0  0  0  0  0  0
   -9.1586   -9.3533    7.3835 C   0  0  0  0  0  0  0  0  0  0  0  0
   -8.9315  -10.7363    7.2612 C   0  0  0  0  0  0  0  0  0  0  0  0
   -7.6863  -11.2050    7.6064 C   0  0  0  0  0  0  0  0  0  0  0  0
   -6.7521  -10.3177    8.0409 C   0  0  0  0  0  0  0  0  0  0  0  0
   -7.0211   -8.9288    8.1501 C   0  0  0  0  0  0  0  0  0  0  0  0
   -8.1815   -8.5557    7.8272 C   0  0  0  0  0  0  0  0  0  0  0  0
  -11.6346   -5.6228    9.2455 H   0  0  0  0  0  0  0  0  0  0  0  0
   -9.1102   -4.7661    5.7523 H   0  0  0  0  0  0  0  0  0  0  0  0
  -15.9166   -7.5542    8.2307 C   0  0  0  0  0  0  0  0  0  0  0  0
  -15.2614   -6.7080    7.3440 C   0  0  0  0  0  0  0  0  0  0  0  0
  -13.8873   -6.6181    7.3235 C   0  0  0  0  0  0  0  0  0  0  0  0
  -13.1127   -7.3622    8.1791 C   0  0  0  0  0  0  0  0  0  0  0  0
  -13.7492   -8.2036    9.0597 C   0  0  0  0  0  0  0  0  0  0  0  0
  -15.1197   -8.2881    9.0752 C   0  0  0  0  0  0  0  0  0  0  0  0
  -18.0192   -8.5721    7.4811 C   0  0  0  0  0  0  0  0  0  0  0  0
  -17.2939   -7.6706    8.2834 O   0  0  0  0  0  0  0  0  0  0  0  0
   -7.6285   -6.9472    9.7798 C   0  0  0  0  0  0  0  0  0  0  0  0
   -7.4463   -6.7874   11.1287 C   0  0  0  0  0  0  0  0  0  0  0  0
   -6.3320   -6.3314   11.7121 C   0  0  0  0  0  0  0  0  0  0  0  0
   -5.2407   -5.9754   10.9596 C   0  0  0  0  0  0  0  0  0  0  0  0
   -5.3244   -6.1022    9.6024 C   0  0  0  0  0  0  0  0  0  0  0  0
   -6.4713   -6.5678    9.0581 C   0  0  0  0  0  0  0  0  0  0  0  0
 28 29  1  0  0  0
 29 22  1  0  0  0
 22 23  2  0  0  0
 23 24  1  0  0  0
 24 25  2  0  0  0
 25 26  1  0  0  0
 26 27  2  0  0  0
 25  1  1  0  0  0
  1  2  1  0  0  0
  1  3  1  0  0  0
  3  4  2  0  0  0
  3  5  1  0  0  0
  5  6  1  0  0  0
  6  7  2  0  0  0
  7  8  1  0  0  0
  8  9  1  0  0  0
  8 10  1  0  0  0
 10 11  1  0  0  0
 11 12  1  0  0  0
 11 13  1  0  0  0
 13 14  1  0  0  0
 14 15  2  0  0  0
 15 16  1  0  0  0
 16 17  2  0  0  0
 17 18  1  0  0  0
 18 19  2  0  0  0
  6 30  1  0  0  0
 30 31  2  0  0  0
 31 32  1  0  0  0
 32 33  2  0  0  0
 33 34  1  0  0  0
 34 35  2  0  0  0
 27 22  1  0  0  0
 11  1  1  0  0  0
 19 14  1  0  0  0
 35 30  1  0  0  0
 19  7  1  0  0  0
  2 20  1  0  0  0
  9 21  1  0  0  0
M  END
> <minimizedAffinity>
15.50891

> <CNNscore>
0.4175895751

> <CNNaffinity>
5.5892357826

> <CNN_VS>
2.3340065479

> <CNNaffinity_variance>
1.7131143808

$$$$
[H]OC1(c2c([H])c([H])c(OC([H])([H])[H])c([H])c2[H])C(=O)OC(c2c([H])c([H])c([H])c([H])c2[H])=C2c3c([H])c([H])c([H])c([H])c3OC1(C([H])([H])[H])O[C@@]2([H])O[H]


 35 39  0  0  0  0  0  0  0  0999 V2000
  -13.4424   -6.8894    7.3210 C   0  0  0  0  0  0  0  0  0  0  0  0
  -12.5357   -6.7375    6.3210 O   0  0  0  0  0  0  0  0  0  0  0  0
  -13.8109   -8.3681    7.2496 C   0  0  0  0  0  0  0  0  0  0  0  0
  -13.1259   -9.0682    7.9787 O   0  0  0  0  0  0  0  0  0  0  0  0
  -14.8326   -9.0244    6.4559 O   0  0  0  0  0  0  0  0  0  0  0  0
  -14.9893   -8.4986    5.0670 C   0  0  0  0  0  0  0  0  0  0  0  0
  -15.0887   -7.2749    4.9688 C   0  0  0  0  0  0  0  0  0  0  0  0
  -15.2116   -5.7654    4.8448 C   0  0  0  0  0  0  0  0  0  0  0  0
  -14.5296   -5.2769    3.7539 O   0  0  0  0  0  0  0  0  0  0  0  0
  -14.7303   -5.2474    6.0510 O   0  0  0  0  0  0  0  0  0  0  0  0
  -14.5953   -5.9934    7.1640 C   0  0  0  0  0  0  0  0  0  0  0  0
  -14.4944   -4.9003    8.2680 C   0  0  0  0  0  0  0  0  0  0  0  0
  -15.8493   -6.5906    7.6498 O   0  0  0  0  0  0  0  0  0  0  0  0
  -16.7017   -7.3484    6.7667 C   0  0  0  0  0  0  0  0  0  0  0  0
  -17.8734   -7.6944    7.4643 C   0  0  0  0  0  0  0  0  0  0  0  0
  -18.8289   -8.4074    6.7801 C   0  0  0  0  0  0  0  0  0  0  0  0
  -18.5938   -8.7347    5.4815 C   0  0  0  0  0  0  0  0  0  0  0  0
  -17.3976   -8.3663    4.8132 C   0  0  0  0  0  0  0  0  0  0  0  0
  -16.5533   -7.7199    5.4909 C   0  0  0  0  0  0  0  0  0  0  0  0
  -11.8787   -7.4688    6.2795 H   0  0  0  0  0  0  0  0  0  0  0  0
  -14.0258   -4.4624    3.9003 H   0  0  0  0  0  0  0  0  0  0  0  0
  -11.1836   -6.3375   10.9429 C   0  0  0  0  0  0  0  0  0  0  0  0
  -12.5733   -6.3334   10.9261 C   0  0  0  0  0  0  0  0  0  0  0  0
  -13.2752   -6.5104    9.7545 C   0  0  0  0  0  0  0  0  0  0  0  0
  -12.6275   -6.6980    8.5583 C   0  0  0  0  0  0  0  0  0  0  0  0
  -11.2533   -6.7052    8.5624 C   0  0  0  0  0  0  0  0  0  0  0  0
  -10.5595   -6.5277    9.7341 C   0  0  0  0  0  0  0  0  0  0  0  0
  -10.9842   -5.6245   13.2819 C   0  0  0  0  0  0  0  0  0  0  0  0
  -10.4431   -6.1608   12.0978 O   0  0  0  0  0  0  0  0  0  0  0  0
  -15.0279   -9.1702    3.9825 C   0  0  0  0  0  0  0  0  0  0  0  0
  -15.7915  -10.2550    3.6384 C   0  0  0  0  0  0  0  0  0  0  0  0
  -15.7780  -10.8667    2.4486 C   0  0  0  0  0  0  0  0  0  0  0  0
  -14.9565  -10.4255    1.4414 C   0  0  0  0  0  0  0  0  0  0  0  0
  -14.1576   -9.3456    1.6877 C   0  0  0  0  0  0  0  0  0  0  0  0
  -14.2058   -8.7600    2.9055 C   0  0  0  0  0  0  0  0  0  0  0  0
 28 29  1  0  0  0
 29 22  1  0  0  0
 22 23  2  0  0  0
 23 24  1  0  0  0
 24 25  2  0  0  0
 25 26  1  0  0  0
 26 27  2  0  0  0
 25  1  1  0  0  0
  1  2  1  0  0  0
  1  3  1  0  0  0
  3  4  2  0  0  0
  3  5  1  0  0  0
  5  6  1  0  0  0
  6  7  2  0  0  0
  7  8  1  0  0  0
  8  9  1  0  0  0
  8 10  1  0  0  0
 10 11  1  0  0  0
 11 12  1  0  0  0
 11 13  1  0  0  0
 13 14  1  0  0  0
 14 15  2  0  0  0
 15 16  1  0  0  0
 16 17  2  0  0  0
 17 18  1  0  0  0
 18 19  2  0  0  0
  6 30  1  0  0  0
 30 31  2  0  0  0
 31 32  1  0  0  0
 32 33  2  0  0  0
 33 34  1  0  0  0
 34 35  2  0  0  0
 27 22  1  0  0  0
 11  1  1  0  0  0
 19 14  1  0  0  0
 35 30  1  0  0  0
 19  7  1  0  0  0
  2 20  1  0  0  0
  9 21  1  0  0  0
M  END
> <minimizedAffinity>
14.88418

> <CNNscore>
0.3996652961

> <CNNaffinity>
5.6880331039

> <CNN_VS>
2.2733094692

> <CNNaffinity_variance>
0.8683195114

$$$$
[H]OC1(c2c([H])c([H])c(OC([H])([H])[H])c([H])c2[H])C(=O)OC(c2c([H])c([H])c([H])c([H])c2[H])=C2c3c([H])c([H])c([H])c([H])c3OC1(C([H])([H])[H])O[C@@]2([H])O[H]


 35 39  0  0  0  0  0  0  0  0999 V2000
   -7.3806   -7.8095    6.9471 C   0  0  0  0  0  0  0  0  0  0  0  0
   -7.7251   -8.1384    5.6751 O   0  0  0  0  0  0  0  0  0  0  0  0
   -8.1087   -8.8473    7.7958 C   0  0  0  0  0  0  0  0  0  0  0  0
   -7.4287   -9.8329    8.0350 O   0  0  0  0  0  0  0  0  0  0  0  0
   -9.4553   -8.8146    8.3346 O   0  0  0  0  0  0  0  0  0  0  0  0
  -10.4877   -8.2385    7.4223 C   0  0  0  0  0  0  0  0  0  0  0  0
  -10.2022   -7.1543    6.9123 C   0  0  0  0  0  0  0  0  0  0  0  0
   -9.8527   -5.8167    6.2815 C   0  0  0  0  0  0  0  0  0  0  0  0
  -10.2629   -5.7380    4.9703 O   0  0  0  0  0  0  0  0  0  0  0  0
   -8.4670   -5.6869    6.4160 O   0  0  0  0  0  0  0  0  0  0  0  0
   -7.7447   -6.4260    7.2793 C   0  0  0  0  0  0  0  0  0  0  0  0
   -6.4263   -5.6035    7.3750 C   0  0  0  0  0  0  0  0  0  0  0  0
   -8.1327   -6.2636    8.6894 O   0  0  0  0  0  0  0  0  0  0  0  0
   -9.5076   -6.4047    9.1021 C   0  0  0  0  0  0  0  0  0  0  0  0
   -9.5994   -6.0838   10.4688 C   0  0  0  0  0  0  0  0  0  0  0  0
  -10.8446   -6.1386   11.0484 C   0  0  0  0  0  0  0  0  0  0  0  0
  -11.9078   -6.4941   10.2789 C   0  0  0  0  0  0  0  0  0  0  0  0
  -11.7730   -6.8106    8.9023 C   0  0  0  0  0  0  0  0  0  0  0  0
  -10.6074   -6.7511    8.4251 C   0  0  0  0  0  0  0  0  0  0  0  0
   -7.6992   -9.1073    5.5050 H   0  0  0  0  0  0  0  0  0  0  0  0
   -9.6341   -5.3335    4.3542 H   0  0  0  0  0  0  0  0  0  0  0  0
   -3.1769   -8.6962    7.2077 C   0  0  0  0  0  0  0  0  0  0  0  0
   -3.8183   -7.8635    8.1169 C   0  0  0  0  0  0  0  0  0  0  0  0
   -5.1647   -7.5926    8.0129 C   0  0  0  0  0  0  0  0  0  0  0  0
   -5.9241   -8.1360    7.0061 C   0  0  0  0  0  0  0  0  0  0  0  0
   -5.3012   -8.9620    6.1016 C   0  0  0  0  0  0  0  0  0  0  0  0
   -3.9584   -9.2277    6.2108 C   0  0  0  0  0  0  0  0  0  0  0  0
   -1.0601   -9.3447    6.1507 C   0  0  0  0  0  0  0  0  0  0  0  0
   -1.8272   -8.9905    7.2770 O   0  0  0  0  0  0  0  0  0  0  0  0
  -11.6191   -8.7419    7.1141 C   0  0  0  0  0  0  0  0  0  0  0  0
  -12.1786   -9.9438    7.4612 C   0  0  0  0  0  0  0  0  0  0  0  0
  -13.3996  -10.3616    7.1082 C   0  0  0  0  0  0  0  0  0  0  0  0
  -14.2153   -9.5732    6.3356 C   0  0  0  0  0  0  0  0  0  0  0  0
  -13.7466   -8.3528    5.9409 C   0  0  0  0  0  0  0  0  0  0  0  0
  -12.5061   -7.9735    6.3224 C   0  0  0  0  0  0  0  0  0  0  0  0
 28 29  1  0  0  0
 29 22  1  0  0  0
 22 23  2  0  0  0
 23 24  1  0  0  0
 24 25  2  0  0  0
 25 26  1  0  0  0
 26 27  2  0  0  0
 25  1  1  0  0  0
  1  2  1  0  0  0
  1  3  1  0  0  0
  3  4  2  0  0  0
  3  5  1  0  0  0
  5  6  1  0  0  0
  6  7  2  0  0  0
  7  8  1  0  0  0
  8  9  1  0  0  0
  8 10  1  0  0  0
 10 11  1  0  0  0
 11 12  1  0  0  0
 11 13  1  0  0  0
 13 14  1  0  0  0
 14 15  2  0  0  0
 15 16  1  0  0  0
 16 17  2  0  0  0
 17 18  1  0  0  0
 18 19  2  0  0  0
  6 30  1  0  0  0
 30 31  2  0  0  0
 31 32  1  0  0  0
 32 33  2  0  0  0
 33 34  1  0  0  0
 34 35  2  0  0  0
 27 22  1  0  0  0
 11  1  1  0  0  0
 19 14  1  0  0  0
 35 30  1  0  0  0
 19  7  1  0  0  0
  2 20  1  0  0  0
  9 21  1  0  0  0
M  END
> <minimizedAffinity>
7.87314

> <CNNscore>
0.3251223564

> <CNNaffinity>
5.2407646179

> <CNN_VS>
1.7038897276

> <CNNaffinity_variance>
0.7626656294

$$$$
[H]OC1(c2c([H])c([H])c(OC([H])([H])[H])c([H])c2[H])C(=O)OC(c2c([H])c([H])c([H])c([H])c2[H])=C2c3c([H])c([H])c([H])c([H])c3OC1(C([H])([H])[H])O[C@@]2([H])O[H]


 35 39  0  0  0  0  0  0  0  0999 V2000
  -11.1736   -7.4344    7.5363 C   0  0  0  0  0  0  0  0  0  0  0  0
  -11.2823   -6.8028    6.3387 O   0  0  0  0  0  0  0  0  0  0  0  0
  -11.8034   -8.8001    7.2803 C   0  0  0  0  0  0  0  0  0  0  0  0
  -10.9912   -9.6458    6.9396 O   0  0  0  0  0  0  0  0  0  0  0  0
  -13.1919   -9.2074    7.3856 O   0  0  0  0  0  0  0  0  0  0  0  0
  -14.1840   -8.2039    6.8971 C   0  0  0  0  0  0  0  0  0  0  0  0
  -14.0383   -7.0585    7.3259 C   0  0  0  0  0  0  0  0  0  0  0  0
  -13.8608   -5.6445    7.8533 C   0  0  0  0  0  0  0  0  0  0  0  0
  -14.1033   -4.6956    6.8867 O   0  0  0  0  0  0  0  0  0  0  0  0
  -12.5523   -5.5858    8.3425 O   0  0  0  0  0  0  0  0  0  0  0  0
  -11.8258   -6.6856    8.6184 C   0  0  0  0  0  0  0  0  0  0  0  0
  -10.7049   -6.1049    9.5296 C   0  0  0  0  0  0  0  0  0  0  0  0
  -12.4182   -7.5636    9.6399 O   0  0  0  0  0  0  0  0  0  0  0  0
  -13.7858   -8.0095    9.5330 C   0  0  0  0  0  0  0  0  0  0  0  0
  -14.1130   -8.7309   10.6957 C   0  0  0  0  0  0  0  0  0  0  0  0
  -15.3920   -9.2250   10.7937 C   0  0  0  0  0  0  0  0  0  0  0  0
  -16.2617   -8.9918    9.7749 C   0  0  0  0  0  0  0  0  0  0  0  0
  -15.8922   -8.2585    8.6177 C   0  0  0  0  0  0  0  0  0  0  0  0
  -14.7051   -7.8353    8.5778 C   0  0  0  0  0  0  0  0  0  0  0  0
  -11.0569   -7.3803    5.5744 H   0  0  0  0  0  0  0  0  0  0  0  0
  -13.4843   -3.9507    6.8607 H   0  0  0  0  0  0  0  0  0  0  0  0
   -6.9178   -7.9573    7.9097 C   0  0  0  0  0  0  0  0  0  0  0  0
   -7.4776   -6.8691    7.2510 C   0  0  0  0  0  0  0  0  0  0  0  0
   -8.8428   -6.7233    7.1424 C   0  0  0  0  0  0  0  0  0  0  0  0
   -9.7024   -7.6484    7.6818 C   0  0  0  0  0  0  0  0  0  0  0  0
   -9.1606   -8.7282    8.3368 C   0  0  0  0  0  0  0  0  0  0  0  0
   -7.7985   -8.8678    8.4411 C   0  0  0  0  0  0  0  0  0  0  0  0
   -4.6460   -7.9141    6.9846 C   0  0  0  0  0  0  0  0  0  0  0  0
   -5.5527   -8.1403    8.0378 O   0  0  0  0  0  0  0  0  0  0  0  0
  -15.1535   -8.3998    6.0907 C   0  0  0  0  0  0  0  0  0  0  0  0
  -16.4803   -8.0758    6.2044 C   0  0  0  0  0  0  0  0  0  0  0  0
  -17.4153   -8.2977    5.2735 C   0  0  0  0  0  0  0  0  0  0  0  0
  -17.0910   -8.8950    4.0810 C   0  0  0  0  0  0  0  0  0  0  0  0
  -15.7897   -9.2528    3.8722 C   0  0  0  0  0  0  0  0  0  0  0  0
  -14.8799   -9.0082    4.8421 C   0  0  0  0  0  0  0  0  0  0  0  0
 28 29  1  0  0  0
 29 22  1  0  0  0
 22 23  2  0  0  0
 23 24  1  0  0  0
 24 25  2  0  0  0
 25 26  1  0  0  0
 26 27  2  0  0  0
 25  1  1  0  0  0
  1  2  1  0  0  0
  1  3  1  0  0  0
  3  4  2  0  0  0
  3  5  1  0  0  0
  5  6  1  0  0  0
  6  7  2  0  0  0
  7  8  1  0  0  0
  8  9  1  0  0  0
  8 10  1  0  0  0
 10 11  1  0  0  0
 11 12  1  0  0  0
 11 13  1  0  0  0
 13 14  1  0  0  0
 14 15  2  0  0  0
 15 16  1  0  0  0
 16 17  2  0  0  0
 17 18  1  0  0  0
 18 19  2  0  0  0
  6 30  1  0  0  0
 30 31  2  0  0  0
 31 32  1  0  0  0
 32 33  2  0  0  0
 33 34  1  0  0  0
 34 35  2  0  0  0
 27 22  1  0  0  0
 11  1  1  0  0  0
 19 14  1  0  0  0
 35 30  1  0  0  0
 19  7  1  0  0  0
  2 20  1  0  0  0
  9 21  1  0  0  0
M  END
> <minimizedAffinity>
2.70338

> <CNNscore>
0.3138283789

> <CNNaffinity>
5.7612543106

> <CNN_VS>
1.8080451488

> <CNNaffinity_variance>
0.4794160426

$$$$
[H]OC1(c2c([H])c([H])c(OC([H])([H])[H])c([H])c2[H])C(=O)OC(c2c([H])c([H])c([H])c([H])c2[H])=C2c3c([H])c([H])c([H])c([H])c3OC1(C([H])([H])[H])O[C@@]2([H])O[H]


 35 39  0  0  0  0  0  0  0  0999 V2000
  -14.7030   -7.8922    6.5542 C   0  0  0  0  0  0  0  0  0  0  0  0
  -14.2677   -8.9804    5.8676 O   0  0  0  0  0  0  0  0  0  0  0  0
  -13.6122   -6.8539    6.3102 C   0  0  0  0  0  0  0  0  0  0  0  0
  -13.8383   -6.1392    5.3463 O   0  0  0  0  0  0  0  0  0  0  0  0
  -12.3864   -6.6161    7.0488 O   0  0  0  0  0  0  0  0  0  0  0  0
  -11.6799   -7.8466    7.5145 C   0  0  0  0  0  0  0  0  0  0  0  0
  -12.3805   -8.6739    8.0991 C   0  0  0  0  0  0  0  0  0  0  0  0
  -13.2424   -9.6964    8.8207 C   0  0  0  0  0  0  0  0  0  0  0  0
  -12.9105  -10.9879    8.4804 O   0  0  0  0  0  0  0  0  0  0  0  0
  -14.5628   -9.3792    8.4873 O   0  0  0  0  0  0  0  0  0  0  0  0
  -14.9203   -8.1856    7.9767 C   0  0  0  0  0  0  0  0  0  0  0  0
  -16.4569   -8.1808    8.2278 C   0  0  0  0  0  0  0  0  0  0  0  0
  -14.6165   -7.0380    8.8463 O   0  0  0  0  0  0  0  0  0  0  0  0
  -13.2963   -6.8530    9.3972 C   0  0  0  0  0  0  0  0  0  0  0  0
  -13.3278   -5.7532   10.2739 C   0  0  0  0  0  0  0  0  0  0  0  0
  -12.1595   -5.4270   10.9205 C   0  0  0  0  0  0  0  0  0  0  0  0
  -11.0503   -6.1763   10.6821 C   0  0  0  0  0  0  0  0  0  0  0  0
  -11.0600   -7.2793    9.7895 C   0  0  0  0  0  0  0  0  0  0  0  0
  -12.1563   -7.5286    9.2187 C   0  0  0  0  0  0  0  0  0  0  0  0
  -13.9050   -8.7587    4.9801 H   0  0  0  0  0  0  0  0  0  0  0  0
  -13.6545  -11.5902    8.3311 H   0  0  0  0  0  0  0  0  0  0  0  0
  -18.1548   -6.5369    4.3693 C   0  0  0  0  0  0  0  0  0  0  0  0
  -17.4357   -5.7010    5.2155 C   0  0  0  0  0  0  0  0  0  0  0  0
  -16.3349   -6.1573    5.9060 C   0  0  0  0  0  0  0  0  0  0  0  0
  -15.9062   -7.4561    5.7838 C   0  0  0  0  0  0  0  0  0  0  0  0
  -16.6085   -8.2918    4.9490 C   0  0  0  0  0  0  0  0  0  0  0  0
  -17.7055   -7.8307    4.2637 C   0  0  0  0  0  0  0  0  0  0  0  0
  -19.8882   -4.8724    3.8758 C   0  0  0  0  0  0  0  0  0  0  0  0
  -19.2662   -6.1172    3.6610 O   0  0  0  0  0  0  0  0  0  0  0  0
  -10.4445   -8.1333    7.3721 C   0  0  0  0  0  0  0  0  0  0  0  0
   -9.3478   -7.3149    7.2955 C   0  0  0  0  0  0  0  0  0  0  0  0
   -8.0799   -7.7262    7.1810 C   0  0  0  0  0  0  0  0  0  0  0  0
   -7.7775   -9.0641    7.1305 C   0  0  0  0  0  0  0  0  0  0  0  0
   -8.8053   -9.9604    7.2029 C   0  0  0  0  0  0  0  0  0  0  0  0
  -10.0705   -9.4975    7.3183 C   0  0  0  0  0  0  0  0  0  0  0  0
 28 29  1  0  0  0
 29 22  1  0  0  0
 22 23  2  0  0  0
 23 24  1  0  0  0
 24 25  2  0  0  0
 25 26  1  0  0  0
 26 27  2  0  0  0
 25  1  1  0  0  0
  1  2  1  0  0  0
  1  3  1  0  0  0
  3  4  2  0  0  0
  3  5  1  0  0  0
  5  6  1  0  0  0
  6  7  2  0  0  0
  7  8  1  0  0  0
  8  9  1  0  0  0
  8 10  1  0  0  0
 10 11  1  0  0  0
 11 12  1  0  0  0
 11 13  1  0  0  0
 13 14  1  0  0  0
 14 15  2  0  0  0
 15 16  1  0  0  0
 16 17  2  0  0  0
 17 18  1  0  0  0
 18 19  2  0  0  0
  6 30  1  0  0  0
 30 31  2  0  0  0
 31 32  1  0  0  0
 32 33  2  0  0  0
 33 34  1  0  0  0
 34 35  2  0  0  0
 27 22  1  0  0  0
 11  1  1  0  0  0
 19 14  1  0  0  0
 35 30  1  0  0  0
 19  7  1  0  0  0
  2 20  1  0  0  0
  9 21  1  0  0  0
M  END
> <minimizedAffinity>
-7.69307

> <CNNscore>
0.2963074446

> <CNNaffinity>
6.1158227921

> <CNN_VS>
1.8121638298

> <CNNaffinity_variance>
0.1483721584

$$$$
[H]OC1(c2c([H])c([H])c(OC([H])([H])[H])c([H])c2[H])C(=O)OC(c2c([H])c([H])c([H])c([H])c2[H])=C2c3c([H])c([H])c([H])c([H])c3OC1(C([H])([H])[H])O[C@@]2([H])O[H]


 35 39  0  0  0  0  0  0  0  0999 V2000
  -14.3986   -8.1638    6.4499 C   0  0  0  0  0  0  0  0  0  0  0  0
  -14.5180   -9.5167    6.4703 O   0  0  0  0  0  0  0  0  0  0  0  0
  -15.5243   -7.6905    7.3645 C   0  0  0  0  0  0  0  0  0  0  0  0
  -15.1705   -7.5459    8.5242 O   0  0  0  0  0  0  0  0  0  0  0  0
  -16.9096   -7.4015    7.0447 O   0  0  0  0  0  0  0  0  0  0  0  0
  -17.5434   -8.3408    6.0721 C   0  0  0  0  0  0  0  0  0  0  0  0
  -16.9007   -8.5563    5.0437 C   0  0  0  0  0  0  0  0  0  0  0  0
  -16.1100   -8.8240    3.7740 C   0  0  0  0  0  0  0  0  0  0  0  0
  -16.1854  -10.1414    3.3835 O   0  0  0  0  0  0  0  0  0  0  0  0
  -14.7997   -8.4245    4.0543 O   0  0  0  0  0  0  0  0  0  0  0  0
  -14.4869   -7.6206    5.0883 C   0  0  0  0  0  0  0  0  0  0  0  0
  -13.0661   -7.1262    4.6870 C   0  0  0  0  0  0  0  0  0  0  0  0
  -15.1303   -6.2979    5.0449 O   0  0  0  0  0  0  0  0  0  0  0  0
  -16.5556   -6.1714    4.8628 C   0  0  0  0  0  0  0  0  0  0  0  0
  -16.8716   -4.8056    4.7441 C   0  0  0  0  0  0  0  0  0  0  0  0
  -18.1911   -4.4777    4.5417 C   0  0  0  0  0  0  0  0  0  0  0  0
  -19.1084   -5.4786    4.4665 C   0  0  0  0  0  0  0  0  0  0  0  0
  -18.7485   -6.8454    4.5912 C   0  0  0  0  0  0  0  0  0  0  0  0
  -17.5260   -7.0878    4.7830 C   0  0  0  0  0  0  0  0  0  0  0  0
  -14.6866   -9.8772    7.3702 H   0  0  0  0  0  0  0  0  0  0  0  0
  -15.3567  -10.5399    3.0783 H   0  0  0  0  0  0  0  0  0  0  0  0
  -10.6562   -7.5475    8.4845 C   0  0  0  0  0  0  0  0  0  0  0  0
  -10.9100   -8.6823    7.7233 C   0  0  0  0  0  0  0  0  0  0  0  0
  -12.1160   -8.8589    7.0822 C   0  0  0  0  0  0  0  0  0  0  0  0
  -13.1135   -7.9193    7.1710 C   0  0  0  0  0  0  0  0  0  0  0  0
  -12.8739   -6.7923    7.9200 C   0  0  0  0  0  0  0  0  0  0  0  0
  -11.6693   -6.6226    8.5570 C   0  0  0  0  0  0  0  0  0  0  0  0
   -8.2067   -7.6426    8.5812 C   0  0  0  0  0  0  0  0  0  0  0  0
   -9.4596   -7.3348    9.1450 O   0  0  0  0  0  0  0  0  0  0  0  0
  -18.6637   -8.9406    6.1896 C   0  0  0  0  0  0  0  0  0  0  0  0
  -19.4838   -9.4817    5.2342 C   0  0  0  0  0  0  0  0  0  0  0  0
  -20.6316  -10.1266    5.4723 C   0  0  0  0  0  0  0  0  0  0  0  0
  -21.0872  -10.2985    6.7556 C   0  0  0  0  0  0  0  0  0  0  0  0
  -20.3358   -9.7957    7.7791 C   0  0  0  0  0  0  0  0  0  0  0  0
  -19.1828   -9.1515    7.4896 C   0  0  0  0  0  0  0  0  0  0  0  0
 28 29  1  0  0  0
 29 22  1  0  0  0
 22 23  2  0  0  0
 23 24  1  0  0  0
 24 25  2  0  0  0
 25 26  1  0  0  0
 26 27  2  0  0  0
 25  1  1  0  0  0
  1  2  1  0  0  0
  1  3  1  0  0  0
  3  4  2  0  0  0
  3  5  1  0  0  0
  5  6  1  0  0  0
  6  7  2  0  0  0
  7  8  1  0  0  0
  8  9  1  0  0  0
  8 10  1  0  0  0
 10 11  1  0  0  0
 11 12  1  0  0  0
 11 13  1  0  0  0
 13 14  1  0  0  0
 14 15  2  0  0  0
 15 16  1  0  0  0
 16 17  2  0  0  0
 17 18  1  0  0  0
 18 19  2  0  0  0
  6 30  1  0  0  0
 30 31  2  0  0  0
 31 32  1  0  0  0
 32 33  2  0  0  0
 33 34  1  0  0  0
 34 35  2  0  0  0
 27 22  1  0  0  0
 11  1  1  0  0  0
 19 14  1  0  0  0
 35 30  1  0  0  0
 19  7  1  0  0  0
  2 20  1  0  0  0
  9 21  1  0  0  0
M  END
> <minimizedAffinity>
-0.41459

> <CNNscore>
0.2707408667

> <CNNaffinity>
5.8904614449

> <CNN_VS>
1.5947886705

> <CNNaffinity_variance>
0.3816072941

$$$$
[H]/C(=C1\C(=O)N([H])c2c([H])c([H])c(-c3c([H])c(OC([H])([H])[H])c(OC([H])([H])[H])c([H])c3OC([H])([H])[H])c([H])c21)c1c([H])c(OC([H])([H])[H])c(OC([H])([H])[H])c(OC([H])([H])[H])c1[H]


 36 39  0  0  0  0  0  0  0  0999 V2000
   -9.0577   -8.3279    7.9780 C   0  0  0  0  0  0  0  0  0  0  0  0
  -10.3274   -7.9933    8.4597 C   0  0  0  0  0  0  0  0  0  0  0  0
  -11.4481   -8.7316    8.1262 C   0  0  0  0  0  0  0  0  0  0  0  0
  -11.3526   -9.8386    7.2903 C   0  0  0  0  0  0  0  0  0  0  0  0
  -10.0874  -10.1661    6.8146 C   0  0  0  0  0  0  0  0  0  0  0  0
   -8.9775   -9.4253    7.1549 C   0  0  0  0  0  0  0  0  0  0  0  0
  -12.6327  -10.4197    7.0680 N   0  0  0  0  0  0  0  0  0  0  0  0
  -13.5790   -9.6633    7.7855 C   0  0  0  0  0  0  0  0  0  0  0  0
  -14.8270   -9.8334    7.8619 O   0  0  0  0  0  0  0  0  0  0  0  0
  -12.8529   -8.5748    8.4784 C   0  0  0  0  0  0  0  0  0  0  0  0
  -13.3713   -7.7255    9.3138 C   0  0  0  0  0  0  0  0  0  0  0  0
  -12.8130  -11.2709    6.4656 H   0  0  0  0  0  0  0  0  0  0  0  0
   -7.8589   -7.5668    8.3030 C   0  0  0  0  0  0  0  0  0  0  0  0
   -7.3433   -7.5787    9.5857 C   0  0  0  0  0  0  0  0  0  0  0  0
   -6.2131   -6.8563    9.9092 C   0  0  0  0  0  0  0  0  0  0  0  0
   -5.5636   -6.1056    8.9801 C   0  0  0  0  0  0  0  0  0  0  0  0
   -6.0588   -6.0750    7.6836 C   0  0  0  0  0  0  0  0  0  0  0  0
   -7.1922   -6.8033    7.3721 C   0  0  0  0  0  0  0  0  0  0  0  0
   -5.7347   -6.9045   11.2242 O   0  0  0  0  0  0  0  0  0  0  0  0
   -6.0241   -5.8358   12.0995 C   0  0  0  0  0  0  0  0  0  0  0  0
   -4.4177   -5.3794    9.3313 O   0  0  0  0  0  0  0  0  0  0  0  0
   -3.5161   -4.8554    8.4015 C   0  0  0  0  0  0  0  0  0  0  0  0
   -7.6937   -6.7780    6.0797 O   0  0  0  0  0  0  0  0  0  0  0  0
   -6.8848   -6.5089    4.9595 C   0  0  0  0  0  0  0  0  0  0  0  0
  -12.6879   -6.7604   10.0889 C   0  0  0  0  0  0  0  0  0  0  0  0
  -12.5878   -5.4342    9.7491 C   0  0  0  0  0  0  0  0  0  0  0  0
  -12.0225   -4.4833   10.5864 C   0  0  0  0  0  0  0  0  0  0  0  0
  -11.5428   -4.8792   11.8050 C   0  0  0  0  0  0  0  0  0  0  0  0
  -11.6201   -6.2077   12.1949 C   0  0  0  0  0  0  0  0  0  0  0  0
  -12.1849   -7.1301   11.3455 C   0  0  0  0  0  0  0  0  0  0  0  0
  -11.9239   -3.1408   10.2357 O   0  0  0  0  0  0  0  0  0  0  0  0
  -13.0762   -2.2943   10.2481 C   0  0  0  0  0  0  0  0  0  0  0  0
  -10.9729   -3.9534   12.6638 O   0  0  0  0  0  0  0  0  0  0  0  0
  -11.2318   -3.9668   14.0381 C   0  0  0  0  0  0  0  0  0  0  0  0
  -11.1111   -6.5599   13.4571 O   0  0  0  0  0  0  0  0  0  0  0  0
   -9.8116   -6.2362   13.8589 C   0  0  0  0  0  0  0  0  0  0  0  0
 13  1  1  0  0  0
  1  2  2  0  0  0
  2  3  1  0  0  0
  3  4  2  0  0  0
  4  5  1  0  0  0
  5  6  2  0  0  0
  4  7  1  0  0  0
  7  8  1  0  0  0
  8  9  2  0  0  0
  8 10  1  0  0  0
 10 11  2  0  0  0
 11 25  1  0  0  0
 25 26  2  0  0  0
 26 27  1  0  0  0
 27 31  1  0  0  0
 31 32  1  0  0  0
 27 28  2  0  0  0
 28 33  1  0  0  0
 33 34  1  0  0  0
 28 29  1  0  0  0
 29 35  1  0  0  0
 35 36  1  0  0  0
 29 30  2  0  0  0
 13 14  2  0  0  0
 14 15  1  0  0  0
 15 19  1  0  0  0
 19 20  1  0  0  0
 15 16  2  0  0  0
 16 21  1  0  0  0
 21 22  1  0  0  0
 16 17  1  0  0  0
 17 18  2  0  0  0
 18 23  1  0  0  0
 23 24  1  0  0  0
 18 13  1  0  0  0
  6  1  1  0  0  0
 30 25  1  0  0  0
 10  3  1  0  0  0
  7 12  1  0  0  0
M  END
> <minimizedAffinity>
7.17117

> <CNNscore>
0.6422083974

> <CNNaffinity>
6.8848609924

> <CNN_VS>
4.4215154648

> <CNNaffinity_variance>
0.2992919087

$$$$
[H]/C(=C1\C(=O)N([H])c2c([H])c([H])c(-c3c([H])c(OC([H])([H])[H])c(OC([H])([H])[H])c([H])c3OC([H])([H])[H])c([H])c21)c1c([H])c(OC([H])([H])[H])c(OC([H])([H])[H])c(OC([H])([H])[H])c1[H]


 36 39  0  0  0  0  0  0  0  0999 V2000
  -13.3253   -8.1156    8.7417 C   0  0  0  0  0  0  0  0  0  0  0  0
  -14.3717   -7.9139    7.8358 C   0  0  0  0  0  0  0  0  0  0  0  0
  -15.6832   -8.2029    8.1657 C   0  0  0  0  0  0  0  0  0  0  0  0
  -16.0103   -8.7122    9.4175 C   0  0  0  0  0  0  0  0  0  0  0  0
  -14.9653   -8.9105   10.3136 C   0  0  0  0  0  0  0  0  0  0  0  0
  -13.6630   -8.6171    9.9756 C   0  0  0  0  0  0  0  0  0  0  0  0
  -17.4089   -8.9563    9.5175 N   0  0  0  0  0  0  0  0  0  0  0  0
  -17.9981   -8.5901    8.2922 C   0  0  0  0  0  0  0  0  0  0  0  0
  -19.2130   -8.6469    7.9559 O   0  0  0  0  0  0  0  0  0  0  0  0
  -16.9203   -8.0994    7.4035 C   0  0  0  0  0  0  0  0  0  0  0  0
  -17.0835   -7.5844    6.2220 C   0  0  0  0  0  0  0  0  0  0  0  0
  -17.8943   -9.3444   10.3739 H   0  0  0  0  0  0  0  0  0  0  0  0
  -11.9329   -7.8295    8.4232 C   0  0  0  0  0  0  0  0  0  0  0  0
  -11.1486   -8.7718    7.7841 C   0  0  0  0  0  0  0  0  0  0  0  0
   -9.8263   -8.5170    7.4835 C   0  0  0  0  0  0  0  0  0  0  0  0
   -9.2441   -7.3308    7.8039 C   0  0  0  0  0  0  0  0  0  0  0  0
  -10.0077   -6.3657    8.4461 C   0  0  0  0  0  0  0  0  0  0  0  0
  -11.3317   -6.6332    8.7418 C   0  0  0  0  0  0  0  0  0  0  0  0
   -9.0785   -9.5076    6.8355 O   0  0  0  0  0  0  0  0  0  0  0  0
   -9.7091  -10.7178    6.4750 C   0  0  0  0  0  0  0  0  0  0  0  0
   -7.8991   -7.0940    7.4893 O   0  0  0  0  0  0  0  0  0  0  0  0
   -7.4639   -6.6247    6.2475 C   0  0  0  0  0  0  0  0  0  0  0  0
  -12.1015   -5.6749    9.3835 O   0  0  0  0  0  0  0  0  0  0  0  0
  -12.0737   -5.4925   10.7790 C   0  0  0  0  0  0  0  0  0  0  0  0
  -16.0960   -6.9899    5.4029 C   0  0  0  0  0  0  0  0  0  0  0  0
  -15.4999   -7.6203    4.3392 C   0  0  0  0  0  0  0  0  0  0  0  0
  -14.6280   -6.9752    3.4742 C   0  0  0  0  0  0  0  0  0  0  0  0
  -14.3470   -5.6529    3.6857 C   0  0  0  0  0  0  0  0  0  0  0  0
  -14.9235   -4.9710    4.7467 C   0  0  0  0  0  0  0  0  0  0  0  0
  -15.7841   -5.6346    5.5895 C   0  0  0  0  0  0  0  0  0  0  0  0
  -14.0270   -7.6202    2.3982 O   0  0  0  0  0  0  0  0  0  0  0  0
  -14.1501   -9.0349    2.2309 C   0  0  0  0  0  0  0  0  0  0  0  0
  -13.4806   -4.9806    2.8391 O   0  0  0  0  0  0  0  0  0  0  0  0
  -12.2431   -4.5018    3.2808 C   0  0  0  0  0  0  0  0  0  0  0  0
  -14.5995   -3.6139    4.9183 O   0  0  0  0  0  0  0  0  0  0  0  0
  -15.1703   -2.6022    4.1400 C   0  0  0  0  0  0  0  0  0  0  0  0
 13  1  1  0  0  0
  1  2  2  0  0  0
  2  3  1  0  0  0
  3  4  2  0  0  0
  4  5  1  0  0  0
  5  6  2  0  0  0
  4  7  1  0  0  0
  7  8  1  0  0  0
  8  9  2  0  0  0
  8 10  1  0  0  0
 10 11  2  0  0  0
 11 25  1  0  0  0
 25 26  2  0  0  0
 26 27  1  0  0  0
 27 31  1  0  0  0
 31 32  1  0  0  0
 27 28  2  0  0  0
 28 33  1  0  0  0
 33 34  1  0  0  0
 28 29  1  0  0  0
 29 35  1  0  0  0
 35 36  1  0  0  0
 29 30  2  0  0  0
 13 14  2  0  0  0
 14 15  1  0  0  0
 15 19  1  0  0  0
 19 20  1  0  0  0
 15 16  2  0  0  0
 16 21  1  0  0  0
 21 22  1  0  0  0
 16 17  1  0  0  0
 17 18  2  0  0  0
 18 23  1  0  0  0
 23 24  1  0  0  0
 18 13  1  0  0  0
  6  1  1  0  0  0
 30 25  1  0  0  0
 10  3  1  0  0  0
  7 12  1  0  0  0
M  END
> <minimizedAffinity>
7.44114

> <CNNscore>
0.5158702135

> <CNNaffinity>
7.4534311295

> <CNN_VS>
3.8450031281

> <CNNaffinity_variance>
0.4308153689

$$$$
[H]/C(=C1\C(=O)N([H])c2c([H])c([H])c(-c3c([H])c(OC([H])([H])[H])c(OC([H])([H])[H])c([H])c3OC([H])([H])[H])c([H])c21)c1c([H])c(OC([H])([H])[H])c(OC([H])([H])[H])c(OC([H])([H])[H])c1[H]


 36 39  0  0  0  0  0  0  0  0999 V2000
  -11.1092   -8.9388    6.9621 C   0  0  0  0  0  0  0  0  0  0  0  0
  -11.9293   -8.2528    7.8638 C   0  0  0  0  0  0  0  0  0  0  0  0
  -13.3081   -8.3350    7.7983 C   0  0  0  0  0  0  0  0  0  0  0  0
  -13.9332   -9.1048    6.8236 C   0  0  0  0  0  0  0  0  0  0  0  0
  -13.1122   -9.7844    5.9300 C   0  0  0  0  0  0  0  0  0  0  0  0
  -11.7400   -9.6974    6.0057 C   0  0  0  0  0  0  0  0  0  0  0  0
  -15.3492   -9.0150    6.9355 N   0  0  0  0  0  0  0  0  0  0  0  0
  -15.6420   -8.1627    8.0173 C   0  0  0  0  0  0  0  0  0  0  0  0
  -16.7709   -7.8119    8.4588 O   0  0  0  0  0  0  0  0  0  0  0  0
  -14.3558   -7.7114    8.5955 C   0  0  0  0  0  0  0  0  0  0  0  0
  -14.2144   -6.9890    9.6659 C   0  0  0  0  0  0  0  0  0  0  0  0
  -16.0375   -9.5124    6.3041 H   0  0  0  0  0  0  0  0  0  0  0  0
   -9.6547   -8.8670    6.9983 C   0  0  0  0  0  0  0  0  0  0  0  0
   -9.0039   -7.6622    6.8073 C   0  0  0  0  0  0  0  0  0  0  0  0
   -7.6268   -7.5813    6.8314 C   0  0  0  0  0  0  0  0  0  0  0  0
   -6.8572   -8.6820    7.0435 C   0  0  0  0  0  0  0  0  0  0  0  0
   -7.4836   -9.9053    7.2385 C   0  0  0  0  0  0  0  0  0  0  0  0
   -8.8644   -9.9733    7.2122 C   0  0  0  0  0  0  0  0  0  0  0  0
   -7.0203   -6.3352    6.6317 O   0  0  0  0  0  0  0  0  0  0  0  0
   -6.5985   -5.9774    5.3332 C   0  0  0  0  0  0  0  0  0  0  0  0
   -5.4600   -8.5764    7.0632 O   0  0  0  0  0  0  0  0  0  0  0  0
   -4.7615   -7.6741    7.8693 C   0  0  0  0  0  0  0  0  0  0  0  0
   -9.4981  -11.1913    7.4057 O   0  0  0  0  0  0  0  0  0  0  0  0
   -9.5184  -12.1981    6.4220 C   0  0  0  0  0  0  0  0  0  0  0  0
  -13.0058   -6.6495   10.3167 C   0  0  0  0  0  0  0  0  0  0  0  0
  -11.8161   -6.4391    9.6650 C   0  0  0  0  0  0  0  0  0  0  0  0
  -10.6751   -5.9838   10.3095 C   0  0  0  0  0  0  0  0  0  0  0  0
  -10.7327   -5.7314   11.6530 C   0  0  0  0  0  0  0  0  0  0  0  0
  -11.9111   -5.9284   12.3570 C   0  0  0  0  0  0  0  0  0  0  0  0
  -13.0276   -6.3810   11.6937 C   0  0  0  0  0  0  0  0  0  0  0  0
   -9.4724   -5.7730    9.6430 O   0  0  0  0  0  0  0  0  0  0  0  0
   -9.4532   -5.2208    8.3242 C   0  0  0  0  0  0  0  0  0  0  0  0
   -9.6104   -5.2755   12.3251 O   0  0  0  0  0  0  0  0  0  0  0  0
   -8.9556   -6.0587   13.2809 C   0  0  0  0  0  0  0  0  0  0  0  0
  -11.9145   -5.6543   13.7358 O   0  0  0  0  0  0  0  0  0  0  0  0
  -11.4813   -4.4321   14.2587 C   0  0  0  0  0  0  0  0  0  0  0  0
 13  1  1  0  0  0
  1  2  2  0  0  0
  2  3  1  0  0  0
  3  4  2  0  0  0
  4  5  1  0  0  0
  5  6  2  0  0  0
  4  7  1  0  0  0
  7  8  1  0  0  0
  8  9  2  0  0  0
  8 10  1  0  0  0
 10 11  2  0  0  0
 11 25  1  0  0  0
 25 26  2  0  0  0
 26 27  1  0  0  0
 27 31  1  0  0  0
 31 32  1  0  0  0
 27 28  2  0  0  0
 28 33  1  0  0  0
 33 34  1  0  0  0
 28 29  1  0  0  0
 29 35  1  0  0  0
 35 36  1  0  0  0
 29 30  2  0  0  0
 13 14  2  0  0  0
 14 15  1  0  0  0
 15 19  1  0  0  0
 19 20  1  0  0  0
 15 16  2  0  0  0
 16 21  1  0  0  0
 21 22  1  0  0  0
 16 17  1  0  0  0
 17 18  2  0  0  0
 18 23  1  0  0  0
 23 24  1  0  0  0
 18 13  1  0  0  0
  6  1  1  0  0  0
 30 25  1  0  0  0
 10  3  1  0  0  0
  7 12  1  0  0  0
M  END
> <minimizedAffinity>
6.39819

> <CNNscore>
0.5054698586

> <CNNaffinity>
6.8843903542

> <CNN_VS>
3.4798517227

> <CNNaffinity_variance>
0.4092869759

$$$$
[H]/C(=C1\C(=O)N([H])c2c([H])c([H])c(-c3c([H])c(OC([H])([H])[H])c(OC([H])([H])[H])c([H])c3OC([H])([H])[H])c([H])c21)c1c([H])c(OC([H])([H])[H])c(OC([H])([H])[H])c(OC([H])([H])[H])c1[H]


 36 39  0  0  0  0  0  0  0  0999 V2000
  -11.0607   -8.8608    7.1014 C   0  0  0  0  0  0  0  0  0  0  0  0
  -11.9405   -8.1055    7.8835 C   0  0  0  0  0  0  0  0  0  0  0  0
  -13.3117   -8.2040    7.7342 C   0  0  0  0  0  0  0  0  0  0  0  0
  -13.8688   -9.0607    6.7912 C   0  0  0  0  0  0  0  0  0  0  0  0
  -12.9886   -9.8089    6.0167 C   0  0  0  0  0  0  0  0  0  0  0  0
  -11.6246   -9.7047    6.1752 C   0  0  0  0  0  0  0  0  0  0  0  0
  -15.2893   -8.9727    6.8007 N   0  0  0  0  0  0  0  0  0  0  0  0
  -15.6554   -8.0318    7.7822 C   0  0  0  0  0  0  0  0  0  0  0  0
  -16.8119   -7.6530    8.1156 O   0  0  0  0  0  0  0  0  0  0  0  0
  -14.4116   -7.5218    8.4026 C   0  0  0  0  0  0  0  0  0  0  0  0
  -14.3434   -6.7078    9.4129 C   0  0  0  0  0  0  0  0  0  0  0  0
  -15.9329   -9.5286    6.1709 H   0  0  0  0  0  0  0  0  0  0  0  0
   -9.6120   -8.7746    7.2276 C   0  0  0  0  0  0  0  0  0  0  0  0
   -8.9707   -7.5515    7.1618 C   0  0  0  0  0  0  0  0  0  0  0  0
   -7.5987   -7.4562    7.2719 C   0  0  0  0  0  0  0  0  0  0  0  0
   -6.8250   -8.5602    7.4491 C   0  0  0  0  0  0  0  0  0  0  0  0
   -7.4418   -9.8018    7.5191 C   0  0  0  0  0  0  0  0  0  0  0  0
   -8.8176   -9.8840    7.4074 C   0  0  0  0  0  0  0  0  0  0  0  0
   -7.0019   -6.1918    7.1978 O   0  0  0  0  0  0  0  0  0  0  0  0
   -6.3375   -5.8150    6.0109 C   0  0  0  0  0  0  0  0  0  0  0  0
   -5.4331   -8.4397    7.5579 O   0  0  0  0  0  0  0  0  0  0  0  0
   -4.5563   -8.5712    6.4783 C   0  0  0  0  0  0  0  0  0  0  0  0
   -9.4417  -11.1203    7.4758 O   0  0  0  0  0  0  0  0  0  0  0  0
   -9.4173  -12.0399    6.4103 C   0  0  0  0  0  0  0  0  0  0  0  0
  -13.1816   -6.3034   10.1102 C   0  0  0  0  0  0  0  0  0  0  0  0
  -13.1135   -6.1683   11.4745 C   0  0  0  0  0  0  0  0  0  0  0  0
  -11.9308   -5.8938   12.1456 C   0  0  0  0  0  0  0  0  0  0  0  0
  -10.7790   -5.7512   11.4209 C   0  0  0  0  0  0  0  0  0  0  0  0
  -10.7952   -5.8782   10.0400 C   0  0  0  0  0  0  0  0  0  0  0  0
  -11.9815   -6.1500    9.3997 C   0  0  0  0  0  0  0  0  0  0  0  0
  -11.8688   -5.7577   13.5286 O   0  0  0  0  0  0  0  0  0  0  0  0
  -11.5414   -4.5009   14.1266 C   0  0  0  0  0  0  0  0  0  0  0  0
   -9.5818   -5.4773   12.0619 O   0  0  0  0  0  0  0  0  0  0  0  0
   -9.2228   -6.1131   13.2547 C   0  0  0  0  0  0  0  0  0  0  0  0
   -9.5835   -5.7212    9.3447 O   0  0  0  0  0  0  0  0  0  0  0  0
   -9.4892   -4.9878    8.1580 C   0  0  0  0  0  0  0  0  0  0  0  0
 13  1  1  0  0  0
  1  2  2  0  0  0
  2  3  1  0  0  0
  3  4  2  0  0  0
  4  5  1  0  0  0
  5  6  2  0  0  0
  4  7  1  0  0  0
  7  8  1  0  0  0
  8  9  2  0  0  0
  8 10  1  0  0  0
 10 11  2  0  0  0
 11 25  1  0  0  0
 25 26  2  0  0  0
 26 27  1  0  0  0
 27 31  1  0  0  0
 31 32  1  0  0  0
 27 28  2  0  0  0
 28 33  1  0  0  0
 33 34  1  0  0  0
 28 29  1  0  0  0
 29 35  1  0  0  0
 35 36  1  0  0  0
 29 30  2  0  0  0
 13 14  2  0  0  0
 14 15  1  0  0  0
 15 19  1  0  0  0
 19 20  1  0  0  0
 15 16  2  0  0  0
 16 21  1  0  0  0
 21 22  1  0  0  0
 16 17  1  0  0  0
 17 18  2  0  0  0
 18 23  1  0  0  0
 23 24  1  0  0  0
 18 13  1  0  0  0
  6  1  1  0  0  0
 30 25  1  0  0  0
 10  3  1  0  0  0
  7 12  1  0  0  0
M  END
> <minimizedAffinity>
4.58284

> <CNNscore>
0.4722044766

> <CNNaffinity>
6.9097418785

> <CNN_VS>
3.2628109455

> <CNNaffinity_variance>
0.3829330206

$$$$
[H]/C(=C1\C(=O)N([H])c2c([H])c([H])c(-c3c([H])c(OC([H])([H])[H])c(OC([H])([H])[H])c([H])c3OC([H])([H])[H])c([H])c21)c1c([H])c(OC([H])([H])[H])c(OC([H])([H])[H])c(OC([H])([H])[H])c1[H]


 36 39  0  0  0  0  0  0  0  0999 V2000
   -7.3877   -8.0500    8.2344 C   0  0  0  0  0  0  0  0  0  0  0  0
   -8.7860   -8.0600    8.2055 C   0  0  0  0  0  0  0  0  0  0  0  0
   -9.4883   -8.8786    7.3400 C   0  0  0  0  0  0  0  0  0  0  0  0
   -8.8244   -9.7240    6.4581 C   0  0  0  0  0  0  0  0  0  0  0  0
   -7.4340   -9.7093    6.4917 C   0  0  0  0  0  0  0  0  0  0  0  0
   -6.7446   -8.8918    7.3593 C   0  0  0  0  0  0  0  0  0  0  0  0
   -9.7492  -10.4457    5.6521 N   0  0  0  0  0  0  0  0  0  0  0  0
  -11.0473  -10.0527    6.0302 C   0  0  0  0  0  0  0  0  0  0  0  0
  -12.1538  -10.4462    5.5685 O   0  0  0  0  0  0  0  0  0  0  0  0
  -10.9168   -9.0512    7.1128 C   0  0  0  0  0  0  0  0  0  0  0  0
  -11.8962   -8.5243    7.7843 C   0  0  0  0  0  0  0  0  0  0  0  0
   -9.4812  -11.1485    4.9077 H   0  0  0  0  0  0  0  0  0  0  0  0
   -6.6179   -7.1943    9.1272 C   0  0  0  0  0  0  0  0  0  0  0  0
   -6.8043   -7.2554   10.4958 C   0  0  0  0  0  0  0  0  0  0  0  0
   -6.0876   -6.4452   11.3524 C   0  0  0  0  0  0  0  0  0  0  0  0
   -5.1714   -5.5564   10.8842 C   0  0  0  0  0  0  0  0  0  0  0  0
   -4.9631   -5.4733    9.5143 C   0  0  0  0  0  0  0  0  0  0  0  0
   -5.6876   -6.2907    8.6664 C   0  0  0  0  0  0  0  0  0  0  0  0
   -6.3171   -6.5490   12.7297 O   0  0  0  0  0  0  0  0  0  0  0  0
   -6.9002   -5.4599   13.4122 C   0  0  0  0  0  0  0  0  0  0  0  0
   -4.4552   -4.7430   11.7727 O   0  0  0  0  0  0  0  0  0  0  0  0
   -3.2204   -5.0949   12.3231 C   0  0  0  0  0  0  0  0  0  0  0  0
   -5.4861   -6.2139    7.2967 O   0  0  0  0  0  0  0  0  0  0  0  0
   -4.2055   -6.2783    6.7157 C   0  0  0  0  0  0  0  0  0  0  0  0
  -11.8030   -7.6674    8.9053 C   0  0  0  0  0  0  0  0  0  0  0  0
  -11.3195   -6.3838    8.8519 C   0  0  0  0  0  0  0  0  0  0  0  0
  -11.3554   -5.5202    9.9370 C   0  0  0  0  0  0  0  0  0  0  0  0
  -11.8957   -5.9619   11.1139 C   0  0  0  0  0  0  0  0  0  0  0  0
  -12.3974   -7.2504   11.2191 C   0  0  0  0  0  0  0  0  0  0  0  0
  -12.3489   -8.0863   10.1281 C   0  0  0  0  0  0  0  0  0  0  0  0
  -10.8633   -4.2206    9.8762 O   0  0  0  0  0  0  0  0  0  0  0  0
  -11.7470   -3.0989    9.9493 C   0  0  0  0  0  0  0  0  0  0  0  0
  -11.9465   -5.1233   12.2154 O   0  0  0  0  0  0  0  0  0  0  0  0
  -11.1749   -5.3602   13.3575 C   0  0  0  0  0  0  0  0  0  0  0  0
  -12.9405   -7.6529   12.4517 O   0  0  0  0  0  0  0  0  0  0  0  0
  -13.7181   -8.8070   12.5879 C   0  0  0  0  0  0  0  0  0  0  0  0
 13  1  1  0  0  0
  1  2  2  0  0  0
  2  3  1  0  0  0
  3  4  2  0  0  0
  4  5  1  0  0  0
  5  6  2  0  0  0
  4  7  1  0  0  0
  7  8  1  0  0  0
  8  9  2  0  0  0
  8 10  1  0  0  0
 10 11  2  0  0  0
 11 25  1  0  0  0
 25 26  2  0  0  0
 26 27  1  0  0  0
 27 31  1  0  0  0
 31 32  1  0  0  0
 27 28  2  0  0  0
 28 33  1  0  0  0
 33 34  1  0  0  0
 28 29  1  0  0  0
 29 35  1  0  0  0
 35 36  1  0  0  0
 29 30  2  0  0  0
 13 14  2  0  0  0
 14 15  1  0  0  0
 15 19  1  0  0  0
 19 20  1  0  0  0
 15 16  2  0  0  0
 16 21  1  0  0  0
 21 22  1  0  0  0
 16 17  1  0  0  0
 17 18  2  0  0  0
 18 23  1  0  0  0
 23 24  1  0  0  0
 18 13  1  0  0  0
  6  1  1  0  0  0
 30 25  1  0  0  0
 10  3  1  0  0  0
  7 12  1  0  0  0
M  END
> <minimizedAffinity>
7.98369

> <CNNscore>
0.4659653008

> <CNNaffinity>
6.4440674782

> <CNN_VS>
3.0027117729

> <CNNaffinity_variance>
0.6767023206

$$$$
[H]/C(=C1\C(=O)N([H])c2c([H])c([H])c(-c3c([H])c(OC([H])([H])[H])c(OC([H])([H])[H])c([H])c3OC([H])([H])[H])c([H])c21)c1c([H])c(OC([H])([H])[H])c(OC([H])([H])[H])c(OC([H])([H])[H])c1[H]


 36 39  0  0  0  0  0  0  0  0999 V2000
  -11.4216   -8.9892    6.5194 C   0  0  0  0  0  0  0  0  0  0  0  0
  -12.4390   -8.2937    7.1808 C   0  0  0  0  0  0  0  0  0  0  0  0
  -13.7490   -8.3307    6.7396 C   0  0  0  0  0  0  0  0  0  0  0  0
  -14.1035   -9.0626    5.6118 C   0  0  0  0  0  0  0  0  0  0  0  0
  -13.0873   -9.7518    4.9586 C   0  0  0  0  0  0  0  0  0  0  0  0
  -11.7862   -9.7100    5.4078 C   0  0  0  0  0  0  0  0  0  0  0  0
  -15.4933   -8.9298    5.3356 N   0  0  0  0  0  0  0  0  0  0  0  0
  -16.0487   -8.0881    6.3182 C   0  0  0  0  0  0  0  0  0  0  0  0
  -17.2458   -7.7095    6.4441 O   0  0  0  0  0  0  0  0  0  0  0  0
  -14.9584   -7.6885    7.2368 C   0  0  0  0  0  0  0  0  0  0  0  0
  -15.0963   -6.9902    8.3236 C   0  0  0  0  0  0  0  0  0  0  0  0
  -15.9954   -9.3936    4.5276 H   0  0  0  0  0  0  0  0  0  0  0  0
  -10.0311   -8.9644    6.9528 C   0  0  0  0  0  0  0  0  0  0  0  0
   -9.3832   -7.7631    7.1732 C   0  0  0  0  0  0  0  0  0  0  0  0
   -8.0642   -7.7250    7.5763 C   0  0  0  0  0  0  0  0  0  0  0  0
   -7.3513   -8.8661    7.7720 C   0  0  0  0  0  0  0  0  0  0  0  0
   -7.9762  -10.0870    7.5584 C   0  0  0  0  0  0  0  0  0  0  0  0
   -9.2984  -10.1119    7.1546 C   0  0  0  0  0  0  0  0  0  0  0  0
   -7.4579   -6.4803    7.7847 O   0  0  0  0  0  0  0  0  0  0  0  0
   -6.5613   -5.9827    6.8149 C   0  0  0  0  0  0  0  0  0  0  0  0
   -6.0124   -8.8035    8.1811 O   0  0  0  0  0  0  0  0  0  0  0  0
   -4.9404   -8.6257    7.3030 C   0  0  0  0  0  0  0  0  0  0  0  0
   -9.9301  -11.3271    6.9385 O   0  0  0  0  0  0  0  0  0  0  0  0
   -9.3577  -12.3488    6.1575 C   0  0  0  0  0  0  0  0  0  0  0  0
  -14.1034   -6.7012    9.2879 C   0  0  0  0  0  0  0  0  0  0  0  0
  -13.4376   -5.5035    9.3685 C   0  0  0  0  0  0  0  0  0  0  0  0
  -12.5603   -5.1979   10.3989 C   0  0  0  0  0  0  0  0  0  0  0  0
  -12.3462   -6.1269   11.3802 C   0  0  0  0  0  0  0  0  0  0  0  0
  -12.9945   -7.3522   11.3440 C   0  0  0  0  0  0  0  0  0  0  0  0
  -13.8588   -7.6298   10.3109 C   0  0  0  0  0  0  0  0  0  0  0  0
  -11.8885   -3.9822   10.4744 O   0  0  0  0  0  0  0  0  0  0  0  0
  -12.5843   -2.7479   10.2823 C   0  0  0  0  0  0  0  0  0  0  0  0
  -11.4763   -5.8515   12.4226 O   0  0  0  0  0  0  0  0  0  0  0  0
  -11.8700   -5.0926   13.5294 C   0  0  0  0  0  0  0  0  0  0  0  0
  -12.7373   -8.2702   12.3771 O   0  0  0  0  0  0  0  0  0  0  0  0
  -13.3343   -9.5338   12.4238 C   0  0  0  0  0  0  0  0  0  0  0  0
 13  1  1  0  0  0
  1  2  2  0  0  0
  2  3  1  0  0  0
  3  4  2  0  0  0
  4  5  1  0  0  0
  5  6  2  0  0  0
  4  7  1  0  0  0
  7  8  1  0  0  0
  8  9  2  0  0  0
  8 10  1  0  0  0
 10 11  2  0  0  0
 11 25  1  0  0  0
 25 26  2  0  0  0
 26 27  1  0  0  0
 27 31  1  0  0  0
 31 32  1  0  0  0
 27 28  2  0  0  0
 28 33  1  0  0  0
 33 34  1  0  0  0
 28 29  1  0  0  0
 29 35  1  0  0  0
 35 36  1  0  0  0
 29 30  2  0  0  0
 13 14  2  0  0  0
 14 15  1  0  0  0
 15 19  1  0  0  0
 19 20  1  0  0  0
 15 16  2  0  0  0
 16 21  1  0  0  0
 21 22  1  0  0  0
 16 17  1  0  0  0
 17 18  2  0  0  0
 18 23  1  0  0  0
 23 24  1  0  0  0
 18 13  1  0  0  0
  6  1  1  0  0  0
 30 25  1  0  0  0
 10  3  1  0  0  0
  7 12  1  0  0  0
M  END
> <minimizedAffinity>
7.18483

> <CNNscore>
0.4491300583

> <CNNaffinity>
6.9265351295

> <CNN_VS>
3.1109151840

> <CNNaffinity_variance>
0.6532449722

$$$$
[H]/C(=C1\C(=O)N([H])c2c([H])c([H])c(-c3c([H])c(OC([H])([H])[H])c(OC([H])([H])[H])c([H])c3OC([H])([H])[H])c([H])c21)c1c([H])c(OC([H])([H])[H])c(OC([H])([H])[H])c(OC([H])([H])[H])c1[H]


 36 39  0  0  0  0  0  0  0  0999 V2000
  -11.6096   -9.0015    6.4540 C   0  0  0  0  0  0  0  0  0  0  0  0
  -12.6670   -8.3518    7.0990 C   0  0  0  0  0  0  0  0  0  0  0  0
  -13.9541   -8.3832    6.5945 C   0  0  0  0  0  0  0  0  0  0  0  0
  -14.2444   -9.0631    5.4169 C   0  0  0  0  0  0  0  0  0  0  0  0
  -13.1887   -9.7070    4.7803 C   0  0  0  0  0  0  0  0  0  0  0  0
  -11.9110   -9.6713    5.2927 C   0  0  0  0  0  0  0  0  0  0  0  0
  -15.6215   -8.9339    5.0815 N   0  0  0  0  0  0  0  0  0  0  0  0
  -16.2347   -8.1483    6.0762 C   0  0  0  0  0  0  0  0  0  0  0  0
  -17.4418   -7.7911    6.1630 O   0  0  0  0  0  0  0  0  0  0  0  0
  -15.1947   -7.7810    7.0640 C   0  0  0  0  0  0  0  0  0  0  0  0
  -15.3938   -7.1386    8.1755 C   0  0  0  0  0  0  0  0  0  0  0  0
  -16.0782   -9.3636    4.2290 H   0  0  0  0  0  0  0  0  0  0  0  0
  -10.2415   -8.9811    6.9539 C   0  0  0  0  0  0  0  0  0  0  0  0
   -9.6297   -7.7858    7.2834 C   0  0  0  0  0  0  0  0  0  0  0  0
   -8.3319   -7.7513    7.7506 C   0  0  0  0  0  0  0  0  0  0  0  0
   -7.6052   -8.8901    7.9047 C   0  0  0  0  0  0  0  0  0  0  0  0
   -8.1940  -10.1050    7.5818 C   0  0  0  0  0  0  0  0  0  0  0  0
   -9.4953  -10.1263    7.1147 C   0  0  0  0  0  0  0  0  0  0  0  0
   -7.7619   -6.5127    8.0689 O   0  0  0  0  0  0  0  0  0  0  0  0
   -6.7705   -5.9750    7.2203 C   0  0  0  0  0  0  0  0  0  0  0  0
   -6.2884   -8.8312    8.3804 O   0  0  0  0  0  0  0  0  0  0  0  0
   -5.1763   -8.6216    7.5613 C   0  0  0  0  0  0  0  0  0  0  0  0
  -10.0908  -11.3355    6.7894 O   0  0  0  0  0  0  0  0  0  0  0  0
   -9.3945  -12.3703    6.1370 C   0  0  0  0  0  0  0  0  0  0  0  0
  -14.4516   -6.8851    9.1990 C   0  0  0  0  0  0  0  0  0  0  0  0
  -14.0845   -7.8053   10.1491 C   0  0  0  0  0  0  0  0  0  0  0  0
  -13.0671   -7.5771   11.0643 C   0  0  0  0  0  0  0  0  0  0  0  0
  -12.3969   -6.3850   11.0220 C   0  0  0  0  0  0  0  0  0  0  0  0
  -12.7303   -5.4224   10.0812 C   0  0  0  0  0  0  0  0  0  0  0  0
  -13.7433   -5.6740    9.1858 C   0  0  0  0  0  0  0  0  0  0  0  0
  -12.7002   -8.5139   12.0250 O   0  0  0  0  0  0  0  0  0  0  0  0
  -13.4333   -9.7321   12.1772 C   0  0  0  0  0  0  0  0  0  0  0  0
  -11.3758   -6.1274   11.9222 O   0  0  0  0  0  0  0  0  0  0  0  0
  -11.6223   -5.5391   13.1668 C   0  0  0  0  0  0  0  0  0  0  0  0
  -12.0101   -4.2151   10.0828 O   0  0  0  0  0  0  0  0  0  0  0  0
  -12.6204   -2.9778   10.3107 C   0  0  0  0  0  0  0  0  0  0  0  0
 13  1  1  0  0  0
  1  2  2  0  0  0
  2  3  1  0  0  0
  3  4  2  0  0  0
  4  5  1  0  0  0
  5  6  2  0  0  0
  4  7  1  0  0  0
  7  8  1  0  0  0
  8  9  2  0  0  0
  8 10  1  0  0  0
 10 11  2  0  0  0
 11 25  1  0  0  0
 25 26  2  0  0  0
 26 27  1  0  0  0
 27 31  1  0  0  0
 31 32  1  0  0  0
 27 28  2  0  0  0
 28 33  1  0  0  0
 33 34  1  0  0  0
 28 29  1  0  0  0
 29 35  1  0  0  0
 35 36  1  0  0  0
 29 30  2  0  0  0
 13 14  2  0  0  0
 14 15  1  0  0  0
 15 19  1  0  0  0
 19 20  1  0  0  0
 15 16  2  0  0  0
 16 21  1  0  0  0
 21 22  1  0  0  0
 16 17  1  0  0  0
 17 18  2  0  0  0
 18 23  1  0  0  0
 23 24  1  0  0  0
 18 13  1  0  0  0
  6  1  1  0  0  0
 30 25  1  0  0  0
 10  3  1  0  0  0
  7 12  1  0  0  0
M  END
> <minimizedAffinity>
6.35920

> <CNNscore>
0.4401471913

> <CNNaffinity>
6.8914513588

> <CNN_VS>
3.0332529545

> <CNNaffinity_variance>
0.6283735037

$$$$
[H]/C(=C1\C(=O)N([H])c2c([H])c([H])c(-c3c([H])c(OC([H])([H])[H])c(OC([H])([H])[H])c([H])c3OC([H])([H])[H])c([H])c21)c1c([H])c(OC([H])([H])[H])c(OC([H])([H])[H])c(OC([H])([H])[H])c1[H]


 36 39  0  0  0  0  0  0  0  0999 V2000
  -10.5603   -6.2440   11.0388 C   0  0  0  0  0  0  0  0  0  0  0  0
   -9.1646   -6.2223   10.9505 C   0  0  0  0  0  0  0  0  0  0  0  0
   -8.3724   -5.9305   12.0458 C   0  0  0  0  0  0  0  0  0  0  0  0
   -8.9395   -5.6420   13.2821 C   0  0  0  0  0  0  0  0  0  0  0  0
  -10.3278   -5.6652   13.3633 C   0  0  0  0  0  0  0  0  0  0  0  0
  -11.1072   -5.9592   12.2668 C   0  0  0  0  0  0  0  0  0  0  0  0
   -7.9347   -5.3479   14.2462 N   0  0  0  0  0  0  0  0  0  0  0  0
   -6.6834   -5.4532   13.6092 C   0  0  0  0  0  0  0  0  0  0  0  0
   -5.5343   -5.2729   14.0984 O   0  0  0  0  0  0  0  0  0  0  0  0
   -6.9272   -5.8288   12.1979 C   0  0  0  0  0  0  0  0  0  0  0  0
   -6.0150   -6.1103   11.3167 C   0  0  0  0  0  0  0  0  0  0  0  0
   -8.1226   -5.0979   15.2572 H   0  0  0  0  0  0  0  0  0  0  0  0
  -11.4235   -6.5391    9.9031 C   0  0  0  0  0  0  0  0  0  0  0  0
  -11.1865   -7.6440    9.1066 C   0  0  0  0  0  0  0  0  0  0  0  0
  -11.9913   -7.9309    8.0232 C   0  0  0  0  0  0  0  0  0  0  0  0
  -13.0475   -7.1389    7.6974 C   0  0  0  0  0  0  0  0  0  0  0  0
  -13.3094   -6.0226    8.4797 C   0  0  0  0  0  0  0  0  0  0  0  0
  -12.4955   -5.7459    9.5627 C   0  0  0  0  0  0  0  0  0  0  0  0
  -11.7050   -9.0630    7.2507 O   0  0  0  0  0  0  0  0  0  0  0  0
  -10.3656   -9.3298    6.8944 C   0  0  0  0  0  0  0  0  0  0  0  0
  -13.8513   -7.4493    6.5923 O   0  0  0  0  0  0  0  0  0  0  0  0
  -14.7188   -6.5388    5.9838 C   0  0  0  0  0  0  0  0  0  0  0  0
  -12.7498   -4.6326   10.3491 O   0  0  0  0  0  0  0  0  0  0  0  0
  -12.2600   -3.3523   10.0288 C   0  0  0  0  0  0  0  0  0  0  0  0
   -6.2134   -6.5958   10.0036 C   0  0  0  0  0  0  0  0  0  0  0  0
   -5.6091   -6.0668    8.8904 C   0  0  0  0  0  0  0  0  0  0  0  0
   -5.7193   -6.6381    7.6310 C   0  0  0  0  0  0  0  0  0  0  0  0
   -6.4608   -7.7789    7.4867 C   0  0  0  0  0  0  0  0  0  0  0  0
   -7.0914   -8.3524    8.5806 C   0  0  0  0  0  0  0  0  0  0  0  0
   -6.9663   -7.7652    9.8179 C   0  0  0  0  0  0  0  0  0  0  0  0
   -5.1045   -6.0966    6.5068 O   0  0  0  0  0  0  0  0  0  0  0  0
   -3.7219   -6.3429    6.2382 C   0  0  0  0  0  0  0  0  0  0  0  0
   -6.5896   -8.3735    6.2421 O   0  0  0  0  0  0  0  0  0  0  0  0
   -7.5470   -7.9454    5.3169 C   0  0  0  0  0  0  0  0  0  0  0  0
   -7.8414   -9.5236    8.3759 O   0  0  0  0  0  0  0  0  0  0  0  0
   -7.2450  -10.7788    8.2214 C   0  0  0  0  0  0  0  0  0  0  0  0
 13  1  1  0  0  0
  1  2  2  0  0  0
  2  3  1  0  0  0
  3  4  2  0  0  0
  4  5  1  0  0  0
  5  6  2  0  0  0
  4  7  1  0  0  0
  7  8  1  0  0  0
  8  9  2  0  0  0
  8 10  1  0  0  0
 10 11  2  0  0  0
 11 25  1  0  0  0
 25 26  2  0  0  0
 26 27  1  0  0  0
 27 31  1  0  0  0
 31 32  1  0  0  0
 27 28  2  0  0  0
 28 33  1  0  0  0
 33 34  1  0  0  0
 28 29  1  0  0  0
 29 35  1  0  0  0
 35 36  1  0  0  0
 29 30  2  0  0  0
 13 14  2  0  0  0
 14 15  1  0  0  0
 15 19  1  0  0  0
 19 20  1  0  0  0
 15 16  2  0  0  0
 16 21  1  0  0  0
 21 22  1  0  0  0
 16 17  1  0  0  0
 17 18  2  0  0  0
 18 23  1  0  0  0
 23 24  1  0  0  0
 18 13  1  0  0  0
  6  1  1  0  0  0
 30 25  1  0  0  0
 10  3  1  0  0  0
  7 12  1  0  0  0
M  END
> <minimizedAffinity>
8.49622

> <CNNscore>
0.4309885502

> <CNNaffinity>
6.2749471664

> <CNN_VS>
2.7044303417

> <CNNaffinity_variance>
0.4683116972

$$$$
[H]/C(=C1\C(=O)N([H])c2c([H])c([H])c(-c3c([H])c(OC([H])([H])[H])c(OC([H])([H])[H])c([H])c3OC([H])([H])[H])c([H])c21)c1c([H])c(OC([H])([H])[H])c(OC([H])([H])[H])c(OC([H])([H])[H])c1[H]


 36 39  0  0  0  0  0  0  0  0999 V2000
  -13.6328   -8.0573    8.6224 C   0  0  0  0  0  0  0  0  0  0  0  0
  -14.6996   -7.8581    7.7400 C   0  0  0  0  0  0  0  0  0  0  0  0
  -15.9944   -8.2089    8.0756 C   0  0  0  0  0  0  0  0  0  0  0  0
  -16.2835   -8.7805    9.3097 C   0  0  0  0  0  0  0  0  0  0  0  0
  -15.2185   -8.9761   10.1825 C   0  0  0  0  0  0  0  0  0  0  0  0
  -13.9331   -8.6209    9.8391 C   0  0  0  0  0  0  0  0  0  0  0  0
  -17.6705   -9.0804    9.4187 N   0  0  0  0  0  0  0  0  0  0  0  0
  -18.2914   -8.6868    8.2178 C   0  0  0  0  0  0  0  0  0  0  0  0
  -19.5084   -8.7751    7.8961 O   0  0  0  0  0  0  0  0  0  0  0  0
  -17.2460   -8.1206    7.3354 C   0  0  0  0  0  0  0  0  0  0  0  0
  -17.4458   -7.5644    6.1785 C   0  0  0  0  0  0  0  0  0  0  0  0
  -18.1284   -9.5209   10.2651 H   0  0  0  0  0  0  0  0  0  0  0  0
  -12.2569   -7.7069    8.2969 C   0  0  0  0  0  0  0  0  0  0  0  0
  -11.4396   -8.6036    7.6340 C   0  0  0  0  0  0  0  0  0  0  0  0
  -10.1322   -8.2877    7.3264 C   0  0  0  0  0  0  0  0  0  0  0  0
   -9.5975   -7.0838    7.6631 C   0  0  0  0  0  0  0  0  0  0  0  0
  -10.3950   -6.1635    8.3294 C   0  0  0  0  0  0  0  0  0  0  0  0
  -11.7037   -6.4920    8.6319 C   0  0  0  0  0  0  0  0  0  0  0  0
   -9.3494   -9.2341    6.6541 O   0  0  0  0  0  0  0  0  0  0  0  0
   -9.7815  -10.5771    6.6124 C   0  0  0  0  0  0  0  0  0  0  0  0
   -8.2668   -6.7847    7.3411 O   0  0  0  0  0  0  0  0  0  0  0  0
   -7.1693   -7.2454    8.0725 C   0  0  0  0  0  0  0  0  0  0  0  0
  -12.5071   -5.5788    9.2975 O   0  0  0  0  0  0  0  0  0  0  0  0
  -12.4283   -5.3746   10.6881 C   0  0  0  0  0  0  0  0  0  0  0  0
  -16.4934   -6.9007    5.3712 C   0  0  0  0  0  0  0  0  0  0  0  0
  -16.0832   -5.6066    5.5748 C   0  0  0  0  0  0  0  0  0  0  0  0
  -15.0569   -5.0194    4.8494 C   0  0  0  0  0  0  0  0  0  0  0  0
  -14.4221   -5.7578    3.8882 C   0  0  0  0  0  0  0  0  0  0  0  0
  -14.7995   -7.0697    3.6440 C   0  0  0  0  0  0  0  0  0  0  0  0
  -15.8206   -7.6274    4.3772 C   0  0  0  0  0  0  0  0  0  0  0  0
  -14.6463   -3.7072    5.0606 O   0  0  0  0  0  0  0  0  0  0  0  0
  -15.0669   -2.6584    4.1844 C   0  0  0  0  0  0  0  0  0  0  0  0
  -13.3932   -5.1999    3.1472 O   0  0  0  0  0  0  0  0  0  0  0  0
  -12.3070   -4.5643    3.7572 C   0  0  0  0  0  0  0  0  0  0  0  0
  -14.1145   -7.7825    2.6446 O   0  0  0  0  0  0  0  0  0  0  0  0
  -14.2428   -9.1660    2.4881 C   0  0  0  0  0  0  0  0  0  0  0  0
 13  1  1  0  0  0
  1  2  2  0  0  0
  2  3  1  0  0  0
  3  4  2  0  0  0
  4  5  1  0  0  0
  5  6  2  0  0  0
  4  7  1  0  0  0
  7  8  1  0  0  0
  8  9  2  0  0  0
  8 10  1  0  0  0
 10 11  2  0  0  0
 11 25  1  0  0  0
 25 26  2  0  0  0
 26 27  1  0  0  0
 27 31  1  0  0  0
 31 32  1  0  0  0
 27 28  2  0  0  0
 28 33  1  0  0  0
 33 34  1  0  0  0
 28 29  1  0  0  0
 29 35  1  0  0  0
 35 36  1  0  0  0
 29 30  2  0  0  0
 13 14  2  0  0  0
 14 15  1  0  0  0
 15 19  1  0  0  0
 19 20  1  0  0  0
 15 16  2  0  0  0
 16 21  1  0  0  0
 21 22  1  0  0  0
 16 17  1  0  0  0
 17 18  2  0  0  0
 18 23  1  0  0  0
 23 24  1  0  0  0
 18 13  1  0  0  0
  6  1  1  0  0  0
 30 25  1  0  0  0
 10  3  1  0  0  0
  7 12  1  0  0  0
M  END
> <minimizedAffinity>
7.78418

> <CNNscore>
0.4275979400

> <CNNaffinity>
7.2429375648

> <CNN_VS>
3.0970652103

> <CNNaffinity_variance>
0.2322752923

$$$$
[H]c1c([H])c([H])c2c(c([H])c(C(=O)N3C([H])([H])C([H])([H])C([H])([H])C3([H])[H])n2[H])c1[C@]1([H])N(C2([H])C([H])([H])C([H])([H])OC([H])([H])C2([H])[H])C([H])([H])C([H])([H])C1([H])[H]


 28 32  0  0  0  0  0  0  0  0999 V2000
  -16.2435   -5.0441    4.4737 C   0  0  0  0  0  0  0  0  0  0  0  0
  -15.1995   -5.7241    5.0907 C   0  0  0  0  0  0  0  0  0  0  0  0
  -15.1256   -6.8349    5.9185 C   0  0  0  0  0  0  0  0  0  0  0  0
  -13.8269   -7.1610    6.2198 C   0  0  0  0  0  0  0  0  0  0  0  0
  -13.0834   -6.2073    5.5514 N   0  0  0  0  0  0  0  0  0  0  0  0
  -13.8932   -5.3624    4.8872 C   0  0  0  0  0  0  0  0  0  0  0  0
  -13.5297   -4.3041    4.0701 C   0  0  0  0  0  0  0  0  0  0  0  0
  -14.5229   -3.6202    3.4547 C   0  0  0  0  0  0  0  0  0  0  0  0
  -15.8062   -3.9923    3.6617 C   0  0  0  0  0  0  0  0  0  0  0  0
  -12.0484   -6.1777    5.5716 H   0  0  0  0  0  0  0  0  0  0  0  0
  -13.2523   -8.2000    7.0112 C   0  0  0  0  0  0  0  0  0  0  0  0
  -13.1436   -9.3839    6.3409 O   0  0  0  0  0  0  0  0  0  0  0  0
  -12.7644   -8.3456    8.2764 N   0  0  0  0  0  0  0  0  0  0  0  0
  -12.6137   -7.4851    9.4226 C   0  0  0  0  0  0  0  0  0  0  0  0
  -12.9407   -8.4151   10.6147 C   0  0  0  0  0  0  0  0  0  0  0  0
  -12.9214   -9.8190   10.0609 C   0  0  0  0  0  0  0  0  0  0  0  0
  -12.1684   -9.6261    8.7661 C   0  0  0  0  0  0  0  0  0  0  0  0
  -18.4047   -6.3568    4.2376 N   0  0  0  0  0  0  0  0  0  0  0  0
  -17.6458   -5.3039    4.7431 C   0  0  0  0  0  0  0  0  0  0  0  0
  -18.4835   -4.0862    5.0840 C   0  0  0  0  0  0  0  0  0  0  0  0
  -19.7675   -4.3828    4.3746 C   0  0  0  0  0  0  0  0  0  0  0  0
  -19.7219   -5.7944    3.8919 C   0  0  0  0  0  0  0  0  0  0  0  0
  -19.4825   -9.6511    5.5905 C   0  0  0  0  0  0  0  0  0  0  0  0
  -18.6160   -8.7419    4.7000 C   0  0  0  0  0  0  0  0  0  0  0  0
  -18.7592   -7.3518    5.2573 C   0  0  0  0  0  0  0  0  0  0  0  0
  -18.0215   -7.2898    6.5355 C   0  0  0  0  0  0  0  0  0  0  0  0
  -18.3480   -8.5978    7.2980 C   0  0  0  0  0  0  0  0  0  0  0  0
  -19.5620   -9.1258    6.8678 O   0  0  0  0  0  0  0  0  0  0  0  0
 23 24  1  0  0  0
 24 25  1  0  0  0
 25 18  1  0  0  0
 18 19  1  0  0  0
 19  1  1  0  0  0
  1  2  2  0  0  0
  2  3  1  0  0  0
  3  4  2  0  0  0
  4 11  1  0  0  0
 11 12  2  0  0  0
 11 13  1  0  0  0
 13 14  1  0  0  0
 14 15  1  0  0  0
 15 16  1  0  0  0
 16 17  1  0  0  0
  4  5  1  0  0  0
  5  6  1  0  0  0
  6  7  2  0  0  0
  7  8  1  0  0  0
  8  9  2  0  0  0
 19 20  1  0  0  0
 20 21  1  0  0  0
 21 22  1  0  0  0
 25 26  1  0  0  0
 26 27  1  0  0  0
 27 28  1  0  0  0
 28 23  1  0  0  0
 22 18  1  0  0  0
  9  1  1  0  0  0
  6  2  1  0  0  0
 17 13  1  0  0  0
  5 10  1  0  0  0
M  END
> <minimizedAffinity>
6.28272

> <CNNscore>
0.4981865287

> <CNNaffinity>
6.9396858215

> <CNN_VS>
3.4572579861

> <CNNaffinity_variance>
1.1633334160

$$$$
[H]c1c([H])c([H])c2c(c([H])c(C(=O)N3C([H])([H])C([H])([H])C([H])([H])C3([H])[H])n2[H])c1[C@]1([H])N(C2([H])C([H])([H])C([H])([H])OC([H])([H])C2([H])[H])C([H])([H])C([H])([H])C1([H])[H]


 28 32  0  0  0  0  0  0  0  0999 V2000
  -13.0782   -6.7747    8.0612 C   0  0  0  0  0  0  0  0  0  0  0  0
  -11.7259   -7.0556    8.2204 C   0  0  0  0  0  0  0  0  0  0  0  0
  -10.7599   -7.6429    7.4163 C   0  0  0  0  0  0  0  0  0  0  0  0
   -9.5246   -7.6348    8.0143 C   0  0  0  0  0  0  0  0  0  0  0  0
   -9.7511   -7.0220    9.2318 N   0  0  0  0  0  0  0  0  0  0  0  0
  -11.0475   -6.6816    9.3512 C   0  0  0  0  0  0  0  0  0  0  0  0
  -11.6569   -6.0142   10.4015 C   0  0  0  0  0  0  0  0  0  0  0  0
  -12.9740   -5.7262   10.2784 C   0  0  0  0  0  0  0  0  0  0  0  0
  -13.6280   -6.0974    9.1547 C   0  0  0  0  0  0  0  0  0  0  0  0
   -9.0054   -6.8549    9.9307 H   0  0  0  0  0  0  0  0  0  0  0  0
   -8.2459   -8.1069    7.5924 C   0  0  0  0  0  0  0  0  0  0  0  0
   -7.8563   -9.2438    8.2393 O   0  0  0  0  0  0  0  0  0  0  0  0
   -7.2831   -7.7372    6.7000 N   0  0  0  0  0  0  0  0  0  0  0  0
   -7.1188   -6.6603    5.7565 C   0  0  0  0  0  0  0  0  0  0  0  0
   -5.6132   -6.3206    5.8586 C   0  0  0  0  0  0  0  0  0  0  0  0
   -4.9813   -7.4661    6.6112 C   0  0  0  0  0  0  0  0  0  0  0  0
   -6.0388   -8.5365    6.4822 C   0  0  0  0  0  0  0  0  0  0  0  0
  -15.2581   -7.1575    6.8156 N   0  0  0  0  0  0  0  0  0  0  0  0
  -13.8740   -7.2484    6.9438 C   0  0  0  0  0  0  0  0  0  0  0  0
  -13.2875   -8.4133    6.1694 C   0  0  0  0  0  0  0  0  0  0  0  0
  -14.5030   -9.2351    5.8743 C   0  0  0  0  0  0  0  0  0  0  0  0
  -15.7096   -8.4366    6.2407 C   0  0  0  0  0  0  0  0  0  0  0  0
  -14.8806   -4.4850    4.2545 C   0  0  0  0  0  0  0  0  0  0  0  0
  -14.5116   -5.8267    4.9133 C   0  0  0  0  0  0  0  0  0  0  0  0
  -15.6788   -6.1985    5.7867 C   0  0  0  0  0  0  0  0  0  0  0  0
  -16.7972   -6.6056    4.9120 C   0  0  0  0  0  0  0  0  0  0  0  0
  -16.8404   -5.5865    3.7465 C   0  0  0  0  0  0  0  0  0  0  0  0
  -16.2542   -4.3825    4.1265 O   0  0  0  0  0  0  0  0  0  0  0  0
 23 24  1  0  0  0
 24 25  1  0  0  0
 25 18  1  0  0  0
 18 19  1  0  0  0
 19  1  1  0  0  0
  1  2  2  0  0  0
  2  3  1  0  0  0
  3  4  2  0  0  0
  4 11  1  0  0  0
 11 12  2  0  0  0
 11 13  1  0  0  0
 13 14  1  0  0  0
 14 15  1  0  0  0
 15 16  1  0  0  0
 16 17  1  0  0  0
  4  5  1  0  0  0
  5  6  1  0  0  0
  6  7  2  0  0  0
  7  8  1  0  0  0
  8  9  2  0  0  0
 19 20  1  0  0  0
 20 21  1  0  0  0
 21 22  1  0  0  0
 25 26  1  0  0  0
 26 27  1  0  0  0
 27 28  1  0  0  0
 28 23  1  0  0  0
 22 18  1  0  0  0
  9  1  1  0  0  0
  6  2  1  0  0  0
 17 13  1  0  0  0
  5 10  1  0  0  0
M  END
> <minimizedAffinity>
-9.97128

> <CNNscore>
0.4472602308

> <CNNaffinity>
7.1574120522

> <CNN_VS>
3.2012257576

> <CNNaffinity_variance>
0.0511506125

$$$$
[H]c1c([H])c([H])c2c(c([H])c(C(=O)N3C([H])([H])C([H])([H])C([H])([H])C3([H])[H])n2[H])c1[C@]1([H])N(C2([H])C([H])([H])C([H])([H])OC([H])([H])C2([H])[H])C([H])([H])C([H])([H])C1([H])[H]


 28 32  0  0  0  0  0  0  0  0999 V2000
  -16.4278   -6.2777    4.0010 C   0  0  0  0  0  0  0  0  0  0  0  0
  -15.5051   -6.1115    5.0275 C   0  0  0  0  0  0  0  0  0  0  0  0
  -14.8851   -6.9753    5.9186 C   0  0  0  0  0  0  0  0  0  0  0  0
  -13.9825   -6.3209    6.7191 C   0  0  0  0  0  0  0  0  0  0  0  0
  -14.0612   -5.0068    6.2998 N   0  0  0  0  0  0  0  0  0  0  0  0
  -14.9579   -4.8855    5.3038 C   0  0  0  0  0  0  0  0  0  0  0  0
  -15.2887   -3.7427    4.5936 C   0  0  0  0  0  0  0  0  0  0  0  0
  -16.1856   -3.8701    3.5875 C   0  0  0  0  0  0  0  0  0  0  0  0
  -16.7126   -5.0871    3.3241 C   0  0  0  0  0  0  0  0  0  0  0  0
  -13.4910   -4.2452    6.7090 H   0  0  0  0  0  0  0  0  0  0  0  0
  -13.1155   -6.7681    7.7604 C   0  0  0  0  0  0  0  0  0  0  0  0
  -11.8769   -7.1215    7.3092 O   0  0  0  0  0  0  0  0  0  0  0  0
  -13.1750   -6.9406    9.1120 N   0  0  0  0  0  0  0  0  0  0  0  0
  -14.1800   -6.7485   10.1270 C   0  0  0  0  0  0  0  0  0  0  0  0
  -13.9583   -7.9450   11.0820 C   0  0  0  0  0  0  0  0  0  0  0  0
  -12.6195   -8.5314   10.7060 C   0  0  0  0  0  0  0  0  0  0  0  0
  -12.0023   -7.4016    9.9163 C   0  0  0  0  0  0  0  0  0  0  0  0
  -16.9124   -8.7425    4.3754 N   0  0  0  0  0  0  0  0  0  0  0  0
  -17.1279   -7.5219    3.7397 C   0  0  0  0  0  0  0  0  0  0  0  0
  -17.6805   -7.6800    2.3360 C   0  0  0  0  0  0  0  0  0  0  0  0
  -17.4150   -9.1262    2.0575 C   0  0  0  0  0  0  0  0  0  0  0  0
  -16.9798   -9.7768    3.3284 C   0  0  0  0  0  0  0  0  0  0  0  0
  -19.7413   -8.2768    6.7470 C   0  0  0  0  0  0  0  0  0  0  0  0
  -18.9637   -7.9803    5.4517 C   0  0  0  0  0  0  0  0  0  0  0  0
  -18.0177   -9.1341    5.2587 C   0  0  0  0  0  0  0  0  0  0  0  0
  -18.8080  -10.3151    4.8556 C   0  0  0  0  0  0  0  0  0  0  0  0
  -20.0682  -10.3319    5.7559 C   0  0  0  0  0  0  0  0  0  0  0  0
  -19.8319   -9.6434    6.9424 O   0  0  0  0  0  0  0  0  0  0  0  0
 23 24  1  0  0  0
 24 25  1  0  0  0
 25 18  1  0  0  0
 18 19  1  0  0  0
 19  1  1  0  0  0
  1  2  2  0  0  0
  2  3  1  0  0  0
  3  4  2  0  0  0
  4 11  1  0  0  0
 11 12  2  0  0  0
 11 13  1  0  0  0
 13 14  1  0  0  0
 14 15  1  0  0  0
 15 16  1  0  0  0
 16 17  1  0  0  0
  4  5  1  0  0  0
  5  6  1  0  0  0
  6  7  2  0  0  0
  7  8  1  0  0  0
  8  9  2  0  0  0
 19 20  1  0  0  0
 20 21  1  0  0  0
 21 22  1  0  0  0
 25 26  1  0  0  0
 26 27  1  0  0  0
 27 28  1  0  0  0
 28 23  1  0  0  0
 22 18  1  0  0  0
  9  1  1  0  0  0
  6  2  1  0  0  0
 17 13  1  0  0  0
  5 10  1  0  0  0
M  END
> <minimizedAffinity>
14.39876

> <CNNscore>
0.4395975173

> <CNNaffinity>
6.9209151268

> <CNN_VS>
3.0424170494

> <CNNaffinity_variance>
1.4787365198

$$$$
[H]c1c([H])c([H])c2c(c([H])c(C(=O)N3C([H])([H])C([H])([H])C([H])([H])C3([H])[H])n2[H])c1[C@]1([H])N(C2([H])C([H])([H])C([H])([H])OC([H])([H])C2([H])[H])C([H])([H])C([H])([H])C1([H])[H]


 28 32  0  0  0  0  0  0  0  0999 V2000
  -13.1952   -6.7718    8.8027 C   0  0  0  0  0  0  0  0  0  0  0  0
  -11.8357   -7.0037    8.6263 C   0  0  0  0  0  0  0  0  0  0  0  0
  -11.0954   -7.8037    7.7681 C   0  0  0  0  0  0  0  0  0  0  0  0
   -9.7457   -7.6318    7.9477 C   0  0  0  0  0  0  0  0  0  0  0  0
   -9.6638   -6.6931    8.9582 N   0  0  0  0  0  0  0  0  0  0  0  0
  -10.8952   -6.3244    9.3563 C   0  0  0  0  0  0  0  0  0  0  0  0
  -11.2311   -5.3791   10.3120 C   0  0  0  0  0  0  0  0  0  0  0  0
  -12.5472   -5.1301   10.5090 C   0  0  0  0  0  0  0  0  0  0  0  0
  -13.4626   -5.8049    9.7775 C   0  0  0  0  0  0  0  0  0  0  0  0
   -8.7656   -6.3367    9.3306 H   0  0  0  0  0  0  0  0  0  0  0  0
   -8.6069   -8.2136    7.3147 C   0  0  0  0  0  0  0  0  0  0  0  0
   -8.5133   -9.5601    7.5169 O   0  0  0  0  0  0  0  0  0  0  0  0
   -7.5642   -7.7949    6.5417 N   0  0  0  0  0  0  0  0  0  0  0  0
   -7.1277   -6.5298    6.0068 C   0  0  0  0  0  0  0  0  0  0  0  0
   -5.5871   -6.6028    6.1254 C   0  0  0  0  0  0  0  0  0  0  0  0
   -5.2626   -8.0491    6.4093 C   0  0  0  0  0  0  0  0  0  0  0  0
   -6.5412   -8.7364    5.9926 C   0  0  0  0  0  0  0  0  0  0  0  0
  -15.3256   -7.0319    7.4449 N   0  0  0  0  0  0  0  0  0  0  0  0
  -14.2362   -7.5419    8.1473 C   0  0  0  0  0  0  0  0  0  0  0  0
  -14.5075   -8.9122    8.7385 C   0  0  0  0  0  0  0  0  0  0  0  0
  -15.9981   -9.0041    8.6411 C   0  0  0  0  0  0  0  0  0  0  0  0
  -16.4855   -7.8633    7.8112 C   0  0  0  0  0  0  0  0  0  0  0  0
  -16.1485   -8.5575    4.1526 C   0  0  0  0  0  0  0  0  0  0  0  0
  -16.5076   -7.8801    5.4877 C   0  0  0  0  0  0  0  0  0  0  0  0
  -15.2350   -7.2604    5.9975 C   0  0  0  0  0  0  0  0  0  0  0  0
  -14.9239   -6.0879    5.1548 C   0  0  0  0  0  0  0  0  0  0  0  0
  -15.1871   -6.5147    3.6893 C   0  0  0  0  0  0  0  0  0  0  0  0
  -15.0893   -7.8969    3.5564 O   0  0  0  0  0  0  0  0  0  0  0  0
 23 24  1  0  0  0
 24 25  1  0  0  0
 25 18  1  0  0  0
 18 19  1  0  0  0
 19  1  1  0  0  0
  1  2  2  0  0  0
  2  3  1  0  0  0
  3  4  2  0  0  0
  4 11  1  0  0  0
 11 12  2  0  0  0
 11 13  1  0  0  0
 13 14  1  0  0  0
 14 15  1  0  0  0
 15 16  1  0  0  0
 16 17  1  0  0  0
  4  5  1  0  0  0
  5  6  1  0  0  0
  6  7  2  0  0  0
  7  8  1  0  0  0
  8  9  2  0  0  0
 19 20  1  0  0  0
 20 21  1  0  0  0
 21 22  1  0  0  0
 25 26  1  0  0  0
 26 27  1  0  0  0
 27 28  1  0  0  0
 28 23  1  0  0  0
 22 18  1  0  0  0
  9  1  1  0  0  0
  6  2  1  0  0  0
 17 13  1  0  0  0
  5 10  1  0  0  0
M  END
> <minimizedAffinity>
-9.27245

> <CNNscore>
0.4309325218

> <CNNaffinity>
7.0626955032

> <CNN_VS>
3.0435452461

> <CNNaffinity_variance>
0.0547107086

$$$$
[H]c1c([H])c([H])c2c(c([H])c(C(=O)N3C([H])([H])C([H])([H])C([H])([H])C3([H])[H])n2[H])c1[C@]1([H])N(C2([H])C([H])([H])C([H])([H])OC([H])([H])C2([H])[H])C([H])([H])C([H])([H])C1([H])[H]


 28 32  0  0  0  0  0  0  0  0999 V2000
  -10.4724   -7.1422    8.9593 C   0  0  0  0  0  0  0  0  0  0  0  0
  -11.6847   -7.2377    8.2854 C   0  0  0  0  0  0  0  0  0  0  0  0
  -12.1175   -7.9408    7.1705 C   0  0  0  0  0  0  0  0  0  0  0  0
  -13.4551   -7.7462    6.9324 C   0  0  0  0  0  0  0  0  0  0  0  0
  -13.8484   -6.8872    7.9406 N   0  0  0  0  0  0  0  0  0  0  0  0
  -12.8049   -6.5892    8.7362 C   0  0  0  0  0  0  0  0  0  0  0  0
  -12.8034   -5.7988    9.8742 C   0  0  0  0  0  0  0  0  0  0  0  0
  -11.6380   -5.6840   10.5535 C   0  0  0  0  0  0  0  0  0  0  0  0
  -10.5429   -6.3340   10.0989 C   0  0  0  0  0  0  0  0  0  0  0  0
  -14.8198   -6.5444    8.0475 H   0  0  0  0  0  0  0  0  0  0  0  0
  -14.3390   -8.2470    5.9304 C   0  0  0  0  0  0  0  0  0  0  0  0
  -13.7915   -9.2546    5.1905 O   0  0  0  0  0  0  0  0  0  0  0  0
  -15.6086   -8.0008    5.4972 N   0  0  0  0  0  0  0  0  0  0  0  0
  -16.6588   -7.0858    5.8669 C   0  0  0  0  0  0  0  0  0  0  0  0
  -17.2888   -6.6955    4.5091 C   0  0  0  0  0  0  0  0  0  0  0  0
  -16.7553   -7.6884    3.5055 C   0  0  0  0  0  0  0  0  0  0  0  0
  -16.2534   -8.7925    4.4054 C   0  0  0  0  0  0  0  0  0  0  0  0
   -9.0654   -8.4651    7.3100 N   0  0  0  0  0  0  0  0  0  0  0  0
   -9.2293   -7.7065    8.4667 C   0  0  0  0  0  0  0  0  0  0  0  0
   -8.1853   -8.0133    9.5234 C   0  0  0  0  0  0  0  0  0  0  0  0
   -7.6106   -9.3034    9.0285 C   0  0  0  0  0  0  0  0  0  0  0  0
   -8.1298   -9.5508    7.6511 C   0  0  0  0  0  0  0  0  0  0  0  0
   -8.0860   -5.6063    5.1392 C   0  0  0  0  0  0  0  0  0  0  0  0
   -8.3806   -6.2704    6.4966 C   0  0  0  0  0  0  0  0  0  0  0  0
   -8.3321   -7.7545    6.2551 C   0  0  0  0  0  0  0  0  0  0  0  0
   -6.9219   -8.1412    6.0459 C   0  0  0  0  0  0  0  0  0  0  0  0
   -6.3003   -7.0635    5.1234 C   0  0  0  0  0  0  0  0  0  0  0  0
   -7.2878   -6.4343    4.3705 O   0  0  0  0  0  0  0  0  0  0  0  0
 23 24  1  0  0  0
 24 25  1  0  0  0
 25 18  1  0  0  0
 18 19  1  0  0  0
 19  1  1  0  0  0
  1  2  2  0  0  0
  2  3  1  0  0  0
  3  4  2  0  0  0
  4 11  1  0  0  0
 11 12  2  0  0  0
 11 13  1  0  0  0
 13 14  1  0  0  0
 14 15  1  0  0  0
 15 16  1  0  0  0
 16 17  1  0  0  0
  4  5  1  0  0  0
  5  6  1  0  0  0
  6  7  2  0  0  0
  7  8  1  0  0  0
  8  9  2  0  0  0
 19 20  1  0  0  0
 20 21  1  0  0  0
 21 22  1  0  0  0
 25 26  1  0  0  0
 26 27  1  0  0  0
 27 28  1  0  0  0
 28 23  1  0  0  0
 22 18  1  0  0  0
  9  1  1  0  0  0
  6  2  1  0  0  0
 17 13  1  0  0  0
  5 10  1  0  0  0
M  END
> <minimizedAffinity>
-4.97209

> <CNNscore>
0.3718785942

> <CNNaffinity>
6.8217377663

> <CNN_VS>
2.5368583202

> <CNNaffinity_variance>
0.2675369978

$$$$
[H]c1c([H])c([H])c2c(c([H])c(C(=O)N3C([H])([H])C([H])([H])C([H])([H])C3([H])[H])n2[H])c1[C@]1([H])N(C2([H])C([H])([H])C([H])([H])OC([H])([H])C2([H])[H])C([H])([H])C([H])([H])C1([H])[H]


 28 32  0  0  0  0  0  0  0  0999 V2000
   -4.3911   -4.7907    5.3566 C   0  0  0  0  0  0  0  0  0  0  0  0
   -3.8017   -4.2088    6.4733 C   0  0  0  0  0  0  0  0  0  0  0  0
   -3.9013   -4.4230    7.8404 C   0  0  0  0  0  0  0  0  0  0  0  0
   -3.0480   -3.6131    8.5471 C   0  0  0  0  0  0  0  0  0  0  0  0
   -2.4082   -2.8750    7.5699 N   0  0  0  0  0  0  0  0  0  0  0  0
   -2.8531   -3.2272    6.3497 C   0  0  0  0  0  0  0  0  0  0  0  0
   -2.4286   -2.7491    5.1205 C   0  0  0  0  0  0  0  0  0  0  0  0
   -2.9837   -3.2943    4.0126 C   0  0  0  0  0  0  0  0  0  0  0  0
   -3.9146   -4.2652    4.1510 C   0  0  0  0  0  0  0  0  0  0  0  0
   -1.6857   -2.1628    7.7782 H   0  0  0  0  0  0  0  0  0  0  0  0
   -2.7882   -3.4706    9.9428 C   0  0  0  0  0  0  0  0  0  0  0  0
   -1.7892   -2.5805   10.2121 O   0  0  0  0  0  0  0  0  0  0  0  0
   -3.2718   -3.9808   11.1116 N   0  0  0  0  0  0  0  0  0  0  0  0
   -4.2931   -4.9323   11.4702 C   0  0  0  0  0  0  0  0  0  0  0  0
   -3.6713   -5.6922   12.6656 C   0  0  0  0  0  0  0  0  0  0  0  0
   -2.4786   -4.8754   13.0991 C   0  0  0  0  0  0  0  0  0  0  0  0
   -2.7683   -3.5432   12.4494 C   0  0  0  0  0  0  0  0  0  0  0  0
   -5.3988   -7.0682    5.8545 N   0  0  0  0  0  0  0  0  0  0  0  0
   -5.4821   -5.7454    5.4260 C   0  0  0  0  0  0  0  0  0  0  0  0
   -6.6165   -5.5156    4.4457 C   0  0  0  0  0  0  0  0  0  0  0  0
   -6.9651   -6.9131    4.0393 C   0  0  0  0  0  0  0  0  0  0  0  0
   -6.2393   -7.8582    4.9380 C   0  0  0  0  0  0  0  0  0  0  0  0
   -8.0241   -6.7453    8.4712 C   0  0  0  0  0  0  0  0  0  0  0  0
   -7.5314   -7.0022    7.0354 C   0  0  0  0  0  0  0  0  0  0  0  0
   -6.0603   -7.2976    7.1449 C   0  0  0  0  0  0  0  0  0  0  0  0
   -5.9031   -8.6373    7.7468 C   0  0  0  0  0  0  0  0  0  0  0  0
   -6.9218   -8.7213    8.9104 C   0  0  0  0  0  0  0  0  0  0  0  0
   -7.2444   -7.4483    9.3721 O   0  0  0  0  0  0  0  0  0  0  0  0
 23 24  1  0  0  0
 24 25  1  0  0  0
 25 18  1  0  0  0
 18 19  1  0  0  0
 19  1  1  0  0  0
  1  2  2  0  0  0
  2  3  1  0  0  0
  3  4  2  0  0  0
  4 11  1  0  0  0
 11 12  2  0  0  0
 11 13  1  0  0  0
 13 14  1  0  0  0
 14 15  1  0  0  0
 15 16  1  0  0  0
 16 17  1  0  0  0
  4  5  1  0  0  0
  5  6  1  0  0  0
  6  7  2  0  0  0
  7  8  1  0  0  0
  8  9  2  0  0  0
 19 20  1  0  0  0
 20 21  1  0  0  0
 21 22  1  0  0  0
 25 26  1  0  0  0
 26 27  1  0  0  0
 27 28  1  0  0  0
 28 23  1  0  0  0
 22 18  1  0  0  0
  9  1  1  0  0  0
  6  2  1  0  0  0
 17 13  1  0  0  0
  5 10  1  0  0  0
M  END
> <minimizedAffinity>
1.49943

> <CNNscore>
0.3648413122

> <CNNaffinity>
5.2745780945

> <CNN_VS>
1.9243839979

> <CNNaffinity_variance>
0.8499246836

$$$$
[H]c1c([H])c([H])c2c(c([H])c(C(=O)N3C([H])([H])C([H])([H])C([H])([H])C3([H])[H])n2[H])c1[C@]1([H])N(C2([H])C([H])([H])C([H])([H])OC([H])([H])C2([H])[H])C([H])([H])C([H])([H])C1([H])[H]


 28 32  0  0  0  0  0  0  0  0999 V2000
  -11.1149   -6.7265    8.8594 C   0  0  0  0  0  0  0  0  0  0  0  0
  -12.3777   -6.8588    8.2931 C   0  0  0  0  0  0  0  0  0  0  0  0
  -12.8631   -7.4709    7.1465 C   0  0  0  0  0  0  0  0  0  0  0  0
  -14.2294   -7.3761    7.0572 C   0  0  0  0  0  0  0  0  0  0  0  0
  -14.5867   -6.6748    8.1927 N   0  0  0  0  0  0  0  0  0  0  0  0
  -13.4954   -6.3713    8.9191 C   0  0  0  0  0  0  0  0  0  0  0  0
  -13.4424   -5.7156   10.1385 C   0  0  0  0  0  0  0  0  0  0  0  0
  -12.2271   -5.5692   10.7169 C   0  0  0  0  0  0  0  0  0  0  0  0
  -11.1347   -6.0600   10.0891 C   0  0  0  0  0  0  0  0  0  0  0  0
  -15.5669   -6.4378    8.4286 H   0  0  0  0  0  0  0  0  0  0  0  0
  -15.1669   -7.8424    6.0879 C   0  0  0  0  0  0  0  0  0  0  0  0
  -14.8029   -9.0291    5.5205 O   0  0  0  0  0  0  0  0  0  0  0  0
  -16.3551   -7.4300    5.5604 N   0  0  0  0  0  0  0  0  0  0  0  0
  -17.2208   -6.2933    5.7481 C   0  0  0  0  0  0  0  0  0  0  0  0
  -17.7305   -5.9909    4.3192 C   0  0  0  0  0  0  0  0  0  0  0  0
  -17.3708   -7.1982    3.4881 C   0  0  0  0  0  0  0  0  0  0  0  0
  -17.1112   -8.2363    4.5539 C   0  0  0  0  0  0  0  0  0  0  0  0
   -9.0109   -8.1226    8.5875 N   0  0  0  0  0  0  0  0  0  0  0  0
   -9.8866   -7.1147    8.1908 C   0  0  0  0  0  0  0  0  0  0  0  0
   -9.2016   -6.0213    7.3933 C   0  0  0  0  0  0  0  0  0  0  0  0
   -7.7566   -6.2857    7.6792 C   0  0  0  0  0  0  0  0  0  0  0  0
   -7.6494   -7.5991    8.3802 C   0  0  0  0  0  0  0  0  0  0  0  0
  -10.4767  -10.9246    6.6268 C   0  0  0  0  0  0  0  0  0  0  0  0
  -10.3951   -9.4581    7.0882 C   0  0  0  0  0  0  0  0  0  0  0  0
   -9.0275   -9.2850    7.6908 C   0  0  0  0  0  0  0  0  0  0  0  0
   -8.0366   -9.2973    6.5954 C   0  0  0  0  0  0  0  0  0  0  0  0
   -8.4536  -10.4387    5.6351 C   0  0  0  0  0  0  0  0  0  0  0  0
   -9.2142  -11.3913    6.3073 O   0  0  0  0  0  0  0  0  0  0  0  0
 23 24  1  0  0  0
 24 25  1  0  0  0
 25 18  1  0  0  0
 18 19  1  0  0  0
 19  1  1  0  0  0
  1  2  2  0  0  0
  2  3  1  0  0  0
  3  4  2  0  0  0
  4 11  1  0  0  0
 11 12  2  0  0  0
 11 13  1  0  0  0
 13 14  1  0  0  0
 14 15  1  0  0  0
 15 16  1  0  0  0
 16 17  1  0  0  0
  4  5  1  0  0  0
  5  6  1  0  0  0
  6  7  2  0  0  0
  7  8  1  0  0  0
  8  9  2  0  0  0
 19 20  1  0  0  0
 20 21  1  0  0  0
 21 22  1  0  0  0
 25 26  1  0  0  0
 26 27  1  0  0  0
 27 28  1  0  0  0
 28 23  1  0  0  0
 22 18  1  0  0  0
  9  1  1  0  0  0
  6  2  1  0  0  0
 17 13  1  0  0  0
  5 10  1  0  0  0
M  END
> <minimizedAffinity>
-6.11488

> <CNNscore>
0.3086757362

> <CNNaffinity>
6.7990140915

> <CNN_VS>
2.0986907482

> <CNNaffinity_variance>
0.0785445124

$$$$
[H]c1c([H])c([H])c2c(c([H])c(C(=O)N3C([H])([H])C([H])([H])C([H])([H])C3([H])[H])n2[H])c1[C@]1([H])N(C2([H])C([H])([H])C([H])([H])OC([H])([H])C2([H])[H])C([H])([H])C([H])([H])C1([H])[H]


 28 32  0  0  0  0  0  0  0  0999 V2000
  -10.7517   -7.2358    8.6797 C   0  0  0  0  0  0  0  0  0  0  0  0
  -11.9898   -7.2626    8.0477 C   0  0  0  0  0  0  0  0  0  0  0  0
  -12.4935   -7.9236    6.9369 C   0  0  0  0  0  0  0  0  0  0  0  0
  -13.8279   -7.6630    6.7499 C   0  0  0  0  0  0  0  0  0  0  0  0
  -14.1455   -6.8062    7.7863 N   0  0  0  0  0  0  0  0  0  0  0  0
  -13.0621   -6.5718    8.5493 C   0  0  0  0  0  0  0  0  0  0  0  0
  -12.9842   -5.8041    9.7002 C   0  0  0  0  0  0  0  0  0  0  0  0
  -11.7918   -5.7561   10.3395 C   0  0  0  0  0  0  0  0  0  0  0  0
  -10.7447   -6.4471    9.8349 C   0  0  0  0  0  0  0  0  0  0  0  0
  -15.0955   -6.4211    7.9337 H   0  0  0  0  0  0  0  0  0  0  0  0
  -14.7685   -8.1034    5.7715 C   0  0  0  0  0  0  0  0  0  0  0  0
  -14.2811   -9.0949    4.9703 O   0  0  0  0  0  0  0  0  0  0  0  0
  -16.0494   -7.8101    5.4063 N   0  0  0  0  0  0  0  0  0  0  0  0
  -17.0579   -6.8846    5.8574 C   0  0  0  0  0  0  0  0  0  0  0  0
  -17.7377   -6.4273    4.5453 C   0  0  0  0  0  0  0  0  0  0  0  0
  -17.2757   -7.3937    3.4821 C   0  0  0  0  0  0  0  0  0  0  0  0
  -16.7629   -8.5434    4.3164 C   0  0  0  0  0  0  0  0  0  0  0  0
   -8.8316   -7.4085    7.0263 N   0  0  0  0  0  0  0  0  0  0  0  0
   -9.5542   -7.8474    8.1334 C   0  0  0  0  0  0  0  0  0  0  0  0
   -9.4117   -9.3380    8.3747 C   0  0  0  0  0  0  0  0  0  0  0  0
   -8.8372   -9.8106    7.0761 C   0  0  0  0  0  0  0  0  0  0  0  0
   -8.4493   -8.6147    6.2717 C   0  0  0  0  0  0  0  0  0  0  0  0
   -5.8590   -6.7029    9.1499 C   0  0  0  0  0  0  0  0  0  0  0  0
   -6.9056   -7.6302    8.5057 C   0  0  0  0  0  0  0  0  0  0  0  0
   -7.5226   -6.8457    7.3800 C   0  0  0  0  0  0  0  0  0  0  0  0
   -6.5270   -6.7378    6.2941 C   0  0  0  0  0  0  0  0  0  0  0  0
   -5.1699   -6.4185    6.9690 C   0  0  0  0  0  0  0  0  0  0  0  0
   -5.3686   -5.8162    8.2081 O   0  0  0  0  0  0  0  0  0  0  0  0
 23 24  1  0  0  0
 24 25  1  0  0  0
 25 18  1  0  0  0
 18 19  1  0  0  0
 19  1  1  0  0  0
  1  2  2  0  0  0
  2  3  1  0  0  0
  3  4  2  0  0  0
  4 11  1  0  0  0
 11 12  2  0  0  0
 11 13  1  0  0  0
 13 14  1  0  0  0
 14 15  1  0  0  0
 15 16  1  0  0  0
 16 17  1  0  0  0
  4  5  1  0  0  0
  5  6  1  0  0  0
  6  7  2  0  0  0
  7  8  1  0  0  0
  8  9  2  0  0  0
 19 20  1  0  0  0
 20 21  1  0  0  0
 21 22  1  0  0  0
 25 26  1  0  0  0
 26 27  1  0  0  0
 27 28  1  0  0  0
 28 23  1  0  0  0
 22 18  1  0  0  0
  9  1  1  0  0  0
  6  2  1  0  0  0
 17 13  1  0  0  0
  5 10  1  0  0  0
M  END
> <minimizedAffinity>
-8.49908

> <CNNscore>
0.2654281557

> <CNNaffinity>
6.7780900002

> <CNN_VS>
1.7990958691

> <CNNaffinity_variance>
0.0668786019

$$$$
[H]c1c([H])c([H])c2c(c([H])c(C(=O)N3C([H])([H])C([H])([H])C([H])([H])C3([H])[H])n2[H])c1[C@]1([H])N(C2([H])C([H])([H])C([H])([H])OC([H])([H])C2([H])[H])C([H])([H])C([H])([H])C1([H])[H]


 28 32  0  0  0  0  0  0  0  0999 V2000
  -14.2091   -8.7450    5.5182 C   0  0  0  0  0  0  0  0  0  0  0  0
  -13.5579   -8.4338    6.7065 C   0  0  0  0  0  0  0  0  0  0  0  0
  -13.8705   -7.6398    7.8003 C   0  0  0  0  0  0  0  0  0  0  0  0
  -12.9056   -7.7096    8.7738 C   0  0  0  0  0  0  0  0  0  0  0  0
  -11.9680   -8.5774    8.2477 N   0  0  0  0  0  0  0  0  0  0  0  0
  -12.3538   -9.0028    7.0307 C   0  0  0  0  0  0  0  0  0  0  0  0
  -11.7088   -9.9084    6.2039 C   0  0  0  0  0  0  0  0  0  0  0  0
  -12.3161  -10.2325    5.0381 C   0  0  0  0  0  0  0  0  0  0  0  0
  -13.5061   -9.6664    4.7349 C   0  0  0  0  0  0  0  0  0  0  0  0
  -11.1027   -8.8494    8.7476 H   0  0  0  0  0  0  0  0  0  0  0  0
  -12.7812   -7.0925   10.0543 C   0  0  0  0  0  0  0  0  0  0  0  0
  -13.0959   -7.9311   11.0841 O   0  0  0  0  0  0  0  0  0  0  0  0
  -12.4226   -5.8742   10.5514 N   0  0  0  0  0  0  0  0  0  0  0  0
  -12.0018   -4.6184    9.9832 C   0  0  0  0  0  0  0  0  0  0  0  0
  -12.6874   -3.5677   10.8881 C   0  0  0  0  0  0  0  0  0  0  0  0
  -13.1702   -4.3211   12.1034 C   0  0  0  0  0  0  0  0  0  0  0  0
  -12.3578   -5.5913   12.0179 C   0  0  0  0  0  0  0  0  0  0  0  0
  -16.1394   -7.1117    5.7550 N   0  0  0  0  0  0  0  0  0  0  0  0
  -15.4220   -8.0877    5.0673 C   0  0  0  0  0  0  0  0  0  0  0  0
  -16.2870   -8.8913    4.1151 C   0  0  0  0  0  0  0  0  0  0  0  0
  -17.6667   -8.5499    4.5839 C   0  0  0  0  0  0  0  0  0  0  0  0
  -17.5655   -7.4284    5.5636 C   0  0  0  0  0  0  0  0  0  0  0  0
  -14.5046   -4.2170    4.0840 C   0  0  0  0  0  0  0  0  0  0  0  0
  -14.8310   -5.7129    4.2456 C   0  0  0  0  0  0  0  0  0  0  0  0
  -16.0396   -5.7830    5.1386 C   0  0  0  0  0  0  0  0  0  0  0  0
  -17.2096   -5.3151    4.3678 C   0  0  0  0  0  0  0  0  0  0  0  0
  -16.7488   -4.0625    3.5819 C   0  0  0  0  0  0  0  0  0  0  0  0
  -15.6589   -3.4646    4.2083 O   0  0  0  0  0  0  0  0  0  0  0  0
 23 24  1  0  0  0
 24 25  1  0  0  0
 25 18  1  0  0  0
 18 19  1  0  0  0
 19  1  1  0  0  0
  1  2  2  0  0  0
  2  3  1  0  0  0
  3  4  2  0  0  0
  4 11  1  0  0  0
 11 12  2  0  0  0
 11 13  1  0  0  0
 13 14  1  0  0  0
 14 15  1  0  0  0
 15 16  1  0  0  0
 16 17  1  0  0  0
  4  5  1  0  0  0
  5  6  1  0  0  0
  6  7  2  0  0  0
  7  8  1  0  0  0
  8  9  2  0  0  0
 19 20  1  0  0  0
 20 21  1  0  0  0
 21 22  1  0  0  0
 25 26  1  0  0  0
 26 27  1  0  0  0
 27 28  1  0  0  0
 28 23  1  0  0  0
 22 18  1  0  0  0
  9  1  1  0  0  0
  6  2  1  0  0  0
 17 13  1  0  0  0
  5 10  1  0  0  0
M  END
> <minimizedAffinity>
1.59253

> <CNNscore>
0.2524019480

> <CNNaffinity>
6.6936454773

> <CNN_VS>
1.6894891262

> <CNNaffinity_variance>
0.2763091624

$$$$
[H]c1c([H])c(C(=O)N2C([H])([H])C([H])([H])N([C@@]3([H])C([H])([H])[C@@]([H])(N([H])C(=O)c4c([H])c([H])c([H])c(C(F)(F)F)c4[H])C([H])([H])[C@]3([H])N(C([H])([H])[H])C([H])([H])[H])C([H])([H])C2([H])[H])c([H])c(C(F)(F)F)c1[H]


 40 43  0  0  0  0  0  0  0  0999 V2000
  -10.4350   -8.2013    7.3202 C   0  0  0  0  0  0  0  0  0  0  0  0
  -10.2120   -6.9162    8.0061 C   0  0  0  0  0  0  0  0  0  0  0  0
   -8.7475   -6.9154    8.3253 C   0  0  0  0  0  0  0  0  0  0  0  0
   -8.2473   -8.3250    8.1927 C   0  0  0  0  0  0  0  0  0  0  0  0
   -9.4547   -9.1502    7.9495 C   0  0  0  0  0  0  0  0  0  0  0  0
  -15.8899   -8.0136    7.4862 C   0  0  0  0  0  0  0  0  0  0  0  0
  -16.2574   -7.7427    8.7046 O   0  0  0  0  0  0  0  0  0  0  0  0
  -14.5647   -8.3788    7.3673 N   0  0  0  0  0  0  0  0  0  0  0  0
  -13.9239   -8.6280    6.1127 C   0  0  0  0  0  0  0  0  0  0  0  0
  -12.5564   -7.8993    6.2592 C   0  0  0  0  0  0  0  0  0  0  0  0
  -11.7521   -8.6609    7.1333 N   0  0  0  0  0  0  0  0  0  0  0  0
  -12.4218   -9.2247    8.2457 C   0  0  0  0  0  0  0  0  0  0  0  0
  -13.7135   -8.5291    8.5712 C   0  0  0  0  0  0  0  0  0  0  0  0
  -17.9363   -6.3410    4.8954 C   0  0  0  0  0  0  0  0  0  0  0  0
  -18.6193   -7.3780    4.2882 C   0  0  0  0  0  0  0  0  0  0  0  0
  -18.4365   -8.6669    4.7633 C   0  0  0  0  0  0  0  0  0  0  0  0
  -17.5794   -8.8744    5.8252 C   0  0  0  0  0  0  0  0  0  0  0  0
  -16.8887   -7.8925    6.4492 C   0  0  0  0  0  0  0  0  0  0  0  0
  -17.1019   -6.6003    5.9414 C   0  0  0  0  0  0  0  0  0  0  0  0
  -17.9695   -4.1064    5.4502 F   0  0  0  0  0  0  0  0  0  0  0  0
  -18.1125   -4.9479    4.3451 C   0  0  0  0  0  0  0  0  0  0  0  0
  -17.1748   -4.6525    3.4103 F   0  0  0  0  0  0  0  0  0  0  0  0
  -19.4038   -4.8572    3.8872 F   0  0  0  0  0  0  0  0  0  0  0  0
   -8.5093   -6.4791    9.7097 N   0  0  0  0  0  0  0  0  0  0  0  0
   -9.6027   -6.2726   10.5595 C   0  0  0  0  0  0  0  0  0  0  0  0
  -10.8222   -6.4193   10.1909 O   0  0  0  0  0  0  0  0  0  0  0  0
   -7.5410   -6.3472   10.0376 H   0  0  0  0  0  0  0  0  0  0  0  0
   -9.3933   -5.8700   11.9649 C   0  0  0  0  0  0  0  0  0  0  0  0
   -8.1800   -6.0668   12.5912 C   0  0  0  0  0  0  0  0  0  0  0  0
   -8.0031   -5.7109   13.8993 C   0  0  0  0  0  0  0  0  0  0  0  0
   -9.0422   -5.1538   14.5750 C   0  0  0  0  0  0  0  0  0  0  0  0
  -10.2905   -4.9294   13.9996 C   0  0  0  0  0  0  0  0  0  0  0  0
  -10.4418   -5.3021   12.6752 C   0  0  0  0  0  0  0  0  0  0  0  0
  -11.3830   -4.2982   14.8122 C   0  0  0  0  0  0  0  0  0  0  0  0
  -11.0344   -2.9466   14.9226 F   0  0  0  0  0  0  0  0  0  0  0  0
  -12.5565   -4.3438   14.0656 F   0  0  0  0  0  0  0  0  0  0  0  0
  -11.4885   -4.8843   16.0373 F   0  0  0  0  0  0  0  0  0  0  0  0
   -9.2650  -10.3154    7.2017 N   0  0  0  0  0  0  0  0  0  0  0  0
  -10.0999  -10.7949    6.2305 C   0  0  0  0  0  0  0  0  0  0  0  0
   -8.0369  -10.9676    7.3654 C   0  0  0  0  0  0  0  0  0  0  0  0
 20 21  1  0  0  0
 21 22  1  0  0  0
 21 23  1  0  0  0
 21 14  1  0  0  0
 14 15  2  0  0  0
 15 16  1  0  0  0
 16 17  2  0  0  0
 17 18  1  0  0  0
 18 19  2  0  0  0
 18  6  1  0  0  0
  6  7  2  0  0  0
  6  8  1  0  0  0
  8  9  1  0  0  0
  9 10  1  0  0  0
 10 11  1  0  0  0
 11 12  1  0  0  0
 12 13  1  0  0  0
 11  1  1  0  0  0
  1  2  1  0  0  0
  2  3  1  0  0  0
  3 24  1  0  0  0
 24 25  1  0  0  0
 25 26  2  0  0  0
 25 28  1  0  0  0
 28 29  2  0  0  0
 29 30  1  0  0  0
 30 31  2  0  0  0
 31 32  1  0  0  0
 32 33  2  0  0  0
 32 34  1  0  0  0
 34 35  1  0  0  0
 34 36  1  0  0  0
 34 37  1  0  0  0
  3  4  1  0  0  0
  4  5  1  0  0  0
  5 38  1  0  0  0
 38 39  1  0  0  0
 38 40  1  0  0  0
 19 14  1  0  0  0
 13  8  1  0  0  0
  5  1  1  0  0  0
 33 28  1  0  0  0
 24 27  1  0  0  0
M  END
> <minimizedAffinity>
9.29120

> <CNNscore>
0.3805028200

> <CNNaffinity>
6.9619855881

> <CNN_VS>
2.6490552425

> <CNNaffinity_variance>
0.7162263989

$$$$
[H]c1c([H])c(C(=O)N2C([H])([H])C([H])([H])N([C@@]3([H])C([H])([H])[C@@]([H])(N([H])C(=O)c4c([H])c([H])c([H])c(C(F)(F)F)c4[H])C([H])([H])[C@]3([H])N(C([H])([H])[H])C([H])([H])[H])C([H])([H])C2([H])[H])c([H])c(C(F)(F)F)c1[H]


 40 43  0  0  0  0  0  0  0  0999 V2000
   -6.8581   -7.5868    8.3184 C   0  0  0  0  0  0  0  0  0  0  0  0
   -5.4886   -7.0935    8.5477 C   0  0  0  0  0  0  0  0  0  0  0  0
   -5.6388   -5.6042    8.6254 C   0  0  0  0  0  0  0  0  0  0  0  0
   -6.9788   -5.2467    8.0496 C   0  0  0  0  0  0  0  0  0  0  0  0
   -7.5242   -6.5133    7.5051 C   0  0  0  0  0  0  0  0  0  0  0  0
   -9.2780  -11.7557    5.7526 C   0  0  0  0  0  0  0  0  0  0  0  0
  -10.5329  -11.7801    6.0956 O   0  0  0  0  0  0  0  0  0  0  0  0
   -8.4942  -10.9445    6.5471 N   0  0  0  0  0  0  0  0  0  0  0  0
   -7.1081  -10.6946    6.2956 C   0  0  0  0  0  0  0  0  0  0  0  0
   -6.9751   -9.1605    6.5219 C   0  0  0  0  0  0  0  0  0  0  0  0
   -7.0489   -8.9203    7.9104 N   0  0  0  0  0  0  0  0  0  0  0  0
   -7.9952   -9.7009    8.6167 C   0  0  0  0  0  0  0  0  0  0  0  0
   -9.0704  -10.2672    7.7327 C   0  0  0  0  0  0  0  0  0  0  0  0
   -8.1166  -12.4502    2.3078 C   0  0  0  0  0  0  0  0  0  0  0  0
   -7.9007  -13.8154    2.2969 C   0  0  0  0  0  0  0  0  0  0  0  0
   -8.1789  -14.5448    3.4420 C   0  0  0  0  0  0  0  0  0  0  0  0
   -8.6610  -13.8864    4.5552 C   0  0  0  0  0  0  0  0  0  0  0  0
   -8.8857  -12.5535    4.6136 C   0  0  0  0  0  0  0  0  0  0  0  0
   -8.5946  -11.8491    3.4337 C   0  0  0  0  0  0  0  0  0  0  0  0
   -8.8188  -10.7459    0.9278 F   0  0  0  0  0  0  0  0  0  0  0  0
   -7.7734  -11.6608    1.0694 C   0  0  0  0  0  0  0  0  0  0  0  0
   -6.5939  -11.0036    1.2009 F   0  0  0  0  0  0  0  0  0  0  0  0
   -7.8088  -12.5363    0.0123 F   0  0  0  0  0  0  0  0  0  0  0  0
   -4.6071   -4.9272    7.8249 N   0  0  0  0  0  0  0  0  0  0  0  0
   -4.2361   -5.4686    6.5881 C   0  0  0  0  0  0  0  0  0  0  0  0
   -4.7320   -6.5518    6.1133 O   0  0  0  0  0  0  0  0  0  0  0  0
   -4.1843   -4.0563    8.1791 H   0  0  0  0  0  0  0  0  0  0  0  0
   -3.2299   -4.7914    5.7456 C   0  0  0  0  0  0  0  0  0  0  0  0
   -1.9831   -4.4700    6.2409 C   0  0  0  0  0  0  0  0  0  0  0  0
   -1.0664   -3.8232    5.4597 C   0  0  0  0  0  0  0  0  0  0  0  0
   -1.4006   -3.5045    4.1816 C   0  0  0  0  0  0  0  0  0  0  0  0
   -2.6417   -3.8014    3.6235 C   0  0  0  0  0  0  0  0  0  0  0  0
   -3.5508   -4.4536    4.4382 C   0  0  0  0  0  0  0  0  0  0  0  0
   -2.9274   -3.4248    2.1992 C   0  0  0  0  0  0  0  0  0  0  0  0
   -4.2963   -3.1333    2.1563 F   0  0  0  0  0  0  0  0  0  0  0  0
   -2.2612   -2.2338    1.9265 F   0  0  0  0  0  0  0  0  0  0  0  0
   -2.6100   -4.4390    1.3471 F   0  0  0  0  0  0  0  0  0  0  0  0
   -8.9168   -6.6272    7.4857 N   0  0  0  0  0  0  0  0  0  0  0  0
   -9.6318   -7.7899    7.5704 C   0  0  0  0  0  0  0  0  0  0  0  0
   -9.6405   -5.4293    7.5291 C   0  0  0  0  0  0  0  0  0  0  0  0
 20 21  1  0  0  0
 21 22  1  0  0  0
 21 23  1  0  0  0
 21 14  1  0  0  0
 14 15  2  0  0  0
 15 16  1  0  0  0
 16 17  2  0  0  0
 17 18  1  0  0  0
 18 19  2  0  0  0
 18  6  1  0  0  0
  6  7  2  0  0  0
  6  8  1  0  0  0
  8  9  1  0  0  0
  9 10  1  0  0  0
 10 11  1  0  0  0
 11 12  1  0  0  0
 12 13  1  0  0  0
 11  1  1  0  0  0
  1  2  1  0  0  0
  2  3  1  0  0  0
  3 24  1  0  0  0
 24 25  1  0  0  0
 25 26  2  0  0  0
 25 28  1  0  0  0
 28 29  2  0  0  0
 29 30  1  0  0  0
 30 31  2  0  0  0
 31 32  1  0  0  0
 32 33  2  0  0  0
 32 34  1  0  0  0
 34 35  1  0  0  0
 34 36  1  0  0  0
 34 37  1  0  0  0
  3  4  1  0  0  0
  4  5  1  0  0  0
  5 38  1  0  0  0
 38 39  1  0  0  0
 38 40  1  0  0  0
 19 14  1  0  0  0
 13  8  1  0  0  0
  5  1  1  0  0  0
 33 28  1  0  0  0
 24 27  1  0  0  0
M  END
> <minimizedAffinity>
15.30877

> <CNNscore>
0.3531211615

> <CNNaffinity>
6.1641745567

> <CNN_VS>
2.1767005920

> <CNNaffinity_variance>
1.1582823992

$$$$
[H]c1c([H])c(C(=O)N2C([H])([H])C([H])([H])N([C@@]3([H])C([H])([H])[C@@]([H])(N([H])C(=O)c4c([H])c([H])c([H])c(C(F)(F)F)c4[H])C([H])([H])[C@]3([H])N(C([H])([H])[H])C([H])([H])[H])C([H])([H])C2([H])[H])c([H])c(C(F)(F)F)c1[H]


 40 43  0  0  0  0  0  0  0  0999 V2000
  -12.5097   -7.1346    8.9359 C   0  0  0  0  0  0  0  0  0  0  0  0
  -13.6976   -6.2872    8.7299 C   0  0  0  0  0  0  0  0  0  0  0  0
  -14.8109   -7.2613    8.4886 C   0  0  0  0  0  0  0  0  0  0  0  0
  -14.1952   -8.5911    8.1610 C   0  0  0  0  0  0  0  0  0  0  0  0
  -12.7376   -8.3374    8.0648 C   0  0  0  0  0  0  0  0  0  0  0  0
   -7.1003   -6.8360    9.6202 C   0  0  0  0  0  0  0  0  0  0  0  0
   -6.8210   -7.1532   10.8507 O   0  0  0  0  0  0  0  0  0  0  0  0
   -8.4382   -6.5857    9.3944 N   0  0  0  0  0  0  0  0  0  0  0  0
   -8.9829   -6.3126    8.1000 C   0  0  0  0  0  0  0  0  0  0  0  0
  -10.2810   -7.1708    8.0704 C   0  0  0  0  0  0  0  0  0  0  0  0
  -11.2318   -6.5456    8.9048 N   0  0  0  0  0  0  0  0  0  0  0  0
  -10.7242   -5.9989   10.1078 C   0  0  0  0  0  0  0  0  0  0  0  0
   -9.4063   -6.5942   10.5166 C   0  0  0  0  0  0  0  0  0  0  0  0
   -5.4292   -6.4804    6.3371 C   0  0  0  0  0  0  0  0  0  0  0  0
   -4.0820   -6.4795    6.6464 C   0  0  0  0  0  0  0  0  0  0  0  0
   -3.7002   -6.6381    7.9691 C   0  0  0  0  0  0  0  0  0  0  0  0
   -4.6751   -6.7910    8.9342 C   0  0  0  0  0  0  0  0  0  0  0  0
   -6.0040   -6.7962    8.6799 C   0  0  0  0  0  0  0  0  0  0  0  0
   -6.3515   -6.6355    7.3284 C   0  0  0  0  0  0  0  0  0  0  0  0
   -7.0979   -5.6770    4.9688 F   0  0  0  0  0  0  0  0  0  0  0  0
   -5.8344   -6.2676    4.9000 C   0  0  0  0  0  0  0  0  0  0  0  0
   -4.9718   -5.4477    4.2488 F   0  0  0  0  0  0  0  0  0  0  0  0
   -5.9601   -7.5104    4.3299 F   0  0  0  0  0  0  0  0  0  0  0  0
  -15.6338   -6.8488    7.3413 N   0  0  0  0  0  0  0  0  0  0  0  0
  -16.2427   -7.8292    6.5485 C   0  0  0  0  0  0  0  0  0  0  0  0
  -16.1042   -9.0881    6.7504 O   0  0  0  0  0  0  0  0  0  0  0  0
  -15.7625   -5.8445    7.1477 H   0  0  0  0  0  0  0  0  0  0  0  0
  -17.1043   -7.4448    5.4123 C   0  0  0  0  0  0  0  0  0  0  0  0
  -17.3499   -8.3195    4.3742 C   0  0  0  0  0  0  0  0  0  0  0  0
  -18.1309   -7.9463    3.3160 C   0  0  0  0  0  0  0  0  0  0  0  0
  -18.6680   -6.6980    3.3038 C   0  0  0  0  0  0  0  0  0  0  0  0
  -18.4577   -5.7697    4.3206 C   0  0  0  0  0  0  0  0  0  0  0  0
  -17.6607   -6.1737    5.3776 C   0  0  0  0  0  0  0  0  0  0  0  0
  -19.0972   -4.4147    4.2364 C   0  0  0  0  0  0  0  0  0  0  0  0
  -18.6826   -3.8804    3.0104 F   0  0  0  0  0  0  0  0  0  0  0  0
  -20.4743   -4.5932    4.1440 F   0  0  0  0  0  0  0  0  0  0  0  0
  -18.7148   -3.6227    5.2766 F   0  0  0  0  0  0  0  0  0  0  0  0
  -11.9023   -9.4107    8.3857 N   0  0  0  0  0  0  0  0  0  0  0  0
  -12.0942  -10.3057    9.4018 C   0  0  0  0  0  0  0  0  0  0  0  0
  -10.8551   -9.6734    7.4942 C   0  0  0  0  0  0  0  0  0  0  0  0
 20 21  1  0  0  0
 21 22  1  0  0  0
 21 23  1  0  0  0
 21 14  1  0  0  0
 14 15  2  0  0  0
 15 16  1  0  0  0
 16 17  2  0  0  0
 17 18  1  0  0  0
 18 19  2  0  0  0
 18  6  1  0  0  0
  6  7  2  0  0  0
  6  8  1  0  0  0
  8  9  1  0  0  0
  9 10  1  0  0  0
 10 11  1  0  0  0
 11 12  1  0  0  0
 12 13  1  0  0  0
 11  1  1  0  0  0
  1  2  1  0  0  0
  2  3  1  0  0  0
  3 24  1  0  0  0
 24 25  1  0  0  0
 25 26  2  0  0  0
 25 28  1  0  0  0
 28 29  2  0  0  0
 29 30  1  0  0  0
 30 31  2  0  0  0
 31 32  1  0  0  0
 32 33  2  0  0  0
 32 34  1  0  0  0
 34 35  1  0  0  0
 34 36  1  0  0  0
 34 37  1  0  0  0
  3  4  1  0  0  0
  4  5  1  0  0  0
  5 38  1  0  0  0
 38 39  1  0  0  0
 38 40  1  0  0  0
 19 14  1  0  0  0
 13  8  1  0  0  0
  5  1  1  0  0  0
 33 28  1  0  0  0
 24 27  1  0  0  0
M  END
> <minimizedAffinity>
6.60170

> <CNNscore>
0.3332881629

> <CNNaffinity>
7.3996429443

> <CNN_VS>
2.4662134647

> <CNNaffinity_variance>
2.8111805916

$$$$
[H]c1c([H])c(C(=O)N2C([H])([H])C([H])([H])N([C@@]3([H])C([H])([H])[C@@]([H])(N([H])C(=O)c4c([H])c([H])c([H])c(C(F)(F)F)c4[H])C([H])([H])[C@]3([H])N(C([H])([H])[H])C([H])([H])[H])C([H])([H])C2([H])[H])c([H])c(C(F)(F)F)c1[H]


 40 43  0  0  0  0  0  0  0  0999 V2000
  -12.0252   -7.6057    8.8403 C   0  0  0  0  0  0  0  0  0  0  0  0
  -12.6708   -6.4535    8.1867 C   0  0  0  0  0  0  0  0  0  0  0  0
  -14.1258   -6.6108    8.5100 C   0  0  0  0  0  0  0  0  0  0  0  0
  -14.3428   -8.0209    8.9782 C   0  0  0  0  0  0  0  0  0  0  0  0
  -13.0446   -8.7076    8.7753 C   0  0  0  0  0  0  0  0  0  0  0  0
   -7.1130   -6.9262    6.5541 C   0  0  0  0  0  0  0  0  0  0  0  0
   -7.2766   -6.6894    5.2852 O   0  0  0  0  0  0  0  0  0  0  0  0
   -8.2420   -7.4048    7.1863 N   0  0  0  0  0  0  0  0  0  0  0  0
   -8.3170   -7.6431    8.5950 C   0  0  0  0  0  0  0  0  0  0  0  0
   -9.7035   -7.0524    8.9839 C   0  0  0  0  0  0  0  0  0  0  0  0
  -10.6978   -7.9313    8.5044 N   0  0  0  0  0  0  0  0  0  0  0  0
  -10.4551   -8.4908    7.2270 C   0  0  0  0  0  0  0  0  0  0  0  0
   -9.4717   -7.6982    6.4128 C   0  0  0  0  0  0  0  0  0  0  0  0
   -3.5278   -6.0078    6.5780 C   0  0  0  0  0  0  0  0  0  0  0  0
   -3.2203   -5.8969    7.9211 C   0  0  0  0  0  0  0  0  0  0  0  0
   -4.2063   -6.1675    8.8566 C   0  0  0  0  0  0  0  0  0  0  0  0
   -5.4618   -6.5377    8.4188 C   0  0  0  0  0  0  0  0  0  0  0  0
   -5.8096   -6.6574    7.1167 C   0  0  0  0  0  0  0  0  0  0  0  0
   -4.7836   -6.3777    6.1991 C   0  0  0  0  0  0  0  0  0  0  0  0
   -3.1459   -5.0971    4.4979 F   0  0  0  0  0  0  0  0  0  0  0  0
   -2.4586   -5.6729    5.5684 C   0  0  0  0  0  0  0  0  0  0  0  0
   -1.5520   -4.7950    6.0661 F   0  0  0  0  0  0  0  0  0  0  0  0
   -1.9126   -6.8620    5.1521 F   0  0  0  0  0  0  0  0  0  0  0  0
  -14.9579   -6.3974    7.3160 N   0  0  0  0  0  0  0  0  0  0  0  0
  -15.6739   -7.4745    6.7797 C   0  0  0  0  0  0  0  0  0  0  0  0
  -15.6283   -8.6629    7.2599 O   0  0  0  0  0  0  0  0  0  0  0  0
  -15.0137   -5.4552    6.9016 H   0  0  0  0  0  0  0  0  0  0  0  0
  -16.5463   -7.2827    5.6037 C   0  0  0  0  0  0  0  0  0  0  0  0
  -16.7025   -8.2770    4.6603 C   0  0  0  0  0  0  0  0  0  0  0  0
  -17.4949   -8.0813    3.5635 C   0  0  0  0  0  0  0  0  0  0  0  0
  -18.1331   -6.8904    3.4180 C   0  0  0  0  0  0  0  0  0  0  0  0
  -18.0162   -5.8481    4.3345 C   0  0  0  0  0  0  0  0  0  0  0  0
  -17.2052   -6.0730    5.4333 C   0  0  0  0  0  0  0  0  0  0  0  0
  -18.7641   -4.5673    4.1055 C   0  0  0  0  0  0  0  0  0  0  0  0
  -20.1093   -4.9359    3.9831 F   0  0  0  0  0  0  0  0  0  0  0  0
  -18.6685   -3.7998    5.2625 F   0  0  0  0  0  0  0  0  0  0  0  0
  -18.3212   -3.9303    2.9859 F   0  0  0  0  0  0  0  0  0  0  0  0
  -12.7633   -9.7644    9.6452 N   0  0  0  0  0  0  0  0  0  0  0  0
  -12.2211  -10.9711    9.2987 C   0  0  0  0  0  0  0  0  0  0  0  0
  -12.9183   -9.5042   11.0122 C   0  0  0  0  0  0  0  0  0  0  0  0
 20 21  1  0  0  0
 21 22  1  0  0  0
 21 23  1  0  0  0
 21 14  1  0  0  0
 14 15  2  0  0  0
 15 16  1  0  0  0
 16 17  2  0  0  0
 17 18  1  0  0  0
 18 19  2  0  0  0
 18  6  1  0  0  0
  6  7  2  0  0  0
  6  8  1  0  0  0
  8  9  1  0  0  0
  9 10  1  0  0  0
 10 11  1  0  0  0
 11 12  1  0  0  0
 12 13  1  0  0  0
 11  1  1  0  0  0
  1  2  1  0  0  0
  2  3  1  0  0  0
  3 24  1  0  0  0
 24 25  1  0  0  0
 25 26  2  0  0  0
 25 28  1  0  0  0
 28 29  2  0  0  0
 29 30  1  0  0  0
 30 31  2  0  0  0
 31 32  1  0  0  0
 32 33  2  0  0  0
 32 34  1  0  0  0
 34 35  1  0  0  0
 34 36  1  0  0  0
 34 37  1  0  0  0
  3  4  1  0  0  0
  4  5  1  0  0  0
  5 38  1  0  0  0
 38 39  1  0  0  0
 38 40  1  0  0  0
 19 14  1  0  0  0
 13  8  1  0  0  0
  5  1  1  0  0  0
 33 28  1  0  0  0
 24 27  1  0  0  0
M  END
> <minimizedAffinity>
-0.31742

> <CNNscore>
0.3276055157

> <CNNaffinity>
7.0217514038

> <CNN_VS>
2.3003644943

> <CNNaffinity_variance>
1.0189030170

$$$$
[H]c1c([H])c(C(=O)N2C([H])([H])C([H])([H])N([C@@]3([H])C([H])([H])[C@@]([H])(N([H])C(=O)c4c([H])c([H])c([H])c(C(F)(F)F)c4[H])C([H])([H])[C@]3([H])N(C([H])([H])[H])C([H])([H])[H])C([H])([H])C2([H])[H])c([H])c(C(F)(F)F)c1[H]


 40 43  0  0  0  0  0  0  0  0999 V2000
  -12.5176   -6.6828    8.6786 C   0  0  0  0  0  0  0  0  0  0  0  0
  -12.8387   -6.1972    7.3249 C   0  0  0  0  0  0  0  0  0  0  0  0
  -14.3369   -6.1890    7.2793 C   0  0  0  0  0  0  0  0  0  0  0  0
  -14.8360   -7.0299    8.4189 C   0  0  0  0  0  0  0  0  0  0  0  0
  -13.6249   -7.6399    9.0183 C   0  0  0  0  0  0  0  0  0  0  0  0
   -7.3054   -7.9382    7.6414 C   0  0  0  0  0  0  0  0  0  0  0  0
   -7.2761   -8.8425    6.7064 O   0  0  0  0  0  0  0  0  0  0  0  0
   -8.5523   -7.7489    8.2008 N   0  0  0  0  0  0  0  0  0  0  0  0
   -8.8351   -6.7419    9.1770 C   0  0  0  0  0  0  0  0  0  0  0  0
  -10.1880   -6.1443    8.6920 C   0  0  0  0  0  0  0  0  0  0  0  0
  -11.2011   -7.0866    8.9694 N   0  0  0  0  0  0  0  0  0  0  0  0
  -10.8566   -8.4403    8.7402 C   0  0  0  0  0  0  0  0  0  0  0  0
   -9.6956   -8.6026    7.8001 C   0  0  0  0  0  0  0  0  0  0  0  0
   -3.9068   -6.5956    7.0544 C   0  0  0  0  0  0  0  0  0  0  0  0
   -3.6325   -5.8691    8.1979 C   0  0  0  0  0  0  0  0  0  0  0  0
   -4.5729   -5.8451    9.2156 C   0  0  0  0  0  0  0  0  0  0  0  0
   -5.7517   -6.5450    9.0554 C   0  0  0  0  0  0  0  0  0  0  0  0
   -6.0648   -7.2672    7.9549 C   0  0  0  0  0  0  0  0  0  0  0  0
   -5.0864   -7.2697    6.9470 C   0  0  0  0  0  0  0  0  0  0  0  0
   -1.8163   -5.8504    6.4405 F   0  0  0  0  0  0  0  0  0  0  0  0
   -2.8935   -6.5827    5.9373 C   0  0  0  0  0  0  0  0  0  0  0  0
   -2.4913   -7.8354    5.6068 F   0  0  0  0  0  0  0  0  0  0  0  0
   -3.4526   -5.8839    4.8959 F   0  0  0  0  0  0  0  0  0  0  0  0
  -14.8301   -6.7843    6.0279 N   0  0  0  0  0  0  0  0  0  0  0  0
  -14.2516   -7.9703    5.5600 C   0  0  0  0  0  0  0  0  0  0  0  0
  -13.2838   -8.5670    6.1535 O   0  0  0  0  0  0  0  0  0  0  0  0
  -15.6043   -6.3280    5.5229 H   0  0  0  0  0  0  0  0  0  0  0  0
  -14.7503   -8.6110    4.3263 C   0  0  0  0  0  0  0  0  0  0  0  0
  -16.0074   -9.1765    4.2730 C   0  0  0  0  0  0  0  0  0  0  0  0
  -16.4513   -9.7868    3.1331 C   0  0  0  0  0  0  0  0  0  0  0  0
  -15.6349   -9.8242    2.0473 C   0  0  0  0  0  0  0  0  0  0  0  0
  -14.3563   -9.2721    2.0379 C   0  0  0  0  0  0  0  0  0  0  0  0
  -13.9322   -8.6635    3.2063 C   0  0  0  0  0  0  0  0  0  0  0  0
  -13.5220   -9.3460    0.7926 C   0  0  0  0  0  0  0  0  0  0  0  0
  -13.4179   -8.0277    0.3327 F   0  0  0  0  0  0  0  0  0  0  0  0
  -12.2379   -9.7397    1.1571 F   0  0  0  0  0  0  0  0  0  0  0  0
  -14.0991  -10.1524   -0.1413 F   0  0  0  0  0  0  0  0  0  0  0  0
  -13.6935   -7.9343   10.3827 N   0  0  0  0  0  0  0  0  0  0  0  0
  -13.0193   -7.2878   11.3817 C   0  0  0  0  0  0  0  0  0  0  0  0
  -14.6497   -8.8815   10.7684 C   0  0  0  0  0  0  0  0  0  0  0  0
 20 21  1  0  0  0
 21 22  1  0  0  0
 21 23  1  0  0  0
 21 14  1  0  0  0
 14 15  2  0  0  0
 15 16  1  0  0  0
 16 17  2  0  0  0
 17 18  1  0  0  0
 18 19  2  0  0  0
 18  6  1  0  0  0
  6  7  2  0  0  0
  6  8  1  0  0  0
  8  9  1  0  0  0
  9 10  1  0  0  0
 10 11  1  0  0  0
 11 12  1  0  0  0
 12 13  1  0  0  0
 11  1  1  0  0  0
  1  2  1  0  0  0
  2  3  1  0  0  0
  3 24  1  0  0  0
 24 25  1  0  0  0
 25 26  2  0  0  0
 25 28  1  0  0  0
 28 29  2  0  0  0
 29 30  1  0  0  0
 30 31  2  0  0  0
 31 32  1  0  0  0
 32 33  2  0  0  0
 32 34  1  0  0  0
 34 35  1  0  0  0
 34 36  1  0  0  0
 34 37  1  0  0  0
  3  4  1  0  0  0
  4  5  1  0  0  0
  5 38  1  0  0  0
 38 39  1  0  0  0
 38 40  1  0  0  0
 19 14  1  0  0  0
 13  8  1  0  0  0
  5  1  1  0  0  0
 33 28  1  0  0  0
 24 27  1  0  0  0
M  END
> <minimizedAffinity>
10.77987

> <CNNscore>
0.3274907768

> <CNNaffinity>
6.8003296852

> <CNN_VS>
2.2270452976

> <CNNaffinity_variance>
0.5901874900

$$$$
[H]c1c([H])c(C(=O)N2C([H])([H])C([H])([H])N([C@@]3([H])C([H])([H])[C@@]([H])(N([H])C(=O)c4c([H])c([H])c([H])c(C(F)(F)F)c4[H])C([H])([H])[C@]3([H])N(C([H])([H])[H])C([H])([H])[H])C([H])([H])C2([H])[H])c([H])c(C(F)(F)F)c1[H]


 40 43  0  0  0  0  0  0  0  0999 V2000
   -9.2404   -8.2362    7.5118 C   0  0  0  0  0  0  0  0  0  0  0  0
   -8.8790   -6.9484    8.1303 C   0  0  0  0  0  0  0  0  0  0  0  0
   -7.4959   -7.1685    8.6643 C   0  0  0  0  0  0  0  0  0  0  0  0
   -7.2505   -8.6493    8.7087 C   0  0  0  0  0  0  0  0  0  0  0  0
   -8.5454   -9.2741    8.3466 C   0  0  0  0  0  0  0  0  0  0  0  0
  -14.6420   -7.4362    7.4750 C   0  0  0  0  0  0  0  0  0  0  0  0
  -15.0647   -7.4111    8.7053 O   0  0  0  0  0  0  0  0  0  0  0  0
  -13.3582   -7.9210    7.3319 N   0  0  0  0  0  0  0  0  0  0  0  0
  -12.6596   -7.9497    6.0837 C   0  0  0  0  0  0  0  0  0  0  0  0
  -11.2362   -7.4445    6.4595 C   0  0  0  0  0  0  0  0  0  0  0  0
  -10.5822   -8.4783    7.1629 N   0  0  0  0  0  0  0  0  0  0  0  0
  -11.3861   -9.1983    8.0790 C   0  0  0  0  0  0  0  0  0  0  0  0
  -12.6161   -8.4461    8.5025 C   0  0  0  0  0  0  0  0  0  0  0  0
  -17.4329   -7.5795    5.0486 C   0  0  0  0  0  0  0  0  0  0  0  0
  -17.5577   -6.2762    4.6055 C   0  0  0  0  0  0  0  0  0  0  0  0
  -16.6765   -5.3203    5.0856 C   0  0  0  0  0  0  0  0  0  0  0  0
  -15.7046   -5.6988    5.9896 C   0  0  0  0  0  0  0  0  0  0  0  0
  -15.5455   -6.9599    6.4530 C   0  0  0  0  0  0  0  0  0  0  0  0
  -16.4550   -7.9005    5.9419 C   0  0  0  0  0  0  0  0  0  0  0  0
  -17.6667   -9.7607    4.3485 F   0  0  0  0  0  0  0  0  0  0  0  0
  -18.4217   -8.6034    4.5498 C   0  0  0  0  0  0  0  0  0  0  0  0
  -19.4036   -8.8394    5.4556 F   0  0  0  0  0  0  0  0  0  0  0  0
  -18.8800   -8.1600    3.3337 F   0  0  0  0  0  0  0  0  0  0  0  0
   -7.3699   -6.6478   10.0342 N   0  0  0  0  0  0  0  0  0  0  0  0
   -8.5284   -6.3498   10.7619 C   0  0  0  0  0  0  0  0  0  0  0  0
   -9.7134   -6.4820   10.2898 O   0  0  0  0  0  0  0  0  0  0  0  0
   -6.4317   -6.5250   10.4432 H   0  0  0  0  0  0  0  0  0  0  0  0
   -8.4344   -5.8604   12.1522 C   0  0  0  0  0  0  0  0  0  0  0  0
   -7.2479   -5.9238   12.8531 C   0  0  0  0  0  0  0  0  0  0  0  0
   -7.1767   -5.4885   14.1472 C   0  0  0  0  0  0  0  0  0  0  0  0
   -8.2948   -4.9859   14.7337 C   0  0  0  0  0  0  0  0  0  0  0  0
   -9.5213   -4.8952   14.0800 C   0  0  0  0  0  0  0  0  0  0  0  0
   -9.5647   -5.3460   12.7721 C   0  0  0  0  0  0  0  0  0  0  0  0
  -10.7063   -4.3164   14.7962 C   0  0  0  0  0  0  0  0  0  0  0  0
  -10.5665   -2.9273   14.6896 F   0  0  0  0  0  0  0  0  0  0  0  0
  -11.8503   -4.6544   14.0793 F   0  0  0  0  0  0  0  0  0  0  0  0
  -10.7378   -4.7126   16.0991 F   0  0  0  0  0  0  0  0  0  0  0  0
   -8.4745  -10.5214    7.7205 N   0  0  0  0  0  0  0  0  0  0  0  0
   -9.3453  -11.0031    6.7824 C   0  0  0  0  0  0  0  0  0  0  0  0
   -7.3263  -11.2815    7.9741 C   0  0  0  0  0  0  0  0  0  0  0  0
 20 21  1  0  0  0
 21 22  1  0  0  0
 21 23  1  0  0  0
 21 14  1  0  0  0
 14 15  2  0  0  0
 15 16  1  0  0  0
 16 17  2  0  0  0
 17 18  1  0  0  0
 18 19  2  0  0  0
 18  6  1  0  0  0
  6  7  2  0  0  0
  6  8  1  0  0  0
  8  9  1  0  0  0
  9 10  1  0  0  0
 10 11  1  0  0  0
 11 12  1  0  0  0
 12 13  1  0  0  0
 11  1  1  0  0  0
  1  2  1  0  0  0
  2  3  1  0  0  0
  3 24  1  0  0  0
 24 25  1  0  0  0
 25 26  2  0  0  0
 25 28  1  0  0  0
 28 29  2  0  0  0
 29 30  1  0  0  0
 30 31  2  0  0  0
 31 32  1  0  0  0
 32 33  2  0  0  0
 32 34  1  0  0  0
 34 35  1  0  0  0
 34 36  1  0  0  0
 34 37  1  0  0  0
  3  4  1  0  0  0
  4  5  1  0  0  0
  5 38  1  0  0  0
 38 39  1  0  0  0
 38 40  1  0  0  0
 19 14  1  0  0  0
 13  8  1  0  0  0
  5  1  1  0  0  0
 33 28  1  0  0  0
 24 27  1  0  0  0
M  END
> <minimizedAffinity>
13.69380

> <CNNscore>
0.3244531155

> <CNNaffinity>
6.7445244789

> <CNN_VS>
2.1882820129

> <CNNaffinity_variance>
1.0300897360

$$$$
[H]c1c([H])c(C(=O)N2C([H])([H])C([H])([H])N([C@@]3([H])C([H])([H])[C@@]([H])(N([H])C(=O)c4c([H])c([H])c([H])c(C(F)(F)F)c4[H])C([H])([H])[C@]3([H])N(C([H])([H])[H])C([H])([H])[H])C([H])([H])C2([H])[H])c([H])c(C(F)(F)F)c1[H]


 40 43  0  0  0  0  0  0  0  0999 V2000
  -13.9151   -6.8951    8.3885 C   0  0  0  0  0  0  0  0  0  0  0  0
  -14.8217   -6.6301    7.2573 C   0  0  0  0  0  0  0  0  0  0  0  0
  -15.9930   -7.5329    7.5013 C   0  0  0  0  0  0  0  0  0  0  0  0
  -15.5752   -8.5662    8.5076 C   0  0  0  0  0  0  0  0  0  0  0  0
  -14.1245   -8.3455    8.7197 C   0  0  0  0  0  0  0  0  0  0  0  0
   -8.5366   -6.9245    9.3317 C   0  0  0  0  0  0  0  0  0  0  0  0
   -8.3422   -7.0322   10.6137 O   0  0  0  0  0  0  0  0  0  0  0  0
   -9.8345   -6.6102    8.9849 N   0  0  0  0  0  0  0  0  0  0  0  0
  -10.2942   -6.5354    7.6321 C   0  0  0  0  0  0  0  0  0  0  0  0
  -11.6634   -7.2741    7.6789 C   0  0  0  0  0  0  0  0  0  0  0  0
  -12.5882   -6.4297    8.3292 N   0  0  0  0  0  0  0  0  0  0  0  0
  -12.0857   -5.7151    9.4431 C   0  0  0  0  0  0  0  0  0  0  0  0
  -10.8477   -6.3322   10.0302 C   0  0  0  0  0  0  0  0  0  0  0  0
   -6.5747   -6.8888    6.1937 C   0  0  0  0  0  0  0  0  0  0  0  0
   -5.3102   -7.2863    6.5857 C   0  0  0  0  0  0  0  0  0  0  0  0
   -5.0955   -7.6150    7.9148 C   0  0  0  0  0  0  0  0  0  0  0  0
   -6.1484   -7.5345    8.8036 C   0  0  0  0  0  0  0  0  0  0  0  0
   -7.4010   -7.1491    8.4671 C   0  0  0  0  0  0  0  0  0  0  0  0
   -7.5801   -6.8268    7.1117 C   0  0  0  0  0  0  0  0  0  0  0  0
   -8.0454   -5.8898    4.7304 F   0  0  0  0  0  0  0  0  0  0  0  0
   -6.7876   -6.4958    4.7532 C   0  0  0  0  0  0  0  0  0  0  0  0
   -5.8421   -5.6231    4.3235 F   0  0  0  0  0  0  0  0  0  0  0  0
   -6.8459   -7.6580    4.0242 F   0  0  0  0  0  0  0  0  0  0  0  0
  -16.3847   -8.2340    6.2689 N   0  0  0  0  0  0  0  0  0  0  0  0
  -15.3960   -8.6073    5.3505 C   0  0  0  0  0  0  0  0  0  0  0  0
  -14.1498   -8.3489    5.5092 O   0  0  0  0  0  0  0  0  0  0  0  0
  -17.3788   -8.4536    6.1075 H   0  0  0  0  0  0  0  0  0  0  0  0
  -15.7547   -9.3445    4.1222 C   0  0  0  0  0  0  0  0  0  0  0  0
  -16.1102   -8.6787    2.9675 C   0  0  0  0  0  0  0  0  0  0  0  0
  -16.4621   -9.3705    1.8421 C   0  0  0  0  0  0  0  0  0  0  0  0
  -16.4519  -10.7290    1.8759 C   0  0  0  0  0  0  0  0  0  0  0  0
  -16.1030  -11.4589    3.0096 C   0  0  0  0  0  0  0  0  0  0  0  0
  -15.7542  -10.7325    4.1349 C   0  0  0  0  0  0  0  0  0  0  0  0
  -16.1063  -12.9588    2.9604 C   0  0  0  0  0  0  0  0  0  0  0  0
  -15.8814  -13.3773    4.2775 F   0  0  0  0  0  0  0  0  0  0  0  0
  -17.3915  -13.3761    2.6274 F   0  0  0  0  0  0  0  0  0  0  0  0
  -15.1420  -13.4274    2.1202 F   0  0  0  0  0  0  0  0  0  0  0  0
  -13.6246   -8.6969    9.9765 N   0  0  0  0  0  0  0  0  0  0  0  0
  -14.0756   -8.2336   11.1817 C   0  0  0  0  0  0  0  0  0  0  0  0
  -12.6742   -9.7246   10.0039 C   0  0  0  0  0  0  0  0  0  0  0  0
 20 21  1  0  0  0
 21 22  1  0  0  0
 21 23  1  0  0  0
 21 14  1  0  0  0
 14 15  2  0  0  0
 15 16  1  0  0  0
 16 17  2  0  0  0
 17 18  1  0  0  0
 18 19  2  0  0  0
 18  6  1  0  0  0
  6  7  2  0  0  0
  6  8  1  0  0  0
  8  9  1  0  0  0
  9 10  1  0  0  0
 10 11  1  0  0  0
 11 12  1  0  0  0
 12 13  1  0  0  0
 11  1  1  0  0  0
  1  2  1  0  0  0
  2  3  1  0  0  0
  3 24  1  0  0  0
 24 25  1  0  0  0
 25 26  2  0  0  0
 25 28  1  0  0  0
 28 29  2  0  0  0
 29 30  1  0  0  0
 30 31  2  0  0  0
 31 32  1  0  0  0
 32 33  2  0  0  0
 32 34  1  0  0  0
 34 35  1  0  0  0
 34 36  1  0  0  0
 34 37  1  0  0  0
  3  4  1  0  0  0
  4  5  1  0  0  0
  5 38  1  0  0  0
 38 39  1  0  0  0
 38 40  1  0  0  0
 19 14  1  0  0  0
 13  8  1  0  0  0
  5  1  1  0  0  0
 33 28  1  0  0  0
 24 27  1  0  0  0
M  END
> <minimizedAffinity>
17.69616

> <CNNscore>
0.3215517104

> <CNNaffinity>
6.9029197693

> <CNN_VS>
2.2196457386

> <CNNaffinity_variance>
0.9484931827

$$$$
[H]c1c([H])c(C(=O)N2C([H])([H])C([H])([H])N([C@@]3([H])C([H])([H])[C@@]([H])(N([H])C(=O)c4c([H])c([H])c([H])c(C(F)(F)F)c4[H])C([H])([H])[C@]3([H])N(C([H])([H])[H])C([H])([H])[H])C([H])([H])C2([H])[H])c([H])c(C(F)(F)F)c1[H]


 40 43  0  0  0  0  0  0  0  0999 V2000
   -6.5197   -7.8309    8.0393 C   0  0  0  0  0  0  0  0  0  0  0  0
   -7.5573   -8.7510    8.5379 C   0  0  0  0  0  0  0  0  0  0  0  0
   -8.1217   -9.3795    7.2998 C   0  0  0  0  0  0  0  0  0  0  0  0
   -7.7032   -8.5408    6.1267 C   0  0  0  0  0  0  0  0  0  0  0  0
   -7.0327   -7.3541    6.7101 C   0  0  0  0  0  0  0  0  0  0  0  0
   -5.1574   -5.5922   12.8300 C   0  0  0  0  0  0  0  0  0  0  0  0
   -6.2201   -5.5396   13.5789 O   0  0  0  0  0  0  0  0  0  0  0  0
   -5.4189   -5.8595   11.5020 N   0  0  0  0  0  0  0  0  0  0  0  0
   -4.3970   -6.0551   10.5199 C   0  0  0  0  0  0  0  0  0  0  0  0
   -4.9048   -7.2880    9.7170 C   0  0  0  0  0  0  0  0  0  0  0  0
   -5.9822   -6.8647    8.9101 N   0  0  0  0  0  0  0  0  0  0  0  0
   -6.8745   -5.9465    9.5139 C   0  0  0  0  0  0  0  0  0  0  0  0
   -6.8147   -5.9660   11.0153 C   0  0  0  0  0  0  0  0  0  0  0  0
   -2.2264   -6.3759   14.9496 C   0  0  0  0  0  0  0  0  0  0  0  0
   -1.3516   -5.3332   14.7087 C   0  0  0  0  0  0  0  0  0  0  0  0
   -1.7441   -4.3162   13.8530 C   0  0  0  0  0  0  0  0  0  0  0  0
   -2.9932   -4.3766   13.2688 C   0  0  0  0  0  0  0  0  0  0  0  0
   -3.8813   -5.3767   13.4726 C   0  0  0  0  0  0  0  0  0  0  0  0
   -3.4489   -6.3871   14.3473 C   0  0  0  0  0  0  0  0  0  0  0  0
   -2.9531   -8.0421   16.3631 F   0  0  0  0  0  0  0  0  0  0  0  0
   -1.7738   -7.4968   15.8514 C   0  0  0  0  0  0  0  0  0  0  0  0
   -1.0801   -8.4432   15.1705 F   0  0  0  0  0  0  0  0  0  0  0  0
   -1.0704   -6.9240   16.8822 F   0  0  0  0  0  0  0  0  0  0  0  0
   -9.5919   -9.3986    7.3407 N   0  0  0  0  0  0  0  0  0  0  0  0
  -10.2730   -8.3393    7.9527 C   0  0  0  0  0  0  0  0  0  0  0  0
   -9.6820   -7.3478    8.5117 O   0  0  0  0  0  0  0  0  0  0  0  0
  -10.0988  -10.1832    6.9048 H   0  0  0  0  0  0  0  0  0  0  0  0
  -11.7494   -8.3127    7.9770 C   0  0  0  0  0  0  0  0  0  0  0  0
  -12.4444   -8.3115    9.1686 C   0  0  0  0  0  0  0  0  0  0  0  0
  -13.8115   -8.3092    9.1802 C   0  0  0  0  0  0  0  0  0  0  0  0
  -14.4785   -8.3030    7.9962 C   0  0  0  0  0  0  0  0  0  0  0  0
  -13.8352   -8.3037    6.7609 C   0  0  0  0  0  0  0  0  0  0  0  0
  -12.4513   -8.3092    6.7795 C   0  0  0  0  0  0  0  0  0  0  0  0
  -14.6464   -8.2850    5.4984 C   0  0  0  0  0  0  0  0  0  0  0  0
  -14.2130   -9.3917    4.7584 F   0  0  0  0  0  0  0  0  0  0  0  0
  -15.9740   -8.5307    5.8357 F   0  0  0  0  0  0  0  0  0  0  0  0
  -14.4606   -7.1248    4.8094 F   0  0  0  0  0  0  0  0  0  0  0  0
   -6.0433   -6.7566    5.9248 N   0  0  0  0  0  0  0  0  0  0  0  0
   -4.6924   -6.8727    6.1040 C   0  0  0  0  0  0  0  0  0  0  0  0
   -6.4785   -6.1003    4.7671 C   0  0  0  0  0  0  0  0  0  0  0  0
 20 21  1  0  0  0
 21 22  1  0  0  0
 21 23  1  0  0  0
 21 14  1  0  0  0
 14 15  2  0  0  0
 15 16  1  0  0  0
 16 17  2  0  0  0
 17 18  1  0  0  0
 18 19  2  0  0  0
 18  6  1  0  0  0
  6  7  2  0  0  0
  6  8  1  0  0  0
  8  9  1  0  0  0
  9 10  1  0  0  0
 10 11  1  0  0  0
 11 12  1  0  0  0
 12 13  1  0  0  0
 11  1  1  0  0  0
  1  2  1  0  0  0
  2  3  1  0  0  0
  3 24  1  0  0  0
 24 25  1  0  0  0
 25 26  2  0  0  0
 25 28  1  0  0  0
 28 29  2  0  0  0
 29 30  1  0  0  0
 30 31  2  0  0  0
 31 32  1  0  0  0
 32 33  2  0  0  0
 32 34  1  0  0  0
 34 35  1  0  0  0
 34 36  1  0  0  0
 34 37  1  0  0  0
  3  4  1  0  0  0
  4  5  1  0  0  0
  5 38  1  0  0  0
 38 39  1  0  0  0
 38 40  1  0  0  0
 19 14  1  0  0  0
 13  8  1  0  0  0
  5  1  1  0  0  0
 33 28  1  0  0  0
 24 27  1  0  0  0
M  END
> <minimizedAffinity>
0.44221

> <CNNscore>
0.2402035892

> <CNNaffinity>
6.2613983154

> <CNN_VS>
1.5040103197

> <CNNaffinity_variance>
0.8767987490

$$$$
[H]c1c([H])c(C(=O)N2C([H])([H])C([H])([H])N([C@@]3([H])C([H])([H])[C@@]([H])(N([H])C(=O)c4c([H])c([H])c([H])c(C(F)(F)F)c4[H])C([H])([H])[C@]3([H])N(C([H])([H])[H])C([H])([H])[H])C([H])([H])C2([H])[H])c([H])c(C(F)(F)F)c1[H]


 40 43  0  0  0  0  0  0  0  0999 V2000
   -9.9393   -8.2469    7.4209 C   0  0  0  0  0  0  0  0  0  0  0  0
  -10.9885   -9.2718    7.5638 C   0  0  0  0  0  0  0  0  0  0  0  0
  -12.2698   -8.4942    7.5594 C   0  0  0  0  0  0  0  0  0  0  0  0
  -11.9344   -7.0539    7.8201 C   0  0  0  0  0  0  0  0  0  0  0  0
  -10.4835   -7.0364    8.1251 C   0  0  0  0  0  0  0  0  0  0  0  0
   -4.5102   -8.0541    6.8680 C   0  0  0  0  0  0  0  0  0  0  0  0
   -4.2165   -8.2171    5.6110 O   0  0  0  0  0  0  0  0  0  0  0  0
   -5.8141   -8.3735    7.1862 N   0  0  0  0  0  0  0  0  0  0  0  0
   -6.3794   -8.1813    8.4863 C   0  0  0  0  0  0  0  0  0  0  0  0
   -7.7766   -7.5671    8.1811 C   0  0  0  0  0  0  0  0  0  0  0  0
   -8.5994   -8.5953    7.6743 N   0  0  0  0  0  0  0  0  0  0  0  0
   -7.9703   -9.5004    6.7861 C   0  0  0  0  0  0  0  0  0  0  0  0
   -6.7218   -8.9432    6.1624 C   0  0  0  0  0  0  0  0  0  0  0  0
   -2.9077   -5.8787    9.3974 C   0  0  0  0  0  0  0  0  0  0  0  0
   -1.7011   -6.5011    9.6570 C   0  0  0  0  0  0  0  0  0  0  0  0
   -1.3788   -7.6521    8.9557 C   0  0  0  0  0  0  0  0  0  0  0  0
   -2.2710   -8.1404    8.0226 C   0  0  0  0  0  0  0  0  0  0  0  0
   -3.4630   -7.5676    7.7365 C   0  0  0  0  0  0  0  0  0  0  0  0
   -3.7530   -6.4022    8.4652 C   0  0  0  0  0  0  0  0  0  0  0  0
   -4.5486   -4.3053    9.7635 F   0  0  0  0  0  0  0  0  0  0  0  0
   -3.2656   -4.6492   10.1942 C   0  0  0  0  0  0  0  0  0  0  0  0
   -3.2727   -4.8969   11.5279 F   0  0  0  0  0  0  0  0  0  0  0  0
   -2.3941   -3.6578    9.8161 F   0  0  0  0  0  0  0  0  0  0  0  0
  -13.1680   -8.9507    8.6310 N   0  0  0  0  0  0  0  0  0  0  0  0
  -14.4884   -8.4857    8.6614 C   0  0  0  0  0  0  0  0  0  0  0  0
  -14.9639   -7.6518    7.8110 O   0  0  0  0  0  0  0  0  0  0  0  0
  -12.8167   -9.6178    9.3340 H   0  0  0  0  0  0  0  0  0  0  0  0
  -15.4238   -8.9547    9.7035 C   0  0  0  0  0  0  0  0  0  0  0  0
  -15.1871   -8.7071   11.0398 C   0  0  0  0  0  0  0  0  0  0  0  0
  -16.0477   -9.1648   11.9984 C   0  0  0  0  0  0  0  0  0  0  0  0
  -17.1467   -9.8657   11.6141 C   0  0  0  0  0  0  0  0  0  0  0  0
  -17.4412  -10.1483   10.2825 C   0  0  0  0  0  0  0  0  0  0  0  0
  -16.5511   -9.6753    9.3339 C   0  0  0  0  0  0  0  0  0  0  0  0
  -18.6826  -10.9194    9.9413 C   0  0  0  0  0  0  0  0  0  0  0  0
  -19.2746  -10.2253    8.8791 F   0  0  0  0  0  0  0  0  0  0  0  0
  -18.2959  -12.1576    9.4374 F   0  0  0  0  0  0  0  0  0  0  0  0
  -19.5233  -10.9998   11.0101 F   0  0  0  0  0  0  0  0  0  0  0  0
   -9.7994   -5.8618    7.8007 N   0  0  0  0  0  0  0  0  0  0  0  0
   -9.7124   -4.7391    8.5768 C   0  0  0  0  0  0  0  0  0  0  0  0
   -9.0154   -5.8975    6.6412 C   0  0  0  0  0  0  0  0  0  0  0  0
 20 21  1  0  0  0
 21 22  1  0  0  0
 21 23  1  0  0  0
 21 14  1  0  0  0
 14 15  2  0  0  0
 15 16  1  0  0  0
 16 17  2  0  0  0
 17 18  1  0  0  0
 18 19  2  0  0  0
 18  6  1  0  0  0
  6  7  2  0  0  0
  6  8  1  0  0  0
  8  9  1  0  0  0
  9 10  1  0  0  0
 10 11  1  0  0  0
 11 12  1  0  0  0
 12 13  1  0  0  0
 11  1  1  0  0  0
  1  2  1  0  0  0
  2  3  1  0  0  0
  3 24  1  0  0  0
 24 25  1  0  0  0
 25 26  2  0  0  0
 25 28  1  0  0  0
 28 29  2  0  0  0
 29 30  1  0  0  0
 30 31  2  0  0  0
 31 32  1  0  0  0
 32 33  2  0  0  0
 32 34  1  0  0  0
 34 35  1  0  0  0
 34 36  1  0  0  0
 34 37  1  0  0  0
  3  4  1  0  0  0
  4  5  1  0  0  0
  5 38  1  0  0  0
 38 39  1  0  0  0
 38 40  1  0  0  0
 19 14  1  0  0  0
 13  8  1  0  0  0
  5  1  1  0  0  0
 33 28  1  0  0  0
 24 27  1  0  0  0
M  END
> <minimizedAffinity>
13.75999

> <CNNscore>
0.2195779979

> <CNNaffinity>
6.5802736282

> <CNN_VS>
1.4448833466

> <CNNaffinity_variance>
0.9174818993

$$$$
[H]c1sc(-c2c([H])c([H])c(C([H])([H])n3c(C([H])([H])[H])nc4c([H])c([H])c(C(=O)N([H])[C@@]5([H])N(C(=O)c6c([H])c([H])c([H])c([H])c6[H])C([H])([H])C([H])([H])C5([H])[H])c([H])c43)c(F)c2[H])c([H])c1[H]


 40 45  0  0  0  0  0  0  0  0999 V2000
  -12.5470   -7.9359    6.7052 C   0  0  0  0  0  0  0  0  0  0  0  0
  -12.1235   -7.3218    7.9924 C   0  0  0  0  0  0  0  0  0  0  0  0
  -12.8469   -6.4155    8.6593 N   0  0  0  0  0  0  0  0  0  0  0  0
  -12.1826   -6.0736    9.7787 C   0  0  0  0  0  0  0  0  0  0  0  0
  -12.4891   -5.1954   10.8138 C   0  0  0  0  0  0  0  0  0  0  0  0
  -11.6206   -5.0556   11.8549 C   0  0  0  0  0  0  0  0  0  0  0  0
  -10.4475   -5.7663   11.9026 C   0  0  0  0  0  0  0  0  0  0  0  0
  -10.1820   -6.6247   10.8587 C   0  0  0  0  0  0  0  0  0  0  0  0
  -11.0144   -6.8163    9.7678 C   0  0  0  0  0  0  0  0  0  0  0  0
  -10.9751   -7.5887    8.6608 N   0  0  0  0  0  0  0  0  0  0  0  0
   -9.4796   -5.6049   12.9883 C   0  0  0  0  0  0  0  0  0  0  0  0
   -9.9034   -5.5731   14.1663 O   0  0  0  0  0  0  0  0  0  0  0  0
   -8.0692   -5.4794   12.7802 N   0  0  0  0  0  0  0  0  0  0  0  0
   -7.6961   -5.5027   11.7902 H   0  0  0  0  0  0  0  0  0  0  0  0
   -7.1994   -5.3074   13.8529 C   0  0  0  0  0  0  0  0  0  0  0  0
   -7.4008   -4.0418   14.6861 C   0  0  0  0  0  0  0  0  0  0  0  0
   -6.2368   -4.1908   15.6829 C   0  0  0  0  0  0  0  0  0  0  0  0
   -5.4795   -5.4140   15.2625 C   0  0  0  0  0  0  0  0  0  0  0  0
   -5.7744   -5.3228   13.7298 N   0  0  0  0  0  0  0  0  0  0  0  0
   -4.7087   -5.2529   12.8632 C   0  0  0  0  0  0  0  0  0  0  0  0
   -3.5373   -5.4099   13.5081 O   0  0  0  0  0  0  0  0  0  0  0  0
   -4.4937   -5.0615   11.4613 C   0  0  0  0  0  0  0  0  0  0  0  0
   -3.7281   -3.9531   11.0212 C   0  0  0  0  0  0  0  0  0  0  0  0
   -3.5141   -3.6775    9.6962 C   0  0  0  0  0  0  0  0  0  0  0  0
   -4.0535   -4.4939    8.7337 C   0  0  0  0  0  0  0  0  0  0  0  0
   -4.7998   -5.5742    9.0820 C   0  0  0  0  0  0  0  0  0  0  0  0
   -5.0007   -5.8289   10.4407 C   0  0  0  0  0  0  0  0  0  0  0  0
   -9.9531   -8.5373    8.3172 C   0  0  0  0  0  0  0  0  0  0  0  0
   -8.7067   -8.0325    7.7645 C   0  0  0  0  0  0  0  0  0  0  0  0
   -7.5641   -8.8411    7.9548 C   0  0  0  0  0  0  0  0  0  0  0  0
   -6.3195   -8.4861    7.4694 C   0  0  0  0  0  0  0  0  0  0  0  0
   -6.1523   -7.3185    6.7759 C   0  0  0  0  0  0  0  0  0  0  0  0
   -7.2485   -6.5251    6.5848 C   0  0  0  0  0  0  0  0  0  0  0  0
   -8.5238   -6.8842    7.0810 C   0  0  0  0  0  0  0  0  0  0  0  0
   -9.5129   -6.0188    6.8570 F   0  0  0  0  0  0  0  0  0  0  0  0
   -4.8243   -6.9433    6.2563 C   0  0  0  0  0  0  0  0  0  0  0  0
   -4.5304   -5.8328    5.5121 C   0  0  0  0  0  0  0  0  0  0  0  0
   -3.2573   -5.6728    5.1246 C   0  0  0  0  0  0  0  0  0  0  0  0
   -2.3588   -6.6318    5.5042 C   0  0  0  0  0  0  0  0  0  0  0  0
   -3.3219   -7.7265    6.3915 S   0  0  0  0  0  0  0  0  0  0  0  0
  1  2  1  0  0  0
  2  3  2  0  0  0
  3  4  1  0  0  0
  4  5  2  0  0  0
  5  6  1  0  0  0
  6  7  2  0  0  0
  7  8  1  0  0  0
  8  9  2  0  0  0
  9 10  1  0  0  0
 10 28  1  0  0  0
 28 29  1  0  0  0
 29 30  2  0  0  0
 30 31  1  0  0  0
 31 32  2  0  0  0
 32 33  1  0  0  0
 33 34  2  0  0  0
 34 35  1  0  0  0
 32 36  1  0  0  0
 36 37  2  0  0  0
 37 38  1  0  0  0
 38 39  2  0  0  0
 39 40  1  0  0  0
  7 11  1  0  0  0
 11 12  2  0  0  0
 11 13  1  0  0  0
 13 15  1  0  0  0
 15 16  1  0  0  0
 16 17  1  0  0  0
 17 18  1  0  0  0
 18 19  1  0  0  0
 19 20  1  0  0  0
 20 21  2  0  0  0
 20 22  1  0  0  0
 22 23  2  0  0  0
 23 24  1  0  0  0
 24 25  2  0  0  0
 25 26  1  0  0  0
 26 27  2  0  0  0
 10  2  1  0  0  0
 34 29  1  0  0  0
 40 36  1  0  0  0
 19 15  1  0  0  0
 27 22  1  0  0  0
  9  4  1  0  0  0
 13 14  1  0  0  0
M  END
> <minimizedAffinity>
1.80821

> <CNNscore>
0.4454875886

> <CNNaffinity>
7.0914802551

> <CNN_VS>
3.1591663361

> <CNNaffinity_variance>
0.2718166113

$$$$
[H]c1sc(-c2c([H])c([H])c(C([H])([H])n3c(C([H])([H])[H])nc4c([H])c([H])c(C(=O)N([H])[C@@]5([H])N(C(=O)c6c([H])c([H])c([H])c([H])c6[H])C([H])([H])C([H])([H])C5([H])[H])c([H])c43)c(F)c2[H])c([H])c1[H]


 40 45  0  0  0  0  0  0  0  0999 V2000
  -14.4670   -7.5455    6.1657 C   0  0  0  0  0  0  0  0  0  0  0  0
  -13.0044   -7.2830    6.2388 C   0  0  0  0  0  0  0  0  0  0  0  0
  -12.3153   -6.6351    5.2930 N   0  0  0  0  0  0  0  0  0  0  0  0
  -11.0257   -6.5653    5.6715 C   0  0  0  0  0  0  0  0  0  0  0  0
   -9.9067   -5.9967    5.0706 C   0  0  0  0  0  0  0  0  0  0  0  0
   -8.7003   -6.0611    5.7016 C   0  0  0  0  0  0  0  0  0  0  0  0
   -8.5676   -6.6763    6.9212 C   0  0  0  0  0  0  0  0  0  0  0  0
   -9.6994   -7.2260    7.4817 C   0  0  0  0  0  0  0  0  0  0  0  0
  -10.9561   -7.2018    6.8989 C   0  0  0  0  0  0  0  0  0  0  0  0
  -12.1807   -7.6490    7.2510 N   0  0  0  0  0  0  0  0  0  0  0  0
   -7.2770   -6.7943    7.6008 C   0  0  0  0  0  0  0  0  0  0  0  0
   -7.1424   -7.6784    8.4775 O   0  0  0  0  0  0  0  0  0  0  0  0
   -6.1542   -5.9523    7.3209 N   0  0  0  0  0  0  0  0  0  0  0  0
   -6.2531   -5.1994    6.5838 H   0  0  0  0  0  0  0  0  0  0  0  0
   -4.9575   -6.0995    8.0159 C   0  0  0  0  0  0  0  0  0  0  0  0
   -4.9765   -5.6778    9.4850 C   0  0  0  0  0  0  0  0  0  0  0  0
   -3.5003   -5.9189    9.8507 C   0  0  0  0  0  0  0  0  0  0  0  0
   -2.8176   -6.3353    8.5830 C   0  0  0  0  0  0  0  0  0  0  0  0
   -3.7167   -5.5294    7.5898 N   0  0  0  0  0  0  0  0  0  0  0  0
   -3.1133   -4.6153    6.7579 C   0  0  0  0  0  0  0  0  0  0  0  0
   -1.7717   -4.6660    6.8598 O   0  0  0  0  0  0  0  0  0  0  0  0
   -3.5122   -3.6220    5.8080 C   0  0  0  0  0  0  0  0  0  0  0  0
   -3.5626   -3.9577    4.4321 C   0  0  0  0  0  0  0  0  0  0  0  0
   -3.8925   -3.0521    3.4583 C   0  0  0  0  0  0  0  0  0  0  0  0
   -4.1911   -1.7575    3.8033 C   0  0  0  0  0  0  0  0  0  0  0  0
   -4.1617   -1.3639    5.1032 C   0  0  0  0  0  0  0  0  0  0  0  0
   -3.8214   -2.3099    6.0731 C   0  0  0  0  0  0  0  0  0  0  0  0
  -12.5280   -8.3114    8.4769 C   0  0  0  0  0  0  0  0  0  0  0  0
  -12.2730   -7.6161    9.7281 C   0  0  0  0  0  0  0  0  0  0  0  0
  -11.3798   -6.5233    9.6668 C   0  0  0  0  0  0  0  0  0  0  0  0
  -11.0601   -5.7681   10.7795 C   0  0  0  0  0  0  0  0  0  0  0  0
  -11.6097   -6.0605   11.9980 C   0  0  0  0  0  0  0  0  0  0  0  0
  -12.4748   -7.1157   12.0731 C   0  0  0  0  0  0  0  0  0  0  0  0
  -12.8037   -7.8920   10.9370 C   0  0  0  0  0  0  0  0  0  0  0  0
  -13.6375   -8.9129   11.1370 F   0  0  0  0  0  0  0  0  0  0  0  0
  -11.2696   -5.2516   13.1830 C   0  0  0  0  0  0  0  0  0  0  0  0
  -10.2726   -5.5140   14.0833 C   0  0  0  0  0  0  0  0  0  0  0  0
  -10.1275   -4.6587   15.1051 C   0  0  0  0  0  0  0  0  0  0  0  0
  -10.9871   -3.5963   15.1633 C   0  0  0  0  0  0  0  0  0  0  0  0
  -11.9707   -3.8260   13.7874 S   0  0  0  0  0  0  0  0  0  0  0  0
  1  2  1  0  0  0
  2  3  2  0  0  0
  3  4  1  0  0  0
  4  5  2  0  0  0
  5  6  1  0  0  0
  6  7  2  0  0  0
  7  8  1  0  0  0
  8  9  2  0  0  0
  9 10  1  0  0  0
 10 28  1  0  0  0
 28 29  1  0  0  0
 29 30  2  0  0  0
 30 31  1  0  0  0
 31 32  2  0  0  0
 32 33  1  0  0  0
 33 34  2  0  0  0
 34 35  1  0  0  0
 32 36  1  0  0  0
 36 37  2  0  0  0
 37 38  1  0  0  0
 38 39  2  0  0  0
 39 40  1  0  0  0
  7 11  1  0  0  0
 11 12  2  0  0  0
 11 13  1  0  0  0
 13 15  1  0  0  0
 15 16  1  0  0  0
 16 17  1  0  0  0
 17 18  1  0  0  0
 18 19  1  0  0  0
 19 20  1  0  0  0
 20 21  2  0  0  0
 20 22  1  0  0  0
 22 23  2  0  0  0
 23 24  1  0  0  0
 24 25  2  0  0  0
 25 26  1  0  0  0
 26 27  2  0  0  0
 10  2  1  0  0  0
 34 29  1  0  0  0
 40 36  1  0  0  0
 19 15  1  0  0  0
 27 22  1  0  0  0
  9  4  1  0  0  0
 13 14  1  0  0  0
M  END
> <minimizedAffinity>
18.36823

> <CNNscore>
0.4290056229

> <CNNaffinity>
7.1032180786

> <CNN_VS>
3.0473206043

> <CNNaffinity_variance>
1.7854499817

$$$$
[H]c1sc(-c2c([H])c([H])c(C([H])([H])n3c(C([H])([H])[H])nc4c([H])c([H])c(C(=O)N([H])[C@@]5([H])N(C(=O)c6c([H])c([H])c([H])c([H])c6[H])C([H])([H])C([H])([H])C5([H])[H])c([H])c43)c(F)c2[H])c([H])c1[H]


 40 45  0  0  0  0  0  0  0  0999 V2000
  -12.6777   -9.6741    7.9698 C   0  0  0  0  0  0  0  0  0  0  0  0
  -11.4291   -8.8804    7.8133 C   0  0  0  0  0  0  0  0  0  0  0  0
  -11.3788   -7.5463    7.8967 N   0  0  0  0  0  0  0  0  0  0  0  0
  -10.1053   -7.1512    7.7141 C   0  0  0  0  0  0  0  0  0  0  0  0
   -9.5096   -5.8936    7.7145 C   0  0  0  0  0  0  0  0  0  0  0  0
   -8.1654   -5.7873    7.5159 C   0  0  0  0  0  0  0  0  0  0  0  0
   -7.3861   -6.8992    7.3159 C   0  0  0  0  0  0  0  0  0  0  0  0
   -8.0144   -8.1249    7.3232 C   0  0  0  0  0  0  0  0  0  0  0  0
   -9.3740   -8.3098    7.5154 C   0  0  0  0  0  0  0  0  0  0  0  0
  -10.1929   -9.3819    7.5745 N   0  0  0  0  0  0  0  0  0  0  0  0
   -5.9479   -6.8100    7.0606 C   0  0  0  0  0  0  0  0  0  0  0  0
   -5.5542   -6.7606    5.8728 O   0  0  0  0  0  0  0  0  0  0  0  0
   -4.9600   -6.7772    8.0956 N   0  0  0  0  0  0  0  0  0  0  0  0
   -5.2771   -6.8199    9.1042 H   0  0  0  0  0  0  0  0  0  0  0  0
   -3.6039   -6.7125    7.7895 C   0  0  0  0  0  0  0  0  0  0  0  0
   -2.9056   -8.0495    7.5419 C   0  0  0  0  0  0  0  0  0  0  0  0
   -1.4628   -7.5597    7.3201 C   0  0  0  0  0  0  0  0  0  0  0  0
   -1.4825   -6.0795    7.5544 C   0  0  0  0  0  0  0  0  0  0  0  0
   -2.6356   -6.0528    8.6099 N   0  0  0  0  0  0  0  0  0  0  0  0
   -2.3752   -5.5116    9.8473 C   0  0  0  0  0  0  0  0  0  0  0  0
   -1.1493   -4.9570    9.8952 O   0  0  0  0  0  0  0  0  0  0  0  0
   -3.0452   -5.3694   11.1039 C   0  0  0  0  0  0  0  0  0  0  0  0
   -4.4307   -5.0718   11.1223 C   0  0  0  0  0  0  0  0  0  0  0  0
   -5.1333   -4.8780   12.2825 C   0  0  0  0  0  0  0  0  0  0  0  0
   -4.4916   -4.9700   13.4923 C   0  0  0  0  0  0  0  0  0  0  0  0
   -3.1638   -5.2509   13.5512 C   0  0  0  0  0  0  0  0  0  0  0  0
   -2.4746   -5.4429   12.3515 C   0  0  0  0  0  0  0  0  0  0  0  0
   -9.8037  -10.7604    7.4709 C   0  0  0  0  0  0  0  0  0  0  0  0
   -9.4070  -11.2647    6.1662 C   0  0  0  0  0  0  0  0  0  0  0  0
   -8.9740  -10.3019    5.2275 C   0  0  0  0  0  0  0  0  0  0  0  0
   -8.5570  -10.6466    3.9556 C   0  0  0  0  0  0  0  0  0  0  0  0
   -8.5497  -11.9561    3.5586 C   0  0  0  0  0  0  0  0  0  0  0  0
   -8.9669  -12.8989    4.4556 C   0  0  0  0  0  0  0  0  0  0  0  0
   -9.3957  -12.5502    5.7580 C   0  0  0  0  0  0  0  0  0  0  0  0
   -9.8058  -13.5523    6.5359 F   0  0  0  0  0  0  0  0  0  0  0  0
   -8.1013  -12.3217    2.2024 C   0  0  0  0  0  0  0  0  0  0  0  0
   -7.8422  -11.4558    1.1745 C   0  0  0  0  0  0  0  0  0  0  0  0
   -7.4515  -11.9875    0.0077 C   0  0  0  0  0  0  0  0  0  0  0  0
   -7.3446  -13.3495   -0.0587 C   0  0  0  0  0  0  0  0  0  0  0  0
   -7.7931  -13.8441    1.5121 S   0  0  0  0  0  0  0  0  0  0  0  0
  1  2  1  0  0  0
  2  3  2  0  0  0
  3  4  1  0  0  0
  4  5  2  0  0  0
  5  6  1  0  0  0
  6  7  2  0  0  0
  7  8  1  0  0  0
  8  9  2  0  0  0
  9 10  1  0  0  0
 10 28  1  0  0  0
 28 29  1  0  0  0
 29 30  2  0  0  0
 30 31  1  0  0  0
 31 32  2  0  0  0
 32 33  1  0  0  0
 33 34  2  0  0  0
 34 35  1  0  0  0
 32 36  1  0  0  0
 36 37  2  0  0  0
 37 38  1  0  0  0
 38 39  2  0  0  0
 39 40  1  0  0  0
  7 11  1  0  0  0
 11 12  2  0  0  0
 11 13  1  0  0  0
 13 15  1  0  0  0
 15 16  1  0  0  0
 16 17  1  0  0  0
 17 18  1  0  0  0
 18 19  1  0  0  0
 19 20  1  0  0  0
 20 21  2  0  0  0
 20 22  1  0  0  0
 22 23  2  0  0  0
 23 24  1  0  0  0
 24 25  2  0  0  0
 25 26  1  0  0  0
 26 27  2  0  0  0
 10  2  1  0  0  0
 34 29  1  0  0  0
 40 36  1  0  0  0
 19 15  1  0  0  0
 27 22  1  0  0  0
  9  4  1  0  0  0
 13 14  1  0  0  0
M  END
> <minimizedAffinity>
9.21084

> <CNNscore>
0.4008310437

> <CNNaffinity>
6.8892316818

> <CNN_VS>
2.7614178658

> <CNNaffinity_variance>
0.7601005435

$$$$
[H]c1sc(-c2c([H])c([H])c(C([H])([H])n3c(C([H])([H])[H])nc4c([H])c([H])c(C(=O)N([H])[C@@]5([H])N(C(=O)c6c([H])c([H])c([H])c([H])c6[H])C([H])([H])C([H])([H])C5([H])[H])c([H])c43)c(F)c2[H])c([H])c1[H]


 40 45  0  0  0  0  0  0  0  0999 V2000
  -16.7781  -10.4000    4.3586 C   0  0  0  0  0  0  0  0  0  0  0  0
  -16.5428   -8.9330    4.2823 C   0  0  0  0  0  0  0  0  0  0  0  0
  -16.8872   -8.1765    3.2343 N   0  0  0  0  0  0  0  0  0  0  0  0
  -16.5398   -6.9018    3.4907 C   0  0  0  0  0  0  0  0  0  0  0  0
  -16.6803   -5.7303    2.7529 C   0  0  0  0  0  0  0  0  0  0  0  0
  -16.2441   -4.5503    3.2773 C   0  0  0  0  0  0  0  0  0  0  0  0
  -15.6685   -4.4949    4.5220 C   0  0  0  0  0  0  0  0  0  0  0  0
  -15.5484   -5.6766    5.2194 C   0  0  0  0  0  0  0  0  0  0  0  0
  -15.9654   -6.9118    4.7502 C   0  0  0  0  0  0  0  0  0  0  0  0
  -15.9645   -8.1697    5.2413 N   0  0  0  0  0  0  0  0  0  0  0  0
  -15.1557   -3.2480    5.0912 C   0  0  0  0  0  0  0  0  0  0  0  0
  -14.9236   -2.2901    4.3188 O   0  0  0  0  0  0  0  0  0  0  0  0
  -14.9016   -3.0598    6.4870 N   0  0  0  0  0  0  0  0  0  0  0  0
  -15.0913   -3.8608    7.1520 H   0  0  0  0  0  0  0  0  0  0  0  0
  -14.3938   -1.8562    6.9667 C   0  0  0  0  0  0  0  0  0  0  0  0
  -13.3827   -1.1463    6.0664 C   0  0  0  0  0  0  0  0  0  0  0  0
  -13.0265    0.0551    6.9612 C   0  0  0  0  0  0  0  0  0  0  0  0
  -13.7640   -0.1494    8.2499 C   0  0  0  0  0  0  0  0  0  0  0  0
  -13.7630   -1.7129    8.2424 N   0  0  0  0  0  0  0  0  0  0  0  0
  -13.1923   -2.3703    9.3073 C   0  0  0  0  0  0  0  0  0  0  0  0
  -12.8280   -1.5123   10.2789 O   0  0  0  0  0  0  0  0  0  0  0  0
  -12.8773   -3.7168    9.6759 C   0  0  0  0  0  0  0  0  0  0  0  0
  -11.5246   -4.1397    9.6707 C   0  0  0  0  0  0  0  0  0  0  0  0
  -11.1465   -5.4224    9.9688 C   0  0  0  0  0  0  0  0  0  0  0  0
  -12.0988   -6.3576   10.2891 C   0  0  0  0  0  0  0  0  0  0  0  0
  -13.4154   -6.0238   10.3127 C   0  0  0  0  0  0  0  0  0  0  0  0
  -13.7698   -4.7084   10.0038 C   0  0  0  0  0  0  0  0  0  0  0  0
  -15.5041   -8.5797    6.5384 C   0  0  0  0  0  0  0  0  0  0  0  0
  -14.0769   -8.5215    6.8094 C   0  0  0  0  0  0  0  0  0  0  0  0
  -13.3825   -9.7513    6.7778 C   0  0  0  0  0  0  0  0  0  0  0  0
  -12.0217   -9.8367    7.0046 C   0  0  0  0  0  0  0  0  0  0  0  0
  -11.2906   -8.7112    7.2712 C   0  0  0  0  0  0  0  0  0  0  0  0
  -11.9488   -7.5141    7.3062 C   0  0  0  0  0  0  0  0  0  0  0  0
  -13.3417   -7.4225    7.0759 C   0  0  0  0  0  0  0  0  0  0  0  0
  -13.8788   -6.2053    7.1626 F   0  0  0  0  0  0  0  0  0  0  0  0
   -9.8385   -8.8042    7.5096 C   0  0  0  0  0  0  0  0  0  0  0  0
   -9.0575   -9.9131    7.3260 C   0  0  0  0  0  0  0  0  0  0  0  0
   -7.7523   -9.7985    7.6091 C   0  0  0  0  0  0  0  0  0  0  0  0
   -7.3101   -8.5843    8.0578 C   0  0  0  0  0  0  0  0  0  0  0  0
   -8.7326   -7.6411    8.0691 S   0  0  0  0  0  0  0  0  0  0  0  0
  1  2  1  0  0  0
  2  3  2  0  0  0
  3  4  1  0  0  0
  4  5  2  0  0  0
  5  6  1  0  0  0
  6  7  2  0  0  0
  7  8  1  0  0  0
  8  9  2  0  0  0
  9 10  1  0  0  0
 10 28  1  0  0  0
 28 29  1  0  0  0
 29 30  2  0  0  0
 30 31  1  0  0  0
 31 32  2  0  0  0
 32 33  1  0  0  0
 33 34  2  0  0  0
 34 35  1  0  0  0
 32 36  1  0  0  0
 36 37  2  0  0  0
 37 38  1  0  0  0
 38 39  2  0  0  0
 39 40  1  0  0  0
  7 11  1  0  0  0
 11 12  2  0  0  0
 11 13  1  0  0  0
 13 15  1  0  0  0
 15 16  1  0  0  0
 16 17  1  0  0  0
 17 18  1  0  0  0
 18 19  1  0  0  0
 19 20  1  0  0  0
 20 21  2  0  0  0
 20 22  1  0  0  0
 22 23  2  0  0  0
 23 24  1  0  0  0
 24 25  2  0  0  0
 25 26  1  0  0  0
 26 27  2  0  0  0
 10  2  1  0  0  0
 34 29  1  0  0  0
 40 36  1  0  0  0
 19 15  1  0  0  0
 27 22  1  0  0  0
  9  4  1  0  0  0
 13 14  1  0  0  0
M  END
> <minimizedAffinity>
22.12452

> <CNNscore>
0.3966687322

> <CNNaffinity>
7.5349664688

> <CNN_VS>
2.9888856411

> <CNNaffinity_variance>
0.1995353997

$$$$
[H]c1sc(-c2c([H])c([H])c(C([H])([H])n3c(C([H])([H])[H])nc4c([H])c([H])c(C(=O)N([H])[C@@]5([H])N(C(=O)c6c([H])c([H])c([H])c([H])c6[H])C([H])([H])C([H])([H])C5([H])[H])c([H])c43)c(F)c2[H])c([H])c1[H]


 40 45  0  0  0  0  0  0  0  0999 V2000
  -12.2522   -7.1093    6.0052 C   0  0  0  0  0  0  0  0  0  0  0  0
  -10.9391   -7.0506    6.7020 C   0  0  0  0  0  0  0  0  0  0  0  0
   -9.7596   -7.0599    6.0712 N   0  0  0  0  0  0  0  0  0  0  0  0
   -8.7791   -6.9909    6.9905 C   0  0  0  0  0  0  0  0  0  0  0  0
   -7.3927   -6.9566    6.8749 C   0  0  0  0  0  0  0  0  0  0  0  0
   -6.6273   -6.8659    7.9990 C   0  0  0  0  0  0  0  0  0  0  0  0
   -7.1987   -6.8066    9.2454 C   0  0  0  0  0  0  0  0  0  0  0  0
   -8.5738   -6.8429    9.3161 C   0  0  0  0  0  0  0  0  0  0  0  0
   -9.4148   -6.9372    8.2191 C   0  0  0  0  0  0  0  0  0  0  0  0
  -10.7530   -6.9762    8.0424 N   0  0  0  0  0  0  0  0  0  0  0  0
   -6.3992   -6.7493   10.4698 C   0  0  0  0  0  0  0  0  0  0  0  0
   -6.4536   -7.7158   11.2642 O   0  0  0  0  0  0  0  0  0  0  0  0
   -5.5553   -5.6459   10.8141 N   0  0  0  0  0  0  0  0  0  0  0  0
   -5.5002   -4.8209   10.1536 H   0  0  0  0  0  0  0  0  0  0  0  0
   -4.8339   -5.6400   12.0042 C   0  0  0  0  0  0  0  0  0  0  0  0
   -5.6050   -5.2220   13.2562 C   0  0  0  0  0  0  0  0  0  0  0  0
   -4.4716   -5.2743   14.2972 C   0  0  0  0  0  0  0  0  0  0  0  0
   -3.2213   -5.6030   13.5387 C   0  0  0  0  0  0  0  0  0  0  0  0
   -3.6128   -4.9183   12.1887 N   0  0  0  0  0  0  0  0  0  0  0  0
   -2.7877   -3.9365   11.6916 C   0  0  0  0  0  0  0  0  0  0  0  0
   -1.6651   -3.8174   12.4253 O   0  0  0  0  0  0  0  0  0  0  0  0
   -2.7858   -3.0028   10.6070 C   0  0  0  0  0  0  0  0  0  0  0  0
   -3.7561   -1.9702   10.5781 C   0  0  0  0  0  0  0  0  0  0  0  0
   -3.8470   -1.0651    9.5535 C   0  0  0  0  0  0  0  0  0  0  0  0
   -2.9731   -1.1397    8.4976 C   0  0  0  0  0  0  0  0  0  0  0  0
   -2.0177   -2.1045    8.4575 C   0  0  0  0  0  0  0  0  0  0  0  0
   -1.9504   -3.0130    9.5164 C   0  0  0  0  0  0  0  0  0  0  0  0
  -11.7529   -6.8877    9.0695 C   0  0  0  0  0  0  0  0  0  0  0  0
  -13.1136   -7.2775    8.7373 C   0  0  0  0  0  0  0  0  0  0  0  0
  -13.7585   -6.5127    7.7399 C   0  0  0  0  0  0  0  0  0  0  0  0
  -15.0473   -6.7838    7.3200 C   0  0  0  0  0  0  0  0  0  0  0  0
  -15.7517   -7.8215    7.8671 C   0  0  0  0  0  0  0  0  0  0  0  0
  -15.1412   -8.5697    8.8340 C   0  0  0  0  0  0  0  0  0  0  0  0
  -13.8228   -8.2948    9.2676 C   0  0  0  0  0  0  0  0  0  0  0  0
  -13.3416   -9.0751   10.2356 F   0  0  0  0  0  0  0  0  0  0  0  0
  -17.1251   -8.1108    7.4153 C   0  0  0  0  0  0  0  0  0  0  0  0
  -18.2571   -8.0613    8.1831 C   0  0  0  0  0  0  0  0  0  0  0  0
  -19.4172   -8.3701    7.5869 C   0  0  0  0  0  0  0  0  0  0  0  0
  -19.3733   -8.7089    6.2624 C   0  0  0  0  0  0  0  0  0  0  0  0
  -17.7118   -8.5846    5.8921 S   0  0  0  0  0  0  0  0  0  0  0  0
  1  2  1  0  0  0
  2  3  2  0  0  0
  3  4  1  0  0  0
  4  5  2  0  0  0
  5  6  1  0  0  0
  6  7  2  0  0  0
  7  8  1  0  0  0
  8  9  2  0  0  0
  9 10  1  0  0  0
 10 28  1  0  0  0
 28 29  1  0  0  0
 29 30  2  0  0  0
 30 31  1  0  0  0
 31 32  2  0  0  0
 32 33  1  0  0  0
 33 34  2  0  0  0
 34 35  1  0  0  0
 32 36  1  0  0  0
 36 37  2  0  0  0
 37 38  1  0  0  0
 38 39  2  0  0  0
 39 40  1  0  0  0
  7 11  1  0  0  0
 11 12  2  0  0  0
 11 13  1  0  0  0
 13 15  1  0  0  0
 15 16  1  0  0  0
 16 17  1  0  0  0
 17 18  1  0  0  0
 18 19  1  0  0  0
 19 20  1  0  0  0
 20 21  2  0  0  0
 20 22  1  0  0  0
 22 23  2  0  0  0
 23 24  1  0  0  0
 24 25  2  0  0  0
 25 26  1  0  0  0
 26 27  2  0  0  0
 10  2  1  0  0  0
 34 29  1  0  0  0
 40 36  1  0  0  0
 19 15  1  0  0  0
 27 22  1  0  0  0
  9  4  1  0  0  0
 13 14  1  0  0  0
M  END
> <minimizedAffinity>
8.41576

> <CNNscore>
0.3747627437

> <CNNaffinity>
6.9087471962

> <CNN_VS>
2.5891411304

> <CNNaffinity_variance>
1.7538408041

$$$$
[H]c1sc(-c2c([H])c([H])c(C([H])([H])n3c(C([H])([H])[H])nc4c([H])c([H])c(C(=O)N([H])[C@@]5([H])N(C(=O)c6c([H])c([H])c([H])c([H])c6[H])C([H])([H])C([H])([H])C5([H])[H])c([H])c43)c(F)c2[H])c([H])c1[H]


 40 45  0  0  0  0  0  0  0  0999 V2000
  -12.6713   -9.1480    7.7299 C   0  0  0  0  0  0  0  0  0  0  0  0
  -11.3098   -8.5558    7.6355 C   0  0  0  0  0  0  0  0  0  0  0  0
  -11.0603   -7.2441    7.7162 N   0  0  0  0  0  0  0  0  0  0  0  0
   -9.7338   -7.0501    7.5987 C   0  0  0  0  0  0  0  0  0  0  0  0
   -8.9536   -5.8981    7.6251 C   0  0  0  0  0  0  0  0  0  0  0  0
   -7.6006   -6.0004    7.4964 C   0  0  0  0  0  0  0  0  0  0  0  0
   -6.9914   -7.2204    7.3418 C   0  0  0  0  0  0  0  0  0  0  0  0
   -7.7992   -8.3358    7.3211 C   0  0  0  0  0  0  0  0  0  0  0  0
   -9.1792   -8.3089    7.4429 C   0  0  0  0  0  0  0  0  0  0  0  0
  -10.1543   -9.2428    7.4635 N   0  0  0  0  0  0  0  0  0  0  0  0
   -5.5453   -7.3546    7.1614 C   0  0  0  0  0  0  0  0  0  0  0  0
   -5.0575   -8.5054    7.0835 O   0  0  0  0  0  0  0  0  0  0  0  0
   -4.6515   -6.2406    7.0697 N   0  0  0  0  0  0  0  0  0  0  0  0
   -5.0486   -5.2619    7.1355 H   0  0  0  0  0  0  0  0  0  0  0  0
   -3.2813   -6.4322    6.9187 C   0  0  0  0  0  0  0  0  0  0  0  0
   -2.5092   -6.7953    8.1870 C   0  0  0  0  0  0  0  0  0  0  0  0
   -1.0772   -6.8425    7.6229 C   0  0  0  0  0  0  0  0  0  0  0  0
   -1.1786   -6.4228    6.1876 C   0  0  0  0  0  0  0  0  0  0  0  0
   -2.4034   -5.4630    6.3391 N   0  0  0  0  0  0  0  0  0  0  0  0
   -2.2553   -4.1504    5.9559 C   0  0  0  0  0  0  0  0  0  0  0  0
   -1.0614   -3.9391    5.3705 O   0  0  0  0  0  0  0  0  0  0  0  0
   -3.0180   -2.9403    6.0027 C   0  0  0  0  0  0  0  0  0  0  0  0
   -3.7179   -2.5156    4.8458 C   0  0  0  0  0  0  0  0  0  0  0  0
   -4.4338   -1.3484    4.7978 C   0  0  0  0  0  0  0  0  0  0  0  0
   -4.4916   -0.5373    5.9036 C   0  0  0  0  0  0  0  0  0  0  0  0
   -3.8439   -0.8802    7.0474 C   0  0  0  0  0  0  0  0  0  0  0  0
   -3.1220   -2.0760    7.0655 C   0  0  0  0  0  0  0  0  0  0  0  0
   -9.9757  -10.6656    7.3857 C   0  0  0  0  0  0  0  0  0  0  0  0
   -9.5332  -11.2332    6.1224 C   0  0  0  0  0  0  0  0  0  0  0  0
   -9.1318  -10.3130    5.1286 C   0  0  0  0  0  0  0  0  0  0  0  0
   -8.6773  -10.7184    3.8877 C   0  0  0  0  0  0  0  0  0  0  0  0
   -8.6000  -12.0488    3.5775 C   0  0  0  0  0  0  0  0  0  0  0  0
   -8.9860  -12.9510    4.5286 C   0  0  0  0  0  0  0  0  0  0  0  0
   -9.4529  -12.5403    5.7995 C   0  0  0  0  0  0  0  0  0  0  0  0
   -9.8270  -13.5089    6.6357 F   0  0  0  0  0  0  0  0  0  0  0  0
   -8.1119  -12.4790    2.2544 C   0  0  0  0  0  0  0  0  0  0  0  0
   -7.8247  -13.7625    1.8756 C   0  0  0  0  0  0  0  0  0  0  0  0
   -7.3808  -13.9486    0.6245 C   0  0  0  0  0  0  0  0  0  0  0  0
   -7.2516  -12.8416   -0.1684 C   0  0  0  0  0  0  0  0  0  0  0  0
   -7.7552  -11.5756    0.8595 S   0  0  0  0  0  0  0  0  0  0  0  0
  1  2  1  0  0  0
  2  3  2  0  0  0
  3  4  1  0  0  0
  4  5  2  0  0  0
  5  6  1  0  0  0
  6  7  2  0  0  0
  7  8  1  0  0  0
  8  9  2  0  0  0
  9 10  1  0  0  0
 10 28  1  0  0  0
 28 29  1  0  0  0
 29 30  2  0  0  0
 30 31  1  0  0  0
 31 32  2  0  0  0
 32 33  1  0  0  0
 33 34  2  0  0  0
 34 35  1  0  0  0
 32 36  1  0  0  0
 36 37  2  0  0  0
 37 38  1  0  0  0
 38 39  2  0  0  0
 39 40  1  0  0  0
  7 11  1  0  0  0
 11 12  2  0  0  0
 11 13  1  0  0  0
 13 15  1  0  0  0
 15 16  1  0  0  0
 16 17  1  0  0  0
 17 18  1  0  0  0
 18 19  1  0  0  0
 19 20  1  0  0  0
 20 21  2  0  0  0
 20 22  1  0  0  0
 22 23  2  0  0  0
 23 24  1  0  0  0
 24 25  2  0  0  0
 25 26  1  0  0  0
 26 27  2  0  0  0
 10  2  1  0  0  0
 34 29  1  0  0  0
 40 36  1  0  0  0
 19 15  1  0  0  0
 27 22  1  0  0  0
  9  4  1  0  0  0
 13 14  1  0  0  0
M  END
> <minimizedAffinity>
9.48320

> <CNNscore>
0.3734033108

> <CNNaffinity>
6.8343210220

> <CNN_VS>
2.5519580841

> <CNNaffinity_variance>
0.4568060040

$$$$
[H]c1sc(-c2c([H])c([H])c(C([H])([H])n3c(C([H])([H])[H])nc4c([H])c([H])c(C(=O)N([H])[C@@]5([H])N(C(=O)c6c([H])c([H])c([H])c([H])c6[H])C([H])([H])C([H])([H])C5([H])[H])c([H])c43)c(F)c2[H])c([H])c1[H]


 40 45  0  0  0  0  0  0  0  0999 V2000
   -9.5955   -8.4003    5.7912 C   0  0  0  0  0  0  0  0  0  0  0  0
   -8.6180   -7.9057    6.7978 C   0  0  0  0  0  0  0  0  0  0  0  0
   -7.3997   -7.4467    6.4906 N   0  0  0  0  0  0  0  0  0  0  0  0
   -6.7799   -7.0770    7.6265 C   0  0  0  0  0  0  0  0  0  0  0  0
   -5.5226   -6.5316    7.8681 C   0  0  0  0  0  0  0  0  0  0  0  0
   -5.1550   -6.2321    9.1460 C   0  0  0  0  0  0  0  0  0  0  0  0
   -6.0029   -6.4577   10.2012 C   0  0  0  0  0  0  0  0  0  0  0  0
   -7.2380   -6.9983    9.9193 C   0  0  0  0  0  0  0  0  0  0  0  0
   -7.6789   -7.3304    8.6484 C   0  0  0  0  0  0  0  0  0  0  0  0
   -8.8175   -7.8458    8.1370 N   0  0  0  0  0  0  0  0  0  0  0  0
   -5.6178   -6.1826   11.5860 C   0  0  0  0  0  0  0  0  0  0  0  0
   -5.6698   -7.1178   12.4173 O   0  0  0  0  0  0  0  0  0  0  0  0
   -5.1842   -4.8993   12.0478 N   0  0  0  0  0  0  0  0  0  0  0  0
   -5.1368   -4.0987   11.3575 H   0  0  0  0  0  0  0  0  0  0  0  0
   -4.8502   -4.6939   13.3831 C   0  0  0  0  0  0  0  0  0  0  0  0
   -5.8676   -3.9177   14.2192 C   0  0  0  0  0  0  0  0  0  0  0  0
   -5.1127   -3.8468   15.5594 C   0  0  0  0  0  0  0  0  0  0  0  0
   -3.7723   -4.4728   15.3185 C   0  0  0  0  0  0  0  0  0  0  0  0
   -3.6300   -4.0826   13.8112 N   0  0  0  0  0  0  0  0  0  0  0  0
   -2.5394   -3.3358   13.4306 C   0  0  0  0  0  0  0  0  0  0  0  0
   -1.6757   -3.1692   14.4499 O   0  0  0  0  0  0  0  0  0  0  0  0
   -2.0611   -2.6848   12.2493 C   0  0  0  0  0  0  0  0  0  0  0  0
   -2.2188   -1.2826   12.1170 C   0  0  0  0  0  0  0  0  0  0  0  0
   -1.8270   -0.5934   10.9996 C   0  0  0  0  0  0  0  0  0  0  0  0
   -1.2547   -1.2660    9.9487 C   0  0  0  0  0  0  0  0  0  0  0  0
   -1.0735   -2.6111   10.0051 C   0  0  0  0  0  0  0  0  0  0  0  0
   -1.4835   -3.2860   11.1573 C   0  0  0  0  0  0  0  0  0  0  0  0
  -10.0042   -8.1882    8.8696 C   0  0  0  0  0  0  0  0  0  0  0  0
  -11.2854   -8.0741    8.1918 C   0  0  0  0  0  0  0  0  0  0  0  0
  -11.6495   -9.1521    7.3546 C   0  0  0  0  0  0  0  0  0  0  0  0
  -12.8455   -9.1775    6.6621 C   0  0  0  0  0  0  0  0  0  0  0  0
  -13.7312   -8.1400    6.7684 C   0  0  0  0  0  0  0  0  0  0  0  0
  -13.3923   -7.0894    7.5740 C   0  0  0  0  0  0  0  0  0  0  0  0
  -12.1687   -7.0588    8.2835 C   0  0  0  0  0  0  0  0  0  0  0  0
  -11.9347   -5.9701    9.0165 F   0  0  0  0  0  0  0  0  0  0  0  0
  -15.0079   -8.1708    6.0313 C   0  0  0  0  0  0  0  0  0  0  0  0
  -15.1816   -8.5541    4.7289 C   0  0  0  0  0  0  0  0  0  0  0  0
  -16.4265   -8.5028    4.2347 C   0  0  0  0  0  0  0  0  0  0  0  0
  -17.4186   -8.0719    5.0720 C   0  0  0  0  0  0  0  0  0  0  0  0
  -16.5800   -7.7525    6.5239 S   0  0  0  0  0  0  0  0  0  0  0  0
  1  2  1  0  0  0
  2  3  2  0  0  0
  3  4  1  0  0  0
  4  5  2  0  0  0
  5  6  1  0  0  0
  6  7  2  0  0  0
  7  8  1  0  0  0
  8  9  2  0  0  0
  9 10  1  0  0  0
 10 28  1  0  0  0
 28 29  1  0  0  0
 29 30  2  0  0  0
 30 31  1  0  0  0
 31 32  2  0  0  0
 32 33  1  0  0  0
 33 34  2  0  0  0
 34 35  1  0  0  0
 32 36  1  0  0  0
 36 37  2  0  0  0
 37 38  1  0  0  0
 38 39  2  0  0  0
 39 40  1  0  0  0
  7 11  1  0  0  0
 11 12  2  0  0  0
 11 13  1  0  0  0
 13 15  1  0  0  0
 15 16  1  0  0  0
 16 17  1  0  0  0
 17 18  1  0  0  0
 18 19  1  0  0  0
 19 20  1  0  0  0
 20 21  2  0  0  0
 20 22  1  0  0  0
 22 23  2  0  0  0
 23 24  1  0  0  0
 24 25  2  0  0  0
 25 26  1  0  0  0
 26 27  2  0  0  0
 10  2  1  0  0  0
 34 29  1  0  0  0
 40 36  1  0  0  0
 19 15  1  0  0  0
 27 22  1  0  0  0
  9  4  1  0  0  0
 13 14  1  0  0  0
M  END
> <minimizedAffinity>
-1.07694

> <CNNscore>
0.3658189178

> <CNNaffinity>
6.7843627930

> <CNN_VS>
2.4818482399

> <CNNaffinity_variance>
1.4188032150

$$$$
[H]c1sc(-c2c([H])c([H])c(C([H])([H])n3c(C([H])([H])[H])nc4c([H])c([H])c(C(=O)N([H])[C@@]5([H])N(C(=O)c6c([H])c([H])c([H])c([H])c6[H])C([H])([H])C([H])([H])C5([H])[H])c([H])c43)c(F)c2[H])c([H])c1[H]


 40 45  0  0  0  0  0  0  0  0999 V2000
  -10.3198   -7.6920    6.2562 C   0  0  0  0  0  0  0  0  0  0  0  0
   -9.2631   -7.3636    7.2507 C   0  0  0  0  0  0  0  0  0  0  0  0
   -7.9970   -7.0788    6.9263 N   0  0  0  0  0  0  0  0  0  0  0  0
   -7.3099   -6.8251    8.0553 C   0  0  0  0  0  0  0  0  0  0  0  0
   -5.9829   -6.4714    8.2802 C   0  0  0  0  0  0  0  0  0  0  0  0
   -5.5529   -6.2536    9.5551 C   0  0  0  0  0  0  0  0  0  0  0  0
   -6.4054   -6.3758   10.6236 C   0  0  0  0  0  0  0  0  0  0  0  0
   -7.7105   -6.7272   10.3581 C   0  0  0  0  0  0  0  0  0  0  0  0
   -8.2175   -6.9667    9.0910 C   0  0  0  0  0  0  0  0  0  0  0  0
   -9.4276   -7.3024    8.5946 N   0  0  0  0  0  0  0  0  0  0  0  0
   -5.9597   -6.1868   12.0047 C   0  0  0  0  0  0  0  0  0  0  0  0
   -5.8206   -7.1976   12.7308 O   0  0  0  0  0  0  0  0  0  0  0  0
   -5.6734   -4.9066   12.5767 N   0  0  0  0  0  0  0  0  0  0  0  0
   -5.7880   -4.0430   11.9760 H   0  0  0  0  0  0  0  0  0  0  0  0
   -5.2724   -4.7887   13.9041 C   0  0  0  0  0  0  0  0  0  0  0  0
   -6.1814   -3.9585   14.8103 C   0  0  0  0  0  0  0  0  0  0  0  0
   -5.3738   -4.0131   16.1201 C   0  0  0  0  0  0  0  0  0  0  0  0
   -4.1074   -4.7484   15.8008 C   0  0  0  0  0  0  0  0  0  0  0  0
   -3.9855   -4.3100   14.3050 N   0  0  0  0  0  0  0  0  0  0  0  0
   -2.8451   -3.6507   13.9090 C   0  0  0  0  0  0  0  0  0  0  0  0
   -1.9323   -3.6067   14.8977 O   0  0  0  0  0  0  0  0  0  0  0  0
   -2.3526   -2.9973   12.7349 C   0  0  0  0  0  0  0  0  0  0  0  0
   -2.5338   -1.5991   12.5908 C   0  0  0  0  0  0  0  0  0  0  0  0
   -2.1298   -0.9087   11.4784 C   0  0  0  0  0  0  0  0  0  0  0  0
   -1.5214   -1.5760   10.4447 C   0  0  0  0  0  0  0  0  0  0  0  0
   -1.3161   -2.9171   10.5131 C   0  0  0  0  0  0  0  0  0  0  0  0
   -1.7393   -3.5933   11.6598 C   0  0  0  0  0  0  0  0  0  0  0  0
  -10.6380   -7.4850    9.3456 C   0  0  0  0  0  0  0  0  0  0  0  0
  -11.8960   -7.5309    8.6182 C   0  0  0  0  0  0  0  0  0  0  0  0
  -12.7011   -6.3720    8.6854 C   0  0  0  0  0  0  0  0  0  0  0  0
  -13.9145   -6.2773    8.0301 C   0  0  0  0  0  0  0  0  0  0  0  0
  -14.3823   -7.3226    7.2812 C   0  0  0  0  0  0  0  0  0  0  0  0
  -13.6148   -8.4509    7.2077 C   0  0  0  0  0  0  0  0  0  0  0  0
  -12.3729   -8.5525    7.8778 C   0  0  0  0  0  0  0  0  0  0  0  0
  -11.7255   -9.7114    7.7553 F   0  0  0  0  0  0  0  0  0  0  0  0
  -15.6754   -7.2181    6.5804 C   0  0  0  0  0  0  0  0  0  0  0  0
  -16.6616   -8.1669    6.5556 C   0  0  0  0  0  0  0  0  0  0  0  0
  -17.7661   -7.8860    5.8500 C   0  0  0  0  0  0  0  0  0  0  0  0
  -17.8156   -6.6760    5.2140 C   0  0  0  0  0  0  0  0  0  0  0  0
  -16.3169   -5.9690    5.6227 S   0  0  0  0  0  0  0  0  0  0  0  0
  1  2  1  0  0  0
  2  3  2  0  0  0
  3  4  1  0  0  0
  4  5  2  0  0  0
  5  6  1  0  0  0
  6  7  2  0  0  0
  7  8  1  0  0  0
  8  9  2  0  0  0
  9 10  1  0  0  0
 10 28  1  0  0  0
 28 29  1  0  0  0
 29 30  2  0  0  0
 30 31  1  0  0  0
 31 32  2  0  0  0
 32 33  1  0  0  0
 33 34  2  0  0  0
 34 35  1  0  0  0
 32 36  1  0  0  0
 36 37  2  0  0  0
 37 38  1  0  0  0
 38 39  2  0  0  0
 39 40  1  0  0  0
  7 11  1  0  0  0
 11 12  2  0  0  0
 11 13  1  0  0  0
 13 15  1  0  0  0
 15 16  1  0  0  0
 16 17  1  0  0  0
 17 18  1  0  0  0
 18 19  1  0  0  0
 19 20  1  0  0  0
 20 21  2  0  0  0
 20 22  1  0  0  0
 22 23  2  0  0  0
 23 24  1  0  0  0
 24 25  2  0  0  0
 25 26  1  0  0  0
 26 27  2  0  0  0
 10  2  1  0  0  0
 34 29  1  0  0  0
 40 36  1  0  0  0
 19 15  1  0  0  0
 27 22  1  0  0  0
  9  4  1  0  0  0
 13 14  1  0  0  0
M  END
> <minimizedAffinity>
1.56993

> <CNNscore>
0.3421656787

> <CNNaffinity>
6.5970435143

> <CNN_VS>
2.2572817802

> <CNNaffinity_variance>
0.9952636957

$$$$
[H]c1sc(-c2c([H])c([H])c(C([H])([H])n3c(C([H])([H])[H])nc4c([H])c([H])c(C(=O)N([H])[C@@]5([H])N(C(=O)c6c([H])c([H])c([H])c([H])c6[H])C([H])([H])C([H])([H])C5([H])[H])c([H])c43)c(F)c2[H])c([H])c1[H]


 40 45  0  0  0  0  0  0  0  0999 V2000
  -12.4055   -9.7763    6.7794 C   0  0  0  0  0  0  0  0  0  0  0  0
  -11.3336   -8.9105    7.3404 C   0  0  0  0  0  0  0  0  0  0  0  0
  -11.5145   -7.6318    7.6890 N   0  0  0  0  0  0  0  0  0  0  0  0
  -10.3522   -7.1459    8.1623 C   0  0  0  0  0  0  0  0  0  0  0  0
   -9.9981   -5.8966    8.6627 C   0  0  0  0  0  0  0  0  0  0  0  0
   -8.7242   -5.6842    9.0981 C   0  0  0  0  0  0  0  0  0  0  0  0
   -7.7819   -6.6810    9.0533 C   0  0  0  0  0  0  0  0  0  0  0  0
   -8.1730   -7.9026    8.5513 C   0  0  0  0  0  0  0  0  0  0  0  0
   -9.4468   -8.1907    8.0886 C   0  0  0  0  0  0  0  0  0  0  0  0
  -10.0526   -9.2841    7.5777 N   0  0  0  0  0  0  0  0  0  0  0  0
   -6.3975   -6.4676    9.4769 C   0  0  0  0  0  0  0  0  0  0  0  0
   -5.9036   -7.2506   10.3202 O   0  0  0  0  0  0  0  0  0  0  0  0
   -5.5715   -5.4090    8.9814 N   0  0  0  0  0  0  0  0  0  0  0  0
   -5.9754   -4.7382    8.2696 H   0  0  0  0  0  0  0  0  0  0  0  0
   -4.2673   -5.2445    9.4381 C   0  0  0  0  0  0  0  0  0  0  0  0
   -3.6016   -3.9092    9.1056 C   0  0  0  0  0  0  0  0  0  0  0  0
   -2.2021   -4.1540    9.6994 C   0  0  0  0  0  0  0  0  0  0  0  0
   -2.1974   -5.5701   10.1904 C   0  0  0  0  0  0  0  0  0  0  0  0
   -3.2031   -6.1543    9.1455 N   0  0  0  0  0  0  0  0  0  0  0  0
   -2.7858   -7.1957    8.3496 C   0  0  0  0  0  0  0  0  0  0  0  0
   -1.5665   -7.6362    8.7129 O   0  0  0  0  0  0  0  0  0  0  0  0
   -3.2867   -7.9479    7.2400 C   0  0  0  0  0  0  0  0  0  0  0  0
   -2.3863   -8.7101    6.4547 C   0  0  0  0  0  0  0  0  0  0  0  0
   -2.7810   -9.4213    5.3521 C   0  0  0  0  0  0  0  0  0  0  0  0
   -4.0993   -9.4116    4.9699 C   0  0  0  0  0  0  0  0  0  0  0  0
   -5.0185   -8.7018    5.6747 C   0  0  0  0  0  0  0  0  0  0  0  0
   -4.5855   -7.9866    6.7937 C   0  0  0  0  0  0  0  0  0  0  0  0
   -9.4624  -10.5806    7.3958 C   0  0  0  0  0  0  0  0  0  0  0  0
   -9.0443  -10.9619    6.0565 C   0  0  0  0  0  0  0  0  0  0  0  0
   -9.3739  -12.2731    5.6468 C   0  0  0  0  0  0  0  0  0  0  0  0
   -9.0475  -12.7591    4.3946 C   0  0  0  0  0  0  0  0  0  0  0  0
   -8.3830  -11.9702    3.4955 C   0  0  0  0  0  0  0  0  0  0  0  0
   -8.0564  -10.6995    3.8780 C   0  0  0  0  0  0  0  0  0  0  0  0
   -8.3875  -10.1986    5.1591 C   0  0  0  0  0  0  0  0  0  0  0  0
   -7.9937   -8.9540    5.4296 F   0  0  0  0  0  0  0  0  0  0  0  0
   -8.0387  -12.4896    2.1592 C   0  0  0  0  0  0  0  0  0  0  0  0
   -7.8873  -11.7500    1.0175 C   0  0  0  0  0  0  0  0  0  0  0  0
   -7.5806  -12.4122   -0.1068 C   0  0  0  0  0  0  0  0  0  0  0  0
   -7.4450  -13.7705   -0.0199 C   0  0  0  0  0  0  0  0  0  0  0  0
   -7.7499  -14.0791    1.6309 S   0  0  0  0  0  0  0  0  0  0  0  0
  1  2  1  0  0  0
  2  3  2  0  0  0
  3  4  1  0  0  0
  4  5  2  0  0  0
  5  6  1  0  0  0
  6  7  2  0  0  0
  7  8  1  0  0  0
  8  9  2  0  0  0
  9 10  1  0  0  0
 10 28  1  0  0  0
 28 29  1  0  0  0
 29 30  2  0  0  0
 30 31  1  0  0  0
 31 32  2  0  0  0
 32 33  1  0  0  0
 33 34  2  0  0  0
 34 35  1  0  0  0
 32 36  1  0  0  0
 36 37  2  0  0  0
 37 38  1  0  0  0
 38 39  2  0  0  0
 39 40  1  0  0  0
  7 11  1  0  0  0
 11 12  2  0  0  0
 11 13  1  0  0  0
 13 15  1  0  0  0
 15 16  1  0  0  0
 16 17  1  0  0  0
 17 18  1  0  0  0
 18 19  1  0  0  0
 19 20  1  0  0  0
 20 21  2  0  0  0
 20 22  1  0  0  0
 22 23  2  0  0  0
 23 24  1  0  0  0
 24 25  2  0  0  0
 25 26  1  0  0  0
 26 27  2  0  0  0
 10  2  1  0  0  0
 34 29  1  0  0  0
 40 36  1  0  0  0
 19 15  1  0  0  0
 27 22  1  0  0  0
  9  4  1  0  0  0
 13 14  1  0  0  0
M  END
> <minimizedAffinity>
16.64478

> <CNNscore>
0.3342144489

> <CNNaffinity>
6.6338815689

> <CNN_VS>
2.2171390057

> <CNNaffinity_variance>
0.7346623540

$$$$
[H]c1nc([H])c2c(c1[H])c1c3c(c4c5c([H])c([H])c([H])c([H])c5n5c4c1n2[C@]1([H])O[C@@]5(C([H])([H])[H])[C@]([H])(OC([H])([H])[H])[C@]([H])(N([H])C([H])([H])[H])C1([H])[H])C([H])([H])N([H])C3=O


 37 44  0  0  0  0  0  0  0  0999 V2000
   -9.2964   -7.1103    9.3876 C   0  0  0  0  0  0  0  0  0  0  0  0
   -8.2219   -6.6983   10.2913 C   0  0  0  0  0  0  0  0  0  0  0  0
   -6.9845   -7.5491   10.3008 C   0  0  0  0  0  0  0  0  0  0  0  0
   -6.9923   -8.6781    9.6509 O   0  0  0  0  0  0  0  0  0  0  0  0
   -7.7006   -8.8795    8.4649 C   0  0  0  0  0  0  0  0  0  0  0  0
   -7.6919  -10.4201    8.3920 C   0  0  0  0  0  0  0  0  0  0  0  0
   -9.0556   -8.4048    8.6552 C   0  0  0  0  0  0  0  0  0  0  0  0
   -6.9405   -8.3239    7.3541 N   0  0  0  0  0  0  0  0  0  0  0  0
   -6.9872   -8.6846    6.0726 C   0  0  0  0  0  0  0  0  0  0  0  0
   -7.7283   -9.5998    5.3800 C   0  0  0  0  0  0  0  0  0  0  0  0
   -7.5808   -9.7817    4.0253 C   0  0  0  0  0  0  0  0  0  0  0  0
   -6.6616   -9.0362    3.2851 C   0  0  0  0  0  0  0  0  0  0  0  0
   -5.9146   -8.1163    3.9701 C   0  0  0  0  0  0  0  0  0  0  0  0
   -6.0722   -7.9454    5.3216 C   0  0  0  0  0  0  0  0  0  0  0  0
   -5.4516   -7.1018    6.2020 C   0  0  0  0  0  0  0  0  0  0  0  0
   -4.4537   -6.1431    6.0494 C   0  0  0  0  0  0  0  0  0  0  0  0
   -3.7228   -5.7099    4.8356 C   0  0  0  0  0  0  0  0  0  0  0  0
   -2.8064   -4.6949    5.2394 N   0  0  0  0  0  0  0  0  0  0  0  0
   -2.9465   -4.4945    6.6456 C   0  0  0  0  0  0  0  0  0  0  0  0
   -2.2628   -3.6674    7.2451 O   0  0  0  0  0  0  0  0  0  0  0  0
   -3.9706   -5.4000    7.1261 C   0  0  0  0  0  0  0  0  0  0  0  0
   -4.5422   -5.6701    8.3577 C   0  0  0  0  0  0  0  0  0  0  0  0
   -4.3517   -5.1571    9.6227 C   0  0  0  0  0  0  0  0  0  0  0  0
   -3.5207   -4.1976   10.1380 C   0  0  0  0  0  0  0  0  0  0  0  0
   -3.5976   -3.9264   11.4953 C   0  0  0  0  0  0  0  0  0  0  0  0
   -4.4562   -4.5754   12.3002 N   0  0  0  0  0  0  0  0  0  0  0  0
   -5.2872   -5.5283   11.8111 C   0  0  0  0  0  0  0  0  0  0  0  0
   -5.2298   -5.8116   10.4820 C   0  0  0  0  0  0  0  0  0  0  0  0
   -5.9289   -6.6874    9.7807 N   0  0  0  0  0  0  0  0  0  0  0  0
   -5.5472   -6.6370    8.5037 C   0  0  0  0  0  0  0  0  0  0  0  0
   -6.0051   -7.3630    7.4078 C   0  0  0  0  0  0  0  0  0  0  0  0
   -2.1567   -4.2045    4.5783 H   0  0  0  0  0  0  0  0  0  0  0  0
  -10.7397   -5.2438    8.9801 C   0  0  0  0  0  0  0  0  0  0  0  0
   -9.6443   -6.0286    8.4374 N   0  0  0  0  0  0  0  0  0  0  0  0
   -8.8249   -5.4186    8.3134 H   0  0  0  0  0  0  0  0  0  0  0  0
   -9.8593   -8.2841    7.5255 O   0  0  0  0  0  0  0  0  0  0  0  0
  -10.9943   -9.0623    7.5246 C   0  0  0  0  0  0  0  0  0  0  0  0
 33 34  1  0  0  0
 34  1  1  0  0  0
  1  2  1  0  0  0
  2  3  1  0  0  0
  3  4  1  0  0  0
  4  5  1  0  0  0
  5  6  1  0  0  0
  5  7  1  0  0  0
  7 36  1  0  0  0
 36 37  1  0  0  0
  5  8  1  0  0  0
  8  9  1  0  0  0
  9 10  2  0  0  0
 10 11  1  0  0  0
 11 12  2  0  0  0
 12 13  1  0  0  0
 13 14  2  0  0  0
 14 15  1  0  0  0
 15 16  2  0  0  0
 16 17  1  0  0  0
 17 18  1  0  0  0
 18 19  1  0  0  0
 19 20  2  0  0  0
 19 21  1  0  0  0
 21 22  2  0  0  0
 22 23  1  0  0  0
 23 24  2  0  0  0
 24 25  1  0  0  0
 25 26  2  0  0  0
 26 27  1  0  0  0
 27 28  2  0  0  0
 28 29  1  0  0  0
 29 30  1  0  0  0
 30 31  2  0  0  0
  7  1  1  0  0  0
 31  8  1  0  0  0
 29  3  1  0  0  0
 14  9  1  0  0  0
 31 15  1  0  0  0
 21 16  1  0  0  0
 30 22  1  0  0  0
 28 23  1  0  0  0
 34 35  1  0  0  0
 18 32  1  0  0  0
M  END
> <minimizedAffinity>
12.33716

> <CNNscore>
0.2825963497

> <CNNaffinity>
6.1607732773

> <CNN_VS>
1.7410120964

> <CNNaffinity_variance>
0.8846693039

$$$$
[H]c1nc([H])c2c(c1[H])c1c3c(c4c5c([H])c([H])c([H])c([H])c5n5c4c1n2[C@]1([H])O[C@@]5(C([H])([H])[H])[C@]([H])(OC([H])([H])[H])[C@]([H])(N([H])C([H])([H])[H])C1([H])[H])C([H])([H])N([H])C3=O


 37 44  0  0  0  0  0  0  0  0999 V2000
   -3.6523   -4.7931    5.9164 C   0  0  0  0  0  0  0  0  0  0  0  0
   -4.5563   -5.9425    5.8652 C   0  0  0  0  0  0  0  0  0  0  0  0
   -4.2321   -7.0971    6.7689 C   0  0  0  0  0  0  0  0  0  0  0  0
   -3.0987   -7.0941    7.4113 O   0  0  0  0  0  0  0  0  0  0  0  0
   -2.4825   -5.9329    7.8811 C   0  0  0  0  0  0  0  0  0  0  0  0
   -1.0601   -6.4625    8.1556 C   0  0  0  0  0  0  0  0  0  0  0  0
   -2.4467   -4.9661    6.8034 C   0  0  0  0  0  0  0  0  0  0  0  0
   -3.1131   -5.5288    9.1298 N   0  0  0  0  0  0  0  0  0  0  0  0
   -2.5805   -4.8113   10.1177 C   0  0  0  0  0  0  0  0  0  0  0  0
   -1.3673   -4.2078   10.2929 C   0  0  0  0  0  0  0  0  0  0  0  0
   -1.0599   -3.5080   11.4356 C   0  0  0  0  0  0  0  0  0  0  0  0
   -1.9769   -3.3778   12.4801 C   0  0  0  0  0  0  0  0  0  0  0  0
   -3.1954   -3.9786   12.3137 C   0  0  0  0  0  0  0  0  0  0  0  0
   -3.4885   -4.6737   11.1684 C   0  0  0  0  0  0  0  0  0  0  0  0
   -4.6185   -5.3425   10.7842 C   0  0  0  0  0  0  0  0  0  0  0  0
   -5.8448   -5.5622   11.4057 C   0  0  0  0  0  0  0  0  0  0  0  0
   -6.3374   -5.1179   12.7305 C   0  0  0  0  0  0  0  0  0  0  0  0
   -7.6653   -5.6177   12.8718 N   0  0  0  0  0  0  0  0  0  0  0  0
   -7.9998   -6.3486   11.6923 C   0  0  0  0  0  0  0  0  0  0  0  0
   -9.0975   -6.8864   11.5629 O   0  0  0  0  0  0  0  0  0  0  0  0
   -6.8599   -6.3013   10.7990 C   0  0  0  0  0  0  0  0  0  0  0  0
   -6.5783   -6.8039    9.5402 C   0  0  0  0  0  0  0  0  0  0  0  0
   -7.3014   -7.5514    8.6358 C   0  0  0  0  0  0  0  0  0  0  0  0
   -8.5629   -8.0857    8.6459 C   0  0  0  0  0  0  0  0  0  0  0  0
   -8.9787   -8.8016    7.5341 C   0  0  0  0  0  0  0  0  0  0  0  0
   -8.1820   -8.9783    6.4662 N   0  0  0  0  0  0  0  0  0  0  0  0
   -6.9304   -8.4584    6.4354 C   0  0  0  0  0  0  0  0  0  0  0  0
   -6.5003   -7.7519    7.5152 C   0  0  0  0  0  0  0  0  0  0  0  0
   -5.3376   -7.1565    7.7184 N   0  0  0  0  0  0  0  0  0  0  0  0
   -5.3410   -6.5782    8.9203 C   0  0  0  0  0  0  0  0  0  0  0  0
   -4.3480   -5.8376    9.5552 C   0  0  0  0  0  0  0  0  0  0  0  0
   -8.2600   -5.4511   13.7192 H   0  0  0  0  0  0  0  0  0  0  0  0
   -4.4537   -2.6935    5.0901 C   0  0  0  0  0  0  0  0  0  0  0  0
   -4.3812   -3.5505    6.2610 N   0  0  0  0  0  0  0  0  0  0  0  0
   -5.3361   -3.7959    6.5557 H   0  0  0  0  0  0  0  0  0  0  0  0
   -2.0993   -3.6574    7.1248 O   0  0  0  0  0  0  0  0  0  0  0  0
   -1.0924   -3.1113    6.3619 C   0  0  0  0  0  0  0  0  0  0  0  0
 33 34  1  0  0  0
 34  1  1  0  0  0
  1  2  1  0  0  0
  2  3  1  0  0  0
  3  4  1  0  0  0
  4  5  1  0  0  0
  5  6  1  0  0  0
  5  7  1  0  0  0
  7 36  1  0  0  0
 36 37  1  0  0  0
  5  8  1  0  0  0
  8  9  1  0  0  0
  9 10  2  0  0  0
 10 11  1  0  0  0
 11 12  2  0  0  0
 12 13  1  0  0  0
 13 14  2  0  0  0
 14 15  1  0  0  0
 15 16  2  0  0  0
 16 17  1  0  0  0
 17 18  1  0  0  0
 18 19  1  0  0  0
 19 20  2  0  0  0
 19 21  1  0  0  0
 21 22  2  0  0  0
 22 23  1  0  0  0
 23 24  2  0  0  0
 24 25  1  0  0  0
 25 26  2  0  0  0
 26 27  1  0  0  0
 27 28  2  0  0  0
 28 29  1  0  0  0
 29 30  1  0  0  0
 30 31  2  0  0  0
  7  1  1  0  0  0
 31  8  1  0  0  0
 29  3  1  0  0  0
 14  9  1  0  0  0
 31 15  1  0  0  0
 21 16  1  0  0  0
 30 22  1  0  0  0
 28 23  1  0  0  0
 34 35  1  0  0  0
 18 32  1  0  0  0
M  END
> <minimizedAffinity>
9.63493

> <CNNscore>
0.2761748135

> <CNNaffinity>
5.7556562424

> <CNN_VS>
1.5895673037

> <CNNaffinity_variance>
0.4509511590

$$$$
[H]c1nc([H])c2c(c1[H])c1c3c(c4c5c([H])c([H])c([H])c([H])c5n5c4c1n2[C@]1([H])O[C@@]5(C([H])([H])[H])[C@]([H])(OC([H])([H])[H])[C@]([H])(N([H])C([H])([H])[H])C1([H])[H])C([H])([H])N([H])C3=O


 37 44  0  0  0  0  0  0  0  0999 V2000
  -13.5116   -6.8244   11.0818 C   0  0  0  0  0  0  0  0  0  0  0  0
  -14.1741   -6.9137    9.7801 C   0  0  0  0  0  0  0  0  0  0  0  0
  -13.5400   -6.1596    8.6469 C   0  0  0  0  0  0  0  0  0  0  0  0
  -12.5560   -5.3458    8.9054 O   0  0  0  0  0  0  0  0  0  0  0  0
  -11.6177   -5.5677    9.9149 C   0  0  0  0  0  0  0  0  0  0  0  0
  -10.9962   -4.1609   10.0332 C   0  0  0  0  0  0  0  0  0  0  0  0
  -12.3269   -5.8950   11.1345 C   0  0  0  0  0  0  0  0  0  0  0  0
  -10.6193   -6.5150    9.4396 N   0  0  0  0  0  0  0  0  0  0  0  0
   -9.3584   -6.6453    9.8492 C   0  0  0  0  0  0  0  0  0  0  0  0
   -8.6127   -6.0218   10.8093 C   0  0  0  0  0  0  0  0  0  0  0  0
   -7.2980   -6.3517   11.0393 C   0  0  0  0  0  0  0  0  0  0  0  0
   -6.6553   -7.3458   10.2995 C   0  0  0  0  0  0  0  0  0  0  0  0
   -7.3944   -7.9766    9.3354 C   0  0  0  0  0  0  0  0  0  0  0  0
   -8.7050   -7.6373    9.1168 C   0  0  0  0  0  0  0  0  0  0  0  0
   -9.6253   -8.1217    8.2279 C   0  0  0  0  0  0  0  0  0  0  0  0
   -9.5624   -9.1026    7.2418 C   0  0  0  0  0  0  0  0  0  0  0  0
   -8.4359   -9.9726    6.8304 C   0  0  0  0  0  0  0  0  0  0  0  0
   -8.9121  -10.8001    5.7714 N   0  0  0  0  0  0  0  0  0  0  0  0
  -10.2774  -10.4689    5.5194 C   0  0  0  0  0  0  0  0  0  0  0  0
  -10.9239  -11.0425    4.6454 O   0  0  0  0  0  0  0  0  0  0  0  0
  -10.6593   -9.4171    6.4400 C   0  0  0  0  0  0  0  0  0  0  0  0
  -11.8169   -8.6977    6.6821 C   0  0  0  0  0  0  0  0  0  0  0  0
  -13.0787   -8.7198    6.1280 C   0  0  0  0  0  0  0  0  0  0  0  0
  -13.6576   -9.4522    5.1253 C   0  0  0  0  0  0  0  0  0  0  0  0
  -14.9875   -9.2068    4.8206 C   0  0  0  0  0  0  0  0  0  0  0  0
  -15.7061   -8.2809    5.4782 N   0  0  0  0  0  0  0  0  0  0  0  0
  -15.1530   -7.5451    6.4734 C   0  0  0  0  0  0  0  0  0  0  0  0
  -13.8492   -7.7682    6.7903 C   0  0  0  0  0  0  0  0  0  0  0  0
  -13.0985   -7.1861    7.7095 N   0  0  0  0  0  0  0  0  0  0  0  0
  -11.8729   -7.7115    7.6774 C   0  0  0  0  0  0  0  0  0  0  0  0
  -10.7583   -7.4205    8.4588 C   0  0  0  0  0  0  0  0  0  0  0  0
   -8.3216  -11.5190    5.2875 H   0  0  0  0  0  0  0  0  0  0  0  0
  -13.2347   -9.1337   10.5126 C   0  0  0  0  0  0  0  0  0  0  0  0
  -13.1471   -8.1661   11.5928 N   0  0  0  0  0  0  0  0  0  0  0  0
  -12.1785   -8.1382   11.9392 H   0  0  0  0  0  0  0  0  0  0  0  0
  -11.5806   -6.3929   12.1984 O   0  0  0  0  0  0  0  0  0  0  0  0
  -11.3977   -5.5216   13.2479 C   0  0  0  0  0  0  0  0  0  0  0  0
 33 34  1  0  0  0
 34  1  1  0  0  0
  1  2  1  0  0  0
  2  3  1  0  0  0
  3  4  1  0  0  0
  4  5  1  0  0  0
  5  6  1  0  0  0
  5  7  1  0  0  0
  7 36  1  0  0  0
 36 37  1  0  0  0
  5  8  1  0  0  0
  8  9  1  0  0  0
  9 10  2  0  0  0
 10 11  1  0  0  0
 11 12  2  0  0  0
 12 13  1  0  0  0
 13 14  2  0  0  0
 14 15  1  0  0  0
 15 16  2  0  0  0
 16 17  1  0  0  0
 17 18  1  0  0  0
 18 19  1  0  0  0
 19 20  2  0  0  0
 19 21  1  0  0  0
 21 22  2  0  0  0
 22 23  1  0  0  0
 23 24  2  0  0  0
 24 25  1  0  0  0
 25 26  2  0  0  0
 26 27  1  0  0  0
 27 28  2  0  0  0
 28 29  1  0  0  0
 29 30  1  0  0  0
 30 31  2  0  0  0
  7  1  1  0  0  0
 31  8  1  0  0  0
 29  3  1  0  0  0
 14  9  1  0  0  0
 31 15  1  0  0  0
 21 16  1  0  0  0
 30 22  1  0  0  0
 28 23  1  0  0  0
 34 35  1  0  0  0
 18 32  1  0  0  0
M  END
> <minimizedAffinity>
19.37407

> <CNNscore>
0.2667348087

> <CNNaffinity>
6.5583624840

> <CNN_VS>
1.7493435144

> <CNNaffinity_variance>
0.2484173328

$$$$
[H]c1nc([H])c2c(c1[H])c1c3c(c4c5c([H])c([H])c([H])c([H])c5n5c4c1n2[C@]1([H])O[C@@]5(C([H])([H])[H])[C@]([H])(OC([H])([H])[H])[C@]([H])(N([H])C([H])([H])[H])C1([H])[H])C([H])([H])N([H])C3=O


 37 44  0  0  0  0  0  0  0  0999 V2000
  -12.0874   -6.8856    9.8467 C   0  0  0  0  0  0  0  0  0  0  0  0
  -11.2558   -7.9730    9.3299 C   0  0  0  0  0  0  0  0  0  0  0  0
  -11.9331   -9.2950    9.1102 C   0  0  0  0  0  0  0  0  0  0  0  0
  -13.1527   -9.4560    9.5392 O   0  0  0  0  0  0  0  0  0  0  0  0
  -14.1015   -8.4323    9.5657 C   0  0  0  0  0  0  0  0  0  0  0  0
  -15.1528   -9.0498   10.5104 C   0  0  0  0  0  0  0  0  0  0  0  0
  -13.5033   -7.2703   10.1896 C   0  0  0  0  0  0  0  0  0  0  0  0
  -14.6647   -8.2682    8.2330 N   0  0  0  0  0  0  0  0  0  0  0  0
  -15.8608   -7.7804    7.9074 C   0  0  0  0  0  0  0  0  0  0  0  0
  -16.8944   -7.2621    8.6351 C   0  0  0  0  0  0  0  0  0  0  0  0
  -18.0515   -6.8158    8.0416 C   0  0  0  0  0  0  0  0  0  0  0  0
  -18.2295   -6.8700    6.6581 C   0  0  0  0  0  0  0  0  0  0  0  0
  -17.1991   -7.3874    5.9204 C   0  0  0  0  0  0  0  0  0  0  0  0
  -16.0505   -7.8289    6.5257 C   0  0  0  0  0  0  0  0  0  0  0  0
  -14.9081   -8.3718    6.0041 C   0  0  0  0  0  0  0  0  0  0  0  0
  -14.5130   -8.6742    4.7038 C   0  0  0  0  0  0  0  0  0  0  0  0
  -15.2299   -8.4902    3.4204 C   0  0  0  0  0  0  0  0  0  0  0  0
  -14.3691   -8.9671    2.3886 N   0  0  0  0  0  0  0  0  0  0  0  0
  -13.1620   -9.4355    2.9892 C   0  0  0  0  0  0  0  0  0  0  0  0
  -12.2494   -9.9024    2.3109 O   0  0  0  0  0  0  0  0  0  0  0  0
  -13.2722   -9.2447    4.4213 C   0  0  0  0  0  0  0  0  0  0  0  0
  -12.4538   -9.4926    5.5100 C   0  0  0  0  0  0  0  0  0  0  0  0
  -11.1875  -10.0206    5.6417 C   0  0  0  0  0  0  0  0  0  0  0  0
  -10.2690  -10.5070    4.7492 C   0  0  0  0  0  0  0  0  0  0  0  0
   -9.0600  -10.9718    5.2431 C   0  0  0  0  0  0  0  0  0  0  0  0
   -8.7775  -10.9548    6.5569 N   0  0  0  0  0  0  0  0  0  0  0  0
   -9.6719  -10.4780    7.4571 C   0  0  0  0  0  0  0  0  0  0  0  0
  -10.8653  -10.0163    6.9960 C   0  0  0  0  0  0  0  0  0  0  0  0
  -11.8846   -9.5100    7.6684 N   0  0  0  0  0  0  0  0  0  0  0  0
  -12.8585   -9.1851    6.8169 C   0  0  0  0  0  0  0  0  0  0  0  0
  -14.1055   -8.6180    7.0642 C   0  0  0  0  0  0  0  0  0  0  0  0
  -14.6227   -8.9559    1.3712 H   0  0  0  0  0  0  0  0  0  0  0  0
  -10.7916   -5.0334    9.0571 C   0  0  0  0  0  0  0  0  0  0  0  0
  -12.0686   -5.7158    8.9383 N   0  0  0  0  0  0  0  0  0  0  0  0
  -12.1834   -6.0447    7.9700 H   0  0  0  0  0  0  0  0  0  0  0  0
  -14.1911   -6.0641   10.0952 O   0  0  0  0  0  0  0  0  0  0  0  0
  -13.7539   -5.0696   10.9400 C   0  0  0  0  0  0  0  0  0  0  0  0
 33 34  1  0  0  0
 34  1  1  0  0  0
  1  2  1  0  0  0
  2  3  1  0  0  0
  3  4  1  0  0  0
  4  5  1  0  0  0
  5  6  1  0  0  0
  5  7  1  0  0  0
  7 36  1  0  0  0
 36 37  1  0  0  0
  5  8  1  0  0  0
  8  9  1  0  0  0
  9 10  2  0  0  0
 10 11  1  0  0  0
 11 12  2  0  0  0
 12 13  1  0  0  0
 13 14  2  0  0  0
 14 15  1  0  0  0
 15 16  2  0  0  0
 16 17  1  0  0  0
 17 18  1  0  0  0
 18 19  1  0  0  0
 19 20  2  0  0  0
 19 21  1  0  0  0
 21 22  2  0  0  0
 22 23  1  0  0  0
 23 24  2  0  0  0
 24 25  1  0  0  0
 25 26  2  0  0  0
 26 27  1  0  0  0
 27 28  2  0  0  0
 28 29  1  0  0  0
 29 30  1  0  0  0
 30 31  2  0  0  0
  7  1  1  0  0  0
 31  8  1  0  0  0
 29  3  1  0  0  0
 14  9  1  0  0  0
 31 15  1  0  0  0
 21 16  1  0  0  0
 30 22  1  0  0  0
 28 23  1  0  0  0
 34 35  1  0  0  0
 18 32  1  0  0  0
M  END
> <minimizedAffinity>
22.88569

> <CNNscore>
0.2610622346

> <CNNaffinity>
6.6894111633

> <CNN_VS>
1.7463526726

> <CNNaffinity_variance>
0.3108612597

$$$$
[H]c1nc([H])c2c(c1[H])c1c3c(c4c5c([H])c([H])c([H])c([H])c5n5c4c1n2[C@]1([H])O[C@@]5(C([H])([H])[H])[C@]([H])(OC([H])([H])[H])[C@]([H])(N([H])C([H])([H])[H])C1([H])[H])C([H])([H])N([H])C3=O


 37 44  0  0  0  0  0  0  0  0999 V2000
  -12.0004   -5.0978    9.3264 C   0  0  0  0  0  0  0  0  0  0  0  0
  -12.1698   -5.2131    7.8775 C   0  0  0  0  0  0  0  0  0  0  0  0
  -12.1981   -6.6030    7.3097 C   0  0  0  0  0  0  0  0  0  0  0  0
  -11.9067   -7.6065    8.0878 O   0  0  0  0  0  0  0  0  0  0  0  0
  -12.2150   -7.6408    9.4489 C   0  0  0  0  0  0  0  0  0  0  0  0
  -11.3075   -8.7988    9.9121 C   0  0  0  0  0  0  0  0  0  0  0  0
  -11.7719   -6.3997   10.0496 C   0  0  0  0  0  0  0  0  0  0  0  0
  -13.6143   -8.0084    9.6129 N   0  0  0  0  0  0  0  0  0  0  0  0
  -14.1856   -8.5962   10.6630 C   0  0  0  0  0  0  0  0  0  0  0  0
  -13.7205   -8.9996   11.8826 C   0  0  0  0  0  0  0  0  0  0  0  0
  -14.5380   -9.5964   12.8131 C   0  0  0  0  0  0  0  0  0  0  0  0
  -15.8917   -9.8213   12.5572 C   0  0  0  0  0  0  0  0  0  0  0  0
  -16.3671   -9.4202   11.3380 C   0  0  0  0  0  0  0  0  0  0  0  0
  -15.5403   -8.8261   10.4193 C   0  0  0  0  0  0  0  0  0  0  0  0
  -15.7863   -8.3491    9.1608 C   0  0  0  0  0  0  0  0  0  0  0  0
  -16.9339   -8.3048    8.3739 C   0  0  0  0  0  0  0  0  0  0  0  0
  -18.3096   -8.7725    8.6637 C   0  0  0  0  0  0  0  0  0  0  0  0
  -19.1005   -8.4836    7.5131 N   0  0  0  0  0  0  0  0  0  0  0  0
  -18.2651   -7.8636    6.5359 C   0  0  0  0  0  0  0  0  0  0  0  0
  -18.7085   -7.5150    5.4437 O   0  0  0  0  0  0  0  0  0  0  0  0
  -16.9296   -7.7626    7.0890 C   0  0  0  0  0  0  0  0  0  0  0  0
  -15.7166   -7.2689    6.6404 C   0  0  0  0  0  0  0  0  0  0  0  0
  -15.3160   -6.6627    5.4692 C   0  0  0  0  0  0  0  0  0  0  0  0
  -15.9625   -6.3312    4.3077 C   0  0  0  0  0  0  0  0  0  0  0  0
  -15.2310   -5.7117    3.3062 C   0  0  0  0  0  0  0  0  0  0  0  0
  -13.9237   -5.4357    3.4507 N   0  0  0  0  0  0  0  0  0  0  0  0
  -13.2646   -5.7553    4.5914 C   0  0  0  0  0  0  0  0  0  0  0  0
  -13.9617   -6.3638    5.5884 C   0  0  0  0  0  0  0  0  0  0  0  0
  -13.5459   -6.7666    6.7768 N   0  0  0  0  0  0  0  0  0  0  0  0
  -14.5649   -7.3166    7.4389 C   0  0  0  0  0  0  0  0  0  0  0  0
  -14.6034   -7.8671    8.7168 C   0  0  0  0  0  0  0  0  0  0  0  0
  -20.1224   -8.7073    7.4414 H   0  0  0  0  0  0  0  0  0  0  0  0
  -12.6822   -2.9986   10.2548 C   0  0  0  0  0  0  0  0  0  0  0  0
  -13.1203   -4.3477    9.9407 N   0  0  0  0  0  0  0  0  0  0  0  0
  -13.8970   -4.2991    9.2674 H   0  0  0  0  0  0  0  0  0  0  0  0
  -12.2012   -6.1227   11.3441 O   0  0  0  0  0  0  0  0  0  0  0  0
  -11.2086   -5.7741   12.2315 C   0  0  0  0  0  0  0  0  0  0  0  0
 33 34  1  0  0  0
 34  1  1  0  0  0
  1  2  1  0  0  0
  2  3  1  0  0  0
  3  4  1  0  0  0
  4  5  1  0  0  0
  5  6  1  0  0  0
  5  7  1  0  0  0
  7 36  1  0  0  0
 36 37  1  0  0  0
  5  8  1  0  0  0
  8  9  1  0  0  0
  9 10  2  0  0  0
 10 11  1  0  0  0
 11 12  2  0  0  0
 12 13  1  0  0  0
 13 14  2  0  0  0
 14 15  1  0  0  0
 15 16  2  0  0  0
 16 17  1  0  0  0
 17 18  1  0  0  0
 18 19  1  0  0  0
 19 20  2  0  0  0
 19 21  1  0  0  0
 21 22  2  0  0  0
 22 23  1  0  0  0
 23 24  2  0  0  0
 24 25  1  0  0  0
 25 26  2  0  0  0
 26 27  1  0  0  0
 27 28  2  0  0  0
 28 29  1  0  0  0
 29 30  1  0  0  0
 30 31  2  0  0  0
  7  1  1  0  0  0
 31  8  1  0  0  0
 29  3  1  0  0  0
 14  9  1  0  0  0
 31 15  1  0  0  0
 21 16  1  0  0  0
 30 22  1  0  0  0
 28 23  1  0  0  0
 34 35  1  0  0  0
 18 32  1  0  0  0
M  END
> <minimizedAffinity>
30.23689

> <CNNscore>
0.2533888221

> <CNNaffinity>
6.7801957130

> <CNN_VS>
1.7180258036

> <CNNaffinity_variance>
0.4406921864

$$$$
[H]c1nc([H])c2c(c1[H])c1c3c(c4c5c([H])c([H])c([H])c([H])c5n5c4c1n2[C@]1([H])O[C@@]5(C([H])([H])[H])[C@]([H])(OC([H])([H])[H])[C@]([H])(N([H])C([H])([H])[H])C1([H])[H])C([H])([H])N([H])C3=O


 37 44  0  0  0  0  0  0  0  0999 V2000
   -3.8874   -7.8871    6.0261 C   0  0  0  0  0  0  0  0  0  0  0  0
   -3.5527   -6.6507    5.3187 C   0  0  0  0  0  0  0  0  0  0  0  0
   -4.5015   -5.4990    5.4864 C   0  0  0  0  0  0  0  0  0  0  0  0
   -5.6347   -5.7012    6.0964 O   0  0  0  0  0  0  0  0  0  0  0  0
   -5.7933   -6.6068    7.1470 C   0  0  0  0  0  0  0  0  0  0  0  0
   -7.3303   -6.7311    7.1796 C   0  0  0  0  0  0  0  0  0  0  0  0
   -5.2069   -7.8712    6.7532 C   0  0  0  0  0  0  0  0  0  0  0  0
   -5.3166   -5.9966    8.3801 N   0  0  0  0  0  0  0  0  0  0  0  0
   -5.6892   -6.2795    9.6273 C   0  0  0  0  0  0  0  0  0  0  0  0
   -6.5500   -7.1931   10.1669 C   0  0  0  0  0  0  0  0  0  0  0  0
   -6.7613   -7.2830   11.5224 C   0  0  0  0  0  0  0  0  0  0  0  0
   -6.1034   -6.4410   12.4206 C   0  0  0  0  0  0  0  0  0  0  0  0
   -5.2386   -5.5225   11.8895 C   0  0  0  0  0  0  0  0  0  0  0  0
   -5.0375   -5.4439   10.5353 C   0  0  0  0  0  0  0  0  0  0  0  0
   -4.2358   -4.6239    9.7892 C   0  0  0  0  0  0  0  0  0  0  0  0
   -3.3639   -3.5920   10.1260 C   0  0  0  0  0  0  0  0  0  0  0  0
   -3.0082   -3.0368   11.4528 C   0  0  0  0  0  0  0  0  0  0  0  0
   -2.0662   -1.9901   11.2290 N   0  0  0  0  0  0  0  0  0  0  0  0
   -1.8364   -1.8831    9.8244 C   0  0  0  0  0  0  0  0  0  0  0  0
   -1.0600   -1.0481    9.3651 O   0  0  0  0  0  0  0  0  0  0  0  0
   -2.6486   -2.8831    9.1612 C   0  0  0  0  0  0  0  0  0  0  0  0
   -2.8546   -3.2659    7.8469 C   0  0  0  0  0  0  0  0  0  0  0  0
   -2.3421   -2.8323    6.6432 C   0  0  0  0  0  0  0  0  0  0  0  0
   -1.4470   -1.8556    6.2942 C   0  0  0  0  0  0  0  0  0  0  0  0
   -1.1524   -1.6889    4.9499 C   0  0  0  0  0  0  0  0  0  0  0  0
   -1.7182   -2.4532    4.0002 N   0  0  0  0  0  0  0  0  0  0  0  0
   -2.6064   -3.4250    4.3235 C   0  0  0  0  0  0  0  0  0  0  0  0
   -2.9112   -3.6073    5.6365 C   0  0  0  0  0  0  0  0  0  0  0  0
   -3.7361   -4.4779    6.1925 N   0  0  0  0  0  0  0  0  0  0  0  0
   -3.7340   -4.3065    7.5153 C   0  0  0  0  0  0  0  0  0  0  0  0
   -4.4347   -4.9924    8.5033 C   0  0  0  0  0  0  0  0  0  0  0  0
   -1.6395   -1.4202   11.9989 H   0  0  0  0  0  0  0  0  0  0  0  0
   -1.7029   -7.3440    6.8423 C   0  0  0  0  0  0  0  0  0  0  0  0
   -2.7936   -8.2991    6.9360 N   0  0  0  0  0  0  0  0  0  0  0  0
   -3.1494   -8.3070    7.9015 H   0  0  0  0  0  0  0  0  0  0  0  0
   -5.0359   -8.8362    7.7414 O   0  0  0  0  0  0  0  0  0  0  0  0
   -6.0612   -9.7466    7.8587 C   0  0  0  0  0  0  0  0  0  0  0  0
 33 34  1  0  0  0
 34  1  1  0  0  0
  1  2  1  0  0  0
  2  3  1  0  0  0
  3  4  1  0  0  0
  4  5  1  0  0  0
  5  6  1  0  0  0
  5  7  1  0  0  0
  7 36  1  0  0  0
 36 37  1  0  0  0
  5  8  1  0  0  0
  8  9  1  0  0  0
  9 10  2  0  0  0
 10 11  1  0  0  0
 11 12  2  0  0  0
 12 13  1  0  0  0
 13 14  2  0  0  0
 14 15  1  0  0  0
 15 16  2  0  0  0
 16 17  1  0  0  0
 17 18  1  0  0  0
 18 19  1  0  0  0
 19 20  2  0  0  0
 19 21  1  0  0  0
 21 22  2  0  0  0
 22 23  1  0  0  0
 23 24  2  0  0  0
 24 25  1  0  0  0
 25 26  2  0  0  0
 26 27  1  0  0  0
 27 28  2  0  0  0
 28 29  1  0  0  0
 29 30  1  0  0  0
 30 31  2  0  0  0
  7  1  1  0  0  0
 31  8  1  0  0  0
 29  3  1  0  0  0
 14  9  1  0  0  0
 31 15  1  0  0  0
 21 16  1  0  0  0
 30 22  1  0  0  0
 28 23  1  0  0  0
 34 35  1  0  0  0
 18 32  1  0  0  0
M  END
> <minimizedAffinity>
2.31007

> <CNNscore>
0.2419673651

> <CNNaffinity>
5.3686118126

> <CNN_VS>
1.2990288734

> <CNNaffinity_variance>
0.3572968841

$$$$
[H]c1nc([H])c2c(c1[H])c1c3c(c4c5c([H])c([H])c([H])c([H])c5n5c4c1n2[C@]1([H])O[C@@]5(C([H])([H])[H])[C@]([H])(OC([H])([H])[H])[C@]([H])(N([H])C([H])([H])[H])C1([H])[H])C([H])([H])N([H])C3=O


 37 44  0  0  0  0  0  0  0  0999 V2000
   -1.9077   -3.0089    7.5798 C   0  0  0  0  0  0  0  0  0  0  0  0
   -1.5018   -4.1916    6.8197 C   0  0  0  0  0  0  0  0  0  0  0  0
   -1.1506   -5.4167    7.6138 C   0  0  0  0  0  0  0  0  0  0  0  0
   -1.0600   -5.3216    8.9100 O   0  0  0  0  0  0  0  0  0  0  0  0
   -1.8538   -4.4671    9.6772 C   0  0  0  0  0  0  0  0  0  0  0  0
   -1.0602   -4.4604   10.9997 C   0  0  0  0  0  0  0  0  0  0  0  0
   -1.8192   -3.1493    9.0773 C   0  0  0  0  0  0  0  0  0  0  0  0
   -3.1579   -5.0816    9.8818 N   0  0  0  0  0  0  0  0  0  0  0  0
   -4.0109   -4.8705   10.8830 C   0  0  0  0  0  0  0  0  0  0  0  0
   -3.9979   -4.0436   11.9705 C   0  0  0  0  0  0  0  0  0  0  0  0
   -5.0308   -4.0164   12.8775 C   0  0  0  0  0  0  0  0  0  0  0  0
   -6.1509   -4.8367   12.7322 C   0  0  0  0  0  0  0  0  0  0  0  0
   -6.1732   -5.6685   11.6455 C   0  0  0  0  0  0  0  0  0  0  0  0
   -5.1359   -5.6852   10.7486 C   0  0  0  0  0  0  0  0  0  0  0  0
   -4.9417   -6.4163    9.6086 C   0  0  0  0  0  0  0  0  0  0  0  0
   -5.7032   -7.3904    8.9686 C   0  0  0  0  0  0  0  0  0  0  0  0
   -7.0214   -7.9624    9.3297 C   0  0  0  0  0  0  0  0  0  0  0  0
   -7.3463   -8.9267    8.3309 N   0  0  0  0  0  0  0  0  0  0  0  0
   -6.2821   -8.9678    7.3807 C   0  0  0  0  0  0  0  0  0  0  0  0
   -6.3170   -9.7256    6.4136 O   0  0  0  0  0  0  0  0  0  0  0  0
   -5.2766   -8.0098    7.7942 C   0  0  0  0  0  0  0  0  0  0  0  0
   -4.0508   -7.5988    7.2995 C   0  0  0  0  0  0  0  0  0  0  0  0
   -3.3109   -7.9509    6.1912 C   0  0  0  0  0  0  0  0  0  0  0  0
   -3.5040   -8.8447    5.1711 C   0  0  0  0  0  0  0  0  0  0  0  0
   -2.5260   -8.9425    4.1936 C   0  0  0  0  0  0  0  0  0  0  0  0
   -1.4123   -8.1910    4.2275 N   0  0  0  0  0  0  0  0  0  0  0  0
   -1.2012   -7.3007    5.2277 C   0  0  0  0  0  0  0  0  0  0  0  0
   -2.1472   -7.1870    6.1984 C   0  0  0  0  0  0  0  0  0  0  0  0
   -2.1677   -6.4007    7.2609 N   0  0  0  0  0  0  0  0  0  0  0  0
   -3.2895   -6.6167    7.9493 C   0  0  0  0  0  0  0  0  0  0  0  0
   -3.7438   -6.0200    9.1220 C   0  0  0  0  0  0  0  0  0  0  0  0
   -8.2315   -9.4888    8.3345 H   0  0  0  0  0  0  0  0  0  0  0  0
   -3.9849   -3.6517    6.5772 C   0  0  0  0  0  0  0  0  0  0  0  0
   -3.2561   -2.5471    7.1765 N   0  0  0  0  0  0  0  0  0  0  0  0
   -3.7622   -2.2272    8.0134 H   0  0  0  0  0  0  0  0  0  0  0  0
   -2.7353   -2.2087    9.5385 O   0  0  0  0  0  0  0  0  0  0  0  0
   -2.2962   -1.4190   10.5766 C   0  0  0  0  0  0  0  0  0  0  0  0
 33 34  1  0  0  0
 34  1  1  0  0  0
  1  2  1  0  0  0
  2  3  1  0  0  0
  3  4  1  0  0  0
  4  5  1  0  0  0
  5  6  1  0  0  0
  5  7  1  0  0  0
  7 36  1  0  0  0
 36 37  1  0  0  0
  5  8  1  0  0  0
  8  9  1  0  0  0
  9 10  2  0  0  0
 10 11  1  0  0  0
 11 12  2  0  0  0
 12 13  1  0  0  0
 13 14  2  0  0  0
 14 15  1  0  0  0
 15 16  2  0  0  0
 16 17  1  0  0  0
 17 18  1  0  0  0
 18 19  1  0  0  0
 19 20  2  0  0  0
 19 21  1  0  0  0
 21 22  2  0  0  0
 22 23  1  0  0  0
 23 24  2  0  0  0
 24 25  1  0  0  0
 25 26  2  0  0  0
 26 27  1  0  0  0
 27 28  2  0  0  0
 28 29  1  0  0  0
 29 30  1  0  0  0
 30 31  2  0  0  0
  7  1  1  0  0  0
 31  8  1  0  0  0
 29  3  1  0  0  0
 14  9  1  0  0  0
 31 15  1  0  0  0
 21 16  1  0  0  0
 30 22  1  0  0  0
 28 23  1  0  0  0
 34 35  1  0  0  0
 18 32  1  0  0  0
M  END
> <minimizedAffinity>
3.60451

> <CNNscore>
0.2251651734

> <CNNaffinity>
5.1683511734

> <CNN_VS>
1.1637326479

> <CNNaffinity_variance>
0.5138937235

$$$$
[H]c1nc([H])c2c(c1[H])c1c3c(c4c5c([H])c([H])c([H])c([H])c5n5c4c1n2[C@]1([H])O[C@@]5(C([H])([H])[H])[C@]([H])(OC([H])([H])[H])[C@]([H])(N([H])C([H])([H])[H])C1([H])[H])C([H])([H])N([H])C3=O


 37 44  0  0  0  0  0  0  0  0999 V2000
   -5.5916   -5.9472    5.1915 C   0  0  0  0  0  0  0  0  0  0  0  0
   -6.8755   -6.5670    5.5210 C   0  0  0  0  0  0  0  0  0  0  0  0
   -6.8275   -7.8232    6.3424 C   0  0  0  0  0  0  0  0  0  0  0  0
   -5.6729   -8.3815    6.5712 O   0  0  0  0  0  0  0  0  0  0  0  0
   -4.4872   -7.6619    6.7302 C   0  0  0  0  0  0  0  0  0  0  0  0
   -3.4498   -8.7896    6.5531 C   0  0  0  0  0  0  0  0  0  0  0  0
   -4.3759   -6.7168    5.6384 C   0  0  0  0  0  0  0  0  0  0  0  0
   -4.4252   -7.1366    8.0868 N   0  0  0  0  0  0  0  0  0  0  0  0
   -3.3389   -6.8231    8.7912 C   0  0  0  0  0  0  0  0  0  0  0  0
   -2.0014   -6.8385    8.5131 C   0  0  0  0  0  0  0  0  0  0  0  0
   -1.0602   -6.4552    9.4390 C   0  0  0  0  0  0  0  0  0  0  0  0
   -1.4257   -6.0285   10.7169 C   0  0  0  0  0  0  0  0  0  0  0  0
   -2.7637   -6.0093   11.0049 C   0  0  0  0  0  0  0  0  0  0  0  0
   -3.6916   -6.3944   10.0716 C   0  0  0  0  0  0  0  0  0  0  0  0
   -5.0572   -6.4551   10.1298 C   0  0  0  0  0  0  0  0  0  0  0  0
   -5.9746   -6.1647   11.1360 C   0  0  0  0  0  0  0  0  0  0  0  0
   -5.7549   -5.6716   12.5157 C   0  0  0  0  0  0  0  0  0  0  0  0
   -7.0386   -5.5419   13.1227 N   0  0  0  0  0  0  0  0  0  0  0  0
   -8.0282   -5.9375   12.1732 C   0  0  0  0  0  0  0  0  0  0  0  0
   -9.2253   -5.9190   12.4517 O   0  0  0  0  0  0  0  0  0  0  0  0
   -7.3484   -6.3185   10.9516 C   0  0  0  0  0  0  0  0  0  0  0  0
   -7.7485   -6.7762    9.7079 C   0  0  0  0  0  0  0  0  0  0  0  0
   -8.9797   -7.0396    9.1472 C   0  0  0  0  0  0  0  0  0  0  0  0
  -10.2662   -6.9581    9.6110 C   0  0  0  0  0  0  0  0  0  0  0  0
  -11.2948   -7.3105    8.7512 C   0  0  0  0  0  0  0  0  0  0  0  0
  -11.0579   -7.7232    7.4943 N   0  0  0  0  0  0  0  0  0  0  0  0
   -9.7927   -7.8113    7.0152 C   0  0  0  0  0  0  0  0  0  0  0  0
   -8.7669   -7.4706    7.8408 C   0  0  0  0  0  0  0  0  0  0  0  0
   -7.4659   -7.4734    7.6063 N   0  0  0  0  0  0  0  0  0  0  0  0
   -6.8187   -7.0662    8.6992 C   0  0  0  0  0  0  0  0  0  0  0  0
   -5.4535   -6.9038    8.9173 C   0  0  0  0  0  0  0  0  0  0  0  0
   -7.1835   -5.2075   14.1059 H   0  0  0  0  0  0  0  0  0  0  0  0
   -4.9007   -3.7167    4.6614 C   0  0  0  0  0  0  0  0  0  0  0  0
   -5.5309   -4.5477    5.6728 N   0  0  0  0  0  0  0  0  0  0  0  0
   -6.4893   -4.2095    5.8342 H   0  0  0  0  0  0  0  0  0  0  0  0
   -3.3965   -5.7331    5.7369 O   0  0  0  0  0  0  0  0  0  0  0  0
   -2.2745   -5.9405    4.9674 C   0  0  0  0  0  0  0  0  0  0  0  0
 33 34  1  0  0  0
 34  1  1  0  0  0
  1  2  1  0  0  0
  2  3  1  0  0  0
  3  4  1  0  0  0
  4  5  1  0  0  0
  5  6  1  0  0  0
  5  7  1  0  0  0
  7 36  1  0  0  0
 36 37  1  0  0  0
  5  8  1  0  0  0
  8  9  1  0  0  0
  9 10  2  0  0  0
 10 11  1  0  0  0
 11 12  2  0  0  0
 12 13  1  0  0  0
 13 14  2  0  0  0
 14 15  1  0  0  0
 15 16  2  0  0  0
 16 17  1  0  0  0
 17 18  1  0  0  0
 18 19  1  0  0  0
 19 20  2  0  0  0
 19 21  1  0  0  0
 21 22  2  0  0  0
 22 23  1  0  0  0
 23 24  2  0  0  0
 24 25  1  0  0  0
 25 26  2  0  0  0
 26 27  1  0  0  0
 27 28  2  0  0  0
 28 29  1  0  0  0
 29 30  1  0  0  0
 30 31  2  0  0  0
  7  1  1  0  0  0
 31  8  1  0  0  0
 29  3  1  0  0  0
 14  9  1  0  0  0
 31 15  1  0  0  0
 21 16  1  0  0  0
 30 22  1  0  0  0
 28 23  1  0  0  0
 34 35  1  0  0  0
 18 32  1  0  0  0
M  END
> <minimizedAffinity>
12.13974

> <CNNscore>
0.2190193683

> <CNNaffinity>
6.0756235123

> <CNN_VS>
1.3306791782

> <CNNaffinity_variance>
0.5995351672

$$$$
[H]c1nc([H])c2c(c1[H])c1c3c(c4c5c([H])c([H])c([H])c([H])c5n5c4c1n2[C@]1([H])O[C@@]5(C([H])([H])[H])[C@]([H])(OC([H])([H])[H])[C@]([H])(N([H])C([H])([H])[H])C1([H])[H])C([H])([H])N([H])C3=O


 37 44  0  0  0  0  0  0  0  0999 V2000
   -4.2556   -5.1167    6.6922 C   0  0  0  0  0  0  0  0  0  0  0  0
   -3.5730   -6.1170    5.8708 C   0  0  0  0  0  0  0  0  0  0  0  0
   -2.0808   -6.2044    6.0148 C   0  0  0  0  0  0  0  0  0  0  0  0
   -1.4621   -5.2967    6.7152 O   0  0  0  0  0  0  0  0  0  0  0  0
   -2.0148   -4.6825    7.8404 C   0  0  0  0  0  0  0  0  0  0  0  0
   -1.0729   -3.4700    7.9883 C   0  0  0  0  0  0  0  0  0  0  0  0
   -3.3490   -4.2295    7.5052 C   0  0  0  0  0  0  0  0  0  0  0  0
   -1.8708   -5.5679    8.9873 N   0  0  0  0  0  0  0  0  0  0  0  0
   -1.8166   -5.2321   10.2753 C   0  0  0  0  0  0  0  0  0  0  0  0
   -1.9084   -4.0427   10.9413 C   0  0  0  0  0  0  0  0  0  0  0  0
   -1.8187   -3.9658   12.3110 C   0  0  0  0  0  0  0  0  0  0  0  0
   -1.6285   -5.1053   13.0946 C   0  0  0  0  0  0  0  0  0  0  0  0
   -1.5358   -6.3018   12.4364 C   0  0  0  0  0  0  0  0  0  0  0  0
   -1.6270   -6.3638   11.0695 C   0  0  0  0  0  0  0  0  0  0  0  0
   -1.5670   -7.4260   10.2093 C   0  0  0  0  0  0  0  0  0  0  0  0
   -1.3860   -8.7924   10.4052 C   0  0  0  0  0  0  0  0  0  0  0  0
   -1.2004   -9.5615   11.6579 C   0  0  0  0  0  0  0  0  0  0  0  0
   -1.0615  -10.9321   11.2903 N   0  0  0  0  0  0  0  0  0  0  0  0
   -1.1516  -11.0290    9.8691 C   0  0  0  0  0  0  0  0  0  0  0  0
   -1.0604  -12.1119    9.2948 O   0  0  0  0  0  0  0  0  0  0  0  0
   -1.3524   -9.6943    9.3420 C   0  0  0  0  0  0  0  0  0  0  0  0
   -1.5109   -9.1520    8.0782 C   0  0  0  0  0  0  0  0  0  0  0  0
   -1.5472   -9.6961    6.8124 C   0  0  0  0  0  0  0  0  0  0  0  0
   -1.4299  -10.9724    6.3287 C   0  0  0  0  0  0  0  0  0  0  0  0
   -1.5186  -11.1632    4.9585 C   0  0  0  0  0  0  0  0  0  0  0  0
   -1.7137  -10.1382    4.1114 N   0  0  0  0  0  0  0  0  0  0  0  0
   -1.8323   -8.8675    4.5687 C   0  0  0  0  0  0  0  0  0  0  0  0
   -1.7486   -8.6557    5.9096 C   0  0  0  0  0  0  0  0  0  0  0  0
   -1.8324   -7.5231    6.5862 N   0  0  0  0  0  0  0  0  0  0  0  0
   -1.6932   -7.7747    7.8887 C   0  0  0  0  0  0  0  0  0  0  0  0
   -1.7193   -6.9013    8.9723 C   0  0  0  0  0  0  0  0  0  0  0  0
   -0.9187  -11.7062   11.9830 H   0  0  0  0  0  0  0  0  0  0  0  0
   -6.2946   -6.3716    6.7192 C   0  0  0  0  0  0  0  0  0  0  0  0
   -5.2864   -5.7408    7.5536 N   0  0  0  0  0  0  0  0  0  0  0  0
   -4.8398   -6.4592    8.1395 H   0  0  0  0  0  0  0  0  0  0  0  0
   -4.1678   -3.8121    8.5502 O   0  0  0  0  0  0  0  0  0  0  0  0
   -4.1769   -2.4561    8.7854 C   0  0  0  0  0  0  0  0  0  0  0  0
 33 34  1  0  0  0
 34  1  1  0  0  0
  1  2  1  0  0  0
  2  3  1  0  0  0
  3  4  1  0  0  0
  4  5  1  0  0  0
  5  6  1  0  0  0
  5  7  1  0  0  0
  7 36  1  0  0  0
 36 37  1  0  0  0
  5  8  1  0  0  0
  8  9  1  0  0  0
  9 10  2  0  0  0
 10 11  1  0  0  0
 11 12  2  0  0  0
 12 13  1  0  0  0
 13 14  2  0  0  0
 14 15  1  0  0  0
 15 16  2  0  0  0
 16 17  1  0  0  0
 17 18  1  0  0  0
 18 19  1  0  0  0
 19 20  2  0  0  0
 19 21  1  0  0  0
 21 22  2  0  0  0
 22 23  1  0  0  0
 23 24  2  0  0  0
 24 25  1  0  0  0
 25 26  2  0  0  0
 26 27  1  0  0  0
 27 28  2  0  0  0
 28 29  1  0  0  0
 29 30  1  0  0  0
 30 31  2  0  0  0
  7  1  1  0  0  0
 31  8  1  0  0  0
 29  3  1  0  0  0
 14  9  1  0  0  0
 31 15  1  0  0  0
 21 16  1  0  0  0
 30 22  1  0  0  0
 28 23  1  0  0  0
 34 35  1  0  0  0
 18 32  1  0  0  0
M  END
> <minimizedAffinity>
-0.39197

> <CNNscore>
0.2073435187

> <CNNaffinity>
5.5461258888

> <CNN_VS>
1.1499532461

> <CNNaffinity_variance>
0.4899792671

$$$$
[H]c1c([H])c(-c2nc3c(N([H])C([H])([H])C([H])([H])N4C([H])([H])C([H])([H])OC([H])([H])C4([H])[H])nc(-c4c([H])c([H])c(N5C([H])([H])C([H])([H])N(C([H])([H])[H])C([H])([H])C5([H])[H])c([H])c4[H])nc3n2[H])c([H])c([H])c1F


 40 45  0  0  0  0  0  0  0  0999 V2000
  -11.0806   -8.9249    7.3712 C   0  0  0  0  0  0  0  0  0  0  0  0
  -12.4234   -8.8624    7.4456 N   0  0  0  0  0  0  0  0  0  0  0  0
  -13.0487   -8.1906    8.4331 C   0  0  0  0  0  0  0  0  0  0  0  0
  -12.2454   -7.5683    9.3664 C   0  0  0  0  0  0  0  0  0  0  0  0
  -12.5754   -6.8403   10.4414 N   0  0  0  0  0  0  0  0  0  0  0  0
  -11.4613   -6.4264   11.0696 C   0  0  0  0  0  0  0  0  0  0  0  0
  -10.4245   -6.9246   10.3446 N   0  0  0  0  0  0  0  0  0  0  0  0
  -10.8594   -7.6290    9.2948 C   0  0  0  0  0  0  0  0  0  0  0  0
  -10.3080   -8.3155    8.2849 N   0  0  0  0  0  0  0  0  0  0  0  0
   -9.4344   -6.7655   10.5924 H   0  0  0  0  0  0  0  0  0  0  0  0
  -11.3489   -5.6148   12.2760 C   0  0  0  0  0  0  0  0  0  0  0  0
  -12.3050   -4.7155   12.6845 C   0  0  0  0  0  0  0  0  0  0  0  0
  -12.1439   -3.9632   13.8514 C   0  0  0  0  0  0  0  0  0  0  0  0
  -11.0215   -4.0978   14.6324 C   0  0  0  0  0  0  0  0  0  0  0  0
  -10.8458   -3.3721   15.7744 F   0  0  0  0  0  0  0  0  0  0  0  0
  -10.0571   -4.9998   14.2276 C   0  0  0  0  0  0  0  0  0  0  0  0
  -10.2305   -5.7450   13.0594 C   0  0  0  0  0  0  0  0  0  0  0  0
   -9.2258  -11.0840    4.1949 C   0  0  0  0  0  0  0  0  0  0  0  0
  -10.5654  -10.7404    4.1672 C   0  0  0  0  0  0  0  0  0  0  0  0
  -11.1753  -10.0430    5.1863 C   0  0  0  0  0  0  0  0  0  0  0  0
  -10.4472   -9.6530    6.3005 C   0  0  0  0  0  0  0  0  0  0  0  0
   -9.1127   -9.9861    6.3456 C   0  0  0  0  0  0  0  0  0  0  0  0
   -8.5115  -10.6939    5.3030 C   0  0  0  0  0  0  0  0  0  0  0  0
   -8.3453  -14.0176    0.3199 C   0  0  0  0  0  0  0  0  0  0  0  0
   -7.4399  -13.2467    1.1111 N   0  0  0  0  0  0  0  0  0  0  0  0
   -7.4849  -11.8434    0.9406 C   0  0  0  0  0  0  0  0  0  0  0  0
   -7.9758  -11.0506    2.0886 C   0  0  0  0  0  0  0  0  0  0  0  0
   -8.6263  -11.8032    3.1327 N   0  0  0  0  0  0  0  0  0  0  0  0
   -8.6865  -13.2461    3.1356 C   0  0  0  0  0  0  0  0  0  0  0  0
   -7.3896  -13.7100    2.4552 C   0  0  0  0  0  0  0  0  0  0  0  0
  -14.4764   -8.1135    8.5325 N   0  0  0  0  0  0  0  0  0  0  0  0
  -14.9425   -8.7582    9.2040 H   0  0  0  0  0  0  0  0  0  0  0  0
  -15.2671   -7.2082    7.7652 C   0  0  0  0  0  0  0  0  0  0  0  0
  -15.8381   -7.9414    6.5730 C   0  0  0  0  0  0  0  0  0  0  0  0
  -15.6076   -7.2263    5.3374 N   0  0  0  0  0  0  0  0  0  0  0  0
  -16.8755   -7.0911    4.6566 C   0  0  0  0  0  0  0  0  0  0  0  0
  -17.5176   -5.7695    4.9441 C   0  0  0  0  0  0  0  0  0  0  0  0
  -16.7604   -4.7356    4.4095 O   0  0  0  0  0  0  0  0  0  0  0  0
  -15.4073   -4.9462    4.4486 C   0  0  0  0  0  0  0  0  0  0  0  0
  -14.9950   -5.9398    5.5284 C   0  0  0  0  0  0  0  0  0  0  0  0
 24 25  1  0  0  0
 25 26  1  0  0  0
 26 27  1  0  0  0
 27 28  1  0  0  0
 28 29  1  0  0  0
 29 30  1  0  0  0
 28 18  1  0  0  0
 18 19  2  0  0  0
 19 20  1  0  0  0
 20 21  2  0  0  0
 21 22  1  0  0  0
 22 23  2  0  0  0
 21  1  1  0  0  0
  1  2  2  0  0  0
  2  3  1  0  0  0
  3 31  1  0  0  0
 31 33  1  0  0  0
 33 34  1  0  0  0
 34 35  1  0  0  0
 35 36  1  0  0  0
 36 37  1  0  0  0
 37 38  1  0  0  0
 38 39  1  0  0  0
 39 40  1  0  0  0
  3  4  2  0  0  0
  4  5  1  0  0  0
  5  6  2  0  0  0
  6  7  1  0  0  0
  7  8  1  0  0  0
  8  9  2  0  0  0
  6 11  1  0  0  0
 11 12  2  0  0  0
 12 13  1  0  0  0
 13 14  2  0  0  0
 14 15  1  0  0  0
 14 16  1  0  0  0
 16 17  2  0  0  0
 30 25  1  0  0  0
 23 18  1  0  0  0
  9  1  1  0  0  0
 17 11  1  0  0  0
 40 35  1  0  0  0
  8  4  1  0  0  0
 31 32  1  0  0  0
  7 10  1  0  0  0
M  END
> <minimizedAffinity>
18.10071

> <CNNscore>
0.5031170845

> <CNNaffinity>
7.6384978294

> <CNN_VS>
3.8430588245

> <CNNaffinity_variance>
1.0576714277

$$$$
[H]c1c([H])c(-c2nc3c(N([H])C([H])([H])C([H])([H])N4C([H])([H])C([H])([H])OC([H])([H])C4([H])[H])nc(-c4c([H])c([H])c(N5C([H])([H])C([H])([H])N(C([H])([H])[H])C([H])([H])C5([H])[H])c([H])c4[H])nc3n2[H])c([H])c([H])c1F


 40 45  0  0  0  0  0  0  0  0999 V2000
  -10.0373   -9.5222    7.5578 C   0  0  0  0  0  0  0  0  0  0  0  0
   -8.8110   -9.0030    7.7553 N   0  0  0  0  0  0  0  0  0  0  0  0
   -7.8349   -9.1181    6.8325 C   0  0  0  0  0  0  0  0  0  0  0  0
   -8.1529   -9.7947    5.6730 C   0  0  0  0  0  0  0  0  0  0  0  0
   -7.4023  -10.0629    4.5963 N   0  0  0  0  0  0  0  0  0  0  0  0
   -8.1267  -10.7518    3.6974 C   0  0  0  0  0  0  0  0  0  0  0  0
   -9.3574  -10.9025    4.2556 N   0  0  0  0  0  0  0  0  0  0  0  0
   -9.4165  -10.3323    5.4634 C   0  0  0  0  0  0  0  0  0  0  0  0
  -10.3364  -10.1789    6.4254 N   0  0  0  0  0  0  0  0  0  0  0  0
  -10.1330  -11.3981    3.7868 H   0  0  0  0  0  0  0  0  0  0  0  0
   -7.7138  -11.2500    2.3905 C   0  0  0  0  0  0  0  0  0  0  0  0
   -6.9387  -10.5342    1.5092 C   0  0  0  0  0  0  0  0  0  0  0  0
   -6.5729  -11.0626    0.2680 C   0  0  0  0  0  0  0  0  0  0  0  0
   -6.9764  -12.3191   -0.1144 C   0  0  0  0  0  0  0  0  0  0  0  0
   -6.6302  -12.8519   -1.3218 F   0  0  0  0  0  0  0  0  0  0  0  0
   -7.7554  -13.0435    0.7665 C   0  0  0  0  0  0  0  0  0  0  0  0
   -8.1139  -12.5037    2.0035 C   0  0  0  0  0  0  0  0  0  0  0  0
  -13.0604   -9.1177   10.5393 C   0  0  0  0  0  0  0  0  0  0  0  0
  -12.8600  -10.3001    9.8500 C   0  0  0  0  0  0  0  0  0  0  0  0
  -11.8871  -10.4430    8.8858 C   0  0  0  0  0  0  0  0  0  0  0  0
  -11.0560   -9.3793    8.5676 C   0  0  0  0  0  0  0  0  0  0  0  0
  -11.2404   -8.1946    9.2433 C   0  0  0  0  0  0  0  0  0  0  0  0
  -12.2324   -8.0682   10.2175 C   0  0  0  0  0  0  0  0  0  0  0  0
  -17.0961   -9.7012   13.3265 C   0  0  0  0  0  0  0  0  0  0  0  0
  -16.0604   -8.7209   13.4060 N   0  0  0  0  0  0  0  0  0  0  0  0
  -14.8033   -9.1631   13.8796 C   0  0  0  0  0  0  0  0  0  0  0  0
  -13.6900   -9.1638   12.9060 C   0  0  0  0  0  0  0  0  0  0  0  0
  -14.0703   -8.9999   11.5247 N   0  0  0  0  0  0  0  0  0  0  0  0
  -15.4267   -8.7214   11.1145 C   0  0  0  0  0  0  0  0  0  0  0  0
  -16.0343   -7.8880   12.2530 C   0  0  0  0  0  0  0  0  0  0  0  0
   -6.5221   -8.5753    7.0235 N   0  0  0  0  0  0  0  0  0  0  0  0
   -5.7558   -9.2467    7.2379 H   0  0  0  0  0  0  0  0  0  0  0  0
   -6.2298   -7.1825    6.9330 C   0  0  0  0  0  0  0  0  0  0  0  0
   -5.6513   -6.8883    5.5678 C   0  0  0  0  0  0  0  0  0  0  0  0
   -5.0938   -5.5561    5.4926 N   0  0  0  0  0  0  0  0  0  0  0  0
   -4.5162   -5.2405    6.7795 C   0  0  0  0  0  0  0  0  0  0  0  0
   -3.0461   -5.5226    6.8081 C   0  0  0  0  0  0  0  0  0  0  0  0
   -2.3718   -4.6718    5.9423 O   0  0  0  0  0  0  0  0  0  0  0  0
   -3.0628   -4.3623    4.8006 C   0  0  0  0  0  0  0  0  0  0  0  0
   -4.1180   -5.4041    4.4479 C   0  0  0  0  0  0  0  0  0  0  0  0
 24 25  1  0  0  0
 25 26  1  0  0  0
 26 27  1  0  0  0
 27 28  1  0  0  0
 28 29  1  0  0  0
 29 30  1  0  0  0
 28 18  1  0  0  0
 18 19  2  0  0  0
 19 20  1  0  0  0
 20 21  2  0  0  0
 21 22  1  0  0  0
 22 23  2  0  0  0
 21  1  1  0  0  0
  1  2  2  0  0  0
  2  3  1  0  0  0
  3 31  1  0  0  0
 31 33  1  0  0  0
 33 34  1  0  0  0
 34 35  1  0  0  0
 35 36  1  0  0  0
 36 37  1  0  0  0
 37 38  1  0  0  0
 38 39  1  0  0  0
 39 40  1  0  0  0
  3  4  2  0  0  0
  4  5  1  0  0  0
  5  6  2  0  0  0
  6  7  1  0  0  0
  7  8  1  0  0  0
  8  9  2  0  0  0
  6 11  1  0  0  0
 11 12  2  0  0  0
 12 13  1  0  0  0
 13 14  2  0  0  0
 14 15  1  0  0  0
 14 16  1  0  0  0
 16 17  2  0  0  0
 30 25  1  0  0  0
 23 18  1  0  0  0
  9  1  1  0  0  0
 17 11  1  0  0  0
 40 35  1  0  0  0
  8  4  1  0  0  0
 31 32  1  0  0  0
  7 10  1  0  0  0
M  END
> <minimizedAffinity>
34.18763

> <CNNscore>
0.3923787475

> <CNNaffinity>
6.7543973923

> <CNN_VS>
2.6502819061

> <CNNaffinity_variance>
0.6841409802

$$$$
[H]c1c([H])c(-c2nc3c(N([H])C([H])([H])C([H])([H])N4C([H])([H])C([H])([H])OC([H])([H])C4([H])[H])nc(-c4c([H])c([H])c(N5C([H])([H])C([H])([H])N(C([H])([H])[H])C([H])([H])C5([H])[H])c([H])c4[H])nc3n2[H])c([H])c([H])c1F


 40 45  0  0  0  0  0  0  0  0999 V2000
   -5.9755   -5.3918    5.9077 C   0  0  0  0  0  0  0  0  0  0  0  0
   -5.4483   -5.7406    7.0964 N   0  0  0  0  0  0  0  0  0  0  0  0
   -6.1119   -6.5335    7.9615 C   0  0  0  0  0  0  0  0  0  0  0  0
   -7.3602   -6.9719    7.5701 C   0  0  0  0  0  0  0  0  0  0  0  0
   -8.2388   -7.7567    8.2079 N   0  0  0  0  0  0  0  0  0  0  0  0
   -9.3344   -7.9241    7.4471 C   0  0  0  0  0  0  0  0  0  0  0  0
   -9.1046   -7.2134    6.3110 N   0  0  0  0  0  0  0  0  0  0  0  0
   -7.9093   -6.6156    6.3449 C   0  0  0  0  0  0  0  0  0  0  0  0
   -7.1914   -5.8241    5.5365 N   0  0  0  0  0  0  0  0  0  0  0  0
   -9.7822   -7.1574    5.5333 H   0  0  0  0  0  0  0  0  0  0  0  0
  -10.5355   -8.6961    7.7444 C   0  0  0  0  0  0  0  0  0  0  0  0
  -11.1563   -8.7024    8.9709 C   0  0  0  0  0  0  0  0  0  0  0  0
  -12.3067   -9.4627    9.1994 C   0  0  0  0  0  0  0  0  0  0  0  0
  -12.8579  -10.2314    8.2028 C   0  0  0  0  0  0  0  0  0  0  0  0
  -13.9799  -10.9806    8.4065 F   0  0  0  0  0  0  0  0  0  0  0  0
  -12.2390  -10.2294    6.9681 C   0  0  0  0  0  0  0  0  0  0  0  0
  -11.0900   -9.4654    6.7534 C   0  0  0  0  0  0  0  0  0  0  0  0
   -3.7917   -2.8603    3.2593 C   0  0  0  0  0  0  0  0  0  0  0  0
   -4.1685   -2.4505    4.5255 C   0  0  0  0  0  0  0  0  0  0  0  0
   -4.8732   -3.2588    5.3897 C   0  0  0  0  0  0  0  0  0  0  0  0
   -5.2361   -4.5420    5.0084 C   0  0  0  0  0  0  0  0  0  0  0  0
   -4.8696   -4.9673    3.7519 C   0  0  0  0  0  0  0  0  0  0  0  0
   -4.1556   -4.1335    2.8891 C   0  0  0  0  0  0  0  0  0  0  0  0
   -1.2184    0.8666    1.2884 C   0  0  0  0  0  0  0  0  0  0  0  0
   -1.7206   -0.3240    0.6799 N   0  0  0  0  0  0  0  0  0  0  0  0
   -1.0690   -1.5328    1.0182 C   0  0  0  0  0  0  0  0  0  0  0  0
   -1.8502   -2.5096    1.8074 C   0  0  0  0  0  0  0  0  0  0  0  0
   -3.0688   -2.0062    2.3918 N   0  0  0  0  0  0  0  0  0  0  0  0
   -3.5737   -0.6794    2.1263 C   0  0  0  0  0  0  0  0  0  0  0  0
   -3.1427   -0.3592    0.6870 C   0  0  0  0  0  0  0  0  0  0  0  0
   -5.5704   -6.9149    9.2326 N   0  0  0  0  0  0  0  0  0  0  0  0
   -5.4577   -7.9335    9.4159 H   0  0  0  0  0  0  0  0  0  0  0  0
   -5.1876   -5.9751   10.2345 C   0  0  0  0  0  0  0  0  0  0  0  0
   -3.6809   -5.8543   10.2467 C   0  0  0  0  0  0  0  0  0  0  0  0
   -3.2211   -4.7430    9.4436 N   0  0  0  0  0  0  0  0  0  0  0  0
   -3.8246   -3.5368    9.9633 C   0  0  0  0  0  0  0  0  0  0  0  0
   -2.9111   -2.8292   10.9154 C   0  0  0  0  0  0  0  0  0  0  0  0
   -1.7870   -2.3584   10.2501 O   0  0  0  0  0  0  0  0  0  0  0  0
   -1.3469   -3.1701    9.2380 C   0  0  0  0  0  0  0  0  0  0  0  0
   -1.7893   -4.6188    9.4079 C   0  0  0  0  0  0  0  0  0  0  0  0
 24 25  1  0  0  0
 25 26  1  0  0  0
 26 27  1  0  0  0
 27 28  1  0  0  0
 28 29  1  0  0  0
 29 30  1  0  0  0
 28 18  1  0  0  0
 18 19  2  0  0  0
 19 20  1  0  0  0
 20 21  2  0  0  0
 21 22  1  0  0  0
 22 23  2  0  0  0
 21  1  1  0  0  0
  1  2  2  0  0  0
  2  3  1  0  0  0
  3 31  1  0  0  0
 31 33  1  0  0  0
 33 34  1  0  0  0
 34 35  1  0  0  0
 35 36  1  0  0  0
 36 37  1  0  0  0
 37 38  1  0  0  0
 38 39  1  0  0  0
 39 40  1  0  0  0
  3  4  2  0  0  0
  4  5  1  0  0  0
  5  6  2  0  0  0
  6  7  1  0  0  0
  7  8  1  0  0  0
  8  9  2  0  0  0
  6 11  1  0  0  0
 11 12  2  0  0  0
 12 13  1  0  0  0
 13 14  2  0  0  0
 14 15  1  0  0  0
 14 16  1  0  0  0
 16 17  2  0  0  0
 30 25  1  0  0  0
 23 18  1  0  0  0
  9  1  1  0  0  0
 17 11  1  0  0  0
 40 35  1  0  0  0
  8  4  1  0  0  0
 31 32  1  0  0  0
  7 10  1  0  0  0
M  END
> <minimizedAffinity>
3.21830

> <CNNscore>
0.3582051396

> <CNNaffinity>
6.2464699745

> <CNN_VS>
2.2375175953

> <CNNaffinity_variance>
1.1244683266

$$$$
[H]c1c([H])c(-c2nc3c(N([H])C([H])([H])C([H])([H])N4C([H])([H])C([H])([H])OC([H])([H])C4([H])[H])nc(-c4c([H])c([H])c(N5C([H])([H])C([H])([H])N(C([H])([H])[H])C([H])([H])C5([H])[H])c([H])c4[H])nc3n2[H])c([H])c([H])c1F


 40 45  0  0  0  0  0  0  0  0999 V2000
  -11.5360   -6.8300    9.9853 C   0  0  0  0  0  0  0  0  0  0  0  0
  -12.0277   -8.0801   10.0742 N   0  0  0  0  0  0  0  0  0  0  0  0
  -13.0169   -8.5125    9.2666 C   0  0  0  0  0  0  0  0  0  0  0  0
  -13.5028   -7.6109    8.3422 C   0  0  0  0  0  0  0  0  0  0  0  0
  -14.4668   -7.7520    7.4227 N   0  0  0  0  0  0  0  0  0  0  0  0
  -14.6092   -6.6063    6.7340 C   0  0  0  0  0  0  0  0  0  0  0  0
  -13.6969   -5.7460    7.2598 N   0  0  0  0  0  0  0  0  0  0  0  0
  -12.9994   -6.3198    8.2456 C   0  0  0  0  0  0  0  0  0  0  0  0
  -12.0162   -5.9603    9.0818 N   0  0  0  0  0  0  0  0  0  0  0  0
  -13.5757   -4.7769    6.9237 H   0  0  0  0  0  0  0  0  0  0  0  0
  -15.5358   -6.3107    5.6473 C   0  0  0  0  0  0  0  0  0  0  0  0
  -16.3914   -7.2364    5.0989 C   0  0  0  0  0  0  0  0  0  0  0  0
  -17.2591   -6.8967    4.0572 C   0  0  0  0  0  0  0  0  0  0  0  0
  -17.2867   -5.6221    3.5447 C   0  0  0  0  0  0  0  0  0  0  0  0
  -18.1260   -5.2713    2.5278 F   0  0  0  0  0  0  0  0  0  0  0  0
  -16.4295   -4.6873    4.0913 C   0  0  0  0  0  0  0  0  0  0  0  0
  -15.5675   -5.0401    5.1317 C   0  0  0  0  0  0  0  0  0  0  0  0
   -8.4192   -5.5560   12.6033 C   0  0  0  0  0  0  0  0  0  0  0  0
   -9.7565   -5.4072   12.9240 C   0  0  0  0  0  0  0  0  0  0  0  0
  -10.7716   -5.8150   12.0873 C   0  0  0  0  0  0  0  0  0  0  0  0
  -10.4779   -6.4032   10.8661 C   0  0  0  0  0  0  0  0  0  0  0  0
   -9.1525   -6.5596   10.5299 C   0  0  0  0  0  0  0  0  0  0  0  0
   -8.1368   -6.1396   11.3908 C   0  0  0  0  0  0  0  0  0  0  0  0
   -4.2324   -3.8157   14.5624 C   0  0  0  0  0  0  0  0  0  0  0  0
   -5.3913   -4.3514   15.2026 N   0  0  0  0  0  0  0  0  0  0  0  0
   -6.5538   -3.5461   15.1875 C   0  0  0  0  0  0  0  0  0  0  0  0
   -7.6944   -4.0419   14.3871 C   0  0  0  0  0  0  0  0  0  0  0  0
   -7.3969   -5.1254   13.4832 N   0  0  0  0  0  0  0  0  0  0  0  0
   -6.1106   -5.7808   13.4443 C   0  0  0  0  0  0  0  0  0  0  0  0
   -5.5805   -5.7252   14.8850 C   0  0  0  0  0  0  0  0  0  0  0  0
  -13.5564   -9.8380    9.3459 N   0  0  0  0  0  0  0  0  0  0  0  0
  -14.2456  -10.1160    8.6169 H   0  0  0  0  0  0  0  0  0  0  0  0
  -13.1943  -10.7713   10.3614 C   0  0  0  0  0  0  0  0  0  0  0  0
  -12.5761  -10.0232   11.5204 C   0  0  0  0  0  0  0  0  0  0  0  0
  -13.3069  -10.2328   12.7505 N   0  0  0  0  0  0  0  0  0  0  0  0
  -12.7985  -11.4344   13.3727 C   0  0  0  0  0  0  0  0  0  0  0  0
  -11.7576  -11.1238   14.4030 C   0  0  0  0  0  0  0  0  0  0  0  0
  -12.3196  -10.4310   15.4671 O   0  0  0  0  0  0  0  0  0  0  0  0
  -13.3191   -9.5636   15.1129 C   0  0  0  0  0  0  0  0  0  0  0  0
  -13.2283   -9.1201   13.6575 C   0  0  0  0  0  0  0  0  0  0  0  0
 24 25  1  0  0  0
 25 26  1  0  0  0
 26 27  1  0  0  0
 27 28  1  0  0  0
 28 29  1  0  0  0
 29 30  1  0  0  0
 28 18  1  0  0  0
 18 19  2  0  0  0
 19 20  1  0  0  0
 20 21  2  0  0  0
 21 22  1  0  0  0
 22 23  2  0  0  0
 21  1  1  0  0  0
  1  2  2  0  0  0
  2  3  1  0  0  0
  3 31  1  0  0  0
 31 33  1  0  0  0
 33 34  1  0  0  0
 34 35  1  0  0  0
 35 36  1  0  0  0
 36 37  1  0  0  0
 37 38  1  0  0  0
 38 39  1  0  0  0
 39 40  1  0  0  0
  3  4  2  0  0  0
  4  5  1  0  0  0
  5  6  2  0  0  0
  6  7  1  0  0  0
  7  8  1  0  0  0
  8  9  2  0  0  0
  6 11  1  0  0  0
 11 12  2  0  0  0
 12 13  1  0  0  0
 13 14  2  0  0  0
 14 15  1  0  0  0
 14 16  1  0  0  0
 16 17  2  0  0  0
 30 25  1  0  0  0
 23 18  1  0  0  0
  9  1  1  0  0  0
 17 11  1  0  0  0
 40 35  1  0  0  0
  8  4  1  0  0  0
 31 32  1  0  0  0
  7 10  1  0  0  0
M  END
> <minimizedAffinity>
27.17836

> <CNNscore>
0.3213523924

> <CNNaffinity>
7.0066108704

> <CNN_VS>
2.2515912056

> <CNNaffinity_variance>
1.7986015081

$$$$
[H]c1c([H])c(-c2nc3c(N([H])C([H])([H])C([H])([H])N4C([H])([H])C([H])([H])OC([H])([H])C4([H])[H])nc(-c4c([H])c([H])c(N5C([H])([H])C([H])([H])N(C([H])([H])[H])C([H])([H])C5([H])[H])c([H])c4[H])nc3n2[H])c([H])c([H])c1F


 40 45  0  0  0  0  0  0  0  0999 V2000
   -8.4306   -7.5002    7.2332 C   0  0  0  0  0  0  0  0  0  0  0  0
   -8.9497   -8.4761    6.4647 N   0  0  0  0  0  0  0  0  0  0  0  0
  -10.1279   -9.0610    6.7606 C   0  0  0  0  0  0  0  0  0  0  0  0
  -10.7782   -8.6110    7.8910 C   0  0  0  0  0  0  0  0  0  0  0  0
  -11.9441   -8.9955    8.4272 N   0  0  0  0  0  0  0  0  0  0  0  0
  -12.1915   -8.2801    9.5381 C   0  0  0  0  0  0  0  0  0  0  0  0
  -11.1349   -7.4350    9.6734 N   0  0  0  0  0  0  0  0  0  0  0  0
  -10.2476   -7.6043    8.6878 C   0  0  0  0  0  0  0  0  0  0  0  0
   -9.0719   -7.0696    8.3316 N   0  0  0  0  0  0  0  0  0  0  0  0
  -11.0504   -6.7565   10.4476 H   0  0  0  0  0  0  0  0  0  0  0  0
  -13.3386   -8.3650   10.4345 C   0  0  0  0  0  0  0  0  0  0  0  0
  -14.5463   -7.7552   10.1909 C   0  0  0  0  0  0  0  0  0  0  0  0
  -15.6128   -7.8707   11.0869 C   0  0  0  0  0  0  0  0  0  0  0  0
  -15.4901   -8.6003   12.2447 C   0  0  0  0  0  0  0  0  0  0  0  0
  -16.5193   -8.7243   13.1319 F   0  0  0  0  0  0  0  0  0  0  0  0
  -14.2793   -9.2156   12.4954 C   0  0  0  0  0  0  0  0  0  0  0  0
  -13.2217   -9.0918   11.5919 C   0  0  0  0  0  0  0  0  0  0  0  0
   -4.6989   -5.7219    6.1826 C   0  0  0  0  0  0  0  0  0  0  0  0
   -5.6938   -5.9506    5.2493 C   0  0  0  0  0  0  0  0  0  0  0  0
   -6.9028   -6.5235    5.5764 C   0  0  0  0  0  0  0  0  0  0  0  0
   -7.1680   -6.8982    6.8852 C   0  0  0  0  0  0  0  0  0  0  0  0
   -6.1897   -6.6782    7.8279 C   0  0  0  0  0  0  0  0  0  0  0  0
   -4.9698   -6.0966    7.4775 C   0  0  0  0  0  0  0  0  0  0  0  0
   -1.0891   -2.5761    4.9704 C   0  0  0  0  0  0  0  0  0  0  0  0
   -1.0772   -4.0026    5.0410 N   0  0  0  0  0  0  0  0  0  0  0  0
   -1.1132   -4.5741    6.3342 C   0  0  0  0  0  0  0  0  0  0  0  0
   -2.3379   -5.3200    6.6964 C   0  0  0  0  0  0  0  0  0  0  0  0
   -3.4648   -5.1324    5.8163 N   0  0  0  0  0  0  0  0  0  0  0  0
   -3.3812   -4.3761    4.5888 C   0  0  0  0  0  0  0  0  0  0  0  0
   -1.9476   -4.5845    4.0779 C   0  0  0  0  0  0  0  0  0  0  0  0
  -10.6972  -10.1030    5.9578 N   0  0  0  0  0  0  0  0  0  0  0  0
  -10.1897  -11.0114    5.9268 H   0  0  0  0  0  0  0  0  0  0  0  0
  -11.9053   -9.9485    5.2161 C   0  0  0  0  0  0  0  0  0  0  0  0
  -13.0545   -9.7604    6.1800 C   0  0  0  0  0  0  0  0  0  0  0  0
  -13.8684   -8.6162    5.8341 N   0  0  0  0  0  0  0  0  0  0  0  0
  -14.1806   -8.6999    4.4253 C   0  0  0  0  0  0  0  0  0  0  0  0
  -15.5168   -9.3343    4.1934 C   0  0  0  0  0  0  0  0  0  0  0  0
  -16.5303   -8.5280    4.6940 O   0  0  0  0  0  0  0  0  0  0  0  0
  -16.2009   -7.8493    5.8375 C   0  0  0  0  0  0  0  0  0  0  0  0
  -15.0713   -8.5148    6.6149 C   0  0  0  0  0  0  0  0  0  0  0  0
 24 25  1  0  0  0
 25 26  1  0  0  0
 26 27  1  0  0  0
 27 28  1  0  0  0
 28 29  1  0  0  0
 29 30  1  0  0  0
 28 18  1  0  0  0
 18 19  2  0  0  0
 19 20  1  0  0  0
 20 21  2  0  0  0
 21 22  1  0  0  0
 22 23  2  0  0  0
 21  1  1  0  0  0
  1  2  2  0  0  0
  2  3  1  0  0  0
  3 31  1  0  0  0
 31 33  1  0  0  0
 33 34  1  0  0  0
 34 35  1  0  0  0
 35 36  1  0  0  0
 36 37  1  0  0  0
 37 38  1  0  0  0
 38 39  1  0  0  0
 39 40  1  0  0  0
  3  4  2  0  0  0
  4  5  1  0  0  0
  5  6  2  0  0  0
  6  7  1  0  0  0
  7  8  1  0  0  0
  8  9  2  0  0  0
  6 11  1  0  0  0
 11 12  2  0  0  0
 12 13  1  0  0  0
 13 14  2  0  0  0
 14 15  1  0  0  0
 14 16  1  0  0  0
 16 17  2  0  0  0
 30 25  1  0  0  0
 23 18  1  0  0  0
  9  1  1  0  0  0
 17 11  1  0  0  0
 40 35  1  0  0  0
  8  4  1  0  0  0
 31 32  1  0  0  0
  7 10  1  0  0  0
M  END
> <minimizedAffinity>
4.07251

> <CNNscore>
0.3164212108

> <CNNaffinity>
7.2150411606

> <CNN_VS>
2.2829921246

> <CNNaffinity_variance>
0.3136624098

$$$$
[H]c1c([H])c(-c2nc3c(N([H])C([H])([H])C([H])([H])N4C([H])([H])C([H])([H])OC([H])([H])C4([H])[H])nc(-c4c([H])c([H])c(N5C([H])([H])C([H])([H])N(C([H])([H])[H])C([H])([H])C5([H])[H])c([H])c4[H])nc3n2[H])c([H])c([H])c1F


 40 45  0  0  0  0  0  0  0  0999 V2000
   -6.4651   -6.1535    6.7594 C   0  0  0  0  0  0  0  0  0  0  0  0
   -6.0616   -6.6020    7.9629 N   0  0  0  0  0  0  0  0  0  0  0  0
   -6.8801   -7.3097    8.7672 C   0  0  0  0  0  0  0  0  0  0  0  0
   -8.1542   -7.5532    8.2974 C   0  0  0  0  0  0  0  0  0  0  0  0
   -9.1712   -8.2165    8.8636 N   0  0  0  0  0  0  0  0  0  0  0  0
  -10.2347   -8.2057    8.0414 C   0  0  0  0  0  0  0  0  0  0  0  0
   -9.8413   -7.5103    6.9412 N   0  0  0  0  0  0  0  0  0  0  0  0
   -8.5763   -7.0933    7.0564 C   0  0  0  0  0  0  0  0  0  0  0  0
   -7.7076   -6.3963    6.3116 N   0  0  0  0  0  0  0  0  0  0  0  0
  -10.4587   -7.3389    6.1311 H   0  0  0  0  0  0  0  0  0  0  0  0
  -11.5491   -8.8018    8.2512 C   0  0  0  0  0  0  0  0  0  0  0  0
  -12.1041   -9.7427    7.4167 C   0  0  0  0  0  0  0  0  0  0  0  0
  -13.3697  -10.2802    7.6671 C   0  0  0  0  0  0  0  0  0  0  0  0
  -14.1040   -9.8856    8.7593 C   0  0  0  0  0  0  0  0  0  0  0  0
  -15.3413  -10.3983    9.0204 F   0  0  0  0  0  0  0  0  0  0  0  0
  -13.5521   -8.9407    9.6019 C   0  0  0  0  0  0  0  0  0  0  0  0
  -12.2866   -8.4115    9.3399 C   0  0  0  0  0  0  0  0  0  0  0  0
   -3.7817   -3.9159    4.3132 C   0  0  0  0  0  0  0  0  0  0  0  0
   -3.5572   -4.1112    5.6640 C   0  0  0  0  0  0  0  0  0  0  0  0
   -4.4159   -4.8321    6.4639 C   0  0  0  0  0  0  0  0  0  0  0  0
   -5.5616   -5.3998    5.9268 C   0  0  0  0  0  0  0  0  0  0  0  0
   -5.8016   -5.2162    4.5841 C   0  0  0  0  0  0  0  0  0  0  0  0
   -4.9198   -4.4818    3.7888 C   0  0  0  0  0  0  0  0  0  0  0  0
   -1.7393   -0.8701    1.0044 C   0  0  0  0  0  0  0  0  0  0  0  0
   -1.1222   -1.7681    1.9278 N   0  0  0  0  0  0  0  0  0  0  0  0
   -1.1658   -1.4030    3.2934 C   0  0  0  0  0  0  0  0  0  0  0  0
   -1.9888   -2.2521    4.1817 C   0  0  0  0  0  0  0  0  0  0  0  0
   -2.8816   -3.1683    3.5159 N   0  0  0  0  0  0  0  0  0  0  0  0
   -2.8899   -3.3504    2.0833 C   0  0  0  0  0  0  0  0  0  0  0  0
   -1.4383   -3.1239    1.6347 C   0  0  0  0  0  0  0  0  0  0  0  0
   -6.4718   -7.7943   10.0528 N   0  0  0  0  0  0  0  0  0  0  0  0
   -6.0162   -8.7298   10.0863 H   0  0  0  0  0  0  0  0  0  0  0  0
   -6.6601   -7.0619   11.2618 C   0  0  0  0  0  0  0  0  0  0  0  0
   -5.3127   -6.6188   11.7842 C   0  0  0  0  0  0  0  0  0  0  0  0
   -5.3725   -6.2349   13.1772 N   0  0  0  0  0  0  0  0  0  0  0  0
   -4.0492   -5.8181   13.5827 C   0  0  0  0  0  0  0  0  0  0  0  0
   -3.8889   -4.3319   13.4972 C   0  0  0  0  0  0  0  0  0  0  0  0
   -4.7146   -3.7009   14.4181 O   0  0  0  0  0  0  0  0  0  0  0  0
   -5.9181   -4.3239   14.6191 C   0  0  0  0  0  0  0  0  0  0  0  0
   -6.3339   -5.1995   13.4428 C   0  0  0  0  0  0  0  0  0  0  0  0
 24 25  1  0  0  0
 25 26  1  0  0  0
 26 27  1  0  0  0
 27 28  1  0  0  0
 28 29  1  0  0  0
 29 30  1  0  0  0
 28 18  1  0  0  0
 18 19  2  0  0  0
 19 20  1  0  0  0
 20 21  2  0  0  0
 21 22  1  0  0  0
 22 23  2  0  0  0
 21  1  1  0  0  0
  1  2  2  0  0  0
  2  3  1  0  0  0
  3 31  1  0  0  0
 31 33  1  0  0  0
 33 34  1  0  0  0
 34 35  1  0  0  0
 35 36  1  0  0  0
 36 37  1  0  0  0
 37 38  1  0  0  0
 38 39  1  0  0  0
 39 40  1  0  0  0
  3  4  2  0  0  0
  4  5  1  0  0  0
  5  6  2  0  0  0
  6  7  1  0  0  0
  7  8  1  0  0  0
  8  9  2  0  0  0
  6 11  1  0  0  0
 11 12  2  0  0  0
 12 13  1  0  0  0
 13 14  2  0  0  0
 14 15  1  0  0  0
 14 16  1  0  0  0
 16 17  2  0  0  0
 30 25  1  0  0  0
 23 18  1  0  0  0
  9  1  1  0  0  0
 17 11  1  0  0  0
 40 35  1  0  0  0
  8  4  1  0  0  0
 31 32  1  0  0  0
  7 10  1  0  0  0
M  END
> <minimizedAffinity>
2.92168

> <CNNscore>
0.3025208414

> <CNNaffinity>
6.3409667015

> <CNN_VS>
1.9182746410

> <CNNaffinity_variance>
0.9136913419

$$$$
[H]c1c([H])c(-c2nc3c(N([H])C([H])([H])C([H])([H])N4C([H])([H])C([H])([H])OC([H])([H])C4([H])[H])nc(-c4c([H])c([H])c(N5C([H])([H])C([H])([H])N(C([H])([H])[H])C([H])([H])C5([H])[H])c([H])c4[H])nc3n2[H])c([H])c([H])c1F


 40 45  0  0  0  0  0  0  0  0999 V2000
   -5.6543   -5.4150    6.0651 C   0  0  0  0  0  0  0  0  0  0  0  0
   -5.1969   -5.6892    7.3013 N   0  0  0  0  0  0  0  0  0  0  0  0
   -5.9113   -6.4272    8.1746 C   0  0  0  0  0  0  0  0  0  0  0  0
   -7.1366   -6.8895    7.7404 C   0  0  0  0  0  0  0  0  0  0  0  0
   -8.0527   -7.6335    8.3743 N   0  0  0  0  0  0  0  0  0  0  0  0
   -9.1037   -7.8481    7.5641 C   0  0  0  0  0  0  0  0  0  0  0  0
   -8.8072   -7.2091    6.4010 N   0  0  0  0  0  0  0  0  0  0  0  0
   -7.6138   -6.6100    6.4661 C   0  0  0  0  0  0  0  0  0  0  0  0
   -6.8485   -5.8699    5.6526 N   0  0  0  0  0  0  0  0  0  0  0  0
   -9.4391   -7.2018    5.5840 H   0  0  0  0  0  0  0  0  0  0  0  0
  -10.3222   -8.6006    7.8395 C   0  0  0  0  0  0  0  0  0  0  0  0
  -11.2579   -8.2254    8.7741 C   0  0  0  0  0  0  0  0  0  0  0  0
  -12.4089   -8.9864    8.9965 C   0  0  0  0  0  0  0  0  0  0  0  0
  -12.6451  -10.1385    8.2860 C   0  0  0  0  0  0  0  0  0  0  0  0
  -13.7623  -10.8951    8.4890 F   0  0  0  0  0  0  0  0  0  0  0  0
  -11.7090  -10.5211    7.3454 C   0  0  0  0  0  0  0  0  0  0  0  0
  -10.5631   -9.7516    7.1334 C   0  0  0  0  0  0  0  0  0  0  0  0
   -3.3240   -3.0738    3.3670 C   0  0  0  0  0  0  0  0  0  0  0  0
   -4.6037   -3.4977    3.0573 C   0  0  0  0  0  0  0  0  0  0  0  0
   -5.3660   -4.2534    3.9202 C   0  0  0  0  0  0  0  0  0  0  0  0
   -4.8621   -4.6223    5.1587 C   0  0  0  0  0  0  0  0  0  0  0  0
   -3.5903   -4.2095    5.4844 C   0  0  0  0  0  0  0  0  0  0  0  0
   -2.8321   -3.4441    4.5964 C   0  0  0  0  0  0  0  0  0  0  0  0
   -1.8045   -0.2889   -0.4187 C   0  0  0  0  0  0  0  0  0  0  0  0
   -1.0610   -0.8482    0.6649 N   0  0  0  0  0  0  0  0  0  0  0  0
   -1.2587   -0.2648    1.9380 C   0  0  0  0  0  0  0  0  0  0  0  0
   -1.9275   -1.1038    2.9560 C   0  0  0  0  0  0  0  0  0  0  0  0
   -2.5631   -2.2989    2.4586 N   0  0  0  0  0  0  0  0  0  0  0  0
   -2.4517   -2.7303    1.0848 C   0  0  0  0  0  0  0  0  0  0  0  0
   -1.0602   -2.2703    0.6242 C   0  0  0  0  0  0  0  0  0  0  0  0
   -5.4444   -6.7288    9.4957 N   0  0  0  0  0  0  0  0  0  0  0  0
   -4.8941   -7.6041    9.6180 H   0  0  0  0  0  0  0  0  0  0  0  0
   -5.6976   -5.8956   10.6249 C   0  0  0  0  0  0  0  0  0  0  0  0
   -4.6287   -6.1384   11.6658 C   0  0  0  0  0  0  0  0  0  0  0  0
   -4.3723   -4.9593   12.4627 N   0  0  0  0  0  0  0  0  0  0  0  0
   -5.3495   -4.9186   13.5270 C   0  0  0  0  0  0  0  0  0  0  0  0
   -4.8130   -5.5150   14.7912 C   0  0  0  0  0  0  0  0  0  0  0  0
   -3.7721   -4.7424   15.2887 O   0  0  0  0  0  0  0  0  0  0  0  0
   -2.9839   -4.1678   14.3268 C   0  0  0  0  0  0  0  0  0  0  0  0
   -3.0385   -4.9106   12.9969 C   0  0  0  0  0  0  0  0  0  0  0  0
 24 25  1  0  0  0
 25 26  1  0  0  0
 26 27  1  0  0  0
 27 28  1  0  0  0
 28 29  1  0  0  0
 29 30  1  0  0  0
 28 18  1  0  0  0
 18 19  2  0  0  0
 19 20  1  0  0  0
 20 21  2  0  0  0
 21 22  1  0  0  0
 22 23  2  0  0  0
 21  1  1  0  0  0
  1  2  2  0  0  0
  2  3  1  0  0  0
  3 31  1  0  0  0
 31 33  1  0  0  0
 33 34  1  0  0  0
 34 35  1  0  0  0
 35 36  1  0  0  0
 36 37  1  0  0  0
 37 38  1  0  0  0
 38 39  1  0  0  0
 39 40  1  0  0  0
  3  4  2  0  0  0
  4  5  1  0  0  0
  5  6  2  0  0  0
  6  7  1  0  0  0
  7  8  1  0  0  0
  8  9  2  0  0  0
  6 11  1  0  0  0
 11 12  2  0  0  0
 12 13  1  0  0  0
 13 14  2  0  0  0
 14 15  1  0  0  0
 14 16  1  0  0  0
 16 17  2  0  0  0
 30 25  1  0  0  0
 23 18  1  0  0  0
  9  1  1  0  0  0
 17 11  1  0  0  0
 40 35  1  0  0  0
  8  4  1  0  0  0
 31 32  1  0  0  0
  7 10  1  0  0  0
M  END
> <minimizedAffinity>
0.87455

> <CNNscore>
0.2906371653

> <CNNaffinity>
6.2279591560

> <CNN_VS>
1.8100763559

> <CNNaffinity_variance>
1.0099785328

$$$$
[H]c1c([H])c(-c2nc3c(N([H])C([H])([H])C([H])([H])N4C([H])([H])C([H])([H])OC([H])([H])C4([H])[H])nc(-c4c([H])c([H])c(N5C([H])([H])C([H])([H])N(C([H])([H])[H])C([H])([H])C5([H])[H])c([H])c4[H])nc3n2[H])c([H])c([H])c1F


 40 45  0  0  0  0  0  0  0  0999 V2000
  -11.9897   -7.3011    6.6896 C   0  0  0  0  0  0  0  0  0  0  0  0
  -11.9437   -8.3830    7.4895 N   0  0  0  0  0  0  0  0  0  0  0  0
  -10.7844   -8.8287    8.0140 C   0  0  0  0  0  0  0  0  0  0  0  0
   -9.6443   -8.1218    7.6914 C   0  0  0  0  0  0  0  0  0  0  0  0
   -8.3712   -8.3234    8.0563 N   0  0  0  0  0  0  0  0  0  0  0  0
   -7.5855   -7.3835    7.5028 C   0  0  0  0  0  0  0  0  0  0  0  0
   -8.4180   -6.5887    6.7790 N   0  0  0  0  0  0  0  0  0  0  0  0
   -9.6855   -7.0047    6.8667 C   0  0  0  0  0  0  0  0  0  0  0  0
  -10.8739   -6.6202    6.3819 N   0  0  0  0  0  0  0  0  0  0  0  0
   -8.0901   -5.7720    6.2381 H   0  0  0  0  0  0  0  0  0  0  0  0
   -6.1418   -7.2196    7.6283 C   0  0  0  0  0  0  0  0  0  0  0  0
   -5.2249   -7.9213    6.8821 C   0  0  0  0  0  0  0  0  0  0  0  0
   -3.8509   -7.7231    7.0450 C   0  0  0  0  0  0  0  0  0  0  0  0
   -3.3687   -6.8173    7.9587 C   0  0  0  0  0  0  0  0  0  0  0  0
   -2.0314   -6.6102    8.1326 F   0  0  0  0  0  0  0  0  0  0  0  0
   -4.2847   -6.1090    8.7115 C   0  0  0  0  0  0  0  0  0  0  0  0
   -5.6548   -6.3168    8.5389 C   0  0  0  0  0  0  0  0  0  0  0  0
  -15.7148   -5.9636    5.1003 C   0  0  0  0  0  0  0  0  0  0  0  0
  -15.0250   -5.2470    6.0615 C   0  0  0  0  0  0  0  0  0  0  0  0
  -13.8214   -5.6683    6.5819 C   0  0  0  0  0  0  0  0  0  0  0  0
  -13.2480   -6.8540    6.1472 C   0  0  0  0  0  0  0  0  0  0  0  0
  -13.9200   -7.5806    5.1908 C   0  0  0  0  0  0  0  0  0  0  0  0
  -15.1396   -7.1379    4.6752 C   0  0  0  0  0  0  0  0  0  0  0  0
  -20.0791   -3.7478    4.4374 C   0  0  0  0  0  0  0  0  0  0  0  0
  -19.3844   -4.6742    3.6012 N   0  0  0  0  0  0  0  0  0  0  0  0
  -18.2357   -4.1888    2.9340 C   0  0  0  0  0  0  0  0  0  0  0  0
  -16.9353   -4.7539    3.3547 C   0  0  0  0  0  0  0  0  0  0  0  0
  -16.9517   -5.5062    4.5849 N   0  0  0  0  0  0  0  0  0  0  0  0
  -18.1690   -5.8082    5.3010 C   0  0  0  0  0  0  0  0  0  0  0  0
  -19.2533   -5.9476    4.2218 C   0  0  0  0  0  0  0  0  0  0  0  0
  -10.7126   -9.9794    8.8655 N   0  0  0  0  0  0  0  0  0  0  0  0
   -9.7699  -10.2628    9.2046 H   0  0  0  0  0  0  0  0  0  0  0  0
  -11.8561  -10.7351    9.2589 C   0  0  0  0  0  0  0  0  0  0  0  0
  -12.8137   -9.8299    9.9996 C   0  0  0  0  0  0  0  0  0  0  0  0
  -13.4055   -8.8396    9.1277 N   0  0  0  0  0  0  0  0  0  0  0  0
  -14.3220   -9.5176    8.2391 C   0  0  0  0  0  0  0  0  0  0  0  0
  -15.7282   -9.4618    8.7501 C   0  0  0  0  0  0  0  0  0  0  0  0
  -16.1944   -8.1539    8.7464 O   0  0  0  0  0  0  0  0  0  0  0  0
  -15.2427   -7.2130    9.0396 C   0  0  0  0  0  0  0  0  0  0  0  0
  -14.0746   -7.7826    9.8361 C   0  0  0  0  0  0  0  0  0  0  0  0
 24 25  1  0  0  0
 25 26  1  0  0  0
 26 27  1  0  0  0
 27 28  1  0  0  0
 28 29  1  0  0  0
 29 30  1  0  0  0
 28 18  1  0  0  0
 18 19  2  0  0  0
 19 20  1  0  0  0
 20 21  2  0  0  0
 21 22  1  0  0  0
 22 23  2  0  0  0
 21  1  1  0  0  0
  1  2  2  0  0  0
  2  3  1  0  0  0
  3 31  1  0  0  0
 31 33  1  0  0  0
 33 34  1  0  0  0
 34 35  1  0  0  0
 35 36  1  0  0  0
 36 37  1  0  0  0
 37 38  1  0  0  0
 38 39  1  0  0  0
 39 40  1  0  0  0
  3  4  2  0  0  0
  4  5  1  0  0  0
  5  6  2  0  0  0
  6  7  1  0  0  0
  7  8  1  0  0  0
  8  9  2  0  0  0
  6 11  1  0  0  0
 11 12  2  0  0  0
 12 13  1  0  0  0
 13 14  2  0  0  0
 14 15  1  0  0  0
 14 16  1  0  0  0
 16 17  2  0  0  0
 30 25  1  0  0  0
 23 18  1  0  0  0
  9  1  1  0  0  0
 17 11  1  0  0  0
 40 35  1  0  0  0
  8  4  1  0  0  0
 31 32  1  0  0  0
  7 10  1  0  0  0
M  END
> <minimizedAffinity>
12.53776

> <CNNscore>
0.2846503258

> <CNNaffinity>
6.9631547928

> <CNN_VS>
1.9820642471

> <CNNaffinity_variance>
0.5000759363

$$$$
[H]c1c([H])c(-c2nc3c(N([H])C([H])([H])C([H])([H])N4C([H])([H])C([H])([H])OC([H])([H])C4([H])[H])nc(-c4c([H])c([H])c(N5C([H])([H])C([H])([H])N(C([H])([H])[H])C([H])([H])C5([H])[H])c([H])c4[H])nc3n2[H])c([H])c([H])c1F


 40 45  0  0  0  0  0  0  0  0999 V2000
  -10.7935   -7.3339    7.7386 C   0  0  0  0  0  0  0  0  0  0  0  0
  -10.3943   -7.0750    8.9980 N   0  0  0  0  0  0  0  0  0  0  0  0
   -9.0942   -6.8985    9.3079 C   0  0  0  0  0  0  0  0  0  0  0  0
   -8.1896   -6.9958    8.2707 C   0  0  0  0  0  0  0  0  0  0  0  0
   -6.8559   -6.8703    8.2736 N   0  0  0  0  0  0  0  0  0  0  0  0
   -6.3803   -7.0443    7.0283 C   0  0  0  0  0  0  0  0  0  0  0  0
   -7.4690   -7.2831    6.2495 N   0  0  0  0  0  0  0  0  0  0  0  0
   -8.5955   -7.2625    6.9692 C   0  0  0  0  0  0  0  0  0  0  0  0
   -9.9047   -7.4265    6.7363 N   0  0  0  0  0  0  0  0  0  0  0  0
   -7.4089   -7.4554    5.2329 H   0  0  0  0  0  0  0  0  0  0  0  0
   -4.9963   -6.9958    6.5713 C   0  0  0  0  0  0  0  0  0  0  0  0
   -4.0875   -8.0068    6.7760 C   0  0  0  0  0  0  0  0  0  0  0  0
   -2.7718   -7.9058    6.3152 C   0  0  0  0  0  0  0  0  0  0  0  0
   -2.3410   -6.7896    5.6396 C   0  0  0  0  0  0  0  0  0  0  0  0
   -1.0608   -6.6722    5.1825 F   0  0  0  0  0  0  0  0  0  0  0  0
   -3.2492   -5.7703    5.4305 C   0  0  0  0  0  0  0  0  0  0  0  0
   -4.5607   -5.8839    5.8964 C   0  0  0  0  0  0  0  0  0  0  0  0
  -14.9390   -7.8696    6.8904 C   0  0  0  0  0  0  0  0  0  0  0  0
  -14.4988   -7.2213    8.0302 C   0  0  0  0  0  0  0  0  0  0  0  0
  -13.1633   -7.0417    8.3147 C   0  0  0  0  0  0  0  0  0  0  0  0
  -12.1929   -7.5169    7.4451 C   0  0  0  0  0  0  0  0  0  0  0  0
  -12.6121   -8.1647    6.3056 C   0  0  0  0  0  0  0  0  0  0  0  0
  -13.9706   -8.3378    6.0340 C   0  0  0  0  0  0  0  0  0  0  0  0
  -19.3695   -9.6592    5.6398 C   0  0  0  0  0  0  0  0  0  0  0  0
  -18.9945   -8.3440    6.0513 N   0  0  0  0  0  0  0  0  0  0  0  0
  -18.6576   -8.1776    7.4147 C   0  0  0  0  0  0  0  0  0  0  0  0
  -17.2454   -7.8570    7.7153 C   0  0  0  0  0  0  0  0  0  0  0  0
  -16.3193   -8.0409    6.6253 N   0  0  0  0  0  0  0  0  0  0  0  0
  -16.7430   -8.3873    5.2888 C   0  0  0  0  0  0  0  0  0  0  0  0
  -18.1196   -7.7284    5.1135 C   0  0  0  0  0  0  0  0  0  0  0  0
   -8.6474   -6.6246   10.6420 N   0  0  0  0  0  0  0  0  0  0  0  0
   -9.3767   -6.4158   11.3550 H   0  0  0  0  0  0  0  0  0  0  0  0
   -7.2734   -6.6270   11.0237 C   0  0  0  0  0  0  0  0  0  0  0  0
   -7.1541   -6.1066   12.4378 C   0  0  0  0  0  0  0  0  0  0  0  0
   -5.7801   -6.0735   12.8876 N   0  0  0  0  0  0  0  0  0  0  0  0
   -4.9320   -5.9533   11.7233 C   0  0  0  0  0  0  0  0  0  0  0  0
   -4.5580   -4.5279   11.4584 C   0  0  0  0  0  0  0  0  0  0  0  0
   -3.7593   -4.0373   12.4828 O   0  0  0  0  0  0  0  0  0  0  0  0
   -4.0723   -4.5211   13.7257 C   0  0  0  0  0  0  0  0  0  0  0  0
   -5.5111   -5.0149   13.8224 C   0  0  0  0  0  0  0  0  0  0  0  0
 24 25  1  0  0  0
 25 26  1  0  0  0
 26 27  1  0  0  0
 27 28  1  0  0  0
 28 29  1  0  0  0
 29 30  1  0  0  0
 28 18  1  0  0  0
 18 19  2  0  0  0
 19 20  1  0  0  0
 20 21  2  0  0  0
 21 22  1  0  0  0
 22 23  2  0  0  0
 21  1  1  0  0  0
  1  2  2  0  0  0
  2  3  1  0  0  0
  3 31  1  0  0  0
 31 33  1  0  0  0
 33 34  1  0  0  0
 34 35  1  0  0  0
 35 36  1  0  0  0
 36 37  1  0  0  0
 37 38  1  0  0  0
 38 39  1  0  0  0
 39 40  1  0  0  0
  3  4  2  0  0  0
  4  5  1  0  0  0
  5  6  2  0  0  0
  6  7  1  0  0  0
  7  8  1  0  0  0
  8  9  2  0  0  0
  6 11  1  0  0  0
 11 12  2  0  0  0
 12 13  1  0  0  0
 13 14  2  0  0  0
 14 15  1  0  0  0
 14 16  1  0  0  0
 16 17  2  0  0  0
 30 25  1  0  0  0
 23 18  1  0  0  0
  9  1  1  0  0  0
 17 11  1  0  0  0
 40 35  1  0  0  0
  8  4  1  0  0  0
 31 32  1  0  0  0
  7 10  1  0  0  0
M  END
> <minimizedAffinity>
2.93560

> <CNNscore>
0.2635521591

> <CNNaffinity>
6.9718942642

> <CNN_VS>
1.8374577761

> <CNNaffinity_variance>
0.6882249713

$$$$
[H]/C(=C(/[H])c1c([H])c([H])c(SC([H])(C([H])([H])[H])C([H])([H])[H])c([H])c1[H])c1c([H])c([H])c([H])c([H])c1[H]


 18 19  0  0  0  0  0  0  0  0999 V2000
  -10.4782   -8.9775    7.4866 C   0  0  0  0  0  0  0  0  0  0  0  0
  -11.0300   -7.7601    7.8218 C   0  0  0  0  0  0  0  0  0  0  0  0
  -12.3312   -7.4185    7.4605 C   0  0  0  0  0  0  0  0  0  0  0  0
  -13.1306   -8.2785    6.7511 C   0  0  0  0  0  0  0  0  0  0  0  0
  -12.5711   -9.5162    6.4097 C   0  0  0  0  0  0  0  0  0  0  0  0
  -11.2860   -9.8412    6.7723 C   0  0  0  0  0  0  0  0  0  0  0  0
  -14.4978   -7.9929    6.3376 C   0  0  0  0  0  0  0  0  0  0  0  0
  -14.7513   -7.1797    5.3557 C   0  0  0  0  0  0  0  0  0  0  0  0
  -16.1148   -6.8725    4.9170 C   0  0  0  0  0  0  0  0  0  0  0  0
  -16.9459   -7.8258    4.3898 C   0  0  0  0  0  0  0  0  0  0  0  0
  -18.2266   -7.4851    3.9882 C   0  0  0  0  0  0  0  0  0  0  0  0
  -18.6463   -6.1843    4.1267 C   0  0  0  0  0  0  0  0  0  0  0  0
  -17.8302   -5.2007    4.6553 C   0  0  0  0  0  0  0  0  0  0  0  0
  -16.5648   -5.5584    5.0472 C   0  0  0  0  0  0  0  0  0  0  0  0
   -8.8264   -9.4456    7.9267 S   0  0  0  0  0  0  0  0  0  0  0  0
   -6.8134   -7.7847    8.8085 C   0  0  0  0  0  0  0  0  0  0  0  0
   -7.6162   -8.1423    7.5763 C   0  0  0  0  0  0  0  0  0  0  0  0
   -6.6464   -8.7183    6.5390 C   0  0  0  0  0  0  0  0  0  0  0  0
 16 17  1  0  0  0
 17 18  1  0  0  0
 17 15  1  0  0  0
 15  1  1  0  0  0
  1  2  2  0  0  0
  2  3  1  0  0  0
  3  4  2  0  0  0
  4  7  1  0  0  0
  7  8  2  0  0  0
  8  9  1  0  0  0
  9 10  2  0  0  0
 10 11  1  0  0  0
 11 12  2  0  0  0
 12 13  1  0  0  0
 13 14  2  0  0  0
  4  5  1  0  0  0
  5  6  2  0  0  0
  6  1  1  0  0  0
 14  9  1  0  0  0
M  END
> <minimizedAffinity>
-8.08438

> <CNNscore>
0.6029989719

> <CNNaffinity>
5.7333765030

> <CNN_VS>
3.4572200775

> <CNNaffinity_variance>
0.1658108681

$$$$
[H]/C(=C(/[H])c1c([H])c([H])c(SC([H])(C([H])([H])[H])C([H])([H])[H])c([H])c1[H])c1c([H])c([H])c([H])c([H])c1[H]


 18 19  0  0  0  0  0  0  0  0999 V2000
  -12.6123   -8.6464    7.6042 C   0  0  0  0  0  0  0  0  0  0  0  0
  -11.9718   -7.5199    8.0727 C   0  0  0  0  0  0  0  0  0  0  0  0
  -10.5826   -7.4322    8.1244 C   0  0  0  0  0  0  0  0  0  0  0  0
   -9.7803   -8.4651    7.7105 C   0  0  0  0  0  0  0  0  0  0  0  0
  -10.4299   -9.6107    7.2339 C   0  0  0  0  0  0  0  0  0  0  0  0
  -11.8013   -9.6847    7.1882 C   0  0  0  0  0  0  0  0  0  0  0  0
   -8.3239   -8.4478    7.7345 C   0  0  0  0  0  0  0  0  0  0  0  0
   -7.6552   -7.3759    7.4285 C   0  0  0  0  0  0  0  0  0  0  0  0
   -6.1912   -7.3276    7.4432 C   0  0  0  0  0  0  0  0  0  0  0  0
   -5.4966   -6.4280    8.2084 C   0  0  0  0  0  0  0  0  0  0  0  0
   -4.1120   -6.4213    8.1869 C   0  0  0  0  0  0  0  0  0  0  0  0
   -3.4519   -7.3259    7.3910 C   0  0  0  0  0  0  0  0  0  0  0  0
   -4.1258   -8.2456    6.6082 C   0  0  0  0  0  0  0  0  0  0  0  0
   -5.4974   -8.2361    6.6434 C   0  0  0  0  0  0  0  0  0  0  0  0
  -14.3767   -8.7948    7.5262 S   0  0  0  0  0  0  0  0  0  0  0  0
  -14.7122   -6.5908    5.9082 C   0  0  0  0  0  0  0  0  0  0  0  0
  -15.0722   -8.0563    6.0239 C   0  0  0  0  0  0  0  0  0  0  0  0
  -14.4284   -8.7892    4.8421 C   0  0  0  0  0  0  0  0  0  0  0  0
 16 17  1  0  0  0
 17 18  1  0  0  0
 17 15  1  0  0  0
 15  1  1  0  0  0
  1  2  2  0  0  0
  2  3  1  0  0  0
  3  4  2  0  0  0
  4  7  1  0  0  0
  7  8  2  0  0  0
  8  9  1  0  0  0
  9 10  2  0  0  0
 10 11  1  0  0  0
 11 12  2  0  0  0
 12 13  1  0  0  0
 13 14  2  0  0  0
  4  5  1  0  0  0
  5  6  2  0  0  0
  6  1  1  0  0  0
 14  9  1  0  0  0
M  END
> <minimizedAffinity>
-7.51162

> <CNNscore>
0.5967383981

> <CNNaffinity>
5.6673407555

> <CNN_VS>
3.3819198608

> <CNNaffinity_variance>
0.1297329217

$$$$
[H]/C(=C(/[H])c1c([H])c([H])c(SC([H])(C([H])([H])[H])C([H])([H])[H])c([H])c1[H])c1c([H])c([H])c([H])c([H])c1[H]


 18 19  0  0  0  0  0  0  0  0999 V2000
  -12.6673   -8.7511    7.5514 C   0  0  0  0  0  0  0  0  0  0  0  0
  -11.9272   -9.8005    7.0516 C   0  0  0  0  0  0  0  0  0  0  0  0
  -10.5344   -9.7881    7.0617 C   0  0  0  0  0  0  0  0  0  0  0  0
   -9.8277   -8.7283    7.5709 C   0  0  0  0  0  0  0  0  0  0  0  0
  -10.5785   -7.6610    8.0793 C   0  0  0  0  0  0  0  0  0  0  0  0
  -11.9524   -7.6854    8.0634 C   0  0  0  0  0  0  0  0  0  0  0  0
   -8.3742   -8.6429    7.6158 C   0  0  0  0  0  0  0  0  0  0  0  0
   -7.7558   -7.5203    7.3987 C   0  0  0  0  0  0  0  0  0  0  0  0
   -6.2961   -7.4029    7.4367 C   0  0  0  0  0  0  0  0  0  0  0  0
   -5.6572   -6.4692    8.2096 C   0  0  0  0  0  0  0  0  0  0  0  0
   -4.2743   -6.3973    8.2102 C   0  0  0  0  0  0  0  0  0  0  0  0
   -3.5594   -7.2720    7.4283 C   0  0  0  0  0  0  0  0  0  0  0  0
   -4.1765   -8.2247    6.6382 C   0  0  0  0  0  0  0  0  0  0  0  0
   -5.5474   -8.2799    6.6513 C   0  0  0  0  0  0  0  0  0  0  0  0
  -14.4396   -8.7306    7.5529 S   0  0  0  0  0  0  0  0  0  0  0  0
  -14.6859   -6.4779    5.9867 C   0  0  0  0  0  0  0  0  0  0  0  0
  -15.1282   -7.9221    6.0839 C   0  0  0  0  0  0  0  0  0  0  0  0
  -14.5584   -8.6667    4.8718 C   0  0  0  0  0  0  0  0  0  0  0  0
 16 17  1  0  0  0
 17 18  1  0  0  0
 17 15  1  0  0  0
 15  1  1  0  0  0
  1  2  2  0  0  0
  2  3  1  0  0  0
  3  4  2  0  0  0
  4  7  1  0  0  0
  7  8  2  0  0  0
  8  9  1  0  0  0
  9 10  2  0  0  0
 10 11  1  0  0  0
 11 12  2  0  0  0
 12 13  1  0  0  0
 13 14  2  0  0  0
  4  5  1  0  0  0
  5  6  2  0  0  0
  6  1  1  0  0  0
 14  9  1  0  0  0
M  END
> <minimizedAffinity>
-7.53097

> <CNNscore>
0.5810033083

> <CNNaffinity>
5.6773576736

> <CNN_VS>
3.2985634804

> <CNNaffinity_variance>
0.1489121467

$$$$
[H]/C(=C(/[H])c1c([H])c([H])c(SC([H])(C([H])([H])[H])C([H])([H])[H])c([H])c1[H])c1c([H])c([H])c([H])c([H])c1[H]


 18 19  0  0  0  0  0  0  0  0999 V2000
  -12.7631   -8.6838    7.4897 C   0  0  0  0  0  0  0  0  0  0  0  0
  -12.0533   -9.7862    7.0656 C   0  0  0  0  0  0  0  0  0  0  0  0
  -10.6606   -9.8114    7.0740 C   0  0  0  0  0  0  0  0  0  0  0  0
   -9.9238   -8.7378    7.5058 C   0  0  0  0  0  0  0  0  0  0  0  0
  -10.6439   -7.6166    7.9371 C   0  0  0  0  0  0  0  0  0  0  0  0
  -12.0180   -7.6044    7.9238 C   0  0  0  0  0  0  0  0  0  0  0  0
   -8.4685   -8.6893    7.5435 C   0  0  0  0  0  0  0  0  0  0  0  0
   -7.8224   -7.5851    7.3131 C   0  0  0  0  0  0  0  0  0  0  0  0
   -6.3601   -7.5049    7.3437 C   0  0  0  0  0  0  0  0  0  0  0  0
   -5.5668   -8.3156    6.5750 C   0  0  0  0  0  0  0  0  0  0  0  0
   -4.1882   -8.2021    6.6405 C   0  0  0  0  0  0  0  0  0  0  0  0
   -3.6340   -7.2692    7.4832 C   0  0  0  0  0  0  0  0  0  0  0  0
   -4.4090   -6.4374    8.2707 C   0  0  0  0  0  0  0  0  0  0  0  0
   -5.7728   -6.5654    8.1915 C   0  0  0  0  0  0  0  0  0  0  0  0
  -14.5341   -8.6146    7.4909 S   0  0  0  0  0  0  0  0  0  0  0  0
  -14.7844   -6.4326    5.8281 C   0  0  0  0  0  0  0  0  0  0  0  0
  -15.2035   -7.8795    5.9751 C   0  0  0  0  0  0  0  0  0  0  0  0
  -14.5939   -8.6624    4.8074 C   0  0  0  0  0  0  0  0  0  0  0  0
 16 17  1  0  0  0
 17 18  1  0  0  0
 17 15  1  0  0  0
 15  1  1  0  0  0
  1  2  2  0  0  0
  2  3  1  0  0  0
  3  4  2  0  0  0
  4  7  1  0  0  0
  7  8  2  0  0  0
  8  9  1  0  0  0
  9 10  2  0  0  0
 10 11  1  0  0  0
 11 12  2  0  0  0
 12 13  1  0  0  0
 13 14  2  0  0  0
  4  5  1  0  0  0
  5  6  2  0  0  0
  6  1  1  0  0  0
 14  9  1  0  0  0
M  END
> <minimizedAffinity>
-7.54939

> <CNNscore>
0.5722565055

> <CNNaffinity>
5.6805448532

> <CNN_VS>
3.2507288456

> <CNNaffinity_variance>
0.1505468935

$$$$
[H]/C(=C(/[H])c1c([H])c([H])c(SC([H])(C([H])([H])[H])C([H])([H])[H])c([H])c1[H])c1c([H])c([H])c([H])c([H])c1[H]


 18 19  0  0  0  0  0  0  0  0999 V2000
  -11.6272   -8.9140    7.7908 C   0  0  0  0  0  0  0  0  0  0  0  0
  -10.7353   -9.7982    7.2237 C   0  0  0  0  0  0  0  0  0  0  0  0
   -9.3746   -9.5140    7.1348 C   0  0  0  0  0  0  0  0  0  0  0  0
   -8.8526   -8.3371    7.6085 C   0  0  0  0  0  0  0  0  0  0  0  0
   -9.7579   -7.4375    8.1852 C   0  0  0  0  0  0  0  0  0  0  0  0
  -11.0982   -7.7298    8.2667 C   0  0  0  0  0  0  0  0  0  0  0  0
   -7.4442   -7.9695    7.5511 C   0  0  0  0  0  0  0  0  0  0  0  0
   -6.8716   -7.6594    6.4261 C   0  0  0  0  0  0  0  0  0  0  0  0
   -5.4580   -7.2859    6.3364 C   0  0  0  0  0  0  0  0  0  0  0  0
   -5.0526   -6.0630    5.8699 C   0  0  0  0  0  0  0  0  0  0  0  0
   -3.7036   -5.7578    5.8031 C   0  0  0  0  0  0  0  0  0  0  0  0
   -2.7855   -6.6954    6.2099 C   0  0  0  0  0  0  0  0  0  0  0  0
   -3.1647   -7.9377    6.6852 C   0  0  0  0  0  0  0  0  0  0  0  0
   -4.5060   -8.2209    6.7435 C   0  0  0  0  0  0  0  0  0  0  0  0
  -13.3646   -9.2401    7.9188 S   0  0  0  0  0  0  0  0  0  0  0  0
  -14.3659   -6.8783    6.9150 C   0  0  0  0  0  0  0  0  0  0  0  0
  -14.3401   -7.7321    8.1644 C   0  0  0  0  0  0  0  0  0  0  0  0
  -15.7759   -8.1857    8.4488 C   0  0  0  0  0  0  0  0  0  0  0  0
 16 17  1  0  0  0
 17 18  1  0  0  0
 17 15  1  0  0  0
 15  1  1  0  0  0
  1  2  2  0  0  0
  2  3  1  0  0  0
  3  4  2  0  0  0
  4  7  1  0  0  0
  7  8  2  0  0  0
  8  9  1  0  0  0
  9 10  2  0  0  0
 10 11  1  0  0  0
 11 12  2  0  0  0
 12 13  1  0  0  0
 13 14  2  0  0  0
  4  5  1  0  0  0
  5  6  2  0  0  0
  6  1  1  0  0  0
 14  9  1  0  0  0
M  END
> <minimizedAffinity>
-7.30802

> <CNNscore>
0.5387246013

> <CNNaffinity>
5.4695863724

> <CNN_VS>
2.9466006756

> <CNNaffinity_variance>
0.1175232306

$$$$
[H]/C(=C(/[H])c1c([H])c([H])c(SC([H])(C([H])([H])[H])C([H])([H])[H])c([H])c1[H])c1c([H])c([H])c([H])c([H])c1[H]


 18 19  0  0  0  0  0  0  0  0999 V2000
  -13.1618   -8.1113    8.1691 C   0  0  0  0  0  0  0  0  0  0  0  0
  -12.3128   -8.9656    7.4996 C   0  0  0  0  0  0  0  0  0  0  0  0
  -10.9298   -8.8023    7.5322 C   0  0  0  0  0  0  0  0  0  0  0  0
  -10.3420   -7.7806    8.2340 C   0  0  0  0  0  0  0  0  0  0  0  0
  -11.2037   -6.9115    8.9150 C   0  0  0  0  0  0  0  0  0  0  0  0
  -12.5665   -7.0835    8.8748 C   0  0  0  0  0  0  0  0  0  0  0  0
   -8.9067   -7.5455    8.3148 C   0  0  0  0  0  0  0  0  0  0  0  0
   -8.1107   -7.8807    7.3433 C   0  0  0  0  0  0  0  0  0  0  0  0
   -6.6639   -7.6574    7.3953 C   0  0  0  0  0  0  0  0  0  0  0  0
   -6.0895   -6.7875    8.2844 C   0  0  0  0  0  0  0  0  0  0  0  0
   -4.7162   -6.6101    8.2934 C   0  0  0  0  0  0  0  0  0  0  0  0
   -3.9454   -7.3163    7.4020 C   0  0  0  0  0  0  0  0  0  0  0  0
   -4.4968   -8.2011    6.4932 C   0  0  0  0  0  0  0  0  0  0  0  0
   -5.8594   -8.3629    6.5001 C   0  0  0  0  0  0  0  0  0  0  0  0
  -14.9254   -8.2863    8.1483 S   0  0  0  0  0  0  0  0  0  0  0  0
  -17.1064   -7.6189    6.6037 C   0  0  0  0  0  0  0  0  0  0  0  0
  -15.6374   -7.9713    6.5113 C   0  0  0  0  0  0  0  0  0  0  0  0
  -14.9004   -6.7531    5.9447 C   0  0  0  0  0  0  0  0  0  0  0  0
 16 17  1  0  0  0
 17 18  1  0  0  0
 17 15  1  0  0  0
 15  1  1  0  0  0
  1  2  2  0  0  0
  2  3  1  0  0  0
  3  4  2  0  0  0
  4  7  1  0  0  0
  7  8  2  0  0  0
  8  9  1  0  0  0
  9 10  2  0  0  0
 10 11  1  0  0  0
 11 12  2  0  0  0
 12 13  1  0  0  0
 13 14  2  0  0  0
  4  5  1  0  0  0
  5  6  2  0  0  0
  6  1  1  0  0  0
 14  9  1  0  0  0
M  END
> <minimizedAffinity>
-7.37576

> <CNNscore>
0.5153096914

> <CNNaffinity>
5.7158489227

> <CNN_VS>
2.9454324245

> <CNNaffinity_variance>
0.2422626317

$$$$
[H]/C(=C(/[H])c1c([H])c([H])c(SC([H])(C([H])([H])[H])C([H])([H])[H])c([H])c1[H])c1c([H])c([H])c([H])c([H])c1[H]


 18 19  0  0  0  0  0  0  0  0999 V2000
  -14.6922   -7.9690    7.5629 C   0  0  0  0  0  0  0  0  0  0  0  0
  -13.9831   -8.9723    6.9389 C   0  0  0  0  0  0  0  0  0  0  0  0
  -12.5938   -9.0437    7.0094 C   0  0  0  0  0  0  0  0  0  0  0  0
  -11.8598   -8.1168    7.7052 C   0  0  0  0  0  0  0  0  0  0  0  0
  -12.5791   -7.0965    8.3400 C   0  0  0  0  0  0  0  0  0  0  0  0
  -13.9499   -7.0373    8.2627 C   0  0  0  0  0  0  0  0  0  0  0  0
  -10.4080   -8.1249    7.8239 C   0  0  0  0  0  0  0  0  0  0  0  0
   -9.6783   -7.2082    7.2608 C   0  0  0  0  0  0  0  0  0  0  0  0
   -8.2171   -7.1897    7.3619 C   0  0  0  0  0  0  0  0  0  0  0  0
   -7.4185   -6.7512    6.3385 C   0  0  0  0  0  0  0  0  0  0  0  0
   -6.0412   -6.7544    6.4824 C   0  0  0  0  0  0  0  0  0  0  0  0
   -5.4936   -7.2015    7.6604 C   0  0  0  0  0  0  0  0  0  0  0  0
   -6.2741   -7.6498    8.7105 C   0  0  0  0  0  0  0  0  0  0  0  0
   -7.6365   -7.6388    8.5484 C   0  0  0  0  0  0  0  0  0  0  0  0
  -16.4588   -7.8445    7.4930 S   0  0  0  0  0  0  0  0  0  0  0  0
  -16.0293   -6.2527    5.2863 C   0  0  0  0  0  0  0  0  0  0  0  0
  -17.0484   -7.1797    5.9131 C   0  0  0  0  0  0  0  0  0  0  0  0
  -17.2253   -8.3796    4.9765 C   0  0  0  0  0  0  0  0  0  0  0  0
 16 17  1  0  0  0
 17 18  1  0  0  0
 17 15  1  0  0  0
 15  1  1  0  0  0
  1  2  2  0  0  0
  2  3  1  0  0  0
  3  4  2  0  0  0
  4  7  1  0  0  0
  7  8  2  0  0  0
  8  9  1  0  0  0
  9 10  2  0  0  0
 10 11  1  0  0  0
 11 12  2  0  0  0
 12 13  1  0  0  0
 13 14  2  0  0  0
  4  5  1  0  0  0
  5  6  2  0  0  0
  6  1  1  0  0  0
 14  9  1  0  0  0
M  END
> <minimizedAffinity>
-7.09163

> <CNNscore>
0.5091884136

> <CNNaffinity>
5.9286665916

> <CNN_VS>
3.0188083649

> <CNNaffinity_variance>
0.3846063316

$$$$
[H]/C(=C(/[H])c1c([H])c([H])c(SC([H])(C([H])([H])[H])C([H])([H])[H])c([H])c1[H])c1c([H])c([H])c([H])c([H])c1[H]


 18 19  0  0  0  0  0  0  0  0999 V2000
  -11.6270   -6.4443    9.6824 C   0  0  0  0  0  0  0  0  0  0  0  0
  -11.2215   -7.2061    8.6081 C   0  0  0  0  0  0  0  0  0  0  0  0
  -12.0793   -7.5020    7.5513 C   0  0  0  0  0  0  0  0  0  0  0  0
  -13.3739   -7.0488    7.5266 C   0  0  0  0  0  0  0  0  0  0  0  0
  -13.7875   -6.2744    8.6178 C   0  0  0  0  0  0  0  0  0  0  0  0
  -12.9313   -5.9896    9.6543 C   0  0  0  0  0  0  0  0  0  0  0  0
  -14.3283   -7.3164    6.4591 C   0  0  0  0  0  0  0  0  0  0  0  0
  -15.4610   -6.6823    6.3900 C   0  0  0  0  0  0  0  0  0  0  0  0
  -16.4406   -6.9294    5.3293 C   0  0  0  0  0  0  0  0  0  0  0  0
  -16.8713   -8.1905    5.0106 C   0  0  0  0  0  0  0  0  0  0  0  0
  -17.7984   -8.3723    3.9982 C   0  0  0  0  0  0  0  0  0  0  0  0
  -18.2754   -7.2744    3.3240 C   0  0  0  0  0  0  0  0  0  0  0  0
  -17.8593   -5.9898    3.6234 C   0  0  0  0  0  0  0  0  0  0  0  0
  -16.9402   -5.8306    4.6297 C   0  0  0  0  0  0  0  0  0  0  0  0
  -10.5649   -6.0499   11.0453 S   0  0  0  0  0  0  0  0  0  0  0  0
  -10.5736   -5.3826   13.7179 C   0  0  0  0  0  0  0  0  0  0  0  0
  -11.4672   -5.8972   12.6101 C   0  0  0  0  0  0  0  0  0  0  0  0
  -12.5671   -4.8561   12.3768 C   0  0  0  0  0  0  0  0  0  0  0  0
 16 17  1  0  0  0
 17 18  1  0  0  0
 17 15  1  0  0  0
 15  1  1  0  0  0
  1  2  2  0  0  0
  2  3  1  0  0  0
  3  4  2  0  0  0
  4  7  1  0  0  0
  7  8  2  0  0  0
  8  9  1  0  0  0
  9 10  2  0  0  0
 10 11  1  0  0  0
 11 12  2  0  0  0
 12 13  1  0  0  0
 13 14  2  0  0  0
  4  5  1  0  0  0
  5  6  2  0  0  0
  6  1  1  0  0  0
 14  9  1  0  0  0
M  END
> <minimizedAffinity>
-2.93186

> <CNNscore>
0.4974774122

> <CNNaffinity>
5.5703992844

> <CNN_VS>
2.7711477280

> <CNNaffinity_variance>
0.4518192708

$$$$
[H]/C(=C(/[H])c1c([H])c([H])c(SC([H])(C([H])([H])[H])C([H])([H])[H])c([H])c1[H])c1c([H])c([H])c([H])c([H])c1[H]


 18 19  0  0  0  0  0  0  0  0999 V2000
  -13.2004   -7.5388   10.5402 C   0  0  0  0  0  0  0  0  0  0  0  0
  -13.7416   -8.5674    9.7998 C   0  0  0  0  0  0  0  0  0  0  0  0
  -14.2957   -8.3536    8.5399 C   0  0  0  0  0  0  0  0  0  0  0  0
  -14.3307   -7.1056    7.9713 C   0  0  0  0  0  0  0  0  0  0  0  0
  -13.7810   -6.0592    8.7226 C   0  0  0  0  0  0  0  0  0  0  0  0
  -13.2374   -6.2834    9.9646 C   0  0  0  0  0  0  0  0  0  0  0  0
  -14.8923   -6.8042    6.6615 C   0  0  0  0  0  0  0  0  0  0  0  0
  -16.1434   -7.0336    6.3930 C   0  0  0  0  0  0  0  0  0  0  0  0
  -16.7368   -6.7415    5.0860 C   0  0  0  0  0  0  0  0  0  0  0  0
  -17.3488   -7.7053    4.3285 C   0  0  0  0  0  0  0  0  0  0  0  0
  -17.8939   -7.3792    3.0981 C   0  0  0  0  0  0  0  0  0  0  0  0
  -17.8112   -6.0819    2.6535 C   0  0  0  0  0  0  0  0  0  0  0  0
  -17.1999   -5.0879    3.3958 C   0  0  0  0  0  0  0  0  0  0  0  0
  -16.6659   -5.4312    4.6122 C   0  0  0  0  0  0  0  0  0  0  0  0
  -12.4895   -7.7725   12.1469 S   0  0  0  0  0  0  0  0  0  0  0  0
  -14.0219  -10.0469   12.4052 C   0  0  0  0  0  0  0  0  0  0  0  0
  -13.4785   -8.8742   13.1928 C   0  0  0  0  0  0  0  0  0  0  0  0
  -12.5280   -9.4290   14.2590 C   0  0  0  0  0  0  0  0  0  0  0  0
 16 17  1  0  0  0
 17 18  1  0  0  0
 17 15  1  0  0  0
 15  1  1  0  0  0
  1  2  2  0  0  0
  2  3  1  0  0  0
  3  4  2  0  0  0
  4  7  1  0  0  0
  7  8  2  0  0  0
  8  9  1  0  0  0
  9 10  2  0  0  0
 10 11  1  0  0  0
 11 12  2  0  0  0
 12 13  1  0  0  0
 13 14  2  0  0  0
  4  5  1  0  0  0
  5  6  2  0  0  0
  6  1  1  0  0  0
 14  9  1  0  0  0
M  END
> <minimizedAffinity>
6.82350

> <CNNscore>
0.4961314201

> <CNNaffinity>
5.4696807861

> <CNN_VS>
2.7136805058

> <CNNaffinity_variance>
0.3784245849

$$$$
[H]OC(=O)c1c([H])c([H])c(-c2c([H])c([H])c(C#N)c([H])c2O[H])c([H])c1O[H]


 22 23  0  0  0  0  0  0  0  0999 V2000
   -4.7889   -7.3546    7.1761 C   0  0  0  0  0  0  0  0  0  0  0  0
   -5.3985   -8.2300    6.3233 C   0  0  0  0  0  0  0  0  0  0  0  0
   -6.7115   -8.5496    6.4991 C   0  0  0  0  0  0  0  0  0  0  0  0
   -7.5089   -8.0258    7.5287 C   0  0  0  0  0  0  0  0  0  0  0  0
   -6.8717   -7.1542    8.3643 C   0  0  0  0  0  0  0  0  0  0  0  0
   -5.5401   -6.8078    8.2148 C   0  0  0  0  0  0  0  0  0  0  0  0
   -4.9057   -5.9315    9.0577 O   0  0  0  0  0  0  0  0  0  0  0  0
   -5.4286   -5.5219    9.8178 H   0  0  0  0  0  0  0  0  0  0  0  0
   -8.9021   -8.4206    7.5877 C   0  0  0  0  0  0  0  0  0  0  0  0
   -9.2866   -9.7065    7.1651 C   0  0  0  0  0  0  0  0  0  0  0  0
  -10.5942  -10.1320    7.1688 C   0  0  0  0  0  0  0  0  0  0  0  0
  -11.5978   -9.2896    7.5984 C   0  0  0  0  0  0  0  0  0  0  0  0
  -11.2504   -8.0321    8.0158 C   0  0  0  0  0  0  0  0  0  0  0  0
   -9.9081   -7.6021    8.0101 C   0  0  0  0  0  0  0  0  0  0  0  0
   -9.6436   -6.3322    8.4473 O   0  0  0  0  0  0  0  0  0  0  0  0
   -8.7207   -5.9739    8.4913 H   0  0  0  0  0  0  0  0  0  0  0  0
  -12.9823   -9.7016    7.6158 C   0  0  0  0  0  0  0  0  0  0  0  0
  -14.0853  -10.0242    7.6459 N   0  0  0  0  0  0  0  0  0  0  0  0
   -2.9816   -6.3447    5.8571 O   0  0  0  0  0  0  0  0  0  0  0  0
   -3.3852   -7.0053    6.9981 C   0  0  0  0  0  0  0  0  0  0  0  0
   -2.5455   -7.2972    7.8663 O   0  0  0  0  0  0  0  0  0  0  0  0
   -3.1209   -5.3585    5.7459 H   0  0  0  0  0  0  0  0  0  0  0  0
 19 20  1  0  0  0
 20 21  2  0  0  0
 20  1  1  0  0  0
  1  2  2  0  0  0
  2  3  1  0  0  0
  3  4  2  0  0  0
  4  5  1  0  0  0
  5  6  2  0  0  0
  6  7  1  0  0  0
  4  9  1  0  0  0
  9 10  2  0  0  0
 10 11  1  0  0  0
 11 12  2  0  0  0
 12 13  1  0  0  0
 13 14  2  0  0  0
 14 15  1  0  0  0
 12 17  1  0  0  0
 17 18  3  0  0  0
  6  1  1  0  0  0
 14  9  1  0  0  0
 19 22  1  0  0  0
  7  8  1  0  0  0
 15 16  1  0  0  0
M  END
> <minimizedAffinity>
-7.31900

> <CNNscore>
0.5973663926

> <CNNaffinity>
4.8500556946

> <CNN_VS>
2.8972601891

> <CNNaffinity_variance>
0.2166318893

$$$$
[H]OC(=O)c1c([H])c([H])c(-c2c([H])c([H])c(C#N)c([H])c2O[H])c([H])c1O[H]


 22 23  0  0  0  0  0  0  0  0999 V2000
   -7.9870  -11.0678    2.4932 C   0  0  0  0  0  0  0  0  0  0  0  0
   -8.6159  -11.2414    3.6931 C   0  0  0  0  0  0  0  0  0  0  0  0
   -8.2503  -10.4890    4.7689 C   0  0  0  0  0  0  0  0  0  0  0  0
   -7.2395   -9.5158    4.7307 C   0  0  0  0  0  0  0  0  0  0  0  0
   -6.6299   -9.3655    3.5184 C   0  0  0  0  0  0  0  0  0  0  0  0
   -6.9761  -10.1125    2.4058 C   0  0  0  0  0  0  0  0  0  0  0  0
   -6.3597   -9.9567    1.1906 O   0  0  0  0  0  0  0  0  0  0  0  0
   -5.6244   -9.2710    1.1019 H   0  0  0  0  0  0  0  0  0  0  0  0
   -6.9678   -8.7593    5.9366 C   0  0  0  0  0  0  0  0  0  0  0  0
   -6.9131   -9.4154    7.1803 C   0  0  0  0  0  0  0  0  0  0  0  0
   -6.6882   -8.7517    8.3634 C   0  0  0  0  0  0  0  0  0  0  0  0
   -6.5041   -7.3851    8.3694 C   0  0  0  0  0  0  0  0  0  0  0  0
   -6.5519   -6.7221    7.1717 C   0  0  0  0  0  0  0  0  0  0  0  0
   -6.7822   -7.4083    5.9623 C   0  0  0  0  0  0  0  0  0  0  0  0
   -6.8106   -6.6734    4.8077 O   0  0  0  0  0  0  0  0  0  0  0  0
   -6.9448   -7.0945    3.9207 H   0  0  0  0  0  0  0  0  0  0  0  0
   -6.2661   -6.6542    9.5925 C   0  0  0  0  0  0  0  0  0  0  0  0
   -6.0612   -6.0684   10.5602 N   0  0  0  0  0  0  0  0  0  0  0  0
   -8.1431  -13.2267    1.3353 O   0  0  0  0  0  0  0  0  0  0  0  0
   -8.3693  -11.8665    1.3357 C   0  0  0  0  0  0  0  0  0  0  0  0
   -8.8986  -11.3334    0.3460 O   0  0  0  0  0  0  0  0  0  0  0  0
   -8.7478  -13.8582    1.8251 H   0  0  0  0  0  0  0  0  0  0  0  0
 19 20  1  0  0  0
 20 21  2  0  0  0
 20  1  1  0  0  0
  1  2  2  0  0  0
  2  3  1  0  0  0
  3  4  2  0  0  0
  4  5  1  0  0  0
  5  6  2  0  0  0
  6  7  1  0  0  0
  4  9  1  0  0  0
  9 10  2  0  0  0
 10 11  1  0  0  0
 11 12  2  0  0  0
 12 13  1  0  0  0
 13 14  2  0  0  0
 14 15  1  0  0  0
 12 17  1  0  0  0
 17 18  3  0  0  0
  6  1  1  0  0  0
 14  9  1  0  0  0
 19 22  1  0  0  0
  7  8  1  0  0  0
 15 16  1  0  0  0
M  END
> <minimizedAffinity>
8.05027

> <CNNscore>
0.5523728132

> <CNNaffinity>
4.4958114624

> <CNN_VS>
2.4833641052

> <CNNaffinity_variance>
1.3232320547

$$$$
[H]OC(=O)c1c([H])c([H])c(-c2c([H])c([H])c(C#N)c([H])c2O[H])c([H])c1O[H]


 22 23  0  0  0  0  0  0  0  0999 V2000
   -5.0152   -6.3450    7.5529 C   0  0  0  0  0  0  0  0  0  0  0  0
   -5.4909   -7.0275    8.6360 C   0  0  0  0  0  0  0  0  0  0  0  0
   -6.7503   -7.5474    8.6142 C   0  0  0  0  0  0  0  0  0  0  0  0
   -7.6230   -7.4274    7.5213 C   0  0  0  0  0  0  0  0  0  0  0  0
   -7.1194   -6.7404    6.4544 C   0  0  0  0  0  0  0  0  0  0  0  0
   -5.8454   -6.1996    6.4430 C   0  0  0  0  0  0  0  0  0  0  0  0
   -5.3452   -5.5103    5.3679 O   0  0  0  0  0  0  0  0  0  0  0  0
   -5.9274   -5.3916    4.5520 H   0  0  0  0  0  0  0  0  0  0  0  0
   -8.9267   -8.0543    7.6107 C   0  0  0  0  0  0  0  0  0  0  0  0
   -9.1139   -9.3595    7.1195 C   0  0  0  0  0  0  0  0  0  0  0  0
  -10.3310   -9.9989    7.1483 C   0  0  0  0  0  0  0  0  0  0  0  0
  -11.4369   -9.3644    7.6737 C   0  0  0  0  0  0  0  0  0  0  0  0
  -11.2817   -8.0931    8.1594 C   0  0  0  0  0  0  0  0  0  0  0  0
  -10.0313   -7.4434    8.1275 C   0  0  0  0  0  0  0  0  0  0  0  0
   -9.9588   -6.1750    8.6371 O   0  0  0  0  0  0  0  0  0  0  0  0
   -9.1069   -5.6694    8.6671 H   0  0  0  0  0  0  0  0  0  0  0  0
  -12.7312  -10.0043    7.7202 C   0  0  0  0  0  0  0  0  0  0  0  0
  -13.7680  -10.5001    7.7490 N   0  0  0  0  0  0  0  0  0  0  0  0
   -3.4905   -4.4269    7.4034 O   0  0  0  0  0  0  0  0  0  0  0  0
   -3.6699   -5.7845    7.5646 C   0  0  0  0  0  0  0  0  0  0  0  0
   -2.6797   -6.5191    7.7188 O   0  0  0  0  0  0  0  0  0  0  0  0
   -3.6388   -3.7857    8.1591 H   0  0  0  0  0  0  0  0  0  0  0  0
 19 20  1  0  0  0
 20 21  2  0  0  0
 20  1  1  0  0  0
  1  2  2  0  0  0
  2  3  1  0  0  0
  3  4  2  0  0  0
  4  5  1  0  0  0
  5  6  2  0  0  0
  6  7  1  0  0  0
  4  9  1  0  0  0
  9 10  2  0  0  0
 10 11  1  0  0  0
 11 12  2  0  0  0
 12 13  1  0  0  0
 13 14  2  0  0  0
 14 15  1  0  0  0
 12 17  1  0  0  0
 17 18  3  0  0  0
  6  1  1  0  0  0
 14  9  1  0  0  0
 19 22  1  0  0  0
  7  8  1  0  0  0
 15 16  1  0  0  0
M  END
> <minimizedAffinity>
-7.16246

> <CNNscore>
0.5489655137

> <CNNaffinity>
4.7711124420

> <CNN_VS>
2.6191761494

> <CNNaffinity_variance>
0.2325151414

$$$$
[H]OC(=O)c1c([H])c([H])c(-c2c([H])c([H])c(C#N)c([H])c2O[H])c([H])c1O[H]


 22 23  0  0  0  0  0  0  0  0999 V2000
  -13.5622   -7.7603   10.3380 C   0  0  0  0  0  0  0  0  0  0  0  0
  -13.2134   -8.7862    9.5067 C   0  0  0  0  0  0  0  0  0  0  0  0
  -11.9747   -8.8121    8.9392 C   0  0  0  0  0  0  0  0  0  0  0  0
  -10.9989   -7.8264    9.1552 C   0  0  0  0  0  0  0  0  0  0  0  0
  -11.3769   -6.8147    9.9903 C   0  0  0  0  0  0  0  0  0  0  0  0
  -12.6262   -6.7572   10.5832 C   0  0  0  0  0  0  0  0  0  0  0  0
  -12.9999   -5.7379   11.4213 O   0  0  0  0  0  0  0  0  0  0  0  0
  -12.3395   -4.9995   11.6146 H   0  0  0  0  0  0  0  0  0  0  0  0
   -9.7072   -7.9867    8.5179 C   0  0  0  0  0  0  0  0  0  0  0  0
   -8.7102   -8.7638    9.1361 C   0  0  0  0  0  0  0  0  0  0  0  0
   -7.4559   -8.9314    8.5981 C   0  0  0  0  0  0  0  0  0  0  0  0
   -7.1259   -8.3272    7.4033 C   0  0  0  0  0  0  0  0  0  0  0  0
   -8.0787   -7.5655    6.7803 C   0  0  0  0  0  0  0  0  0  0  0  0
   -9.3628   -7.3980    7.3367 C   0  0  0  0  0  0  0  0  0  0  0  0
  -10.2595   -6.6251    6.6494 O   0  0  0  0  0  0  0  0  0  0  0  0
  -11.1861   -6.4843    6.9715 H   0  0  0  0  0  0  0  0  0  0  0  0
   -5.8184   -8.4803    6.8083 C   0  0  0  0  0  0  0  0  0  0  0  0
   -4.7787   -8.5859    6.3292 N   0  0  0  0  0  0  0  0  0  0  0  0
  -15.3570   -8.8233   11.6320 O   0  0  0  0  0  0  0  0  0  0  0  0
  -14.8840   -7.7219   10.9507 C   0  0  0  0  0  0  0  0  0  0  0  0
  -15.5915   -6.7040   10.8656 O   0  0  0  0  0  0  0  0  0  0  0  0
  -15.0578   -9.0298   12.5659 H   0  0  0  0  0  0  0  0  0  0  0  0
 19 20  1  0  0  0
 20 21  2  0  0  0
 20  1  1  0  0  0
  1  2  2  0  0  0
  2  3  1  0  0  0
  3  4  2  0  0  0
  4  5  1  0  0  0
  5  6  2  0  0  0
  6  7  1  0  0  0
  4  9  1  0  0  0
  9 10  2  0  0  0
 10 11  1  0  0  0
 11 12  2  0  0  0
 12 13  1  0  0  0
 13 14  2  0  0  0
 14 15  1  0  0  0
 12 17  1  0  0  0
 17 18  3  0  0  0
  6  1  1  0  0  0
 14  9  1  0  0  0
 19 22  1  0  0  0
  7  8  1  0  0  0
 15 16  1  0  0  0
M  END
> <minimizedAffinity>
4.01854

> <CNNscore>
0.5145568252

> <CNNaffinity>
4.6269364357

> <CNN_VS>
2.3808217049

> <CNNaffinity_variance>
0.9820507169

$$$$
[H]OC(=O)c1c([H])c([H])c(-c2c([H])c([H])c(C#N)c([H])c2O[H])c([H])c1O[H]


 22 23  0  0  0  0  0  0  0  0999 V2000
  -10.1488  -10.1564    6.8150 C   0  0  0  0  0  0  0  0  0  0  0  0
   -9.3032   -9.1253    7.1099 C   0  0  0  0  0  0  0  0  0  0  0  0
   -9.7792   -8.0112    7.7339 C   0  0  0  0  0  0  0  0  0  0  0  0
  -11.1216   -7.8421    8.1076 C   0  0  0  0  0  0  0  0  0  0  0  0
  -11.9418   -8.8892    7.7998 C   0  0  0  0  0  0  0  0  0  0  0  0
  -11.4918  -10.0348    7.1667 C   0  0  0  0  0  0  0  0  0  0  0  0
  -12.3209  -11.0834    6.8601 O   0  0  0  0  0  0  0  0  0  0  0  0
  -13.2981  -11.0192    7.1048 H   0  0  0  0  0  0  0  0  0  0  0  0
  -11.4951   -6.6224    8.7956 C   0  0  0  0  0  0  0  0  0  0  0  0
  -12.7955   -6.4777    9.3134 C   0  0  0  0  0  0  0  0  0  0  0  0
  -13.2209   -5.3357    9.9505 C   0  0  0  0  0  0  0  0  0  0  0  0
  -12.3637   -4.2669   10.1068 C   0  0  0  0  0  0  0  0  0  0  0  0
  -11.0915   -4.3821    9.6123 C   0  0  0  0  0  0  0  0  0  0  0  0
  -10.6615   -5.5556    8.9607 C   0  0  0  0  0  0  0  0  0  0  0  0
   -9.3732   -5.5930    8.4993 O   0  0  0  0  0  0  0  0  0  0  0  0
   -8.9987   -6.3945    8.0527 H   0  0  0  0  0  0  0  0  0  0  0  0
  -12.7754   -3.0514   10.7699 C   0  0  0  0  0  0  0  0  0  0  0  0
  -13.1185   -2.0855   11.2904 N   0  0  0  0  0  0  0  0  0  0  0  0
   -9.7661  -12.5807    6.7646 O   0  0  0  0  0  0  0  0  0  0  0  0
   -9.6513  -11.3528    6.1479 C   0  0  0  0  0  0  0  0  0  0  0  0
   -9.1230  -11.2782    5.0256 O   0  0  0  0  0  0  0  0  0  0  0  0
  -10.6321  -13.0849    6.7702 H   0  0  0  0  0  0  0  0  0  0  0  0
 19 20  1  0  0  0
 20 21  2  0  0  0
 20  1  1  0  0  0
  1  2  2  0  0  0
  2  3  1  0  0  0
  3  4  2  0  0  0
  4  5  1  0  0  0
  5  6  2  0  0  0
  6  7  1  0  0  0
  4  9  1  0  0  0
  9 10  2  0  0  0
 10 11  1  0  0  0
 11 12  2  0  0  0
 12 13  1  0  0  0
 13 14  2  0  0  0
 14 15  1  0  0  0
 12 17  1  0  0  0
 17 18  3  0  0  0
  6  1  1  0  0  0
 14  9  1  0  0  0
 19 22  1  0  0  0
  7  8  1  0  0  0
 15 16  1  0  0  0
M  END
> <minimizedAffinity>
5.42815

> <CNNscore>
0.5028260350

> <CNNaffinity>
4.9354062080

> <CNN_VS>
2.4816508293

> <CNNaffinity_variance>
1.8096500635

$$$$
[H]OC(=O)c1c([H])c([H])c(-c2c([H])c([H])c(C#N)c([H])c2O[H])c([H])c1O[H]


 22 23  0  0  0  0  0  0  0  0999 V2000
  -15.2045   -8.8560    4.4143 C   0  0  0  0  0  0  0  0  0  0  0  0
  -13.9789   -9.1916    4.9147 C   0  0  0  0  0  0  0  0  0  0  0  0
  -13.5632   -8.6723    6.1041 C   0  0  0  0  0  0  0  0  0  0  0  0
  -14.3306   -7.7874    6.8776 C   0  0  0  0  0  0  0  0  0  0  0  0
  -15.5501   -7.4711    6.3516 C   0  0  0  0  0  0  0  0  0  0  0  0
  -16.0033   -7.9799    5.1469 C   0  0  0  0  0  0  0  0  0  0  0  0
  -17.2296   -7.6582    4.6237 O   0  0  0  0  0  0  0  0  0  0  0  0
  -17.8267   -7.0256    5.1357 H   0  0  0  0  0  0  0  0  0  0  0  0
  -13.7879   -7.3315    8.1418 C   0  0  0  0  0  0  0  0  0  0  0  0
  -13.5984   -8.2448    9.1954 C   0  0  0  0  0  0  0  0  0  0  0  0
  -13.1151   -7.8711   10.4273 C   0  0  0  0  0  0  0  0  0  0  0  0
  -12.7918   -6.5540   10.6765 C   0  0  0  0  0  0  0  0  0  0  0  0
  -12.9663   -5.6444    9.6673 C   0  0  0  0  0  0  0  0  0  0  0  0
  -13.4616   -6.0339    8.4065 C   0  0  0  0  0  0  0  0  0  0  0  0
  -13.6025   -5.0650    7.4498 O   0  0  0  0  0  0  0  0  0  0  0  0
  -13.9232   -5.2730    6.5355 H   0  0  0  0  0  0  0  0  0  0  0  0
  -12.2821   -6.1244   11.9581 C   0  0  0  0  0  0  0  0  0  0  0  0
  -11.8896   -5.7906   12.9858 N   0  0  0  0  0  0  0  0  0  0  0  0
  -16.3916  -10.5734    3.1230 O   0  0  0  0  0  0  0  0  0  0  0  0
  -15.6598   -9.4050    3.1433 C   0  0  0  0  0  0  0  0  0  0  0  0
  -15.3948   -8.8296    2.0743 O   0  0  0  0  0  0  0  0  0  0  0  0
  -17.3690  -10.5830    3.3445 H   0  0  0  0  0  0  0  0  0  0  0  0
 19 20  1  0  0  0
 20 21  2  0  0  0
 20  1  1  0  0  0
  1  2  2  0  0  0
  2  3  1  0  0  0
  3  4  2  0  0  0
  4  5  1  0  0  0
  5  6  2  0  0  0
  6  7  1  0  0  0
  4  9  1  0  0  0
  9 10  2  0  0  0
 10 11  1  0  0  0
 11 12  2  0  0  0
 12 13  1  0  0  0
 13 14  2  0  0  0
 14 15  1  0  0  0
 12 17  1  0  0  0
 17 18  3  0  0  0
  6  1  1  0  0  0
 14  9  1  0  0  0
 19 22  1  0  0  0
  7  8  1  0  0  0
 15 16  1  0  0  0
M  END
> <minimizedAffinity>
2.12821

> <CNNscore>
0.4540711343

> <CNNaffinity>
5.2800674438

> <CNN_VS>
2.3975262642

> <CNNaffinity_variance>
2.5638761520

$$$$
[H]OC(=O)c1c([H])c([H])c(-c2c([H])c([H])c(C#N)c([H])c2O[H])c([H])c1O[H]


 22 23  0  0  0  0  0  0  0  0999 V2000
   -7.3845   -6.2858    6.5830 C   0  0  0  0  0  0  0  0  0  0  0  0
   -7.7249   -6.4133    7.8994 C   0  0  0  0  0  0  0  0  0  0  0  0
   -6.7711   -6.2893    8.8648 C   0  0  0  0  0  0  0  0  0  0  0  0
   -5.4182   -6.0314    8.5936 C   0  0  0  0  0  0  0  0  0  0  0  0
   -5.1091   -5.9091    7.2694 C   0  0  0  0  0  0  0  0  0  0  0  0
   -6.0524   -6.0292    6.2637 C   0  0  0  0  0  0  0  0  0  0  0  0
   -5.7355   -5.9054    4.9351 O   0  0  0  0  0  0  0  0  0  0  0  0
   -4.7772   -5.7194    4.6784 H   0  0  0  0  0  0  0  0  0  0  0  0
   -4.5079   -5.8893    9.7123 C   0  0  0  0  0  0  0  0  0  0  0  0
   -5.0117   -5.8275   11.0247 C   0  0  0  0  0  0  0  0  0  0  0  0
   -4.2042   -5.6645   12.1257 C   0  0  0  0  0  0  0  0  0  0  0  0
   -2.8380   -5.5534   11.9751 C   0  0  0  0  0  0  0  0  0  0  0  0
   -2.3215   -5.6110   10.7077 C   0  0  0  0  0  0  0  0  0  0  0  0
   -3.1546   -5.7788    9.5833 C   0  0  0  0  0  0  0  0  0  0  0  0
   -2.5599   -5.8314    8.3514 O   0  0  0  0  0  0  0  0  0  0  0  0
   -3.0833   -5.9705    7.5215 H   0  0  0  0  0  0  0  0  0  0  0  0
   -1.9586   -5.3808   13.1081 C   0  0  0  0  0  0  0  0  0  0  0  0
   -1.2705   -5.2507   14.0198 N   0  0  0  0  0  0  0  0  0  0  0  0
   -8.0365   -6.8636    4.2880 O   0  0  0  0  0  0  0  0  0  0  0  0
   -8.3959   -6.4164    5.5418 C   0  0  0  0  0  0  0  0  0  0  0  0
   -9.5824   -6.1282    5.7724 O   0  0  0  0  0  0  0  0  0  0  0  0
   -7.8865   -7.8370    4.1023 H   0  0  0  0  0  0  0  0  0  0  0  0
 19 20  1  0  0  0
 20 21  2  0  0  0
 20  1  1  0  0  0
  1  2  2  0  0  0
  2  3  1  0  0  0
  3  4  2  0  0  0
  4  5  1  0  0  0
  5  6  2  0  0  0
  6  7  1  0  0  0
  4  9  1  0  0  0
  9 10  2  0  0  0
 10 11  1  0  0  0
 11 12  2  0  0  0
 12 13  1  0  0  0
 13 14  2  0  0  0
 14 15  1  0  0  0
 12 17  1  0  0  0
 17 18  3  0  0  0
  6  1  1  0  0  0
 14  9  1  0  0  0
 19 22  1  0  0  0
  7  8  1  0  0  0
 15 16  1  0  0  0
M  END
> <minimizedAffinity>
3.93803

> <CNNscore>
0.4465368390

> <CNNaffinity>
4.2197599411

> <CNN_VS>
1.8842782974

> <CNNaffinity_variance>
1.9934434891

$$$$
[H]OC(=O)c1c([H])c([H])c(-c2c([H])c([H])c(C#N)c([H])c2O[H])c([H])c1O[H]


 22 23  0  0  0  0  0  0  0  0999 V2000
   -6.0859   -7.4024    7.4824 C   0  0  0  0  0  0  0  0  0  0  0  0
   -6.6527   -8.1337    8.4869 C   0  0  0  0  0  0  0  0  0  0  0  0
   -8.0080   -8.1652    8.6253 C   0  0  0  0  0  0  0  0  0  0  0  0
   -8.8928   -7.4765    7.7808 C   0  0  0  0  0  0  0  0  0  0  0  0
   -8.2967   -6.7549    6.7869 C   0  0  0  0  0  0  0  0  0  0  0  0
   -6.9240   -6.7009    6.6177 C   0  0  0  0  0  0  0  0  0  0  0  0
   -6.3312   -5.9740    5.6172 O   0  0  0  0  0  0  0  0  0  0  0  0
   -6.9171   -5.4573    4.9779 H   0  0  0  0  0  0  0  0  0  0  0  0
  -10.3162   -7.6181    8.0142 C   0  0  0  0  0  0  0  0  0  0  0  0
  -11.0205   -8.6887    7.4330 C   0  0  0  0  0  0  0  0  0  0  0  0
  -12.3752   -8.8628    7.5919 C   0  0  0  0  0  0  0  0  0  0  0  0
  -13.1068   -7.9699    8.3461 C   0  0  0  0  0  0  0  0  0  0  0  0
  -12.4451   -6.9187    8.9236 C   0  0  0  0  0  0  0  0  0  0  0  0
  -11.0562   -6.7461    8.7574 C   0  0  0  0  0  0  0  0  0  0  0  0
  -10.4692   -5.6725    9.3712 O   0  0  0  0  0  0  0  0  0  0  0  0
   -9.4942   -5.5043    9.3150 H   0  0  0  0  0  0  0  0  0  0  0  0
  -14.5311   -8.1203    8.5346 C   0  0  0  0  0  0  0  0  0  0  0  0
  -15.6664   -8.2432    8.6679 N   0  0  0  0  0  0  0  0  0  0  0  0
   -3.8745   -6.6026    8.1868 O   0  0  0  0  0  0  0  0  0  0  0  0
   -4.6376   -7.3610    7.3245 C   0  0  0  0  0  0  0  0  0  0  0  0
   -4.0813   -8.0039    6.4183 O   0  0  0  0  0  0  0  0  0  0  0  0
   -3.6483   -6.9256    9.1081 H   0  0  0  0  0  0  0  0  0  0  0  0
 19 20  1  0  0  0
 20 21  2  0  0  0
 20  1  1  0  0  0
  1  2  2  0  0  0
  2  3  1  0  0  0
  3  4  2  0  0  0
  4  5  1  0  0  0
  5  6  2  0  0  0
  6  7  1  0  0  0
  4  9  1  0  0  0
  9 10  2  0  0  0
 10 11  1  0  0  0
 11 12  2  0  0  0
 12 13  1  0  0  0
 13 14  2  0  0  0
 14 15  1  0  0  0
 12 17  1  0  0  0
 17 18  3  0  0  0
  6  1  1  0  0  0
 14  9  1  0  0  0
 19 22  1  0  0  0
  7  8  1  0  0  0
 15 16  1  0  0  0
M  END
> <minimizedAffinity>
-7.50524

> <CNNscore>
0.4057554901

> <CNNaffinity>
4.8860254288

> <CNN_VS>
1.9825316668

> <CNNaffinity_variance>
0.1713352650

$$$$
[H]OC(=O)c1c([H])c([H])c(-c2c([H])c([H])c(C#N)c([H])c2O[H])c([H])c1O[H]


 22 23  0  0  0  0  0  0  0  0999 V2000
   -6.6202   -7.5969    6.7369 C   0  0  0  0  0  0  0  0  0  0  0  0
   -7.0567   -6.6951    5.8087 C   0  0  0  0  0  0  0  0  0  0  0  0
   -6.1820   -5.8073    5.2576 C   0  0  0  0  0  0  0  0  0  0  0  0
   -4.8186   -5.7515    5.5869 C   0  0  0  0  0  0  0  0  0  0  0  0
   -4.4126   -6.6648    6.5169 C   0  0  0  0  0  0  0  0  0  0  0  0
   -5.2739   -7.5802    7.0965 C   0  0  0  0  0  0  0  0  0  0  0  0
   -4.8597   -8.4953    8.0304 O   0  0  0  0  0  0  0  0  0  0  0  0
   -3.8891   -8.5032    8.3074 H   0  0  0  0  0  0  0  0  0  0  0  0
   -3.9860   -4.7811    4.9048 C   0  0  0  0  0  0  0  0  0  0  0  0
   -4.4878   -3.4961    4.6272 C   0  0  0  0  0  0  0  0  0  0  0  0
   -3.7597   -2.5404    3.9585 C   0  0  0  0  0  0  0  0  0  0  0  0
   -2.4797   -2.8178    3.5269 C   0  0  0  0  0  0  0  0  0  0  0  0
   -1.9669   -4.0614    3.7850 C   0  0  0  0  0  0  0  0  0  0  0  0
   -2.7182   -5.0366    4.4714 C   0  0  0  0  0  0  0  0  0  0  0  0
   -2.1317   -6.2533    4.6939 O   0  0  0  0  0  0  0  0  0  0  0  0
   -2.5942   -6.9759    5.1899 H   0  0  0  0  0  0  0  0  0  0  0  0
   -1.6853   -1.8392    2.8211 C   0  0  0  0  0  0  0  0  0  0  0  0
   -1.0607   -1.0480    2.2684 N   0  0  0  0  0  0  0  0  0  0  0  0
   -8.0525   -9.5837    6.5724 O   0  0  0  0  0  0  0  0  0  0  0  0
   -7.5463   -8.5512    7.3332 C   0  0  0  0  0  0  0  0  0  0  0  0
   -7.8859   -8.4441    8.5237 O   0  0  0  0  0  0  0  0  0  0  0  0
   -7.5123  -10.4055    6.3792 H   0  0  0  0  0  0  0  0  0  0  0  0
 19 20  1  0  0  0
 20 21  2  0  0  0
 20  1  1  0  0  0
  1  2  2  0  0  0
  2  3  1  0  0  0
  3  4  2  0  0  0
  4  5  1  0  0  0
  5  6  2  0  0  0
  6  7  1  0  0  0
  4  9  1  0  0  0
  9 10  2  0  0  0
 10 11  1  0  0  0
 11 12  2  0  0  0
 12 13  1  0  0  0
 13 14  2  0  0  0
 14 15  1  0  0  0
 12 17  1  0  0  0
 17 18  3  0  0  0
  6  1  1  0  0  0
 14  9  1  0  0  0
 19 22  1  0  0  0
  7  8  1  0  0  0
 15 16  1  0  0  0
M  END
> <minimizedAffinity>
-2.72438

> <CNNscore>
0.3867675662

> <CNNaffinity>
3.7433249950

> <CNN_VS>
1.4477967024

> <CNNaffinity_variance>
0.3473669589

$$$$
[H]c1nc(C(F)(F)F)c([H])c(C(=O)N([H])c2c([H])c([H])c(C([H])([H])[H])c(-c3c([H])c(N4C([H])([H])C([H])([H])OC([H])([H])C4([H])[H])c(=O)n(C([H])([H])[H])c3[H])c2[H])c1[H]


 35 38  0  0  0  0  0  0  0  0999 V2000
  -12.2635   -9.8347   10.6037 C   0  0  0  0  0  0  0  0  0  0  0  0
  -13.0353   -8.9196    9.6799 C   0  0  0  0  0  0  0  0  0  0  0  0
  -14.1861   -9.5190    9.1785 C   0  0  0  0  0  0  0  0  0  0  0  0
  -14.9961   -8.8231    8.3581 C   0  0  0  0  0  0  0  0  0  0  0  0
  -14.7737   -7.4905    7.9505 C   0  0  0  0  0  0  0  0  0  0  0  0
  -13.6042   -6.9350    8.4918 C   0  0  0  0  0  0  0  0  0  0  0  0
  -12.7276   -7.6254    9.3454 C   0  0  0  0  0  0  0  0  0  0  0  0
  -11.5062   -7.0353    9.8971 C   0  0  0  0  0  0  0  0  0  0  0  0
  -11.3272   -6.8382   11.2800 C   0  0  0  0  0  0  0  0  0  0  0  0
  -10.1461   -6.3265   11.7329 C   0  0  0  0  0  0  0  0  0  0  0  0
   -9.0710   -5.9936   10.8696 C   0  0  0  0  0  0  0  0  0  0  0  0
   -8.0043   -5.5448   11.3462 O   0  0  0  0  0  0  0  0  0  0  0  0
   -9.2589   -6.1936    9.5835 N   0  0  0  0  0  0  0  0  0  0  0  0
   -8.1355   -5.9133    8.6898 C   0  0  0  0  0  0  0  0  0  0  0  0
  -10.4461   -6.6955    9.1238 C   0  0  0  0  0  0  0  0  0  0  0  0
   -9.9386   -5.9676   13.0892 N   0  0  0  0  0  0  0  0  0  0  0  0
   -8.7581   -5.3627   13.6462 C   0  0  0  0  0  0  0  0  0  0  0  0
   -9.2046   -4.4778   14.8216 C   0  0  0  0  0  0  0  0  0  0  0  0
  -10.4367   -3.9430   14.5026 O   0  0  0  0  0  0  0  0  0  0  0  0
  -11.4017   -4.9135   14.7197 C   0  0  0  0  0  0  0  0  0  0  0  0
  -11.0541   -6.2043   14.0278 C   0  0  0  0  0  0  0  0  0  0  0  0
  -15.6745   -6.8854    7.1285 N   0  0  0  0  0  0  0  0  0  0  0  0
  -16.8996   -6.5278    6.6453 C   0  0  0  0  0  0  0  0  0  0  0  0
  -18.0084   -6.9154    7.0835 O   0  0  0  0  0  0  0  0  0  0  0  0
  -14.9871   -6.1707    6.3825 H   0  0  0  0  0  0  0  0  0  0  0  0
  -16.9777   -5.5787    5.4799 C   0  0  0  0  0  0  0  0  0  0  0  0
  -18.0767   -5.8238    4.6296 C   0  0  0  0  0  0  0  0  0  0  0  0
  -18.1514   -5.0951    3.4929 C   0  0  0  0  0  0  0  0  0  0  0  0
  -17.2226   -4.1534    3.1824 N   0  0  0  0  0  0  0  0  0  0  0  0
  -16.1639   -3.8926    3.9868 C   0  0  0  0  0  0  0  0  0  0  0  0
  -16.0705   -4.6601    5.1781 C   0  0  0  0  0  0  0  0  0  0  0  0
  -15.1644   -2.9182    3.5460 C   0  0  0  0  0  0  0  0  0  0  0  0
  -14.1075   -3.7443    3.0542 F   0  0  0  0  0  0  0  0  0  0  0  0
  -14.6116   -2.1541    4.5381 F   0  0  0  0  0  0  0  0  0  0  0  0
  -15.5511   -2.1856    2.4651 F   0  0  0  0  0  0  0  0  0  0  0  0
  1  2  1  0  0  0
  2  3  2  0  0  0
  3  4  1  0  0  0
  4  5  2  0  0  0
  5 22  1  0  0  0
 22 23  1  0  0  0
 23 24  2  0  0  0
 23 26  1  0  0  0
 26 27  2  0  0  0
 27 28  1  0  0  0
 28 29  2  0  0  0
 29 30  1  0  0  0
 30 31  2  0  0  0
 30 32  1  0  0  0
 32 33  1  0  0  0
 32 34  1  0  0  0
 32 35  1  0  0  0
  5  6  1  0  0  0
  6  7  2  0  0  0
  7  8  1  0  0  0
  8  9  1  0  0  0
  9 10  2  0  0  0
 10 16  1  0  0  0
 16 17  1  0  0  0
 17 18  1  0  0  0
 18 19  1  0  0  0
 19 20  1  0  0  0
 20 21  1  0  0  0
 10 11  1  0  0  0
 11 12  2  0  0  0
 11 13  1  0  0  0
 13 14  1  0  0  0
 13 15  1  0  0  0
  7  2  1  0  0  0
 15  8  2  0  0  0
 31 26  1  0  0  0
 21 16  1  0  0  0
 22 25  1  0  0  0
M  END
> <minimizedAffinity>
25.03253

> <CNNscore>
0.4620459974

> <CNNaffinity>
6.3804755211

> <CNN_VS>
2.9480731487

> <CNNaffinity_variance>
1.0128645897

$$$$
[H]c1nc(C(F)(F)F)c([H])c(C(=O)N([H])c2c([H])c([H])c(C([H])([H])[H])c(-c3c([H])c(N4C([H])([H])C([H])([H])OC([H])([H])C4([H])[H])c(=O)n(C([H])([H])[H])c3[H])c2[H])c1[H]


 35 38  0  0  0  0  0  0  0  0999 V2000
   -7.1253   -5.4290    5.9311 C   0  0  0  0  0  0  0  0  0  0  0  0
   -8.2280   -5.8706    6.8667 C   0  0  0  0  0  0  0  0  0  0  0  0
   -9.4730   -5.8936    6.2467 C   0  0  0  0  0  0  0  0  0  0  0  0
  -10.5561   -6.2894    6.9421 C   0  0  0  0  0  0  0  0  0  0  0  0
  -10.5378   -6.7008    8.2918 C   0  0  0  0  0  0  0  0  0  0  0  0
   -9.2565   -6.6645    8.8631 C   0  0  0  0  0  0  0  0  0  0  0  0
   -8.1012   -6.2528    8.1779 C   0  0  0  0  0  0  0  0  0  0  0  0
   -6.7711   -6.2129    8.7893 C   0  0  0  0  0  0  0  0  0  0  0  0
   -5.6103   -5.9357    8.0416 C   0  0  0  0  0  0  0  0  0  0  0  0
   -4.4065   -5.8671    8.6806 C   0  0  0  0  0  0  0  0  0  0  0  0
   -4.2677   -6.0487   10.0804 C   0  0  0  0  0  0  0  0  0  0  0  0
   -3.1387   -5.9555   10.6125 O   0  0  0  0  0  0  0  0  0  0  0  0
   -5.3664   -6.2988   10.7582 N   0  0  0  0  0  0  0  0  0  0  0  0
   -5.2448   -6.4254   12.2103 C   0  0  0  0  0  0  0  0  0  0  0  0
   -6.5742   -6.3801   10.1199 C   0  0  0  0  0  0  0  0  0  0  0  0
   -3.1782   -5.7330    7.9843 N   0  0  0  0  0  0  0  0  0  0  0  0
   -1.9003   -6.2550    8.3895 C   0  0  0  0  0  0  0  0  0  0  0  0
   -1.1083   -6.5777    7.1118 C   0  0  0  0  0  0  0  0  0  0  0  0
   -2.0064   -7.0105    6.1569 O   0  0  0  0  0  0  0  0  0  0  0  0
   -2.6389   -5.9007    5.6198 C   0  0  0  0  0  0  0  0  0  0  0  0
   -3.2090   -5.0143    6.6944 C   0  0  0  0  0  0  0  0  0  0  0  0
  -11.6981   -7.0950    8.8847 N   0  0  0  0  0  0  0  0  0  0  0  0
  -12.5334   -7.4711    9.8961 C   0  0  0  0  0  0  0  0  0  0  0  0
  -12.2121   -7.6364   11.0965 O   0  0  0  0  0  0  0  0  0  0  0  0
  -12.5485   -7.0293    7.9832 H   0  0  0  0  0  0  0  0  0  0  0  0
  -13.9861   -7.7192    9.5910 C   0  0  0  0  0  0  0  0  0  0  0  0
  -14.7149   -8.2113   10.6944 C   0  0  0  0  0  0  0  0  0  0  0  0
  -15.9980   -8.5763   10.4726 C   0  0  0  0  0  0  0  0  0  0  0  0
  -16.5747   -8.4618    9.2478 N   0  0  0  0  0  0  0  0  0  0  0  0
  -15.8993   -7.9832    8.1752 C   0  0  0  0  0  0  0  0  0  0  0  0
  -14.5476   -7.6070    8.3951 C   0  0  0  0  0  0  0  0  0  0  0  0
  -16.5655   -7.9629    6.8718 C   0  0  0  0  0  0  0  0  0  0  0  0
  -17.8233   -8.5829    7.1459 F   0  0  0  0  0  0  0  0  0  0  0  0
  -15.9765   -8.7251    5.8992 F   0  0  0  0  0  0  0  0  0  0  0  0
  -16.8920   -6.7128    6.4414 F   0  0  0  0  0  0  0  0  0  0  0  0
  1  2  1  0  0  0
  2  3  2  0  0  0
  3  4  1  0  0  0
  4  5  2  0  0  0
  5 22  1  0  0  0
 22 23  1  0  0  0
 23 24  2  0  0  0
 23 26  1  0  0  0
 26 27  2  0  0  0
 27 28  1  0  0  0
 28 29  2  0  0  0
 29 30  1  0  0  0
 30 31  2  0  0  0
 30 32  1  0  0  0
 32 33  1  0  0  0
 32 34  1  0  0  0
 32 35  1  0  0  0
  5  6  1  0  0  0
  6  7  2  0  0  0
  7  8  1  0  0  0
  8  9  1  0  0  0
  9 10  2  0  0  0
 10 16  1  0  0  0
 16 17  1  0  0  0
 17 18  1  0  0  0
 18 19  1  0  0  0
 19 20  1  0  0  0
 20 21  1  0  0  0
 10 11  1  0  0  0
 11 12  2  0  0  0
 11 13  1  0  0  0
 13 14  1  0  0  0
 13 15  1  0  0  0
  7  2  1  0  0  0
 15  8  2  0  0  0
 31 26  1  0  0  0
 21 16  1  0  0  0
 22 25  1  0  0  0
M  END
> <minimizedAffinity>
9.58183

> <CNNscore>
0.4509145617

> <CNNaffinity>
6.2994742393

> <CNN_VS>
2.8405246735

> <CNNaffinity_variance>
1.6468582153

$$$$
[H]c1nc(C(F)(F)F)c([H])c(C(=O)N([H])c2c([H])c([H])c(C([H])([H])[H])c(-c3c([H])c(N4C([H])([H])C([H])([H])OC([H])([H])C4([H])[H])c(=O)n(C([H])([H])[H])c3[H])c2[H])c1[H]


 35 38  0  0  0  0  0  0  0  0999 V2000
   -3.4154   -8.0041    4.9223 C   0  0  0  0  0  0  0  0  0  0  0  0
   -3.5387   -7.1499    6.1639 C   0  0  0  0  0  0  0  0  0  0  0  0
   -3.9204   -7.8873    7.2800 C   0  0  0  0  0  0  0  0  0  0  0  0
   -4.0503   -7.2732    8.4713 C   0  0  0  0  0  0  0  0  0  0  0  0
   -3.8219   -5.8988    8.6956 C   0  0  0  0  0  0  0  0  0  0  0  0
   -3.4330   -5.2072    7.5381 C   0  0  0  0  0  0  0  0  0  0  0  0
   -3.2913   -5.8053    6.2748 C   0  0  0  0  0  0  0  0  0  0  0  0
   -2.8917   -5.0695    5.0735 C   0  0  0  0  0  0  0  0  0  0  0  0
   -3.0428   -3.6736    4.9643 C   0  0  0  0  0  0  0  0  0  0  0  0
   -2.6071   -3.0422    3.8358 C   0  0  0  0  0  0  0  0  0  0  0  0
   -1.9881   -3.7296    2.7606 C   0  0  0  0  0  0  0  0  0  0  0  0
   -1.5922   -3.0927    1.7586 O   0  0  0  0  0  0  0  0  0  0  0  0
   -1.8511   -5.0312    2.8887 N   0  0  0  0  0  0  0  0  0  0  0  0
   -1.1581   -5.7419    1.8146 C   0  0  0  0  0  0  0  0  0  0  0  0
   -2.2973   -5.6701    4.0136 C   0  0  0  0  0  0  0  0  0  0  0  0
   -2.8481   -1.6666    3.5882 N   0  0  0  0  0  0  0  0  0  0  0  0
   -3.0414   -1.0465    2.3045 C   0  0  0  0  0  0  0  0  0  0  0  0
   -3.9901    0.1463    2.5072 C   0  0  0  0  0  0  0  0  0  0  0  0
   -4.8894   -0.1937    3.4979 O   0  0  0  0  0  0  0  0  0  0  0  0
   -4.2614   -0.0476    4.7245 C   0  0  0  0  0  0  0  0  0  0  0  0
   -2.9452   -0.7767    4.7628 C   0  0  0  0  0  0  0  0  0  0  0  0
   -3.9710   -5.3942    9.9512 N   0  0  0  0  0  0  0  0  0  0  0  0
   -4.4538   -5.3015   11.2242 C   0  0  0  0  0  0  0  0  0  0  0  0
   -5.3331   -6.0340   11.7359 O   0  0  0  0  0  0  0  0  0  0  0  0
   -3.1141   -4.5004   10.0333 H   0  0  0  0  0  0  0  0  0  0  0  0
   -3.9075   -4.2377   12.1379 C   0  0  0  0  0  0  0  0  0  0  0  0
   -4.2598   -4.4257   13.4912 C   0  0  0  0  0  0  0  0  0  0  0  0
   -3.9128   -3.4492   14.3601 C   0  0  0  0  0  0  0  0  0  0  0  0
   -3.2392   -2.3394   13.9599 N   0  0  0  0  0  0  0  0  0  0  0  0
   -2.8810   -2.1402   12.6684 C   0  0  0  0  0  0  0  0  0  0  0  0
   -3.2501   -3.1551   11.7460 C   0  0  0  0  0  0  0  0  0  0  0  0
   -2.2256   -0.8835   12.3024 C   0  0  0  0  0  0  0  0  0  0  0  0
   -1.4817   -0.5566   13.4776 F   0  0  0  0  0  0  0  0  0  0  0  0
   -3.0655    0.1752   12.0844 F   0  0  0  0  0  0  0  0  0  0  0  0
   -1.2804   -1.0197   11.3315 F   0  0  0  0  0  0  0  0  0  0  0  0
  1  2  1  0  0  0
  2  3  2  0  0  0
  3  4  1  0  0  0
  4  5  2  0  0  0
  5 22  1  0  0  0
 22 23  1  0  0  0
 23 24  2  0  0  0
 23 26  1  0  0  0
 26 27  2  0  0  0
 27 28  1  0  0  0
 28 29  2  0  0  0
 29 30  1  0  0  0
 30 31  2  0  0  0
 30 32  1  0  0  0
 32 33  1  0  0  0
 32 34  1  0  0  0
 32 35  1  0  0  0
  5  6  1  0  0  0
  6  7  2  0  0  0
  7  8  1  0  0  0
  8  9  1  0  0  0
  9 10  2  0  0  0
 10 16  1  0  0  0
 16 17  1  0  0  0
 17 18  1  0  0  0
 18 19  1  0  0  0
 19 20  1  0  0  0
 20 21  1  0  0  0
 10 11  1  0  0  0
 11 12  2  0  0  0
 11 13  1  0  0  0
 13 14  1  0  0  0
 13 15  1  0  0  0
  7  2  1  0  0  0
 15  8  2  0  0  0
 31 26  1  0  0  0
 21 16  1  0  0  0
 22 25  1  0  0  0
M  END
> <minimizedAffinity>
-1.80772

> <CNNscore>
0.4049026668

> <CNNaffinity>
5.8799667358

> <CNN_VS>
2.3808143139

> <CNNaffinity_variance>
2.0629479885

$$$$
[H]c1nc(C(F)(F)F)c([H])c(C(=O)N([H])c2c([H])c([H])c(C([H])([H])[H])c(-c3c([H])c(N4C([H])([H])C([H])([H])OC([H])([H])C4([H])[H])c(=O)n(C([H])([H])[H])c3[H])c2[H])c1[H]


 35 38  0  0  0  0  0  0  0  0999 V2000
   -9.5924  -10.3180    6.8840 C   0  0  0  0  0  0  0  0  0  0  0  0
  -10.9493   -9.6507    6.8804 C   0  0  0  0  0  0  0  0  0  0  0  0
  -11.8620  -10.3079    6.0618 C   0  0  0  0  0  0  0  0  0  0  0  0
  -13.1248   -9.8493    5.9700 C   0  0  0  0  0  0  0  0  0  0  0  0
  -13.6221   -8.7223    6.6586 C   0  0  0  0  0  0  0  0  0  0  0  0
  -12.6613   -8.1045    7.4737 C   0  0  0  0  0  0  0  0  0  0  0  0
  -11.3324   -8.5441    7.5946 C   0  0  0  0  0  0  0  0  0  0  0  0
  -10.3381   -7.8848    8.4437 C   0  0  0  0  0  0  0  0  0  0  0  0
  -10.6948   -7.1926    9.6171 C   0  0  0  0  0  0  0  0  0  0  0  0
   -9.7147   -6.6399   10.3890 C   0  0  0  0  0  0  0  0  0  0  0  0
   -8.3362   -6.7428   10.0714 C   0  0  0  0  0  0  0  0  0  0  0  0
   -7.4816   -6.2304   10.8288 O   0  0  0  0  0  0  0  0  0  0  0  0
   -8.0272   -7.4003    8.9752 N   0  0  0  0  0  0  0  0  0  0  0  0
   -6.6064   -7.5670    8.6708 C   0  0  0  0  0  0  0  0  0  0  0  0
   -9.0076   -7.9461    8.1919 C   0  0  0  0  0  0  0  0  0  0  0  0
   -9.9967   -5.8108   11.5046 N   0  0  0  0  0  0  0  0  0  0  0  0
  -11.2371   -5.1365   11.7813 C   0  0  0  0  0  0  0  0  0  0  0  0
  -11.3825   -5.0479   13.3093 C   0  0  0  0  0  0  0  0  0  0  0  0
  -10.8263   -6.1885   13.8527 O   0  0  0  0  0  0  0  0  0  0  0  0
   -9.4487   -6.0390   13.8620 C   0  0  0  0  0  0  0  0  0  0  0  0
   -8.9258   -5.6421   12.5076 C   0  0  0  0  0  0  0  0  0  0  0  0
  -14.9254   -8.3637    6.4970 N   0  0  0  0  0  0  0  0  0  0  0  0
  -16.2118   -8.0873    6.8590 C   0  0  0  0  0  0  0  0  0  0  0  0
  -16.6940   -8.1939    8.0112 O   0  0  0  0  0  0  0  0  0  0  0  0
  -15.0108   -8.0213    5.3072 H   0  0  0  0  0  0  0  0  0  0  0  0
  -17.1784   -7.6033    5.8118 C   0  0  0  0  0  0  0  0  0  0  0  0
  -17.6354   -8.6267    4.9547 C   0  0  0  0  0  0  0  0  0  0  0  0
  -18.4108   -8.2560    3.9106 C   0  0  0  0  0  0  0  0  0  0  0  0
  -18.7545   -6.9590    3.6975 N   0  0  0  0  0  0  0  0  0  0  0  0
  -18.3367   -5.9597    4.5114 C   0  0  0  0  0  0  0  0  0  0  0  0
  -17.5129   -6.3372    5.6050 C   0  0  0  0  0  0  0  0  0  0  0  0
  -18.6849   -4.5790    4.1717 C   0  0  0  0  0  0  0  0  0  0  0  0
  -18.3099   -3.8564    5.3458 F   0  0  0  0  0  0  0  0  0  0  0  0
  -20.0203   -4.3368    3.9935 F   0  0  0  0  0  0  0  0  0  0  0  0
  -17.9125   -4.0448    3.1854 F   0  0  0  0  0  0  0  0  0  0  0  0
  1  2  1  0  0  0
  2  3  2  0  0  0
  3  4  1  0  0  0
  4  5  2  0  0  0
  5 22  1  0  0  0
 22 23  1  0  0  0
 23 24  2  0  0  0
 23 26  1  0  0  0
 26 27  2  0  0  0
 27 28  1  0  0  0
 28 29  2  0  0  0
 29 30  1  0  0  0
 30 31  2  0  0  0
 30 32  1  0  0  0
 32 33  1  0  0  0
 32 34  1  0  0  0
 32 35  1  0  0  0
  5  6  1  0  0  0
  6  7  2  0  0  0
  7  8  1  0  0  0
  8  9  1  0  0  0
  9 10  2  0  0  0
 10 16  1  0  0  0
 16 17  1  0  0  0
 17 18  1  0  0  0
 18 19  1  0  0  0
 19 20  1  0  0  0
 20 21  1  0  0  0
 10 11  1  0  0  0
 11 12  2  0  0  0
 11 13  1  0  0  0
 13 14  1  0  0  0
 13 15  1  0  0  0
  7  2  1  0  0  0
 15  8  2  0  0  0
 31 26  1  0  0  0
 21 16  1  0  0  0
 22 25  1  0  0  0
M  END
> <minimizedAffinity>
8.96222

> <CNNscore>
0.3943576515

> <CNNaffinity>
6.6135878563

> <CNN_VS>
2.6081190109

> <CNNaffinity_variance>
0.9052653313

$$$$
[H]c1nc(C(F)(F)F)c([H])c(C(=O)N([H])c2c([H])c([H])c(C([H])([H])[H])c(-c3c([H])c(N4C([H])([H])C([H])([H])OC([H])([H])C4([H])[H])c(=O)n(C([H])([H])[H])c3[H])c2[H])c1[H]


 35 38  0  0  0  0  0  0  0  0999 V2000
  -12.3090   -8.4983   10.4427 C   0  0  0  0  0  0  0  0  0  0  0  0
  -13.1386   -8.2587    9.2015 C   0  0  0  0  0  0  0  0  0  0  0  0
  -14.4579   -7.9334    9.4993 C   0  0  0  0  0  0  0  0  0  0  0  0
  -15.3199   -7.6665    8.4997 C   0  0  0  0  0  0  0  0  0  0  0  0
  -14.9896   -7.6853    7.1278 C   0  0  0  0  0  0  0  0  0  0  0  0
  -13.6462   -8.0119    6.8874 C   0  0  0  0  0  0  0  0  0  0  0  0
  -12.7147   -8.3037    7.8978 C   0  0  0  0  0  0  0  0  0  0  0  0
  -11.3171   -8.6504    7.6316 C   0  0  0  0  0  0  0  0  0  0  0  0
  -10.2543   -7.7881    7.9639 C   0  0  0  0  0  0  0  0  0  0  0  0
   -8.9715   -8.1912    7.7319 C   0  0  0  0  0  0  0  0  0  0  0  0
   -8.6516   -9.4580    7.1799 C   0  0  0  0  0  0  0  0  0  0  0  0
   -7.4542   -9.7788    7.0075 O   0  0  0  0  0  0  0  0  0  0  0  0
   -9.6601  -10.2487    6.8850 N   0  0  0  0  0  0  0  0  0  0  0  0
   -9.3408  -11.5814    6.3740 C   0  0  0  0  0  0  0  0  0  0  0  0
  -10.9487   -9.8438    7.1050 C   0  0  0  0  0  0  0  0  0  0  0  0
   -7.8569   -7.3317    7.9061 N   0  0  0  0  0  0  0  0  0  0  0  0
   -6.9145   -7.3574    8.9929 C   0  0  0  0  0  0  0  0  0  0  0  0
   -5.5600   -6.8854    8.4394 C   0  0  0  0  0  0  0  0  0  0  0  0
   -5.4585   -7.3304    7.1366 O   0  0  0  0  0  0  0  0  0  0  0  0
   -6.2087   -6.4898    6.3299 C   0  0  0  0  0  0  0  0  0  0  0  0
   -7.6101   -6.3253    6.8536 C   0  0  0  0  0  0  0  0  0  0  0  0
  -15.9458   -7.3818    6.2075 N   0  0  0  0  0  0  0  0  0  0  0  0
  -17.0312   -7.5791    5.4042 C   0  0  0  0  0  0  0  0  0  0  0  0
  -17.6718   -8.6493    5.2779 O   0  0  0  0  0  0  0  0  0  0  0  0
  -15.7913   -6.1711    5.9830 H   0  0  0  0  0  0  0  0  0  0  0  0
  -17.5460   -6.4330    4.5758 C   0  0  0  0  0  0  0  0  0  0  0  0
  -16.7136   -6.1131    3.4823 C   0  0  0  0  0  0  0  0  0  0  0  0
  -17.0394   -5.0178    2.7590 C   0  0  0  0  0  0  0  0  0  0  0  0
  -18.1288   -4.2615    3.0542 N   0  0  0  0  0  0  0  0  0  0  0  0
  -18.9489   -4.5534    4.0926 C   0  0  0  0  0  0  0  0  0  0  0  0
  -18.6093   -5.6958    4.8650 C   0  0  0  0  0  0  0  0  0  0  0  0
  -20.0579   -3.6466    4.3939 C   0  0  0  0  0  0  0  0  0  0  0  0
  -21.1083   -4.5396    4.7689 F   0  0  0  0  0  0  0  0  0  0  0  0
  -20.5369   -2.9308    3.3301 F   0  0  0  0  0  0  0  0  0  0  0  0
  -19.8550   -2.8801    5.5011 F   0  0  0  0  0  0  0  0  0  0  0  0
  1  2  1  0  0  0
  2  3  2  0  0  0
  3  4  1  0  0  0
  4  5  2  0  0  0
  5 22  1  0  0  0
 22 23  1  0  0  0
 23 24  2  0  0  0
 23 26  1  0  0  0
 26 27  2  0  0  0
 27 28  1  0  0  0
 28 29  2  0  0  0
 29 30  1  0  0  0
 30 31  2  0  0  0
 30 32  1  0  0  0
 32 33  1  0  0  0
 32 34  1  0  0  0
 32 35  1  0  0  0
  5  6  1  0  0  0
  6  7  2  0  0  0
  7  8  1  0  0  0
  8  9  1  0  0  0
  9 10  2  0  0  0
 10 16  1  0  0  0
 16 17  1  0  0  0
 17 18  1  0  0  0
 18 19  1  0  0  0
 19 20  1  0  0  0
 20 21  1  0  0  0
 10 11  1  0  0  0
 11 12  2  0  0  0
 11 13  1  0  0  0
 13 14  1  0  0  0
 13 15  1  0  0  0
  7  2  1  0  0  0
 15  8  2  0  0  0
 31 26  1  0  0  0
 21 16  1  0  0  0
 22 25  1  0  0  0
M  END
> <minimizedAffinity>
1.52422

> <CNNscore>
0.3497377932

> <CNNaffinity>
6.7889733315

> <CNN_VS>
2.3743605614

> <CNNaffinity_variance>
0.3049001098

$$$$
[H]c1nc(C(F)(F)F)c([H])c(C(=O)N([H])c2c([H])c([H])c(C([H])([H])[H])c(-c3c([H])c(N4C([H])([H])C([H])([H])OC([H])([H])C4([H])[H])c(=O)n(C([H])([H])[H])c3[H])c2[H])c1[H]


 35 38  0  0  0  0  0  0  0  0999 V2000
  -13.9718  -10.5491    6.3873 C   0  0  0  0  0  0  0  0  0  0  0  0
  -12.7763   -9.6913    6.7357 C   0  0  0  0  0  0  0  0  0  0  0  0
  -11.6089  -10.4360    6.8681 C   0  0  0  0  0  0  0  0  0  0  0  0
  -10.4500   -9.8125    7.1536 C   0  0  0  0  0  0  0  0  0  0  0  0
  -10.3103   -8.4198    7.3334 C   0  0  0  0  0  0  0  0  0  0  0  0
  -11.5167   -7.7193    7.1813 C   0  0  0  0  0  0  0  0  0  0  0  0
  -12.7487   -8.3286    6.8903 C   0  0  0  0  0  0  0  0  0  0  0  0
  -14.0017   -7.5855    6.7417 C   0  0  0  0  0  0  0  0  0  0  0  0
  -14.0840   -6.3969    5.9908 C   0  0  0  0  0  0  0  0  0  0  0  0
  -15.2922   -5.7779    5.8529 C   0  0  0  0  0  0  0  0  0  0  0  0
  -16.4867   -6.2876    6.4232 C   0  0  0  0  0  0  0  0  0  0  0  0
  -17.5691   -5.6845    6.2463 O   0  0  0  0  0  0  0  0  0  0  0  0
  -16.3862   -7.4024    7.1133 N   0  0  0  0  0  0  0  0  0  0  0  0
  -17.6210   -7.9710    7.6530 C   0  0  0  0  0  0  0  0  0  0  0  0
  -15.1745   -8.0203    7.2641 C   0  0  0  0  0  0  0  0  0  0  0  0
  -15.4350   -4.5095    5.2347 N   0  0  0  0  0  0  0  0  0  0  0  0
  -14.9906   -3.2449    5.7574 C   0  0  0  0  0  0  0  0  0  0  0  0
  -14.6254   -2.3537    4.5590 C   0  0  0  0  0  0  0  0  0  0  0  0
  -14.1004   -3.1659    3.5739 O   0  0  0  0  0  0  0  0  0  0  0  0
  -15.1496   -3.7995    2.9273 C   0  0  0  0  0  0  0  0  0  0  0  0
  -16.0741   -4.4758    3.9037 C   0  0  0  0  0  0  0  0  0  0  0  0
   -9.0805   -7.9024    7.6041 N   0  0  0  0  0  0  0  0  0  0  0  0
   -8.0936   -7.3150    8.3411 C   0  0  0  0  0  0  0  0  0  0  0  0
   -8.1993   -6.8992    9.5190 O   0  0  0  0  0  0  0  0  0  0  0  0
   -8.4053   -8.1546    6.5939 H   0  0  0  0  0  0  0  0  0  0  0  0
   -6.7326   -7.1305    7.7257 C   0  0  0  0  0  0  0  0  0  0  0  0
   -5.7101   -7.8234    8.4079 C   0  0  0  0  0  0  0  0  0  0  0  0
   -4.4401   -7.6127    7.9935 C   0  0  0  0  0  0  0  0  0  0  0  0
   -4.1525   -6.7849    6.9553 N   0  0  0  0  0  0  0  0  0  0  0  0
   -5.1169   -6.1161    6.2783 C   0  0  0  0  0  0  0  0  0  0  0  0
   -6.4533   -6.3223    6.7125 C   0  0  0  0  0  0  0  0  0  0  0  0
   -4.7214   -5.1830    5.2220 C   0  0  0  0  0  0  0  0  0  0  0  0
   -3.5246   -5.7703    4.7080 F   0  0  0  0  0  0  0  0  0  0  0  0
   -4.3710   -3.9297    5.6465 F   0  0  0  0  0  0  0  0  0  0  0  0
   -5.5721   -5.1646    4.1587 F   0  0  0  0  0  0  0  0  0  0  0  0
  1  2  1  0  0  0
  2  3  2  0  0  0
  3  4  1  0  0  0
  4  5  2  0  0  0
  5 22  1  0  0  0
 22 23  1  0  0  0
 23 24  2  0  0  0
 23 26  1  0  0  0
 26 27  2  0  0  0
 27 28  1  0  0  0
 28 29  2  0  0  0
 29 30  1  0  0  0
 30 31  2  0  0  0
 30 32  1  0  0  0
 32 33  1  0  0  0
 32 34  1  0  0  0
 32 35  1  0  0  0
  5  6  1  0  0  0
  6  7  2  0  0  0
  7  8  1  0  0  0
  8  9  1  0  0  0
  9 10  2  0  0  0
 10 16  1  0  0  0
 16 17  1  0  0  0
 17 18  1  0  0  0
 18 19  1  0  0  0
 19 20  1  0  0  0
 20 21  1  0  0  0
 10 11  1  0  0  0
 11 12  2  0  0  0
 11 13  1  0  0  0
 13 14  1  0  0  0
 13 15  1  0  0  0
  7  2  1  0  0  0
 15  8  2  0  0  0
 31 26  1  0  0  0
 21 16  1  0  0  0
 22 25  1  0  0  0
M  END
> <minimizedAffinity>
4.55778

> <CNNscore>
0.3428501785

> <CNNaffinity>
6.7249040604

> <CNN_VS>
2.3056344986

> <CNNaffinity_variance>
1.4170368910

$$$$
[H]c1nc(C(F)(F)F)c([H])c(C(=O)N([H])c2c([H])c([H])c(C([H])([H])[H])c(-c3c([H])c(N4C([H])([H])C([H])([H])OC([H])([H])C4([H])[H])c(=O)n(C([H])([H])[H])c3[H])c2[H])c1[H]


 35 38  0  0  0  0  0  0  0  0999 V2000
   -9.1210   -6.2352   10.9623 C   0  0  0  0  0  0  0  0  0  0  0  0
  -10.1753   -6.4656    9.9032 C   0  0  0  0  0  0  0  0  0  0  0  0
  -11.4434   -6.0777   10.3232 C   0  0  0  0  0  0  0  0  0  0  0  0
  -12.4888   -6.1974    9.4828 C   0  0  0  0  0  0  0  0  0  0  0  0
  -12.4073   -6.6965    8.1653 C   0  0  0  0  0  0  0  0  0  0  0  0
  -11.1051   -7.0649    7.7937 C   0  0  0  0  0  0  0  0  0  0  0  0
   -9.9875   -6.9635    8.6389 C   0  0  0  0  0  0  0  0  0  0  0  0
   -8.6352   -7.3588    8.2400 C   0  0  0  0  0  0  0  0  0  0  0  0
   -7.6199   -6.4144    7.9937 C   0  0  0  0  0  0  0  0  0  0  0  0
   -6.3679   -6.8506    7.6707 C   0  0  0  0  0  0  0  0  0  0  0  0
   -6.0312   -8.2258    7.5849 C   0  0  0  0  0  0  0  0  0  0  0  0
   -4.8600   -8.5647    7.3023 O   0  0  0  0  0  0  0  0  0  0  0  0
   -6.9937   -9.0886    7.8266 N   0  0  0  0  0  0  0  0  0  0  0  0
   -6.6435  -10.5085    7.8028 C   0  0  0  0  0  0  0  0  0  0  0  0
   -8.2537   -8.6556    8.1393 C   0  0  0  0  0  0  0  0  0  0  0  0
   -5.3307   -5.9693    7.2720 N   0  0  0  0  0  0  0  0  0  0  0  0
   -4.3960   -5.2975    8.1350 C   0  0  0  0  0  0  0  0  0  0  0  0
   -3.0827   -5.1329    7.3527 C   0  0  0  0  0  0  0  0  0  0  0  0
   -2.9363   -6.2373    6.5375 O   0  0  0  0  0  0  0  0  0  0  0  0
   -3.7496   -6.0702    5.4281 C   0  0  0  0  0  0  0  0  0  0  0  0
   -5.1631   -5.7363    5.8232 C   0  0  0  0  0  0  0  0  0  0  0  0
  -13.5340   -6.7554    7.4036 N   0  0  0  0  0  0  0  0  0  0  0  0
  -14.3159   -6.6100    6.2946 C   0  0  0  0  0  0  0  0  0  0  0  0
  -13.9631   -6.1038    5.2034 O   0  0  0  0  0  0  0  0  0  0  0  0
  -14.3596   -7.3535    8.1112 H   0  0  0  0  0  0  0  0  0  0  0  0
  -15.7416   -7.0902    6.3368 C   0  0  0  0  0  0  0  0  0  0  0  0
  -16.1543   -7.5097    7.6192 C   0  0  0  0  0  0  0  0  0  0  0  0
  -17.3811   -8.0701    7.7194 C   0  0  0  0  0  0  0  0  0  0  0  0
  -18.1950   -8.2118    6.6409 N   0  0  0  0  0  0  0  0  0  0  0  0
  -17.8257   -7.8083    5.4013 C   0  0  0  0  0  0  0  0  0  0  0  0
  -16.5348   -7.2280    5.2834 C   0  0  0  0  0  0  0  0  0  0  0  0
  -18.7266   -8.0657    4.2765 C   0  0  0  0  0  0  0  0  0  0  0  0
  -19.3184   -6.7866    4.0415 F   0  0  0  0  0  0  0  0  0  0  0  0
  -19.7661   -8.9166    4.5394 F   0  0  0  0  0  0  0  0  0  0  0  0
  -18.0823   -8.3585    3.1130 F   0  0  0  0  0  0  0  0  0  0  0  0
  1  2  1  0  0  0
  2  3  2  0  0  0
  3  4  1  0  0  0
  4  5  2  0  0  0
  5 22  1  0  0  0
 22 23  1  0  0  0
 23 24  2  0  0  0
 23 26  1  0  0  0
 26 27  2  0  0  0
 27 28  1  0  0  0
 28 29  2  0  0  0
 29 30  1  0  0  0
 30 31  2  0  0  0
 30 32  1  0  0  0
 32 33  1  0  0  0
 32 34  1  0  0  0
 32 35  1  0  0  0
  5  6  1  0  0  0
  6  7  2  0  0  0
  7  8  1  0  0  0
  8  9  1  0  0  0
  9 10  2  0  0  0
 10 16  1  0  0  0
 16 17  1  0  0  0
 17 18  1  0  0  0
 18 19  1  0  0  0
 19 20  1  0  0  0
 20 21  1  0  0  0
 10 11  1  0  0  0
 11 12  2  0  0  0
 11 13  1  0  0  0
 13 14  1  0  0  0
 13 15  1  0  0  0
  7  2  1  0  0  0
 15  8  2  0  0  0
 31 26  1  0  0  0
 21 16  1  0  0  0
 22 25  1  0  0  0
M  END
> <minimizedAffinity>
-0.50119

> <CNNscore>
0.3377114236

> <CNNaffinity>
6.5271081924

> <CNN_VS>
2.2042789459

> <CNNaffinity_variance>
0.6795244813

$$$$
[H]c1nc(C(F)(F)F)c([H])c(C(=O)N([H])c2c([H])c([H])c(C([H])([H])[H])c(-c3c([H])c(N4C([H])([H])C([H])([H])OC([H])([H])C4([H])[H])c(=O)n(C([H])([H])[H])c3[H])c2[H])c1[H]


 35 38  0  0  0  0  0  0  0  0999 V2000
   -9.0857   -6.2163   10.4186 C   0  0  0  0  0  0  0  0  0  0  0  0
  -10.1752   -6.6605    9.4689 C   0  0  0  0  0  0  0  0  0  0  0  0
  -11.4457   -6.5310   10.0206 C   0  0  0  0  0  0  0  0  0  0  0  0
  -12.5264   -6.8633    9.2891 C   0  0  0  0  0  0  0  0  0  0  0  0
  -12.4817   -7.3454    7.9635 C   0  0  0  0  0  0  0  0  0  0  0  0
  -11.1771   -7.4485    7.4568 C   0  0  0  0  0  0  0  0  0  0  0  0
  -10.0220   -7.1197    8.1856 C   0  0  0  0  0  0  0  0  0  0  0  0
   -8.6658   -7.2395    7.6462 C   0  0  0  0  0  0  0  0  0  0  0  0
   -7.5805   -6.5173    8.1791 C   0  0  0  0  0  0  0  0  0  0  0  0
   -6.3330   -6.7097    7.6607 C   0  0  0  0  0  0  0  0  0  0  0  0
   -6.0703   -7.6240    6.6087 C   0  0  0  0  0  0  0  0  0  0  0  0
   -4.9009   -7.7708    6.1873 O   0  0  0  0  0  0  0  0  0  0  0  0
   -7.0980   -8.2923    6.1327 N   0  0  0  0  0  0  0  0  0  0  0  0
   -6.8296   -9.2833    5.0910 C   0  0  0  0  0  0  0  0  0  0  0  0
   -8.3527   -8.0938    6.6416 C   0  0  0  0  0  0  0  0  0  0  0  0
   -5.2166   -5.9232    8.0434 N   0  0  0  0  0  0  0  0  0  0  0  0
   -4.6420   -5.8310    9.3591 C   0  0  0  0  0  0  0  0  0  0  0  0
   -3.1363   -5.5717    9.1871 C   0  0  0  0  0  0  0  0  0  0  0  0
   -2.7186   -6.2459    8.0572 O   0  0  0  0  0  0  0  0  0  0  0  0
   -3.0880   -5.5042    6.9465 C   0  0  0  0  0  0  0  0  0  0  0  0
   -4.5480   -5.1405    6.9843 C   0  0  0  0  0  0  0  0  0  0  0  0
  -13.6458   -7.6337    7.3193 N   0  0  0  0  0  0  0  0  0  0  0  0
  -14.8650   -8.2120    7.1157 C   0  0  0  0  0  0  0  0  0  0  0  0
  -15.4224   -9.0450    7.8687 O   0  0  0  0  0  0  0  0  0  0  0  0
  -13.6523   -6.8815    6.3323 H   0  0  0  0  0  0  0  0  0  0  0  0
  -15.6531   -7.8440    5.8875 C   0  0  0  0  0  0  0  0  0  0  0  0
  -15.2958   -8.5934    4.7466 C   0  0  0  0  0  0  0  0  0  0  0  0
  -15.8692   -8.2416    3.5734 C   0  0  0  0  0  0  0  0  0  0  0  0
  -16.7646   -7.2232    3.4898 N   0  0  0  0  0  0  0  0  0  0  0  0
  -17.1313   -6.4953    4.5721 C   0  0  0  0  0  0  0  0  0  0  0  0
  -16.5267   -6.8499    5.8073 C   0  0  0  0  0  0  0  0  0  0  0  0
  -18.0423   -5.3643    4.3877 C   0  0  0  0  0  0  0  0  0  0  0  0
  -17.4623   -4.6627    3.2865 F   0  0  0  0  0  0  0  0  0  0  0  0
  -18.0837   -4.4688    5.4222 F   0  0  0  0  0  0  0  0  0  0  0  0
  -19.2797   -5.7224    3.9460 F   0  0  0  0  0  0  0  0  0  0  0  0
  1  2  1  0  0  0
  2  3  2  0  0  0
  3  4  1  0  0  0
  4  5  2  0  0  0
  5 22  1  0  0  0
 22 23  1  0  0  0
 23 24  2  0  0  0
 23 26  1  0  0  0
 26 27  2  0  0  0
 27 28  1  0  0  0
 28 29  2  0  0  0
 29 30  1  0  0  0
 30 31  2  0  0  0
 30 32  1  0  0  0
 32 33  1  0  0  0
 32 34  1  0  0  0
 32 35  1  0  0  0
  5  6  1  0  0  0
  6  7  2  0  0  0
  7  8  1  0  0  0
  8  9  1  0  0  0
  9 10  2  0  0  0
 10 16  1  0  0  0
 16 17  1  0  0  0
 17 18  1  0  0  0
 18 19  1  0  0  0
 19 20  1  0  0  0
 20 21  1  0  0  0
 10 11  1  0  0  0
 11 12  2  0  0  0
 11 13  1  0  0  0
 13 14  1  0  0  0
 13 15  1  0  0  0
  7  2  1  0  0  0
 15  8  2  0  0  0
 31 26  1  0  0  0
 21 16  1  0  0  0
 22 25  1  0  0  0
M  END
> <minimizedAffinity>
-5.47865

> <CNNscore>
0.3170732558

> <CNNaffinity>
6.7433929443

> <CNN_VS>
2.1381494999

> <CNNaffinity_variance>
0.3214193881

$$$$
[H]c1nc(C(F)(F)F)c([H])c(C(=O)N([H])c2c([H])c([H])c(C([H])([H])[H])c(-c3c([H])c(N4C([H])([H])C([H])([H])OC([H])([H])C4([H])[H])c(=O)n(C([H])([H])[H])c3[H])c2[H])c1[H]


 35 38  0  0  0  0  0  0  0  0999 V2000
   -6.4059   -4.7586   12.7005 C   0  0  0  0  0  0  0  0  0  0  0  0
   -7.3226   -5.5665   11.8100 C   0  0  0  0  0  0  0  0  0  0  0  0
   -8.5888   -5.7319   12.3619 C   0  0  0  0  0  0  0  0  0  0  0  0
   -9.5301   -6.4098   11.6779 C   0  0  0  0  0  0  0  0  0  0  0  0
   -9.3389   -6.9847   10.4033 C   0  0  0  0  0  0  0  0  0  0  0  0
   -8.0476   -6.7806    9.8932 C   0  0  0  0  0  0  0  0  0  0  0  0
   -7.0336   -6.0864   10.5740 C   0  0  0  0  0  0  0  0  0  0  0  0
   -5.6877   -5.8875   10.0324 C   0  0  0  0  0  0  0  0  0  0  0  0
   -4.7145   -5.1229   10.7045 C   0  0  0  0  0  0  0  0  0  0  0  0
   -3.4643   -5.0153   10.1683 C   0  0  0  0  0  0  0  0  0  0  0  0
   -3.0880   -5.6563    8.9603 C   0  0  0  0  0  0  0  0  0  0  0  0
   -1.9198   -5.5353    8.5276 O   0  0  0  0  0  0  0  0  0  0  0  0
   -4.0113   -6.3707    8.3550 N   0  0  0  0  0  0  0  0  0  0  0  0
   -3.6175   -7.0872    7.1422 C   0  0  0  0  0  0  0  0  0  0  0  0
   -5.2698   -6.4718    8.8829 C   0  0  0  0  0  0  0  0  0  0  0  0
   -2.4736   -4.1544   10.7059 N   0  0  0  0  0  0  0  0  0  0  0  0
   -1.9794   -2.9396   10.1144 C   0  0  0  0  0  0  0  0  0  0  0  0
   -1.5869   -1.9949   11.2622 C   0  0  0  0  0  0  0  0  0  0  0  0
   -2.4686   -2.2067   12.3030 O   0  0  0  0  0  0  0  0  0  0  0  0
   -2.0855   -3.3593   12.9702 C   0  0  0  0  0  0  0  0  0  0  0  0
   -1.9089   -4.5149   12.0221 C   0  0  0  0  0  0  0  0  0  0  0  0
  -10.3736   -7.6346    9.8030 N   0  0  0  0  0  0  0  0  0  0  0  0
  -11.5288   -8.3556    9.7143 C   0  0  0  0  0  0  0  0  0  0  0  0
  -12.1838   -8.8226   10.6757 O   0  0  0  0  0  0  0  0  0  0  0  0
  -10.2341   -7.3955    8.5933 H   0  0  0  0  0  0  0  0  0  0  0  0
  -12.1112   -8.6394    8.3559 C   0  0  0  0  0  0  0  0  0  0  0  0
  -11.1345   -8.8662    7.3631 C   0  0  0  0  0  0  0  0  0  0  0  0
  -11.5700   -9.0072    6.0906 C   0  0  0  0  0  0  0  0  0  0  0  0
  -12.8900   -8.9515    5.7740 N   0  0  0  0  0  0  0  0  0  0  0  0
  -13.8475   -8.7447    6.7101 C   0  0  0  0  0  0  0  0  0  0  0  0
  -13.3998   -8.5848    8.0483 C   0  0  0  0  0  0  0  0  0  0  0  0
  -15.2413   -8.6200    6.2800 C   0  0  0  0  0  0  0  0  0  0  0  0
  -15.9714   -9.0100    7.4446 F   0  0  0  0  0  0  0  0  0  0  0  0
  -15.6294   -9.4808    5.2891 F   0  0  0  0  0  0  0  0  0  0  0  0
  -15.6323   -7.3359    6.0507 F   0  0  0  0  0  0  0  0  0  0  0  0
  1  2  1  0  0  0
  2  3  2  0  0  0
  3  4  1  0  0  0
  4  5  2  0  0  0
  5 22  1  0  0  0
 22 23  1  0  0  0
 23 24  2  0  0  0
 23 26  1  0  0  0
 26 27  2  0  0  0
 27 28  1  0  0  0
 28 29  2  0  0  0
 29 30  1  0  0  0
 30 31  2  0  0  0
 30 32  1  0  0  0
 32 33  1  0  0  0
 32 34  1  0  0  0
 32 35  1  0  0  0
  5  6  1  0  0  0
  6  7  2  0  0  0
  7  8  1  0  0  0
  8  9  1  0  0  0
  9 10  2  0  0  0
 10 16  1  0  0  0
 16 17  1  0  0  0
 17 18  1  0  0  0
 18 19  1  0  0  0
 19 20  1  0  0  0
 20 21  1  0  0  0
 10 11  1  0  0  0
 11 12  2  0  0  0
 11 13  1  0  0  0
 13 14  1  0  0  0
 13 15  1  0  0  0
  7  2  1  0  0  0
 15  8  2  0  0  0
 31 26  1  0  0  0
 21 16  1  0  0  0
 22 25  1  0  0  0
M  END
> <minimizedAffinity>
21.57877

> <CNNscore>
0.3141147196

> <CNNaffinity>
5.5876379013

> <CNN_VS>
1.7551592588

> <CNNaffinity_variance>
1.4223539829

$$$$
[H]Oc1c([H])c([H])nc(N([H])N(C([H])([H])[H])C([H])([H])C([H])([H])C([H])([H])N([H])C(=O)C([H])([H])C([H])(C([H])([H])[H])C([H])([H])[H])c1C#N


 25 25  0  0  0  0  0  0  0  0999 V2000
  -12.4496   -7.0586    9.8045 N   0  0  0  0  0  0  0  0  0  0  0  0
  -12.0523   -5.8763   10.5370 C   0  0  0  0  0  0  0  0  0  0  0  0
  -11.9070   -7.1451    8.5256 N   0  0  0  0  0  0  0  0  0  0  0  0
  -12.3861   -6.6260    7.7576 H   0  0  0  0  0  0  0  0  0  0  0  0
  -10.7455   -7.8915    8.1714 C   0  0  0  0  0  0  0  0  0  0  0  0
   -9.5177   -7.3745    8.3883 N   0  0  0  0  0  0  0  0  0  0  0  0
   -8.4295   -8.0357    8.0454 C   0  0  0  0  0  0  0  0  0  0  0  0
   -8.4298   -9.2792    7.4504 C   0  0  0  0  0  0  0  0  0  0  0  0
   -9.6692   -9.8311    7.2170 C   0  0  0  0  0  0  0  0  0  0  0  0
   -9.7330  -11.0798    6.6199 O   0  0  0  0  0  0  0  0  0  0  0  0
  -10.7938   -9.1318    7.5792 C   0  0  0  0  0  0  0  0  0  0  0  0
   -8.9127  -11.5783    6.3599 H   0  0  0  0  0  0  0  0  0  0  0  0
  -12.0839   -9.7340    7.3168 C   0  0  0  0  0  0  0  0  0  0  0  0
  -13.1201  -10.2045    7.1074 N   0  0  0  0  0  0  0  0  0  0  0  0
  -13.8894   -7.2138    9.7882 C   0  0  0  0  0  0  0  0  0  0  0  0
  -14.3535   -7.1364    8.3484 C   0  0  0  0  0  0  0  0  0  0  0  0
  -15.5731   -8.0299    8.2042 C   0  0  0  0  0  0  0  0  0  0  0  0
  -15.9850   -7.6717    5.7682 C   0  0  0  0  0  0  0  0  0  0  0  0
  -16.2528   -6.4535    5.8529 O   0  0  0  0  0  0  0  0  0  0  0  0
  -15.6521   -8.5119    6.8591 N   0  0  0  0  0  0  0  0  0  0  0  0
  -15.4480   -9.5306    6.7038 H   0  0  0  0  0  0  0  0  0  0  0  0
  -16.0120   -8.3072    4.4278 C   0  0  0  0  0  0  0  0  0  0  0  0
  -17.7400   -6.9842    3.3435 C   0  0  0  0  0  0  0  0  0  0  0  0
  -17.4265   -8.3627    3.9243 C   0  0  0  0  0  0  0  0  0  0  0  0
  -18.4026   -8.7360    5.0071 C   0  0  0  0  0  0  0  0  0  0  0  0
 23 24  1  0  0  0
 24 25  1  0  0  0
 24 22  1  0  0  0
 22 18  1  0  0  0
 18 19  2  0  0  0
 18 20  1  0  0  0
 20 17  1  0  0  0
 17 16  1  0  0  0
 16 15  1  0  0  0
 15  1  1  0  0  0
  1  2  1  0  0  0
  1  3  1  0  0  0
  3  5  1  0  0  0
  5  6  2  0  0  0
  6  7  1  0  0  0
  7  8  2  0  0  0
  8  9  1  0  0  0
  9 10  1  0  0  0
  9 11  2  0  0  0
 11 13  1  0  0  0
 13 14  3  0  0  0
 11  5  1  0  0  0
 20 21  1  0  0  0
  3  4  1  0  0  0
 10 12  1  0  0  0
M  END
> <minimizedAffinity>
-7.31708

> <CNNscore>
0.8228710294

> <CNNaffinity>
7.2588906288

> <CNN_VS>
5.9731307030

> <CNNaffinity_variance>
0.2504294217

$$$$
[H]Oc1c([H])c([H])nc(N([H])N(C([H])([H])[H])C([H])([H])C([H])([H])C([H])([H])N([H])C(=O)C([H])([H])C([H])(C([H])([H])[H])C([H])([H])[H])c1C#N


 25 25  0  0  0  0  0  0  0  0999 V2000
  -12.3505   -6.8801    9.1746 N   0  0  0  0  0  0  0  0  0  0  0  0
  -11.7453   -5.8419    9.9797 C   0  0  0  0  0  0  0  0  0  0  0  0
  -11.7497   -7.0598    7.9319 N   0  0  0  0  0  0  0  0  0  0  0  0
  -11.8722   -6.3078    7.2189 H   0  0  0  0  0  0  0  0  0  0  0  0
  -10.9783   -8.1943    7.5453 C   0  0  0  0  0  0  0  0  0  0  0  0
  -11.5842   -9.3800    7.3242 N   0  0  0  0  0  0  0  0  0  0  0  0
  -10.8882  -10.4492    6.9906 C   0  0  0  0  0  0  0  0  0  0  0  0
   -9.5183  -10.4694    6.8381 C   0  0  0  0  0  0  0  0  0  0  0  0
   -8.8736   -9.2730    7.0577 C   0  0  0  0  0  0  0  0  0  0  0  0
   -7.4955   -9.2318    6.9201 O   0  0  0  0  0  0  0  0  0  0  0  0
   -9.6106   -8.1677    7.4042 C   0  0  0  0  0  0  0  0  0  0  0  0
   -6.9700  -10.0381    6.6699 H   0  0  0  0  0  0  0  0  0  0  0  0
   -8.9058   -6.9243    7.6342 C   0  0  0  0  0  0  0  0  0  0  0  0
   -8.3513   -5.9245    7.8127 N   0  0  0  0  0  0  0  0  0  0  0  0
  -13.7818   -6.6935    9.0567 C   0  0  0  0  0  0  0  0  0  0  0  0
  -14.4592   -7.9816    9.4768 C   0  0  0  0  0  0  0  0  0  0  0  0
  -14.9369   -8.6873    8.2198 C   0  0  0  0  0  0  0  0  0  0  0  0
  -16.1016   -7.7304    6.2299 C   0  0  0  0  0  0  0  0  0  0  0  0
  -15.2919   -8.1586    5.3790 O   0  0  0  0  0  0  0  0  0  0  0  0
  -16.0006   -7.9349    7.6280 N   0  0  0  0  0  0  0  0  0  0  0  0
  -16.7209   -7.5329    8.2785 H   0  0  0  0  0  0  0  0  0  0  0  0
  -17.2680   -6.9436    5.7588 C   0  0  0  0  0  0  0  0  0  0  0  0
  -17.1778   -5.1098    4.1648 C   0  0  0  0  0  0  0  0  0  0  0  0
  -17.1085   -6.6308    4.2980 C   0  0  0  0  0  0  0  0  0  0  0  0
  -18.1570   -7.3031    3.4535 C   0  0  0  0  0  0  0  0  0  0  0  0
 23 24  1  0  0  0
 24 25  1  0  0  0
 24 22  1  0  0  0
 22 18  1  0  0  0
 18 19  2  0  0  0
 18 20  1  0  0  0
 20 17  1  0  0  0
 17 16  1  0  0  0
 16 15  1  0  0  0
 15  1  1  0  0  0
  1  2  1  0  0  0
  1  3  1  0  0  0
  3  5  1  0  0  0
  5  6  2  0  0  0
  6  7  1  0  0  0
  7  8  2  0  0  0
  8  9  1  0  0  0
  9 10  1  0  0  0
  9 11  2  0  0  0
 11 13  1  0  0  0
 13 14  3  0  0  0
 11  5  1  0  0  0
 20 21  1  0  0  0
  3  4  1  0  0  0
 10 12  1  0  0  0
M  END
> <minimizedAffinity>
-5.90094

> <CNNscore>
0.7397075891

> <CNNaffinity>
7.0049734116

> <CNN_VS>
5.1816320419

> <CNNaffinity_variance>
0.2088100463

$$$$
[H]Oc1c([H])c([H])nc(N([H])N(C([H])([H])[H])C([H])([H])C([H])([H])C([H])([H])N([H])C(=O)C([H])([H])C([H])(C([H])([H])[H])C([H])([H])[H])c1C#N


 25 25  0  0  0  0  0  0  0  0999 V2000
   -9.3997   -8.9364    7.9011 N   0  0  0  0  0  0  0  0  0  0  0  0
   -9.4750  -10.0593    6.9924 C   0  0  0  0  0  0  0  0  0  0  0  0
  -10.1847   -7.8489    7.5286 N   0  0  0  0  0  0  0  0  0  0  0  0
   -9.9677   -7.3800    6.6220 H   0  0  0  0  0  0  0  0  0  0  0  0
  -11.2659   -7.3138    8.2877 C   0  0  0  0  0  0  0  0  0  0  0  0
  -11.0258   -6.4136    9.2643 N   0  0  0  0  0  0  0  0  0  0  0  0
  -12.0073   -5.9243    9.9964 C   0  0  0  0  0  0  0  0  0  0  0  0
  -13.3342   -6.2675    9.8482 C   0  0  0  0  0  0  0  0  0  0  0  0
  -13.6086   -7.1846    8.8589 C   0  0  0  0  0  0  0  0  0  0  0  0
  -14.9253   -7.5693    8.6634 O   0  0  0  0  0  0  0  0  0  0  0  0
  -12.5772   -7.6857    8.1040 C   0  0  0  0  0  0  0  0  0  0  0  0
  -15.6658   -7.2016    9.2161 H   0  0  0  0  0  0  0  0  0  0  0  0
  -12.8944   -8.6526    7.0743 C   0  0  0  0  0  0  0  0  0  0  0  0
  -13.1377   -9.4312    6.2536 N   0  0  0  0  0  0  0  0  0  0  0  0
   -8.0273   -8.5471    8.1510 C   0  0  0  0  0  0  0  0  0  0  0  0
   -7.3021   -8.5047    6.8219 C   0  0  0  0  0  0  0  0  0  0  0  0
   -6.6838   -7.1256    6.6731 C   0  0  0  0  0  0  0  0  0  0  0  0
   -4.6763   -5.9758    7.6110 C   0  0  0  0  0  0  0  0  0  0  0  0
   -4.4596   -5.2480    6.6178 O   0  0  0  0  0  0  0  0  0  0  0  0
   -5.7283   -6.9185    7.7180 N   0  0  0  0  0  0  0  0  0  0  0  0
   -5.8367   -7.4992    8.5867 H   0  0  0  0  0  0  0  0  0  0  0  0
   -3.7716   -5.8581    8.7811 C   0  0  0  0  0  0  0  0  0  0  0  0
   -2.9639   -3.6566    9.4236 C   0  0  0  0  0  0  0  0  0  0  0  0
   -4.1296   -4.6335    9.5743 C   0  0  0  0  0  0  0  0  0  0  0  0
   -4.3963   -4.9493   11.0212 C   0  0  0  0  0  0  0  0  0  0  0  0
 23 24  1  0  0  0
 24 25  1  0  0  0
 24 22  1  0  0  0
 22 18  1  0  0  0
 18 19  2  0  0  0
 18 20  1  0  0  0
 20 17  1  0  0  0
 17 16  1  0  0  0
 16 15  1  0  0  0
 15  1  1  0  0  0
  1  2  1  0  0  0
  1  3  1  0  0  0
  3  5  1  0  0  0
  5  6  2  0  0  0
  6  7  1  0  0  0
  7  8  2  0  0  0
  8  9  1  0  0  0
  9 10  1  0  0  0
  9 11  2  0  0  0
 11 13  1  0  0  0
 13 14  3  0  0  0
 11  5  1  0  0  0
 20 21  1  0  0  0
  3  4  1  0  0  0
 10 12  1  0  0  0
M  END
> <minimizedAffinity>
-5.50814

> <CNNscore>
0.6487827897

> <CNNaffinity>
6.1115365028

> <CNN_VS>
3.9650597572

> <CNNaffinity_variance>
0.0996405482

$$$$
[H]Oc1c([H])c([H])nc(N([H])N(C([H])([H])[H])C([H])([H])C([H])([H])C([H])([H])N([H])C(=O)C([H])([H])C([H])(C([H])([H])[H])C([H])([H])[H])c1C#N


 25 25  0  0  0  0  0  0  0  0999 V2000
   -9.2447   -8.5552    7.9221 N   0  0  0  0  0  0  0  0  0  0  0  0
   -9.3743   -9.8261    7.2437 C   0  0  0  0  0  0  0  0  0  0  0  0
  -10.1985   -7.6118    7.5507 N   0  0  0  0  0  0  0  0  0  0  0  0
  -10.1256   -7.1959    6.5965 H   0  0  0  0  0  0  0  0  0  0  0  0
  -11.2729   -7.1585    8.3704 C   0  0  0  0  0  0  0  0  0  0  0  0
  -11.0402   -6.2691    9.3587 N   0  0  0  0  0  0  0  0  0  0  0  0
  -12.0137   -5.8550   10.1459 C   0  0  0  0  0  0  0  0  0  0  0  0
  -13.3242   -6.2711   10.0474 C   0  0  0  0  0  0  0  0  0  0  0  0
  -13.5907   -7.1789    9.0474 C   0  0  0  0  0  0  0  0  0  0  0  0
  -14.8909   -7.6346    8.9001 O   0  0  0  0  0  0  0  0  0  0  0  0
  -12.5678   -7.6014    8.2350 C   0  0  0  0  0  0  0  0  0  0  0  0
  -15.6251   -7.3237    9.4943 H   0  0  0  0  0  0  0  0  0  0  0  0
  -12.8760   -8.5605    7.1953 C   0  0  0  0  0  0  0  0  0  0  0  0
  -13.1169   -9.3356    6.3707 N   0  0  0  0  0  0  0  0  0  0  0  0
   -7.8995   -8.0300    7.8128 C   0  0  0  0  0  0  0  0  0  0  0  0
   -7.9265   -6.8690    6.8404 C   0  0  0  0  0  0  0  0  0  0  0  0
   -6.8431   -7.1060    5.8028 C   0  0  0  0  0  0  0  0  0  0  0  0
   -4.7893   -5.9208    6.5834 C   0  0  0  0  0  0  0  0  0  0  0  0
   -4.4212   -6.8025    7.3897 O   0  0  0  0  0  0  0  0  0  0  0  0
   -5.9543   -5.9847    5.7799 N   0  0  0  0  0  0  0  0  0  0  0  0
   -6.1982   -5.1948    5.1317 H   0  0  0  0  0  0  0  0  0  0  0  0
   -3.9536   -4.7031    6.4415 C   0  0  0  0  0  0  0  0  0  0  0  0
   -2.6097   -4.9455    4.4298 C   0  0  0  0  0  0  0  0  0  0  0  0
   -3.8792   -4.3083    4.9938 C   0  0  0  0  0  0  0  0  0  0  0  0
   -3.8710   -2.8147    4.8100 C   0  0  0  0  0  0  0  0  0  0  0  0
 23 24  1  0  0  0
 24 25  1  0  0  0
 24 22  1  0  0  0
 22 18  1  0  0  0
 18 19  2  0  0  0
 18 20  1  0  0  0
 20 17  1  0  0  0
 17 16  1  0  0  0
 16 15  1  0  0  0
 15  1  1  0  0  0
  1  2  1  0  0  0
  1  3  1  0  0  0
  3  5  1  0  0  0
  5  6  2  0  0  0
  6  7  1  0  0  0
  7  8  2  0  0  0
  8  9  1  0  0  0
  9 10  1  0  0  0
  9 11  2  0  0  0
 11 13  1  0  0  0
 13 14  3  0  0  0
 11  5  1  0  0  0
 20 21  1  0  0  0
  3  4  1  0  0  0
 10 12  1  0  0  0
M  END
> <minimizedAffinity>
-5.95566

> <CNNscore>
0.6425318718

> <CNNaffinity>
6.0700330734

> <CNN_VS>
3.9001896381

> <CNNaffinity_variance>
0.0552273691

$$$$
[H]Oc1c([H])c([H])nc(N([H])N(C([H])([H])[H])C([H])([H])C([H])([H])C([H])([H])N([H])C(=O)C([H])([H])C([H])(C([H])([H])[H])C([H])([H])[H])c1C#N


 25 25  0  0  0  0  0  0  0  0999 V2000
  -14.6062   -8.6124    7.4048 N   0  0  0  0  0  0  0  0  0  0  0  0
  -15.5126   -8.3783    8.5075 C   0  0  0  0  0  0  0  0  0  0  0  0
  -15.2002   -8.5171    6.1495 N   0  0  0  0  0  0  0  0  0  0  0  0
  -15.3814   -9.4028    5.6284 H   0  0  0  0  0  0  0  0  0  0  0  0
  -15.5816   -7.3028    5.5078 C   0  0  0  0  0  0  0  0  0  0  0  0
  -14.7065   -6.2787    5.4244 N   0  0  0  0  0  0  0  0  0  0  0  0
  -15.0455   -5.1370    4.8581 C   0  0  0  0  0  0  0  0  0  0  0  0
  -16.2841   -4.8773    4.3116 C   0  0  0  0  0  0  0  0  0  0  0  0
  -17.1974   -5.9048    4.3827 C   0  0  0  0  0  0  0  0  0  0  0  0
  -18.4606   -5.7021    3.8506 O   0  0  0  0  0  0  0  0  0  0  0  0
  -16.8311   -7.0881    4.9748 C   0  0  0  0  0  0  0  0  0  0  0  0
  -18.7173   -4.8409    3.4247 H   0  0  0  0  0  0  0  0  0  0  0  0
  -17.8135   -8.1494    5.0404 C   0  0  0  0  0  0  0  0  0  0  0  0
  -18.6071   -8.9896    5.0957 N   0  0  0  0  0  0  0  0  0  0  0  0
  -13.8868   -9.8591    7.5648 C   0  0  0  0  0  0  0  0  0  0  0  0
  -12.6210   -9.5737    8.3462 C   0  0  0  0  0  0  0  0  0  0  0  0
  -11.8262   -8.5311    7.5795 C   0  0  0  0  0  0  0  0  0  0  0  0
   -9.6272   -9.6878    7.3387 C   0  0  0  0  0  0  0  0  0  0  0  0
  -10.0225  -10.5683    6.5441 O   0  0  0  0  0  0  0  0  0  0  0  0
  -10.4369   -8.6670    7.8946 N   0  0  0  0  0  0  0  0  0  0  0  0
  -10.0282   -7.9681    8.5639 H   0  0  0  0  0  0  0  0  0  0  0  0
   -8.1999   -9.6947    7.7442 C   0  0  0  0  0  0  0  0  0  0  0  0
   -6.7079   -8.4957    6.2448 C   0  0  0  0  0  0  0  0  0  0  0  0
   -7.5943   -8.3453    7.4808 C   0  0  0  0  0  0  0  0  0  0  0  0
   -6.8101   -7.8327    8.6585 C   0  0  0  0  0  0  0  0  0  0  0  0
 23 24  1  0  0  0
 24 25  1  0  0  0
 24 22  1  0  0  0
 22 18  1  0  0  0
 18 19  2  0  0  0
 18 20  1  0  0  0
 20 17  1  0  0  0
 17 16  1  0  0  0
 16 15  1  0  0  0
 15  1  1  0  0  0
  1  2  1  0  0  0
  1  3  1  0  0  0
  3  5  1  0  0  0
  5  6  2  0  0  0
  6  7  1  0  0  0
  7  8  2  0  0  0
  8  9  1  0  0  0
  9 10  1  0  0  0
  9 11  2  0  0  0
 11 13  1  0  0  0
 13 14  3  0  0  0
 11  5  1  0  0  0
 20 21  1  0  0  0
  3  4  1  0  0  0
 10 12  1  0  0  0
M  END
> <minimizedAffinity>
-7.24169

> <CNNscore>
0.5796344876

> <CNNaffinity>
6.7311425209

> <CNN_VS>
3.9016022682

> <CNNaffinity_variance>
0.4284992814

$$$$
[H]Oc1c([H])c([H])nc(N([H])N(C([H])([H])[H])C([H])([H])C([H])([H])C([H])([H])N([H])C(=O)C([H])([H])C([H])(C([H])([H])[H])C([H])([H])[H])c1C#N


 25 25  0  0  0  0  0  0  0  0999 V2000
   -9.0745   -8.3397    8.0453 N   0  0  0  0  0  0  0  0  0  0  0  0
   -8.9908   -9.5911    7.3248 C   0  0  0  0  0  0  0  0  0  0  0  0
  -10.0971   -7.5006    7.6120 N   0  0  0  0  0  0  0  0  0  0  0  0
  -10.0588   -7.1547    6.6283 H   0  0  0  0  0  0  0  0  0  0  0  0
  -11.1993   -7.0665    8.4047 C   0  0  0  0  0  0  0  0  0  0  0  0
  -11.0170   -6.1326    9.3620 N   0  0  0  0  0  0  0  0  0  0  0  0
  -12.0164   -5.7343   10.1246 C   0  0  0  0  0  0  0  0  0  0  0  0
  -13.3060   -6.2119   10.0293 C   0  0  0  0  0  0  0  0  0  0  0  0
  -13.5211   -7.1662    9.0608 C   0  0  0  0  0  0  0  0  0  0  0  0
  -14.7981   -7.6847    8.9183 O   0  0  0  0  0  0  0  0  0  0  0  0
  -12.4718   -7.5715    8.2737 C   0  0  0  0  0  0  0  0  0  0  0  0
  -15.5518   -7.3857    9.4941 H   0  0  0  0  0  0  0  0  0  0  0  0
  -12.7258   -8.5804    7.2670 C   0  0  0  0  0  0  0  0  0  0  0  0
  -12.9349   -9.3932    6.4704 N   0  0  0  0  0  0  0  0  0  0  0  0
   -7.7972   -7.6579    8.0748 C   0  0  0  0  0  0  0  0  0  0  0  0
   -7.0514   -8.0029    6.8024 C   0  0  0  0  0  0  0  0  0  0  0  0
   -6.0249   -6.9115    6.5543 C   0  0  0  0  0  0  0  0  0  0  0  0
   -3.5683   -6.7972    6.1255 C   0  0  0  0  0  0  0  0  0  0  0  0
   -3.5783   -5.6756    5.5735 O   0  0  0  0  0  0  0  0  0  0  0  0
   -4.7100   -7.4719    6.6235 N   0  0  0  0  0  0  0  0  0  0  0  0
   -4.6172   -8.4193    7.0678 H   0  0  0  0  0  0  0  0  0  0  0  0
   -2.2676   -7.4938    6.2816 C   0  0  0  0  0  0  0  0  0  0  0  0
   -1.5956   -7.6851    8.6104 C   0  0  0  0  0  0  0  0  0  0  0  0
   -2.3232   -8.4045    7.4751 C   0  0  0  0  0  0  0  0  0  0  0  0
   -1.7081   -9.7491    7.1953 C   0  0  0  0  0  0  0  0  0  0  0  0
 23 24  1  0  0  0
 24 25  1  0  0  0
 24 22  1  0  0  0
 22 18  1  0  0  0
 18 19  2  0  0  0
 18 20  1  0  0  0
 20 17  1  0  0  0
 17 16  1  0  0  0
 16 15  1  0  0  0
 15  1  1  0  0  0
  1  2  1  0  0  0
  1  3  1  0  0  0
  3  5  1  0  0  0
  5  6  2  0  0  0
  6  7  1  0  0  0
  7  8  2  0  0  0
  8  9  1  0  0  0
  9 10  1  0  0  0
  9 11  2  0  0  0
 11 13  1  0  0  0
 13 14  3  0  0  0
 11  5  1  0  0  0
 20 21  1  0  0  0
  3  4  1  0  0  0
 10 12  1  0  0  0
M  END
> <minimizedAffinity>
-5.52759

> <CNNscore>
0.5235824585

> <CNNaffinity>
5.9693341255

> <CNN_VS>
3.1254386902

> <CNNaffinity_variance>
0.1499445438

$$$$
[H]Oc1c([H])c([H])nc(N([H])N(C([H])([H])[H])C([H])([H])C([H])([H])C([H])([H])N([H])C(=O)C([H])([H])C([H])(C([H])([H])[H])C([H])([H])[H])c1C#N


 25 25  0  0  0  0  0  0  0  0999 V2000
  -14.7035   -8.6721    7.5309 N   0  0  0  0  0  0  0  0  0  0  0  0
  -15.6009   -8.4554    8.6444 C   0  0  0  0  0  0  0  0  0  0  0  0
  -15.3121   -8.5775    6.2825 N   0  0  0  0  0  0  0  0  0  0  0  0
  -15.5288   -9.4650    5.7784 H   0  0  0  0  0  0  0  0  0  0  0  0
  -15.6638   -7.3619    5.6266 C   0  0  0  0  0  0  0  0  0  0  0  0
  -14.7837   -6.3396    5.5807 N   0  0  0  0  0  0  0  0  0  0  0  0
  -15.0964   -5.1967    5.0019 C   0  0  0  0  0  0  0  0  0  0  0  0
  -16.3106   -4.9338    4.4044 C   0  0  0  0  0  0  0  0  0  0  0  0
  -17.2283   -5.9594    4.4364 C   0  0  0  0  0  0  0  0  0  0  0  0
  -18.4677   -5.7535    3.8523 O   0  0  0  0  0  0  0  0  0  0  0  0
  -16.8895   -7.1440    5.0421 C   0  0  0  0  0  0  0  0  0  0  0  0
  -18.7046   -4.8914    3.4168 H   0  0  0  0  0  0  0  0  0  0  0  0
  -17.8761   -8.2032    5.0657 C   0  0  0  0  0  0  0  0  0  0  0  0
  -18.6722   -9.0425    5.0903 N   0  0  0  0  0  0  0  0  0  0  0  0
  -13.9669   -9.9105    7.6763 C   0  0  0  0  0  0  0  0  0  0  0  0
  -12.5866   -9.7076    7.0863 C   0  0  0  0  0  0  0  0  0  0  0  0
  -12.0257   -8.4135    7.6494 C   0  0  0  0  0  0  0  0  0  0  0  0
   -9.7872   -7.4211    8.1356 C   0  0  0  0  0  0  0  0  0  0  0  0
  -10.2151   -6.3679    8.6558 O   0  0  0  0  0  0  0  0  0  0  0  0
  -10.5958   -8.4615    7.6156 N   0  0  0  0  0  0  0  0  0  0  0  0
  -10.1564   -9.3133    7.1856 H   0  0  0  0  0  0  0  0  0  0  0  0
   -8.3191   -7.6165    8.0463 C   0  0  0  0  0  0  0  0  0  0  0  0
   -7.6050   -9.9371    8.1758 C   0  0  0  0  0  0  0  0  0  0  0  0
   -8.0216   -8.8284    7.2097 C   0  0  0  0  0  0  0  0  0  0  0  0
   -6.9523   -8.5647    6.1843 C   0  0  0  0  0  0  0  0  0  0  0  0
 23 24  1  0  0  0
 24 25  1  0  0  0
 24 22  1  0  0  0
 22 18  1  0  0  0
 18 19  2  0  0  0
 18 20  1  0  0  0
 20 17  1  0  0  0
 17 16  1  0  0  0
 16 15  1  0  0  0
 15  1  1  0  0  0
  1  2  1  0  0  0
  1  3  1  0  0  0
  3  5  1  0  0  0
  5  6  2  0  0  0
  6  7  1  0  0  0
  7  8  2  0  0  0
  8  9  1  0  0  0
  9 10  1  0  0  0
  9 11  2  0  0  0
 11 13  1  0  0  0
 13 14  3  0  0  0
 11  5  1  0  0  0
 20 21  1  0  0  0
  3  4  1  0  0  0
 10 12  1  0  0  0
M  END
> <minimizedAffinity>
-7.09677

> <CNNscore>
0.4741037190

> <CNNaffinity>
6.6921706200

> <CNN_VS>
3.1727828979

> <CNNaffinity_variance>
0.2375477105

$$$$
[H]Oc1c([H])c([H])nc(N([H])N(C([H])([H])[H])C([H])([H])C([H])([H])C([H])([H])N([H])C(=O)C([H])([H])C([H])(C([H])([H])[H])C([H])([H])[H])c1C#N


 25 25  0  0  0  0  0  0  0  0999 V2000
   -8.6277   -8.7077    8.1710 N   0  0  0  0  0  0  0  0  0  0  0  0
   -8.0219   -9.9414    7.7201 C   0  0  0  0  0  0  0  0  0  0  0  0
   -9.7224   -8.3010    7.4136 N   0  0  0  0  0  0  0  0  0  0  0  0
   -9.5456   -7.6653    6.6052 H   0  0  0  0  0  0  0  0  0  0  0  0
  -11.0761   -8.6783    7.6521 C   0  0  0  0  0  0  0  0  0  0  0  0
  -11.6056   -9.7393    7.0072 N   0  0  0  0  0  0  0  0  0  0  0  0
  -12.8627  -10.0915    7.1925 C   0  0  0  0  0  0  0  0  0  0  0  0
  -13.7381   -9.4376    8.0332 C   0  0  0  0  0  0  0  0  0  0  0  0
  -13.2248   -8.3508    8.7043 C   0  0  0  0  0  0  0  0  0  0  0  0
  -14.0581   -7.6526    9.5632 O   0  0  0  0  0  0  0  0  0  0  0  0
  -11.9142   -7.9954    8.5021 C   0  0  0  0  0  0  0  0  0  0  0  0
  -15.0067   -7.9169    9.7023 H   0  0  0  0  0  0  0  0  0  0  0  0
  -11.4027   -6.8451    9.2170 C   0  0  0  0  0  0  0  0  0  0  0  0
  -10.9967   -5.9187    9.7790 N   0  0  0  0  0  0  0  0  0  0  0  0
   -7.6454   -7.6520    8.3044 C   0  0  0  0  0  0  0  0  0  0  0  0
   -6.4819   -7.9751    7.3899 C   0  0  0  0  0  0  0  0  0  0  0  0
   -5.8210   -6.6653    6.9975 C   0  0  0  0  0  0  0  0  0  0  0  0
   -4.2599   -5.8799    8.7802 C   0  0  0  0  0  0  0  0  0  0  0  0
   -3.2607   -6.5125    8.3748 O   0  0  0  0  0  0  0  0  0  0  0  0
   -5.5409   -5.9032    8.1759 N   0  0  0  0  0  0  0  0  0  0  0  0
   -6.3330   -5.3476    8.5851 H   0  0  0  0  0  0  0  0  0  0  0  0
   -4.1135   -5.0311    9.9883 C   0  0  0  0  0  0  0  0  0  0  0  0
   -1.9046   -4.3510   10.7434 C   0  0  0  0  0  0  0  0  0  0  0  0
   -3.0287   -4.0163    9.7634 C   0  0  0  0  0  0  0  0  0  0  0  0
   -3.5190   -2.6063    9.9528 C   0  0  0  0  0  0  0  0  0  0  0  0
 23 24  1  0  0  0
 24 25  1  0  0  0
 24 22  1  0  0  0
 22 18  1  0  0  0
 18 19  2  0  0  0
 18 20  1  0  0  0
 20 17  1  0  0  0
 17 16  1  0  0  0
 16 15  1  0  0  0
 15  1  1  0  0  0
  1  2  1  0  0  0
  1  3  1  0  0  0
  3  5  1  0  0  0
  5  6  2  0  0  0
  6  7  1  0  0  0
  7  8  2  0  0  0
  8  9  1  0  0  0
  9 10  1  0  0  0
  9 11  2  0  0  0
 11 13  1  0  0  0
 13 14  3  0  0  0
 11  5  1  0  0  0
 20 21  1  0  0  0
  3  4  1  0  0  0
 10 12  1  0  0  0
M  END
> <minimizedAffinity>
-5.10819

> <CNNscore>
0.4575576186

> <CNNaffinity>
5.7157311440

> <CNN_VS>
2.6152763367

> <CNNaffinity_variance>
0.0287852399

$$$$
[H]Oc1c([H])c([H])nc(N([H])N(C([H])([H])[H])C([H])([H])C([H])([H])C([H])([H])N([H])C(=O)C([H])([H])C([H])(C([H])([H])[H])C([H])([H])[H])c1C#N


 25 25  0  0  0  0  0  0  0  0999 V2000
  -12.3826   -6.8955    9.3668 N   0  0  0  0  0  0  0  0  0  0  0  0
  -11.9558   -6.0410   10.4531 C   0  0  0  0  0  0  0  0  0  0  0  0
  -11.5308   -6.8850    8.2658 N   0  0  0  0  0  0  0  0  0  0  0  0
  -11.6966   -6.1646    7.5293 H   0  0  0  0  0  0  0  0  0  0  0  0
  -10.4451   -7.7839    8.0546 C   0  0  0  0  0  0  0  0  0  0  0  0
   -9.1914   -7.4226    8.4004 N   0  0  0  0  0  0  0  0  0  0  0  0
   -8.1680   -8.2274    8.1910 C   0  0  0  0  0  0  0  0  0  0  0  0
   -8.2656   -9.4771    7.6174 C   0  0  0  0  0  0  0  0  0  0  0  0
   -9.5334   -9.8720    7.2544 C   0  0  0  0  0  0  0  0  0  0  0  0
   -9.6942  -11.1188    6.6717 O   0  0  0  0  0  0  0  0  0  0  0  0
  -10.5899   -9.0243    7.4784 C   0  0  0  0  0  0  0  0  0  0  0  0
   -8.9225  -11.7255    6.5123 H   0  0  0  0  0  0  0  0  0  0  0  0
  -11.9111   -9.4634    7.0817 C   0  0  0  0  0  0  0  0  0  0  0  0
  -12.9681   -9.8048    6.7574 N   0  0  0  0  0  0  0  0  0  0  0  0
  -13.7539   -6.6260    8.9870 C   0  0  0  0  0  0  0  0  0  0  0  0
  -14.5756   -7.8626    9.2870 C   0  0  0  0  0  0  0  0  0  0  0  0
  -15.5613   -8.0537    8.1475 C   0  0  0  0  0  0  0  0  0  0  0  0
  -15.6135   -7.5136    5.7108 C   0  0  0  0  0  0  0  0  0  0  0  0
  -16.4019   -8.4277    5.3854 O   0  0  0  0  0  0  0  0  0  0  0  0
  -15.1491   -7.2661    7.0261 N   0  0  0  0  0  0  0  0  0  0  0  0
  -14.4785   -6.4800    7.2150 H   0  0  0  0  0  0  0  0  0  0  0  0
  -15.1130   -6.6045    4.6504 C   0  0  0  0  0  0  0  0  0  0  0  0
  -17.0313   -5.1293    4.4145 C   0  0  0  0  0  0  0  0  0  0  0  0
  -15.5905   -5.2055    4.9187 C   0  0  0  0  0  0  0  0  0  0  0  0
  -14.7225   -4.1701    4.2560 C   0  0  0  0  0  0  0  0  0  0  0  0
 23 24  1  0  0  0
 24 25  1  0  0  0
 24 22  1  0  0  0
 22 18  1  0  0  0
 18 19  2  0  0  0
 18 20  1  0  0  0
 20 17  1  0  0  0
 17 16  1  0  0  0
 16 15  1  0  0  0
 15  1  1  0  0  0
  1  2  1  0  0  0
  1  3  1  0  0  0
  3  5  1  0  0  0
  5  6  2  0  0  0
  6  7  1  0  0  0
  7  8  2  0  0  0
  8  9  1  0  0  0
  9 10  1  0  0  0
  9 11  2  0  0  0
 11 13  1  0  0  0
 13 14  3  0  0  0
 11  5  1  0  0  0
 20 21  1  0  0  0
  3  4  1  0  0  0
 10 12  1  0  0  0
M  END
> <minimizedAffinity>
-7.42283

> <CNNscore>
0.4561724961

> <CNNaffinity>
6.6061944962

> <CNN_VS>
3.0135643482

> <CNNaffinity_variance>
0.0639716387

$$$$
[H]O[C@]1([H])C([H])(n2nc(-c3c([H])nc([H])c([H])c3Sc3c([H])c([H])c(N([H])C4([H])C([H])([H])C([H])([H])C4([H])[H])c([H])c3[H])c3c([H])c([H])c([H])c([H])c32)O[C@@]([H])(N([H])c2c([H])c([H])c3c([H])n(C4([H])C([H])([H])C([H])([H])N(C([H])([H])[H])C([H])([H])C4([H])[H])nc3c2[H])[C@]1([H])OC([H])([H])[H]


 55 63  0  0  0  0  0  0  0  0999 V2000
  -14.3469   -7.1546    7.6593 N   0  0  0  0  0  0  0  0  0  0  0  0
  -15.6620   -7.2387    7.6701 N   0  0  0  0  0  0  0  0  0  0  0  0
  -16.1278   -8.1096    6.7627 C   0  0  0  0  0  0  0  0  0  0  0  0
  -14.9997   -8.6065    6.1372 C   0  0  0  0  0  0  0  0  0  0  0  0
  -14.9225   -9.5422    5.1219 C   0  0  0  0  0  0  0  0  0  0  0  0
  -13.6521   -9.8729    4.6717 C   0  0  0  0  0  0  0  0  0  0  0  0
  -12.5488   -9.2714    5.2397 C   0  0  0  0  0  0  0  0  0  0  0  0
  -12.6374   -8.3424    6.2485 C   0  0  0  0  0  0  0  0  0  0  0  0
  -13.9087   -8.0048    6.7053 C   0  0  0  0  0  0  0  0  0  0  0  0
  -11.5838   -7.5181    8.6900 C   0  0  0  0  0  0  0  0  0  0  0  0
  -12.4498   -7.9557    9.8140 C   0  0  0  0  0  0  0  0  0  0  0  0
  -13.3955   -6.7329    9.9106 C   0  0  0  0  0  0  0  0  0  0  0  0
  -14.5552   -7.0692   10.5499 O   0  0  0  0  0  0  0  0  0  0  0  0
  -13.5014   -6.3329    8.4845 C   0  0  0  0  0  0  0  0  0  0  0  0
  -12.2061   -6.4847    8.0083 O   0  0  0  0  0  0  0  0  0  0  0  0
  -14.6841   -6.4217   11.3121 H   0  0  0  0  0  0  0  0  0  0  0  0
  -10.2481   -7.0835    9.1446 N   0  0  0  0  0  0  0  0  0  0  0  0
  -10.1724   -6.5144   10.0241 H   0  0  0  0  0  0  0  0  0  0  0  0
   -9.0547   -7.3959    8.4487 C   0  0  0  0  0  0  0  0  0  0  0  0
   -8.8688   -8.6944    8.0541 C   0  0  0  0  0  0  0  0  0  0  0  0
   -7.7269   -9.0470    7.3782 C   0  0  0  0  0  0  0  0  0  0  0  0
   -6.7571   -8.1108    7.0871 C   0  0  0  0  0  0  0  0  0  0  0  0
   -6.9574   -6.8013    7.4924 C   0  0  0  0  0  0  0  0  0  0  0  0
   -5.8555   -6.1441    7.0634 N   0  0  0  0  0  0  0  0  0  0  0  0
   -5.0311   -6.9653    6.4417 N   0  0  0  0  0  0  0  0  0  0  0  0
   -5.5426   -8.2085    6.4262 C   0  0  0  0  0  0  0  0  0  0  0  0
   -8.0945   -6.4633    8.1629 C   0  0  0  0  0  0  0  0  0  0  0  0
   -3.7442   -6.6408    5.8286 C   0  0  0  0  0  0  0  0  0  0  0  0
   -3.6573   -5.2175    5.3891 C   0  0  0  0  0  0  0  0  0  0  0  0
   -3.4404   -4.2270    6.4998 C   0  0  0  0  0  0  0  0  0  0  0  0
   -2.3637   -4.6319    7.3866 N   0  0  0  0  0  0  0  0  0  0  0  0
   -1.0705   -4.4841    6.7442 C   0  0  0  0  0  0  0  0  0  0  0  0
   -2.5627   -5.9838    7.8768 C   0  0  0  0  0  0  0  0  0  0  0  0
   -2.6132   -6.9802    6.7460 C   0  0  0  0  0  0  0  0  0  0  0  0
  -13.2331   -9.0712    9.5583 O   0  0  0  0  0  0  0  0  0  0  0  0
  -12.5619  -10.0688    8.8607 C   0  0  0  0  0  0  0  0  0  0  0  0
  -17.5180   -8.4381    6.5297 C   0  0  0  0  0  0  0  0  0  0  0  0
  -17.9832   -8.4683    5.2487 C   0  0  0  0  0  0  0  0  0  0  0  0
  -19.3141   -8.7840    5.0103 C   0  0  0  0  0  0  0  0  0  0  0  0
  -20.1578   -9.0648    6.0586 C   0  0  0  0  0  0  0  0  0  0  0  0
  -19.6925   -9.0327    7.3119 N   0  0  0  0  0  0  0  0  0  0  0  0
  -18.3816   -8.7225    7.5589 C   0  0  0  0  0  0  0  0  0  0  0  0
  -16.8824   -8.0877    3.9158 S   0  0  0  0  0  0  0  0  0  0  0  0
  -16.2666   -6.4244    4.1655 C   0  0  0  0  0  0  0  0  0  0  0  0
  -17.1226   -5.3798    4.4793 C   0  0  0  0  0  0  0  0  0  0  0  0
  -16.6524   -4.0992    4.6743 C   0  0  0  0  0  0  0  0  0  0  0  0
  -15.3283   -3.7624    4.5756 C   0  0  0  0  0  0  0  0  0  0  0  0
  -14.4811   -4.8354    4.2568 C   0  0  0  0  0  0  0  0  0  0  0  0
  -14.9301   -6.1189    4.0586 C   0  0  0  0  0  0  0  0  0  0  0  0
  -14.7539   -2.5087    4.7783 N   0  0  0  0  0  0  0  0  0  0  0  0
  -14.6493   -1.8970    3.8860 H   0  0  0  0  0  0  0  0  0  0  0  0
  -14.2850   -1.8613    5.9454 C   0  0  0  0  0  0  0  0  0  0  0  0
  -13.2018   -0.8551    5.6755 C   0  0  0  0  0  0  0  0  0  0  0  0
  -13.8762    0.0828    6.6538 C   0  0  0  0  0  0  0  0  0  0  0  0
  -15.1103   -0.8313    6.6271 C   0  0  0  0  0  0  0  0  0  0  0  0
 19 17  1  0  0  0
 17 10  1  0  0  0
 10 11  1  0  0  0
 11 35  1  0  0  0
 35 36  1  0  0  0
 11 12  1  0  0  0
 12 13  1  0  0  0
 12 14  1  0  0  0
 14  1  1  0  0  0
  1  2  1  0  0  0
  2  3  2  0  0  0
  3 37  1  0  0  0
 37 38  1  0  0  0
 38 43  1  0  0  0
 43 44  1  0  0  0
 44 45  2  0  0  0
 45 46  1  0  0  0
 46 47  2  0  0  0
 47 50  1  0  0  0
 50 52  1  0  0  0
 52 53  1  0  0  0
 53 54  1  0  0  0
 54 55  1  0  0  0
 47 48  1  0  0  0
 48 49  2  0  0  0
 38 39  2  0  0  0
 39 40  1  0  0  0
 40 41  2  0  0  0
 41 42  1  0  0  0
  3  4  1  0  0  0
  4  5  2  0  0  0
  5  6  1  0  0  0
  6  7  2  0  0  0
  7  8  1  0  0  0
  8  9  2  0  0  0
 14 15  1  0  0  0
 19 20  1  0  0  0
 20 21  2  0  0  0
 21 22  1  0  0  0
 22 23  1  0  0  0
 23 24  2  0  0  0
 24 25  1  0  0  0
 25 28  1  0  0  0
 28 29  1  0  0  0
 29 30  1  0  0  0
 30 31  1  0  0  0
 31 32  1  0  0  0
 31 33  1  0  0  0
 33 34  1  0  0  0
 25 26  1  0  0  0
 23 27  1  0  0  0
 27 19  2  0  0  0
 15 10  1  0  0  0
 26 22  2  0  0  0
  9  1  1  0  0  0
 34 28  1  0  0  0
 42 37  2  0  0  0
  9  4  1  0  0  0
 49 44  1  0  0  0
 55 52  1  0  0  0
 17 18  1  0  0  0
 13 16  1  0  0  0
 50 51  1  0  0  0
M  END
> <minimizedAffinity>
4.03133

> <CNNscore>
0.2110950649

> <CNNaffinity>
7.7576537132

> <CNN_VS>
1.6376024485

> <CNNaffinity_variance>
0.2157636881

$$$$
[H]O[C@]1([H])C([H])(n2nc(-c3c([H])nc([H])c([H])c3Sc3c([H])c([H])c(N([H])C4([H])C([H])([H])C([H])([H])C4([H])[H])c([H])c3[H])c3c([H])c([H])c([H])c([H])c32)O[C@@]([H])(N([H])c2c([H])c([H])c3c([H])n(C4([H])C([H])([H])C([H])([H])N(C([H])([H])[H])C([H])([H])C4([H])[H])nc3c2[H])[C@]1([H])OC([H])([H])[H]


 55 63  0  0  0  0  0  0  0  0999 V2000
   -7.9710   -6.4678    7.7099 N   0  0  0  0  0  0  0  0  0  0  0  0
   -8.1224   -7.6810    7.2180 N   0  0  0  0  0  0  0  0  0  0  0  0
   -9.3055   -8.2225    7.5433 C   0  0  0  0  0  0  0  0  0  0  0  0
   -9.9397   -7.2575    8.3031 C   0  0  0  0  0  0  0  0  0  0  0  0
  -11.1922   -7.3100    8.8868 C   0  0  0  0  0  0  0  0  0  0  0  0
  -11.5967   -6.1909    9.6010 C   0  0  0  0  0  0  0  0  0  0  0  0
  -10.7560   -5.1020    9.6967 C   0  0  0  0  0  0  0  0  0  0  0  0
   -9.5128   -5.0608    9.1124 C   0  0  0  0  0  0  0  0  0  0  0  0
   -9.0995   -6.1801    8.3945 C   0  0  0  0  0  0  0  0  0  0  0  0
   -5.4699   -6.6463    6.1158 C   0  0  0  0  0  0  0  0  0  0  0  0
   -5.0741   -7.1244    7.4648 C   0  0  0  0  0  0  0  0  0  0  0  0
   -5.6231   -5.9621    8.3287 C   0  0  0  0  0  0  0  0  0  0  0  0
   -5.7954   -6.3629    9.6234 O   0  0  0  0  0  0  0  0  0  0  0  0
   -6.8427   -5.5856    7.5698 C   0  0  0  0  0  0  0  0  0  0  0  0
   -6.4360   -5.6616    6.2445 O   0  0  0  0  0  0  0  0  0  0  0  0
   -5.2954   -5.7161   10.2137 H   0  0  0  0  0  0  0  0  0  0  0  0
   -4.3240   -6.1241    5.3451 N   0  0  0  0  0  0  0  0  0  0  0  0
   -3.7611   -6.7903    4.7599 H   0  0  0  0  0  0  0  0  0  0  0  0
   -3.9414   -4.7605    5.3562 C   0  0  0  0  0  0  0  0  0  0  0  0
   -3.3026   -4.2873    6.4717 C   0  0  0  0  0  0  0  0  0  0  0  0
   -2.9136   -2.9719    6.5307 C   0  0  0  0  0  0  0  0  0  0  0  0
   -3.1558   -2.1125    5.4797 C   0  0  0  0  0  0  0  0  0  0  0  0
   -3.8031   -2.6039    4.3578 C   0  0  0  0  0  0  0  0  0  0  0  0
   -3.8852   -1.5414    3.5243 N   0  0  0  0  0  0  0  0  0  0  0  0
   -3.3380   -0.4725    4.0708 N   0  0  0  0  0  0  0  0  0  0  0  0
   -2.8655   -0.7700    5.2937 C   0  0  0  0  0  0  0  0  0  0  0  0
   -4.1847   -3.9111    4.3108 C   0  0  0  0  0  0  0  0  0  0  0  0
   -3.2188    0.8635    3.4894 C   0  0  0  0  0  0  0  0  0  0  0  0
   -2.2542    0.9134    2.3519 C   0  0  0  0  0  0  0  0  0  0  0  0
   -2.7707    0.3380    1.0620 C   0  0  0  0  0  0  0  0  0  0  0  0
   -4.0914    0.8439    0.7312 N   0  0  0  0  0  0  0  0  0  0  0  0
   -4.0319    2.2318    0.3105 C   0  0  0  0  0  0  0  0  0  0  0  0
   -5.0186    0.6613    1.8333 C   0  0  0  0  0  0  0  0  0  0  0  0
   -4.5556    1.3871    3.0715 C   0  0  0  0  0  0  0  0  0  0  0  0
   -5.6972   -8.2896    7.8863 O   0  0  0  0  0  0  0  0  0  0  0  0
   -5.7266   -9.2826    6.9141 C   0  0  0  0  0  0  0  0  0  0  0  0
   -9.7813   -9.5324    7.1524 C   0  0  0  0  0  0  0  0  0  0  0  0
  -11.1209   -9.7833    7.1804 C   0  0  0  0  0  0  0  0  0  0  0  0
  -11.5917  -11.0348    6.8060 C   0  0  0  0  0  0  0  0  0  0  0  0
  -10.7132  -12.0148    6.4092 C   0  0  0  0  0  0  0  0  0  0  0  0
   -9.4008  -11.7595    6.3849 N   0  0  0  0  0  0  0  0  0  0  0  0
   -8.9252  -10.5288    6.7522 C   0  0  0  0  0  0  0  0  0  0  0  0
  -12.2320   -8.5110    7.7101 S   0  0  0  0  0  0  0  0  0  0  0  0
  -13.6272   -8.4932    6.5871 C   0  0  0  0  0  0  0  0  0  0  0  0
  -13.5026   -8.9321    5.2777 C   0  0  0  0  0  0  0  0  0  0  0  0
  -14.5742   -8.9220    4.4114 C   0  0  0  0  0  0  0  0  0  0  0  0
  -15.8232   -8.4862    4.7670 C   0  0  0  0  0  0  0  0  0  0  0  0
  -15.9252   -8.0465    6.0963 C   0  0  0  0  0  0  0  0  0  0  0  0
  -14.8691   -8.0487    6.9755 C   0  0  0  0  0  0  0  0  0  0  0  0
  -16.9704   -8.4604    3.9759 N   0  0  0  0  0  0  0  0  0  0  0  0
  -17.3867   -9.4341    3.7313 H   0  0  0  0  0  0  0  0  0  0  0  0
  -17.7194   -7.3909    3.4315 C   0  0  0  0  0  0  0  0  0  0  0  0
  -18.8392   -6.9320    4.3227 C   0  0  0  0  0  0  0  0  0  0  0  0
  -18.4699   -5.5015    3.9930 C   0  0  0  0  0  0  0  0  0  0  0  0
  -17.1577   -6.0165    3.3830 C   0  0  0  0  0  0  0  0  0  0  0  0
 19 17  1  0  0  0
 17 10  1  0  0  0
 10 11  1  0  0  0
 11 35  1  0  0  0
 35 36  1  0  0  0
 11 12  1  0  0  0
 12 13  1  0  0  0
 12 14  1  0  0  0
 14  1  1  0  0  0
  1  2  1  0  0  0
  2  3  2  0  0  0
  3 37  1  0  0  0
 37 38  1  0  0  0
 38 43  1  0  0  0
 43 44  1  0  0  0
 44 45  2  0  0  0
 45 46  1  0  0  0
 46 47  2  0  0  0
 47 50  1  0  0  0
 50 52  1  0  0  0
 52 53  1  0  0  0
 53 54  1  0  0  0
 54 55  1  0  0  0
 47 48  1  0  0  0
 48 49  2  0  0  0
 38 39  2  0  0  0
 39 40  1  0  0  0
 40 41  2  0  0  0
 41 42  1  0  0  0
  3  4  1  0  0  0
  4  5  2  0  0  0
  5  6  1  0  0  0
  6  7  2  0  0  0
  7  8  1  0  0  0
  8  9  2  0  0  0
 14 15  1  0  0  0
 19 20  1  0  0  0
 20 21  2  0  0  0
 21 22  1  0  0  0
 22 23  1  0  0  0
 23 24  2  0  0  0
 24 25  1  0  0  0
 25 28  1  0  0  0
 28 29  1  0  0  0
 29 30  1  0  0  0
 30 31  1  0  0  0
 31 32  1  0  0  0
 31 33  1  0  0  0
 33 34  1  0  0  0
 25 26  1  0  0  0
 23 27  1  0  0  0
 27 19  2  0  0  0
 15 10  1  0  0  0
 26 22  2  0  0  0
  9  1  1  0  0  0
 34 28  1  0  0  0
 42 37  2  0  0  0
  9  4  1  0  0  0
 49 44  1  0  0  0
 55 52  1  0  0  0
 17 18  1  0  0  0
 13 16  1  0  0  0
 50 51  1  0  0  0
M  END
> <minimizedAffinity>
0.99224

> <CNNscore>
0.1890163571

> <CNNaffinity>
7.4437460899

> <CNN_VS>
1.4069898129

> <CNNaffinity_variance>
0.3394028544

$$$$
[H]O[C@]1([H])C([H])(n2nc(-c3c([H])nc([H])c([H])c3Sc3c([H])c([H])c(N([H])C4([H])C([H])([H])C([H])([H])C4([H])[H])c([H])c3[H])c3c([H])c([H])c([H])c([H])c32)O[C@@]([H])(N([H])c2c([H])c([H])c3c([H])n(C4([H])C([H])([H])C([H])([H])N(C([H])([H])[H])C([H])([H])C4([H])[H])nc3c2[H])[C@]1([H])OC([H])([H])[H]


 55 63  0  0  0  0  0  0  0  0999 V2000
  -11.5824   -6.2377    9.1422 N   0  0  0  0  0  0  0  0  0  0  0  0
  -10.4960   -6.9616    8.9615 N   0  0  0  0  0  0  0  0  0  0  0  0
  -10.6385   -7.8643    7.9799 C   0  0  0  0  0  0  0  0  0  0  0  0
  -11.9269   -7.6806    7.5141 C   0  0  0  0  0  0  0  0  0  0  0  0
  -12.5778   -8.3574    6.4990 C   0  0  0  0  0  0  0  0  0  0  0  0
  -13.8817   -7.9695    6.2247 C   0  0  0  0  0  0  0  0  0  0  0  0
  -14.4593   -6.9527    6.9556 C   0  0  0  0  0  0  0  0  0  0  0  0
  -13.8028   -6.2868    7.9628 C   0  0  0  0  0  0  0  0  0  0  0  0
  -12.4942   -6.6707    8.2444 C   0  0  0  0  0  0  0  0  0  0  0  0
  -11.3292   -6.1224   12.1004 C   0  0  0  0  0  0  0  0  0  0  0  0
  -12.7756   -6.3673   11.8704 C   0  0  0  0  0  0  0  0  0  0  0  0
  -13.0759   -5.2395   10.8522 C   0  0  0  0  0  0  0  0  0  0  0  0
  -14.2081   -5.5206   10.1410 O   0  0  0  0  0  0  0  0  0  0  0  0
  -11.7993   -5.1820   10.0958 C   0  0  0  0  0  0  0  0  0  0  0  0
  -10.8320   -5.3263   11.0812 O   0  0  0  0  0  0  0  0  0  0  0  0
  -14.8293   -4.7312   10.2289 H   0  0  0  0  0  0  0  0  0  0  0  0
  -11.0671   -5.4842   13.4057 N   0  0  0  0  0  0  0  0  0  0  0  0
  -11.8621   -5.3691   14.0824 H   0  0  0  0  0  0  0  0  0  0  0  0
   -9.7887   -5.0141   13.7940 C   0  0  0  0  0  0  0  0  0  0  0  0
   -9.7245   -3.8171   14.4567 C   0  0  0  0  0  0  0  0  0  0  0  0
   -8.5078   -3.3186   14.8522 C   0  0  0  0  0  0  0  0  0  0  0  0
   -7.3411   -4.0063   14.5926 C   0  0  0  0  0  0  0  0  0  0  0  0
   -7.4201   -5.2155   13.9212 C   0  0  0  0  0  0  0  0  0  0  0  0
   -6.1366   -5.6325   13.8269 N   0  0  0  0  0  0  0  0  0  0  0  0
   -5.3181   -4.7639   14.3891 N   0  0  0  0  0  0  0  0  0  0  0  0
   -6.0152   -3.7267   14.8847 C   0  0  0  0  0  0  0  0  0  0  0  0
   -8.6332   -5.7000   13.5334 C   0  0  0  0  0  0  0  0  0  0  0  0
   -3.8634   -4.8545   14.5023 C   0  0  0  0  0  0  0  0  0  0  0  0
   -3.2780   -5.8890   13.6001 C   0  0  0  0  0  0  0  0  0  0  0  0
   -3.1959   -5.4892   12.1526 C   0  0  0  0  0  0  0  0  0  0  0  0
   -2.6122   -4.1698   11.9854 N   0  0  0  0  0  0  0  0  0  0  0  0
   -1.1870   -4.1874   12.2595 C   0  0  0  0  0  0  0  0  0  0  0  0
   -3.2980   -3.1815   12.7982 C   0  0  0  0  0  0  0  0  0  0  0  0
   -3.2238   -3.5239   14.2649 C   0  0  0  0  0  0  0  0  0  0  0  0
  -13.0818   -7.5745   11.2600 O   0  0  0  0  0  0  0  0  0  0  0  0
  -14.4402   -7.8686   11.2690 C   0  0  0  0  0  0  0  0  0  0  0  0
   -9.6317   -8.8012    7.5289 C   0  0  0  0  0  0  0  0  0  0  0  0
   -8.3770   -8.3421    7.2584 C   0  0  0  0  0  0  0  0  0  0  0  0
   -7.4005   -9.2300    6.8270 C   0  0  0  0  0  0  0  0  0  0  0  0
   -7.6963  -10.5637    6.6738 C   0  0  0  0  0  0  0  0  0  0  0  0
   -8.9299  -11.0049    6.9415 N   0  0  0  0  0  0  0  0  0  0  0  0
   -9.9009  -10.1382    7.3676 C   0  0  0  0  0  0  0  0  0  0  0  0
   -8.0235   -6.6179    7.4477 S   0  0  0  0  0  0  0  0  0  0  0  0
   -6.2696   -6.3801    7.1728 C   0  0  0  0  0  0  0  0  0  0  0  0
   -5.3619   -6.4460    8.2189 C   0  0  0  0  0  0  0  0  0  0  0  0
   -4.0117   -6.2656    8.0111 C   0  0  0  0  0  0  0  0  0  0  0  0
   -3.4688   -6.0119    6.7792 C   0  0  0  0  0  0  0  0  0  0  0  0
   -4.4063   -5.9494    5.7362 C   0  0  0  0  0  0  0  0  0  0  0  0
   -5.7562   -6.1263    5.9226 C   0  0  0  0  0  0  0  0  0  0  0  0
   -2.1220   -5.8409    6.4641 N   0  0  0  0  0  0  0  0  0  0  0  0
   -1.7157   -4.8571    6.6844 H   0  0  0  0  0  0  0  0  0  0  0  0
   -1.1602   -6.7215    5.9155 C   0  0  0  0  0  0  0  0  0  0  0  0
   -1.4957   -8.1725    6.1175 C   0  0  0  0  0  0  0  0  0  0  0  0
   -1.0606   -8.4363    4.6918 C   0  0  0  0  0  0  0  0  0  0  0  0
   -1.0614   -6.9200    4.4467 C   0  0  0  0  0  0  0  0  0  0  0  0
 19 17  1  0  0  0
 17 10  1  0  0  0
 10 11  1  0  0  0
 11 35  1  0  0  0
 35 36  1  0  0  0
 11 12  1  0  0  0
 12 13  1  0  0  0
 12 14  1  0  0  0
 14  1  1  0  0  0
  1  2  1  0  0  0
  2  3  2  0  0  0
  3 37  1  0  0  0
 37 38  1  0  0  0
 38 43  1  0  0  0
 43 44  1  0  0  0
 44 45  2  0  0  0
 45 46  1  0  0  0
 46 47  2  0  0  0
 47 50  1  0  0  0
 50 52  1  0  0  0
 52 53  1  0  0  0
 53 54  1  0  0  0
 54 55  1  0  0  0
 47 48  1  0  0  0
 48 49  2  0  0  0
 38 39  2  0  0  0
 39 40  1  0  0  0
 40 41  2  0  0  0
 41 42  1  0  0  0
  3  4  1  0  0  0
  4  5  2  0  0  0
  5  6  1  0  0  0
  6  7  2  0  0  0
  7  8  1  0  0  0
  8  9  2  0  0  0
 14 15  1  0  0  0
 19 20  1  0  0  0
 20 21  2  0  0  0
 21 22  1  0  0  0
 22 23  1  0  0  0
 23 24  2  0  0  0
 24 25  1  0  0  0
 25 28  1  0  0  0
 28 29  1  0  0  0
 29 30  1  0  0  0
 30 31  1  0  0  0
 31 32  1  0  0  0
 31 33  1  0  0  0
 33 34  1  0  0  0
 25 26  1  0  0  0
 23 27  1  0  0  0
 27 19  2  0  0  0
 15 10  1  0  0  0
 26 22  2  0  0  0
  9  1  1  0  0  0
 34 28  1  0  0  0
 42 37  2  0  0  0
  9  4  1  0  0  0
 49 44  1  0  0  0
 55 52  1  0  0  0
 17 18  1  0  0  0
 13 16  1  0  0  0
 50 51  1  0  0  0
M  END
> <minimizedAffinity>
3.43341

> <CNNscore>
0.1754477024

> <CNNaffinity>
7.7312593460

> <CNN_VS>
1.3564317226

> <CNNaffinity_variance>
0.0964679718

$$$$
[H]O[C@]1([H])C([H])(n2nc(-c3c([H])nc([H])c([H])c3Sc3c([H])c([H])c(N([H])C4([H])C([H])([H])C([H])([H])C4([H])[H])c([H])c3[H])c3c([H])c([H])c([H])c([H])c32)O[C@@]([H])(N([H])c2c([H])c([H])c3c([H])n(C4([H])C([H])([H])C([H])([H])N(C([H])([H])[H])C([H])([H])C4([H])[H])nc3c2[H])[C@]1([H])OC([H])([H])[H]


 55 63  0  0  0  0  0  0  0  0999 V2000
  -11.6253   -7.1850    7.9120 N   0  0  0  0  0  0  0  0  0  0  0  0
  -12.0138   -6.5798    6.8077 N   0  0  0  0  0  0  0  0  0  0  0  0
  -13.3460   -6.4398    6.7409 C   0  0  0  0  0  0  0  0  0  0  0  0
  -13.8208   -7.0092    7.9075 C   0  0  0  0  0  0  0  0  0  0  0  0
  -15.1306   -7.1251    8.3354 C   0  0  0  0  0  0  0  0  0  0  0  0
  -15.3356   -7.7419    9.5616 C   0  0  0  0  0  0  0  0  0  0  0  0
  -14.2542   -8.2015   10.2835 C   0  0  0  0  0  0  0  0  0  0  0  0
  -12.9563   -8.0811    9.8483 C   0  0  0  0  0  0  0  0  0  0  0  0
  -12.7424   -7.4638    8.6186 C   0  0  0  0  0  0  0  0  0  0  0  0
   -9.2195   -8.0725    6.4109 C   0  0  0  0  0  0  0  0  0  0  0  0
   -9.8052   -9.3329    6.9335 C   0  0  0  0  0  0  0  0  0  0  0  0
   -9.9626   -8.9520    8.4265 C   0  0  0  0  0  0  0  0  0  0  0  0
  -10.8866   -9.7542    9.0343 O   0  0  0  0  0  0  0  0  0  0  0  0
  -10.2849   -7.5059    8.3260 C   0  0  0  0  0  0  0  0  0  0  0  0
   -9.4364   -7.0537    7.3244 O   0  0  0  0  0  0  0  0  0  0  0  0
  -10.4505  -10.1637    9.8460 H   0  0  0  0  0  0  0  0  0  0  0  0
   -7.7746   -8.1957    6.1338 N   0  0  0  0  0  0  0  0  0  0  0  0
   -7.4468   -8.9464    5.4764 H   0  0  0  0  0  0  0  0  0  0  0  0
   -6.8005   -7.3477    6.7152 C   0  0  0  0  0  0  0  0  0  0  0  0
   -5.8682   -6.7851    5.8842 C   0  0  0  0  0  0  0  0  0  0  0  0
   -4.9023   -5.9573    6.4009 C   0  0  0  0  0  0  0  0  0  0  0  0
   -4.8536   -5.6800    7.7508 C   0  0  0  0  0  0  0  0  0  0  0  0
   -5.8021   -6.2559    8.5802 C   0  0  0  0  0  0  0  0  0  0  0  0
   -5.4938   -5.7956    9.8144 N   0  0  0  0  0  0  0  0  0  0  0  0
   -4.4432   -4.9989    9.7697 N   0  0  0  0  0  0  0  0  0  0  0  0
   -4.0004   -4.8897    8.5050 C   0  0  0  0  0  0  0  0  0  0  0  0
   -6.7558   -7.0760    8.0560 C   0  0  0  0  0  0  0  0  0  0  0  0
   -3.8080   -4.2983   10.8845 C   0  0  0  0  0  0  0  0  0  0  0  0
   -3.9578   -5.0220   12.1809 C   0  0  0  0  0  0  0  0  0  0  0  0
   -3.0563   -6.2147   12.3446 C   0  0  0  0  0  0  0  0  0  0  0  0
   -1.6788   -5.9058   12.0031 N   0  0  0  0  0  0  0  0  0  0  0  0
   -1.0641   -5.0624   13.0118 C   0  0  0  0  0  0  0  0  0  0  0  0
   -1.5821   -5.3117   10.6820 C   0  0  0  0  0  0  0  0  0  0  0  0
   -2.3665   -4.0267   10.5948 C   0  0  0  0  0  0  0  0  0  0  0  0
  -11.0654   -9.6466    6.4467 O   0  0  0  0  0  0  0  0  0  0  0  0
  -11.4615  -10.9469    6.7374 C   0  0  0  0  0  0  0  0  0  0  0  0
  -14.0857   -5.8111    5.6673 C   0  0  0  0  0  0  0  0  0  0  0  0
  -14.9577   -6.5634    4.9380 C   0  0  0  0  0  0  0  0  0  0  0  0
  -15.6755   -5.9729    3.9065 C   0  0  0  0  0  0  0  0  0  0  0  0
  -15.5089   -4.6384    3.6222 C   0  0  0  0  0  0  0  0  0  0  0  0
  -14.6512   -3.9084    4.3430 N   0  0  0  0  0  0  0  0  0  0  0  0
  -13.9378   -4.4802    5.3627 C   0  0  0  0  0  0  0  0  0  0  0  0
  -15.1442   -8.2835    5.3119 S   0  0  0  0  0  0  0  0  0  0  0  0
  -16.8879   -8.6092    5.5598 C   0  0  0  0  0  0  0  0  0  0  0  0
  -17.6748   -9.1275    4.5425 C   0  0  0  0  0  0  0  0  0  0  0  0
  -19.0162   -9.3814    4.7301 C   0  0  0  0  0  0  0  0  0  0  0  0
  -19.6667   -9.1467    5.9126 C   0  0  0  0  0  0  0  0  0  0  0  0
  -18.8505   -8.6220    6.9270 C   0  0  0  0  0  0  0  0  0  0  0  0
  -17.5115   -8.3619    6.7601 C   0  0  0  0  0  0  0  0  0  0  0  0
  -21.0065   -9.3924    6.2076 N   0  0  0  0  0  0  0  0  0  0  0  0
  -21.6827   -8.5631    6.0169 H   0  0  0  0  0  0  0  0  0  0  0  0
  -21.6705  -10.5390    6.7033 C   0  0  0  0  0  0  0  0  0  0  0  0
  -21.6845  -11.6867    5.7331 C   0  0  0  0  0  0  0  0  0  0  0  0
  -21.3730  -12.6191    6.8842 C   0  0  0  0  0  0  0  0  0  0  0  0
  -21.0415  -11.3909    7.7450 C   0  0  0  0  0  0  0  0  0  0  0  0
 19 17  1  0  0  0
 17 10  1  0  0  0
 10 11  1  0  0  0
 11 35  1  0  0  0
 35 36  1  0  0  0
 11 12  1  0  0  0
 12 13  1  0  0  0
 12 14  1  0  0  0
 14  1  1  0  0  0
  1  2  1  0  0  0
  2  3  2  0  0  0
  3 37  1  0  0  0
 37 38  1  0  0  0
 38 43  1  0  0  0
 43 44  1  0  0  0
 44 45  2  0  0  0
 45 46  1  0  0  0
 46 47  2  0  0  0
 47 50  1  0  0  0
 50 52  1  0  0  0
 52 53  1  0  0  0
 53 54  1  0  0  0
 54 55  1  0  0  0
 47 48  1  0  0  0
 48 49  2  0  0  0
 38 39  2  0  0  0
 39 40  1  0  0  0
 40 41  2  0  0  0
 41 42  1  0  0  0
  3  4  1  0  0  0
  4  5  2  0  0  0
  5  6  1  0  0  0
  6  7  2  0  0  0
  7  8  1  0  0  0
  8  9  2  0  0  0
 14 15  1  0  0  0
 19 20  1  0  0  0
 20 21  2  0  0  0
 21 22  1  0  0  0
 22 23  1  0  0  0
 23 24  2  0  0  0
 24 25  1  0  0  0
 25 28  1  0  0  0
 28 29  1  0  0  0
 29 30  1  0  0  0
 30 31  1  0  0  0
 31 32  1  0  0  0
 31 33  1  0  0  0
 33 34  1  0  0  0
 25 26  1  0  0  0
 23 27  1  0  0  0
 27 19  2  0  0  0
 15 10  1  0  0  0
 26 22  2  0  0  0
  9  1  1  0  0  0
 34 28  1  0  0  0
 42 37  2  0  0  0
  9  4  1  0  0  0
 49 44  1  0  0  0
 55 52  1  0  0  0
 17 18  1  0  0  0
 13 16  1  0  0  0
 50 51  1  0  0  0
M  END
> <minimizedAffinity>
4.06480

> <CNNscore>
0.1542596966

> <CNNaffinity>
7.2892179489

> <CNN_VS>
1.1244325638

> <CNNaffinity_variance>
0.1939337552

$$$$
[H]O[C@]1([H])C([H])(n2nc(-c3c([H])nc([H])c([H])c3Sc3c([H])c([H])c(N([H])C4([H])C([H])([H])C([H])([H])C4([H])[H])c([H])c3[H])c3c([H])c([H])c([H])c([H])c32)O[C@@]([H])(N([H])c2c([H])c([H])c3c([H])n(C4([H])C([H])([H])C([H])([H])N(C([H])([H])[H])C([H])([H])C4([H])[H])nc3c2[H])[C@]1([H])OC([H])([H])[H]


 55 63  0  0  0  0  0  0  0  0999 V2000
  -11.5839   -6.3142    9.1047 N   0  0  0  0  0  0  0  0  0  0  0  0
  -10.6162   -7.1864    8.9059 N   0  0  0  0  0  0  0  0  0  0  0  0
  -10.9122   -8.0700    7.9413 C   0  0  0  0  0  0  0  0  0  0  0  0
  -12.1742   -7.7106    7.5070 C   0  0  0  0  0  0  0  0  0  0  0  0
  -12.9424   -8.2989    6.5190 C   0  0  0  0  0  0  0  0  0  0  0  0
  -14.1856   -7.7332    6.2735 C   0  0  0  0  0  0  0  0  0  0  0  0
  -14.5931   -6.6373    7.0048 C   0  0  0  0  0  0  0  0  0  0  0  0
  -13.8212   -6.0607    7.9848 C   0  0  0  0  0  0  0  0  0  0  0  0
  -12.5726   -6.6230    8.2374 C   0  0  0  0  0  0  0  0  0  0  0  0
  -10.8262   -6.1189   11.9711 C   0  0  0  0  0  0  0  0  0  0  0  0
  -12.2932   -6.3474   11.9994 C   0  0  0  0  0  0  0  0  0  0  0  0
  -12.7514   -5.2442   11.0135 C   0  0  0  0  0  0  0  0  0  0  0  0
  -13.9917   -5.5274   10.5153 O   0  0  0  0  0  0  0  0  0  0  0  0
  -11.6228   -5.2285   10.0485 C   0  0  0  0  0  0  0  0  0  0  0  0
  -10.5025   -5.3601   10.8580 O   0  0  0  0  0  0  0  0  0  0  0  0
  -14.5802   -4.7261   10.6840 H   0  0  0  0  0  0  0  0  0  0  0  0
  -10.3373   -5.4483   13.1921 N   0  0  0  0  0  0  0  0  0  0  0  0
  -11.0374   -5.0893   13.8880 H   0  0  0  0  0  0  0  0  0  0  0  0
   -8.9620   -5.2613   13.4740 C   0  0  0  0  0  0  0  0  0  0  0  0
   -8.0647   -6.0774   12.8376 C   0  0  0  0  0  0  0  0  0  0  0  0
   -6.7206   -5.9361   13.0794 C   0  0  0  0  0  0  0  0  0  0  0  0
   -6.2543   -4.9805   13.9575 C   0  0  0  0  0  0  0  0  0  0  0  0
   -7.1725   -4.1620   14.5948 C   0  0  0  0  0  0  0  0  0  0  0  0
   -6.4178   -3.3480   15.3682 N   0  0  0  0  0  0  0  0  0  0  0  0
   -5.1356   -3.6269   15.2319 N   0  0  0  0  0  0  0  0  0  0  0  0
   -4.9733   -4.6393   14.3624 C   0  0  0  0  0  0  0  0  0  0  0  0
   -8.5040   -4.3118   14.3471 C   0  0  0  0  0  0  0  0  0  0  0  0
   -4.0061   -2.9697   15.8875 C   0  0  0  0  0  0  0  0  0  0  0  0
   -3.1312   -2.2338   14.9285 C   0  0  0  0  0  0  0  0  0  0  0  0
   -3.6869   -0.9216   14.4478 C   0  0  0  0  0  0  0  0  0  0  0  0
   -4.1712   -0.1019   15.5446 N   0  0  0  0  0  0  0  0  0  0  0  0
   -3.0713    0.4319   16.3269 C   0  0  0  0  0  0  0  0  0  0  0  0
   -5.1099   -0.8331   16.3765 C   0  0  0  0  0  0  0  0  0  0  0  0
   -4.4749   -2.0612   16.9787 C   0  0  0  0  0  0  0  0  0  0  0  0
  -12.7124   -7.5663   11.4877 O   0  0  0  0  0  0  0  0  0  0  0  0
  -14.0935   -7.6694   11.3689 C   0  0  0  0  0  0  0  0  0  0  0  0
  -10.0608   -9.1447    7.4775 C   0  0  0  0  0  0  0  0  0  0  0  0
   -8.7220   -9.0800    7.7257 C   0  0  0  0  0  0  0  0  0  0  0  0
   -7.8936  -10.1049    7.2884 C   0  0  0  0  0  0  0  0  0  0  0  0
   -8.4194  -11.1785    6.6098 C   0  0  0  0  0  0  0  0  0  0  0  0
   -9.7340  -11.2333    6.3708 N   0  0  0  0  0  0  0  0  0  0  0  0
  -10.5605  -10.2281    6.7974 C   0  0  0  0  0  0  0  0  0  0  0  0
   -8.0652   -7.6802    8.5875 S   0  0  0  0  0  0  0  0  0  0  0  0
   -6.7495   -6.9850    7.5906 C   0  0  0  0  0  0  0  0  0  0  0  0
   -6.9341   -6.7139    6.2433 C   0  0  0  0  0  0  0  0  0  0  0  0
   -5.9250   -6.1771    5.4736 C   0  0  0  0  0  0  0  0  0  0  0  0
   -4.6837   -5.8745    5.9676 C   0  0  0  0  0  0  0  0  0  0  0  0
   -4.5201   -6.1576    7.3328 C   0  0  0  0  0  0  0  0  0  0  0  0
   -5.5134   -6.6926    8.1173 C   0  0  0  0  0  0  0  0  0  0  0  0
   -3.6113   -5.3089    5.2802 N   0  0  0  0  0  0  0  0  0  0  0  0
   -2.9675   -6.0157    4.7632 H   0  0  0  0  0  0  0  0  0  0  0  0
   -3.1995   -3.9661    5.1107 C   0  0  0  0  0  0  0  0  0  0  0  0
   -4.0316   -3.2077    4.1151 C   0  0  0  0  0  0  0  0  0  0  0  0
   -4.0217   -2.0246    5.0593 C   0  0  0  0  0  0  0  0  0  0  0  0
   -3.4746   -2.9486    6.1575 C   0  0  0  0  0  0  0  0  0  0  0  0
 19 17  1  0  0  0
 17 10  1  0  0  0
 10 11  1  0  0  0
 11 35  1  0  0  0
 35 36  1  0  0  0
 11 12  1  0  0  0
 12 13  1  0  0  0
 12 14  1  0  0  0
 14  1  1  0  0  0
  1  2  1  0  0  0
  2  3  2  0  0  0
  3 37  1  0  0  0
 37 38  1  0  0  0
 38 43  1  0  0  0
 43 44  1  0  0  0
 44 45  2  0  0  0
 45 46  1  0  0  0
 46 47  2  0  0  0
 47 50  1  0  0  0
 50 52  1  0  0  0
 52 53  1  0  0  0
 53 54  1  0  0  0
 54 55  1  0  0  0
 47 48  1  0  0  0
 48 49  2  0  0  0
 38 39  2  0  0  0
 39 40  1  0  0  0
 40 41  2  0  0  0
 41 42  1  0  0  0
  3  4  1  0  0  0
  4  5  2  0  0  0
  5  6  1  0  0  0
  6  7  2  0  0  0
  7  8  1  0  0  0
  8  9  2  0  0  0
 14 15  1  0  0  0
 19 20  1  0  0  0
 20 21  2  0  0  0
 21 22  1  0  0  0
 22 23  1  0  0  0
 23 24  2  0  0  0
 24 25  1  0  0  0
 25 28  1  0  0  0
 28 29  1  0  0  0
 29 30  1  0  0  0
 30 31  1  0  0  0
 31 32  1  0  0  0
 31 33  1  0  0  0
 33 34  1  0  0  0
 25 26  1  0  0  0
 23 27  1  0  0  0
 27 19  2  0  0  0
 15 10  1  0  0  0
 26 22  2  0  0  0
  9  1  1  0  0  0
 34 28  1  0  0  0
 42 37  2  0  0  0
  9  4  1  0  0  0
 49 44  1  0  0  0
 55 52  1  0  0  0
 17 18  1  0  0  0
 13 16  1  0  0  0
 50 51  1  0  0  0
M  END
> <minimizedAffinity>
3.19815

> <CNNscore>
0.1517878324

> <CNNaffinity>
7.3751220703

> <CNN_VS>
1.1194537878

> <CNNaffinity_variance>
0.0846894458

$$$$
[H]O[C@]1([H])C([H])(n2nc(-c3c([H])nc([H])c([H])c3Sc3c([H])c([H])c(N([H])C4([H])C([H])([H])C([H])([H])C4([H])[H])c([H])c3[H])c3c([H])c([H])c([H])c([H])c32)O[C@@]([H])(N([H])c2c([H])c([H])c3c([H])n(C4([H])C([H])([H])C([H])([H])N(C([H])([H])[H])C([H])([H])C4([H])[H])nc3c2[H])[C@]1([H])OC([H])([H])[H]


 55 63  0  0  0  0  0  0  0  0999 V2000
  -11.5812   -6.2341    9.0951 N   0  0  0  0  0  0  0  0  0  0  0  0
  -10.4884   -6.9512    8.9266 N   0  0  0  0  0  0  0  0  0  0  0  0
  -10.6137   -7.8538    7.9425 C   0  0  0  0  0  0  0  0  0  0  0  0
  -11.8977   -7.6775    7.4617 C   0  0  0  0  0  0  0  0  0  0  0  0
  -12.5324   -8.3573    6.4384 C   0  0  0  0  0  0  0  0  0  0  0  0
  -13.8354   -7.9771    6.1490 C   0  0  0  0  0  0  0  0  0  0  0  0
  -14.4277   -6.9646    6.8741 C   0  0  0  0  0  0  0  0  0  0  0  0
  -13.7872   -6.2957    7.8895 C   0  0  0  0  0  0  0  0  0  0  0  0
  -12.4798   -6.6718    8.1862 C   0  0  0  0  0  0  0  0  0  0  0  0
  -11.3128   -6.1044   12.0514 C   0  0  0  0  0  0  0  0  0  0  0  0
  -12.7547   -6.3823   11.8309 C   0  0  0  0  0  0  0  0  0  0  0  0
  -13.0863   -5.2644   10.8114 C   0  0  0  0  0  0  0  0  0  0  0  0
  -14.2162   -5.5728   10.1079 O   0  0  0  0  0  0  0  0  0  0  0  0
  -11.8159   -5.1807   10.0470 C   0  0  0  0  0  0  0  0  0  0  0  0
  -10.8396   -5.3005   11.0269 O   0  0  0  0  0  0  0  0  0  0  0  0
  -14.8543   -4.7972   10.1974 H   0  0  0  0  0  0  0  0  0  0  0  0
  -11.0570   -5.4567   13.3532 N   0  0  0  0  0  0  0  0  0  0  0  0
  -11.8590   -5.3200   14.0175 H   0  0  0  0  0  0  0  0  0  0  0  0
   -9.7758   -5.0054   13.7541 C   0  0  0  0  0  0  0  0  0  0  0  0
   -9.7048   -3.8304   14.4547 C   0  0  0  0  0  0  0  0  0  0  0  0
   -8.4852   -3.3506   14.8637 C   0  0  0  0  0  0  0  0  0  0  0  0
   -7.3221   -4.0352   14.5803 C   0  0  0  0  0  0  0  0  0  0  0  0
   -7.4080   -5.2219   13.8707 C   0  0  0  0  0  0  0  0  0  0  0  0
   -6.1266   -5.6417   13.7608 N   0  0  0  0  0  0  0  0  0  0  0  0
   -5.3031   -4.7954   14.3491 N   0  0  0  0  0  0  0  0  0  0  0  0
   -5.9945   -3.7713   14.8788 C   0  0  0  0  0  0  0  0  0  0  0  0
   -8.6240   -5.6880   13.4697 C   0  0  0  0  0  0  0  0  0  0  0  0
   -3.8486   -4.8965   14.4568 C   0  0  0  0  0  0  0  0  0  0  0  0
   -3.3537   -4.6416   15.8412 C   0  0  0  0  0  0  0  0  0  0  0  0
   -3.5593   -5.7790   16.8034 C   0  0  0  0  0  0  0  0  0  0  0  0
   -3.1177   -7.0467   16.2488 N   0  0  0  0  0  0  0  0  0  0  0  0
   -1.6693   -7.1140   16.1805 C   0  0  0  0  0  0  0  0  0  0  0  0
   -3.7234   -7.2966   14.9532 C   0  0  0  0  0  0  0  0  0  0  0  0
   -3.3654   -6.2210   13.9587 C   0  0  0  0  0  0  0  0  0  0  0  0
  -13.0375   -7.5977   11.2258 O   0  0  0  0  0  0  0  0  0  0  0  0
  -14.3965   -7.8853   11.1737 C   0  0  0  0  0  0  0  0  0  0  0  0
   -9.5959   -8.7841    7.5026 C   0  0  0  0  0  0  0  0  0  0  0  0
   -8.3735   -8.3019    7.1400 C   0  0  0  0  0  0  0  0  0  0  0  0
   -7.3869   -9.1830    6.7180 C   0  0  0  0  0  0  0  0  0  0  0  0
   -7.6403  -10.5331    6.6662 C   0  0  0  0  0  0  0  0  0  0  0  0
   -8.8424  -10.9970    7.0238 N   0  0  0  0  0  0  0  0  0  0  0  0
   -9.8231  -10.1371    7.4416 C   0  0  0  0  0  0  0  0  0  0  0  0
   -8.0752   -6.5580    7.1996 S   0  0  0  0  0  0  0  0  0  0  0  0
   -6.3033   -6.2990    7.1610 C   0  0  0  0  0  0  0  0  0  0  0  0
   -5.6407   -6.0333    5.9724 C   0  0  0  0  0  0  0  0  0  0  0  0
   -4.2780   -5.8313    5.9390 C   0  0  0  0  0  0  0  0  0  0  0  0
   -3.4847   -5.8760    7.0548 C   0  0  0  0  0  0  0  0  0  0  0  0
   -4.1769   -6.1467    8.2457 C   0  0  0  0  0  0  0  0  0  0  0  0
   -5.5347   -6.3510    8.3001 C   0  0  0  0  0  0  0  0  0  0  0  0
   -2.1095   -5.6615    7.1277 N   0  0  0  0  0  0  0  0  0  0  0  0
   -1.5006   -6.5615    7.1524 H   0  0  0  0  0  0  0  0  0  0  0  0
   -1.3381   -4.4761    7.1623 C   0  0  0  0  0  0  0  0  0  0  0  0
   -1.1643   -3.8375    5.8130 C   0  0  0  0  0  0  0  0  0  0  0  0
   -1.4072   -2.4896    6.4575 C   0  0  0  0  0  0  0  0  0  0  0  0
   -1.9017   -3.2182    7.7160 C   0  0  0  0  0  0  0  0  0  0  0  0
 19 17  1  0  0  0
 17 10  1  0  0  0
 10 11  1  0  0  0
 11 35  1  0  0  0
 35 36  1  0  0  0
 11 12  1  0  0  0
 12 13  1  0  0  0
 12 14  1  0  0  0
 14  1  1  0  0  0
  1  2  1  0  0  0
  2  3  2  0  0  0
  3 37  1  0  0  0
 37 38  1  0  0  0
 38 43  1  0  0  0
 43 44  1  0  0  0
 44 45  2  0  0  0
 45 46  1  0  0  0
 46 47  2  0  0  0
 47 50  1  0  0  0
 50 52  1  0  0  0
 52 53  1  0  0  0
 53 54  1  0  0  0
 54 55  1  0  0  0
 47 48  1  0  0  0
 48 49  2  0  0  0
 38 39  2  0  0  0
 39 40  1  0  0  0
 40 41  2  0  0  0
 41 42  1  0  0  0
  3  4  1  0  0  0
  4  5  2  0  0  0
  5  6  1  0  0  0
  6  7  2  0  0  0
  7  8  1  0  0  0
  8  9  2  0  0  0
 14 15  1  0  0  0
 19 20  1  0  0  0
 20 21  2  0  0  0
 21 22  1  0  0  0
 22 23  1  0  0  0
 23 24  2  0  0  0
 24 25  1  0  0  0
 25 28  1  0  0  0
 28 29  1  0  0  0
 29 30  1  0  0  0
 30 31  1  0  0  0
 31 32  1  0  0  0
 31 33  1  0  0  0
 33 34  1  0  0  0
 25 26  1  0  0  0
 23 27  1  0  0  0
 27 19  2  0  0  0
 15 10  1  0  0  0
 26 22  2  0  0  0
  9  1  1  0  0  0
 34 28  1  0  0  0
 42 37  2  0  0  0
  9  4  1  0  0  0
 49 44  1  0  0  0
 55 52  1  0  0  0
 17 18  1  0  0  0
 13 16  1  0  0  0
 50 51  1  0  0  0
M  END
> <minimizedAffinity>
3.46194

> <CNNscore>
0.1328426450

> <CNNaffinity>
7.5969300270

> <CNN_VS>
1.0091962814

> <CNNaffinity_variance>
0.0759518966

$$$$
[H]O[C@]1([H])C([H])(n2nc(-c3c([H])nc([H])c([H])c3Sc3c([H])c([H])c(N([H])C4([H])C([H])([H])C([H])([H])C4([H])[H])c([H])c3[H])c3c([H])c([H])c([H])c([H])c32)O[C@@]([H])(N([H])c2c([H])c([H])c3c([H])n(C4([H])C([H])([H])C([H])([H])N(C([H])([H])[H])C([H])([H])C4([H])[H])nc3c2[H])[C@]1([H])OC([H])([H])[H]


 55 63  0  0  0  0  0  0  0  0999 V2000
   -8.1444   -8.2377    8.1331 N   0  0  0  0  0  0  0  0  0  0  0  0
   -8.8131   -7.3082    8.7856 N   0  0  0  0  0  0  0  0  0  0  0  0
  -10.1412   -7.4518    8.6652 C   0  0  0  0  0  0  0  0  0  0  0  0
  -10.3057   -8.5689    7.8678 C   0  0  0  0  0  0  0  0  0  0  0  0
  -11.4840   -9.1525    7.4398 C   0  0  0  0  0  0  0  0  0  0  0  0
  -11.3684  -10.2825    6.6424 C   0  0  0  0  0  0  0  0  0  0  0  0
  -10.1175  -10.7640    6.3183 C   0  0  0  0  0  0  0  0  0  0  0  0
   -8.9527  -10.1756    6.7494 C   0  0  0  0  0  0  0  0  0  0  0  0
   -9.0604   -9.0410    7.5495 C   0  0  0  0  0  0  0  0  0  0  0  0
   -5.9179   -6.3015    7.7828 C   0  0  0  0  0  0  0  0  0  0  0  0
   -6.1855   -6.7976    6.4090 C   0  0  0  0  0  0  0  0  0  0  0  0
   -6.1458   -8.3243    6.6670 C   0  0  0  0  0  0  0  0  0  0  0  0
   -6.8040   -8.9981    5.6773 O   0  0  0  0  0  0  0  0  0  0  0  0
   -6.7184   -8.4038    8.0349 C   0  0  0  0  0  0  0  0  0  0  0  0
   -6.1424   -7.3239    8.6905 O   0  0  0  0  0  0  0  0  0  0  0  0
   -6.1726   -9.6911    5.3060 H   0  0  0  0  0  0  0  0  0  0  0  0
   -4.5422   -5.7889    7.9381 N   0  0  0  0  0  0  0  0  0  0  0  0
   -4.1328   -5.7204    8.9029 H   0  0  0  0  0  0  0  0  0  0  0  0
   -3.7409   -5.3800    6.8441 C   0  0  0  0  0  0  0  0  0  0  0  0
   -2.6297   -6.1267    6.5544 C   0  0  0  0  0  0  0  0  0  0  0  0
   -1.8203   -5.7694    5.5044 C   0  0  0  0  0  0  0  0  0  0  0  0
   -2.1081   -4.6648    4.7306 C   0  0  0  0  0  0  0  0  0  0  0  0
   -3.2347   -3.9181    5.0348 C   0  0  0  0  0  0  0  0  0  0  0  0
   -3.2418   -2.9287    4.1121 N   0  0  0  0  0  0  0  0  0  0  0  0
   -2.2109   -3.0398    3.2965 N   0  0  0  0  0  0  0  0  0  0  0  0
   -1.4671   -4.1072    3.6354 C   0  0  0  0  0  0  0  0  0  0  0  0
   -4.0303   -4.2823    6.0794 C   0  0  0  0  0  0  0  0  0  0  0  0
   -1.8710   -2.1760    2.1671 C   0  0  0  0  0  0  0  0  0  0  0  0
   -1.0622   -2.8772    1.1276 C   0  0  0  0  0  0  0  0  0  0  0  0
   -1.8430   -3.8139    0.2473 C   0  0  0  0  0  0  0  0  0  0  0  0
   -3.0499   -3.1937   -0.2708 N   0  0  0  0  0  0  0  0  0  0  0  0
   -2.7373   -2.1991   -1.2807 C   0  0  0  0  0  0  0  0  0  0  0  0
   -3.8560   -2.6316    0.7978 C   0  0  0  0  0  0  0  0  0  0  0  0
   -3.1000   -1.5751    1.5635 C   0  0  0  0  0  0  0  0  0  0  0  0
   -7.4399   -6.4913    5.9029 O   0  0  0  0  0  0  0  0  0  0  0  0
   -7.4386   -6.2485    4.5343 C   0  0  0  0  0  0  0  0  0  0  0  0
  -11.1495   -6.6053    9.2665 C   0  0  0  0  0  0  0  0  0  0  0  0
  -12.4427   -7.0355    9.2920 C   0  0  0  0  0  0  0  0  0  0  0  0
  -13.4201   -6.2347    9.8676 C   0  0  0  0  0  0  0  0  0  0  0  0
  -13.0865   -5.0160   10.4090 C   0  0  0  0  0  0  0  0  0  0  0  0
  -11.8152   -4.6022   10.3794 N   0  0  0  0  0  0  0  0  0  0  0  0
  -10.8429   -5.3838    9.8141 C   0  0  0  0  0  0  0  0  0  0  0  0
  -12.8514   -8.6013    8.5746 S   0  0  0  0  0  0  0  0  0  0  0  0
  -14.3235   -8.3850    7.5775 C   0  0  0  0  0  0  0  0  0  0  0  0
  -15.5556   -8.1287    8.1596 C   0  0  0  0  0  0  0  0  0  0  0  0
  -16.6900   -7.9596    7.3958 C   0  0  0  0  0  0  0  0  0  0  0  0
  -16.6913   -8.0296    6.0277 C   0  0  0  0  0  0  0  0  0  0  0  0
  -15.4337   -8.2902    5.4610 C   0  0  0  0  0  0  0  0  0  0  0  0
  -14.2912   -8.4619    6.2050 C   0  0  0  0  0  0  0  0  0  0  0  0
  -17.7746   -7.8488    5.1696 N   0  0  0  0  0  0  0  0  0  0  0  0
  -18.5073   -8.6517    5.1724 H   0  0  0  0  0  0  0  0  0  0  0  0
  -18.1181   -6.7957    4.2896 C   0  0  0  0  0  0  0  0  0  0  0  0
  -17.8517   -5.4308    4.8595 C   0  0  0  0  0  0  0  0  0  0  0  0
  -17.2981   -5.0143    3.5136 C   0  0  0  0  0  0  0  0  0  0  0  0
  -17.2795   -6.4938    3.1013 C   0  0  0  0  0  0  0  0  0  0  0  0
 19 17  1  0  0  0
 17 10  1  0  0  0
 10 11  1  0  0  0
 11 35  1  0  0  0
 35 36  1  0  0  0
 11 12  1  0  0  0
 12 13  1  0  0  0
 12 14  1  0  0  0
 14  1  1  0  0  0
  1  2  1  0  0  0
  2  3  2  0  0  0
  3 37  1  0  0  0
 37 38  1  0  0  0
 38 43  1  0  0  0
 43 44  1  0  0  0
 44 45  2  0  0  0
 45 46  1  0  0  0
 46 47  2  0  0  0
 47 50  1  0  0  0
 50 52  1  0  0  0
 52 53  1  0  0  0
 53 54  1  0  0  0
 54 55  1  0  0  0
 47 48  1  0  0  0
 48 49  2  0  0  0
 38 39  2  0  0  0
 39 40  1  0  0  0
 40 41  2  0  0  0
 41 42  1  0  0  0
  3  4  1  0  0  0
  4  5  2  0  0  0
  5  6  1  0  0  0
  6  7  2  0  0  0
  7  8  1  0  0  0
  8  9  2  0  0  0
 14 15  1  0  0  0
 19 20  1  0  0  0
 20 21  2  0  0  0
 21 22  1  0  0  0
 22 23  1  0  0  0
 23 24  2  0  0  0
 24 25  1  0  0  0
 25 28  1  0  0  0
 28 29  1  0  0  0
 29 30  1  0  0  0
 30 31  1  0  0  0
 31 32  1  0  0  0
 31 33  1  0  0  0
 33 34  1  0  0  0
 25 26  1  0  0  0
 23 27  1  0  0  0
 27 19  2  0  0  0
 15 10  1  0  0  0
 26 22  2  0  0  0
  9  1  1  0  0  0
 34 28  1  0  0  0
 42 37  2  0  0  0
  9  4  1  0  0  0
 49 44  1  0  0  0
 55 52  1  0  0  0
 17 18  1  0  0  0
 13 16  1  0  0  0
 50 51  1  0  0  0
M  END
> <minimizedAffinity>
-9.95003

> <CNNscore>
0.1279097497

> <CNNaffinity>
7.8221230507

> <CNN_VS>
1.0005258322

> <CNNaffinity_variance>
0.0863914862

$$$$
[H]O[C@]1([H])C([H])(n2nc(-c3c([H])nc([H])c([H])c3Sc3c([H])c([H])c(N([H])C4([H])C([H])([H])C([H])([H])C4([H])[H])c([H])c3[H])c3c([H])c([H])c([H])c([H])c32)O[C@@]([H])(N([H])c2c([H])c([H])c3c([H])n(C4([H])C([H])([H])C([H])([H])N(C([H])([H])[H])C([H])([H])C4([H])[H])nc3c2[H])[C@]1([H])OC([H])([H])[H]


 55 63  0  0  0  0  0  0  0  0999 V2000
   -8.4430   -6.5067    7.7369 N   0  0  0  0  0  0  0  0  0  0  0  0
   -8.6756   -7.7170    7.2703 N   0  0  0  0  0  0  0  0  0  0  0  0
   -9.8431   -8.2174    7.7011 C   0  0  0  0  0  0  0  0  0  0  0  0
  -10.3775   -7.2276    8.5046 C   0  0  0  0  0  0  0  0  0  0  0  0
  -11.5757   -7.2355    9.1947 C   0  0  0  0  0  0  0  0  0  0  0  0
  -11.8804   -6.0997    9.9317 C   0  0  0  0  0  0  0  0  0  0  0  0
  -10.9997   -5.0386    9.9452 C   0  0  0  0  0  0  0  0  0  0  0  0
   -9.8111   -5.0417    9.2554 C   0  0  0  0  0  0  0  0  0  0  0  0
   -9.4980   -6.1781    8.5140 C   0  0  0  0  0  0  0  0  0  0  0  0
   -6.0773   -6.7944    5.9623 C   0  0  0  0  0  0  0  0  0  0  0  0
   -5.5939   -7.2581    7.2875 C   0  0  0  0  0  0  0  0  0  0  0  0
   -6.0407   -6.0625    8.1649 C   0  0  0  0  0  0  0  0  0  0  0  0
   -6.1254   -6.4323    9.4774 O   0  0  0  0  0  0  0  0  0  0  0  0
   -7.3030   -5.6631    7.4925 C   0  0  0  0  0  0  0  0  0  0  0  0
   -7.0012   -5.7777    6.1422 O   0  0  0  0  0  0  0  0  0  0  0  0
   -5.5628   -5.7900   10.0139 H   0  0  0  0  0  0  0  0  0  0  0  0
   -4.9787   -6.3234    5.0958 N   0  0  0  0  0  0  0  0  0  0  0  0
   -4.9436   -6.6513    4.0985 H   0  0  0  0  0  0  0  0  0  0  0  0
   -3.9610   -5.4466    5.5447 C   0  0  0  0  0  0  0  0  0  0  0  0
   -2.7057   -5.9654    5.7216 C   0  0  0  0  0  0  0  0  0  0  0  0
   -1.6861   -5.1555    6.1571 C   0  0  0  0  0  0  0  0  0  0  0  0
   -1.9045   -3.8198    6.4213 C   0  0  0  0  0  0  0  0  0  0  0  0
   -3.1788   -3.3080    6.2387 C   0  0  0  0  0  0  0  0  0  0  0  0
   -3.0672   -2.0012    6.5701 N   0  0  0  0  0  0  0  0  0  0  0  0
   -1.8315   -1.7119    6.9303 N   0  0  0  0  0  0  0  0  0  0  0  0
   -1.0602   -2.8105    6.8571 C   0  0  0  0  0  0  0  0  0  0  0  0
   -4.1828   -4.1215    5.8063 C   0  0  0  0  0  0  0  0  0  0  0  0
   -1.3060   -0.4132    7.3483 C   0  0  0  0  0  0  0  0  0  0  0  0
   -1.5764    0.6656    6.3534 C   0  0  0  0  0  0  0  0  0  0  0  0
   -2.9904    1.1776    6.3477 C   0  0  0  0  0  0  0  0  0  0  0  0
   -3.4626    1.4851    7.6864 N   0  0  0  0  0  0  0  0  0  0  0  0
   -2.8281    2.6832    8.2048 C   0  0  0  0  0  0  0  0  0  0  0  0
   -3.2823    0.3573    8.5826 C   0  0  0  0  0  0  0  0  0  0  0  0
   -1.8298   -0.0321    8.6960 C   0  0  0  0  0  0  0  0  0  0  0  0
   -6.2173   -8.3948    7.7805 O   0  0  0  0  0  0  0  0  0  0  0  0
   -6.2717   -9.4367    6.8620 C   0  0  0  0  0  0  0  0  0  0  0  0
  -10.3931   -9.5129    7.3638 C   0  0  0  0  0  0  0  0  0  0  0  0
  -11.7353   -9.7138    7.4924 C   0  0  0  0  0  0  0  0  0  0  0  0
  -12.2770  -10.9510    7.1704 C   0  0  0  0  0  0  0  0  0  0  0  0
  -11.4659  -11.9672    6.7244 C   0  0  0  0  0  0  0  0  0  0  0  0
  -10.1504  -11.7610    6.6015 N   0  0  0  0  0  0  0  0  0  0  0  0
   -9.6051  -10.5447    6.9162 C   0  0  0  0  0  0  0  0  0  0  0  0
  -12.7580   -8.3955    8.0837 S   0  0  0  0  0  0  0  0  0  0  0  0
  -14.1272   -8.2050    6.9448 C   0  0  0  0  0  0  0  0  0  0  0  0
  -13.9311   -8.2342    5.5725 C   0  0  0  0  0  0  0  0  0  0  0  0
  -14.9822   -8.0902    4.6932 C   0  0  0  0  0  0  0  0  0  0  0  0
  -16.2790   -7.9102    5.0961 C   0  0  0  0  0  0  0  0  0  0  0  0
  -16.4532   -7.8835    6.4888 C   0  0  0  0  0  0  0  0  0  0  0  0
  -15.4185   -8.0253    7.3820 C   0  0  0  0  0  0  0  0  0  0  0  0
  -17.4083   -7.7808    4.2896 N   0  0  0  0  0  0  0  0  0  0  0  0
  -17.9965   -8.6866    4.1668 H   0  0  0  0  0  0  0  0  0  0  0  0
  -17.9547   -6.6740    3.5983 C   0  0  0  0  0  0  0  0  0  0  0  0
  -19.1174   -6.0409    4.3096 C   0  0  0  0  0  0  0  0  0  0  0  0
  -18.5472   -4.6827    3.9609 C   0  0  0  0  0  0  0  0  0  0  0  0
  -17.2368   -5.3742    3.5562 C   0  0  0  0  0  0  0  0  0  0  0  0
 19 17  1  0  0  0
 17 10  1  0  0  0
 10 11  1  0  0  0
 11 35  1  0  0  0
 35 36  1  0  0  0
 11 12  1  0  0  0
 12 13  1  0  0  0
 12 14  1  0  0  0
 14  1  1  0  0  0
  1  2  1  0  0  0
  2  3  2  0  0  0
  3 37  1  0  0  0
 37 38  1  0  0  0
 38 43  1  0  0  0
 43 44  1  0  0  0
 44 45  2  0  0  0
 45 46  1  0  0  0
 46 47  2  0  0  0
 47 50  1  0  0  0
 50 52  1  0  0  0
 52 53  1  0  0  0
 53 54  1  0  0  0
 54 55  1  0  0  0
 47 48  1  0  0  0
 48 49  2  0  0  0
 38 39  2  0  0  0
 39 40  1  0  0  0
 40 41  2  0  0  0
 41 42  1  0  0  0
  3  4  1  0  0  0
  4  5  2  0  0  0
  5  6  1  0  0  0
  6  7  2  0  0  0
  7  8  1  0  0  0
  8  9  2  0  0  0
 14 15  1  0  0  0
 19 20  1  0  0  0
 20 21  2  0  0  0
 21 22  1  0  0  0
 22 23  1  0  0  0
 23 24  2  0  0  0
 24 25  1  0  0  0
 25 28  1  0  0  0
 28 29  1  0  0  0
 29 30  1  0  0  0
 30 31  1  0  0  0
 31 32  1  0  0  0
 31 33  1  0  0  0
 33 34  1  0  0  0
 25 26  1  0  0  0
 23 27  1  0  0  0
 27 19  2  0  0  0
 15 10  1  0  0  0
 26 22  2  0  0  0
  9  1  1  0  0  0
 34 28  1  0  0  0
 42 37  2  0  0  0
  9  4  1  0  0  0
 49 44  1  0  0  0
 55 52  1  0  0  0
 17 18  1  0  0  0
 13 16  1  0  0  0
 50 51  1  0  0  0
M  END
> <minimizedAffinity>
2.44762

> <CNNscore>
0.1277120858

> <CNNaffinity>
7.4158148766

> <CNN_VS>
0.9470891953

> <CNNaffinity_variance>
0.1752330512

$$$$
[H]O[C@]1([H])C([H])(n2nc(-c3c([H])nc([H])c([H])c3Sc3c([H])c([H])c(N([H])C4([H])C([H])([H])C([H])([H])C4([H])[H])c([H])c3[H])c3c([H])c([H])c([H])c([H])c32)O[C@@]([H])(N([H])c2c([H])c([H])c3c([H])n(C4([H])C([H])([H])C([H])([H])N(C([H])([H])[H])C([H])([H])C4([H])[H])nc3c2[H])[C@]1([H])OC([H])([H])[H]


 55 63  0  0  0  0  0  0  0  0999 V2000
   -8.0918   -8.2276    8.1846 N   0  0  0  0  0  0  0  0  0  0  0  0
   -8.7809   -7.3055    8.8262 N   0  0  0  0  0  0  0  0  0  0  0  0
  -10.1050   -7.4587    8.6780 C   0  0  0  0  0  0  0  0  0  0  0  0
  -10.2446   -8.5742    7.8737 C   0  0  0  0  0  0  0  0  0  0  0  0
  -11.4094   -9.1652    7.4196 C   0  0  0  0  0  0  0  0  0  0  0  0
  -11.2689  -10.2914    6.6209 C   0  0  0  0  0  0  0  0  0  0  0  0
  -10.0079  -10.7623    6.3210 C   0  0  0  0  0  0  0  0  0  0  0  0
   -8.8568  -10.1667    6.7780 C   0  0  0  0  0  0  0  0  0  0  0  0
   -8.9895   -9.0358    7.5794 C   0  0  0  0  0  0  0  0  0  0  0  0
   -5.8666   -6.2663    8.0104 C   0  0  0  0  0  0  0  0  0  0  0  0
   -6.0949   -6.6804    6.6028 C   0  0  0  0  0  0  0  0  0  0  0  0
   -6.0543   -8.2197    6.7704 C   0  0  0  0  0  0  0  0  0  0  0  0
   -6.6824   -8.8354    5.7249 O   0  0  0  0  0  0  0  0  0  0  0  0
   -6.6628   -8.3826    8.1151 C   0  0  0  0  0  0  0  0  0  0  0  0
   -6.1101   -7.3419    8.8492 O   0  0  0  0  0  0  0  0  0  0  0  0
   -6.0378   -9.5029    5.3301 H   0  0  0  0  0  0  0  0  0  0  0  0
   -4.4981   -5.7591    8.2331 N   0  0  0  0  0  0  0  0  0  0  0  0
   -3.8909   -5.5566    7.4003 H   0  0  0  0  0  0  0  0  0  0  0  0
   -3.9577   -5.5317    9.5223 C   0  0  0  0  0  0  0  0  0  0  0  0
   -2.5994   -5.6297    9.6700 C   0  0  0  0  0  0  0  0  0  0  0  0
   -2.0283   -5.4198   10.9008 C   0  0  0  0  0  0  0  0  0  0  0  0
   -2.8029   -5.1096   11.9987 C   0  0  0  0  0  0  0  0  0  0  0  0
   -4.1753   -5.0140   11.8357 C   0  0  0  0  0  0  0  0  0  0  0  0
   -4.6394   -4.7002   13.0671 N   0  0  0  0  0  0  0  0  0  0  0  0
   -3.6481   -4.6055   13.9325 N   0  0  0  0  0  0  0  0  0  0  0  0
   -2.4765   -4.8516   13.3210 C   0  0  0  0  0  0  0  0  0  0  0  0
   -4.7308   -5.2248   10.6094 C   0  0  0  0  0  0  0  0  0  0  0  0
   -3.7349   -4.2766   15.3543 C   0  0  0  0  0  0  0  0  0  0  0  0
   -3.1024   -2.9656   15.6827 C   0  0  0  0  0  0  0  0  0  0  0  0
   -3.9148   -1.7600   15.2977 C   0  0  0  0  0  0  0  0  0  0  0  0
   -5.2942   -1.8705   15.7389 N   0  0  0  0  0  0  0  0  0  0  0  0
   -5.3987   -1.7190   17.1787 C   0  0  0  0  0  0  0  0  0  0  0  0
   -5.8949   -3.1135   15.2898 C   0  0  0  0  0  0  0  0  0  0  0  0
   -5.1532   -4.3117   15.8266 C   0  0  0  0  0  0  0  0  0  0  0  0
   -7.3368   -6.3488    6.0822 O   0  0  0  0  0  0  0  0  0  0  0  0
   -7.3490   -6.2644    4.6948 C   0  0  0  0  0  0  0  0  0  0  0  0
  -11.1319   -6.6219    9.2614 C   0  0  0  0  0  0  0  0  0  0  0  0
  -12.4240   -7.0559    9.2468 C   0  0  0  0  0  0  0  0  0  0  0  0
  -13.4191   -6.2645    9.8048 C   0  0  0  0  0  0  0  0  0  0  0  0
  -13.1041   -5.0512   10.3688 C   0  0  0  0  0  0  0  0  0  0  0  0
  -11.8337   -4.6336   10.3785 N   0  0  0  0  0  0  0  0  0  0  0  0
  -10.8441   -5.4059    9.8310 C   0  0  0  0  0  0  0  0  0  0  0  0
  -12.8083   -8.6147    8.5009 S   0  0  0  0  0  0  0  0  0  0  0  0
  -14.2834   -8.4030    7.5073 C   0  0  0  0  0  0  0  0  0  0  0  0
  -15.5123   -8.1361    8.0916 C   0  0  0  0  0  0  0  0  0  0  0  0
  -16.6490   -7.9706    7.3304 C   0  0  0  0  0  0  0  0  0  0  0  0
  -16.6560   -8.0547    5.9631 C   0  0  0  0  0  0  0  0  0  0  0  0
  -15.4016   -8.3259    5.3943 C   0  0  0  0  0  0  0  0  0  0  0  0
  -14.2568   -8.4942    6.1355 C   0  0  0  0  0  0  0  0  0  0  0  0
  -17.7420   -7.8787    5.1075 N   0  0  0  0  0  0  0  0  0  0  0  0
  -18.4691   -8.6865    5.1091 H   0  0  0  0  0  0  0  0  0  0  0  0
  -18.0941   -6.8253    4.2313 C   0  0  0  0  0  0  0  0  0  0  0  0
  -17.9244   -5.4614    4.8392 C   0  0  0  0  0  0  0  0  0  0  0  0
  -17.3270   -4.9899    3.5306 C   0  0  0  0  0  0  0  0  0  0  0  0
  -17.2144   -6.4577    3.0922 C   0  0  0  0  0  0  0  0  0  0  0  0
 19 17  1  0  0  0
 17 10  1  0  0  0
 10 11  1  0  0  0
 11 35  1  0  0  0
 35 36  1  0  0  0
 11 12  1  0  0  0
 12 13  1  0  0  0
 12 14  1  0  0  0
 14  1  1  0  0  0
  1  2  1  0  0  0
  2  3  2  0  0  0
  3 37  1  0  0  0
 37 38  1  0  0  0
 38 43  1  0  0  0
 43 44  1  0  0  0
 44 45  2  0  0  0
 45 46  1  0  0  0
 46 47  2  0  0  0
 47 50  1  0  0  0
 50 52  1  0  0  0
 52 53  1  0  0  0
 53 54  1  0  0  0
 54 55  1  0  0  0
 47 48  1  0  0  0
 48 49  2  0  0  0
 38 39  2  0  0  0
 39 40  1  0  0  0
 40 41  2  0  0  0
 41 42  1  0  0  0
  3  4  1  0  0  0
  4  5  2  0  0  0
  5  6  1  0  0  0
  6  7  2  0  0  0
  7  8  1  0  0  0
  8  9  2  0  0  0
 14 15  1  0  0  0
 19 20  1  0  0  0
 20 21  2  0  0  0
 21 22  1  0  0  0
 22 23  1  0  0  0
 23 24  2  0  0  0
 24 25  1  0  0  0
 25 28  1  0  0  0
 28 29  1  0  0  0
 29 30  1  0  0  0
 30 31  1  0  0  0
 31 32  1  0  0  0
 31 33  1  0  0  0
 33 34  1  0  0  0
 25 26  1  0  0  0
 23 27  1  0  0  0
 27 19  2  0  0  0
 15 10  1  0  0  0
 26 22  2  0  0  0
  9  1  1  0  0  0
 34 28  1  0  0  0
 42 37  2  0  0  0
  9  4  1  0  0  0
 49 44  1  0  0  0
 55 52  1  0  0  0
 17 18  1  0  0  0
 13 16  1  0  0  0
 50 51  1  0  0  0
M  END
> <minimizedAffinity>
-10.00034

> <CNNscore>
0.1164261773

> <CNNaffinity>
7.9060173035

> <CNN_VS>
0.9204673767

> <CNNaffinity_variance>
0.0499214754

$$$$
[H]OC(=O)C([H])([H])C([H])([H])[C@@]([H])(C(=O)N([H])[C@]([H])(C(=O)N([H])[C@]([H])(C(=O)N([H])[C@]([H])(C(=O)O[H])C([H])([H])C(=O)O[H])C([H])([H])C([H])(C([H])([H])[H])C([H])([H])[H])C([H])([H])C([H])([H])C(=O)O[H])N([H])C(=O)[C@@]([H])(N([H])[H])C([H])(C([H])([H])[H])C([H])([H])[H]


 52 51  0  0  0  0  0  0  0  0999 V2000
   -8.3170   -8.3362    8.3046 C   0  0  0  0  0  0  0  0  0  0  0  0
   -5.9840   -7.6311    7.5833 N   0  0  0  0  0  0  0  0  0  0  0  0
   -7.0269   -7.6520    8.5159 C   0  0  0  0  0  0  0  0  0  0  0  0
   -6.8361   -7.0517    9.5896 O   0  0  0  0  0  0  0  0  0  0  0  0
   -6.1972   -8.1779    6.6843 H   0  0  0  0  0  0  0  0  0  0  0  0
   -4.7111   -7.0144    7.6222 C   0  0  0  0  0  0  0  0  0  0  0  0
   -4.7044   -5.8532    8.5127 C   0  0  0  0  0  0  0  0  0  0  0  0
   -5.2847   -4.7952    8.0408 O   0  0  0  0  0  0  0  0  0  0  0  0
   -4.1661   -5.7324    9.7764 N   0  0  0  0  0  0  0  0  0  0  0  0
   -3.6946   -6.5130   10.2577 H   0  0  0  0  0  0  0  0  0  0  0  0
   -4.2537   -4.4475   10.4948 C   0  0  0  0  0  0  0  0  0  0  0  0
   -3.1145   -3.6040    9.9890 C   0  0  0  0  0  0  0  0  0  0  0  0
   -1.9680   -4.2068    9.5613 O   0  0  0  0  0  0  0  0  0  0  0  0
   -3.2196   -2.3549    9.9675 O   0  0  0  0  0  0  0  0  0  0  0  0
   -1.1519   -3.6788    9.3381 H   0  0  0  0  0  0  0  0  0  0  0  0
   -4.1004   -4.6434   11.9616 C   0  0  0  0  0  0  0  0  0  0  0  0
   -5.3414   -5.0454   12.6013 C   0  0  0  0  0  0  0  0  0  0  0  0
   -6.0981   -6.0887   12.0596 O   0  0  0  0  0  0  0  0  0  0  0  0
   -5.7811   -4.5043   13.6221 O   0  0  0  0  0  0  0  0  0  0  0  0
   -5.9891   -7.0212   12.4150 H   0  0  0  0  0  0  0  0  0  0  0  0
   -4.0519   -6.8150    6.2953 C   0  0  0  0  0  0  0  0  0  0  0  0
   -1.6053   -7.2773    5.8160 C   0  0  0  0  0  0  0  0  0  0  0  0
   -2.6735   -6.3305    6.2171 C   0  0  0  0  0  0  0  0  0  0  0  0
   -2.6852   -5.2145    5.1505 C   0  0  0  0  0  0  0  0  0  0  0  0
   -9.3907   -7.3215    8.1871 N   0  0  0  0  0  0  0  0  0  0  0  0
  -10.7068   -7.6985    8.4337 C   0  0  0  0  0  0  0  0  0  0  0  0
  -10.9045   -8.9494    8.7503 O   0  0  0  0  0  0  0  0  0  0  0  0
   -9.0990   -6.3796    7.9506 H   0  0  0  0  0  0  0  0  0  0  0  0
  -11.8804   -6.8341    8.3821 C   0  0  0  0  0  0  0  0  0  0  0  0
  -12.5309   -6.9097    7.0691 N   0  0  0  0  0  0  0  0  0  0  0  0
  -13.8898   -7.2434    6.9259 C   0  0  0  0  0  0  0  0  0  0  0  0
  -14.5328   -7.4861    8.0026 O   0  0  0  0  0  0  0  0  0  0  0  0
  -11.9528   -6.7111    6.2416 H   0  0  0  0  0  0  0  0  0  0  0  0
  -14.6599   -7.3416    5.6839 C   0  0  0  0  0  0  0  0  0  0  0  0
  -15.4373   -8.5430    5.5719 N   0  0  0  0  0  0  0  0  0  0  0  0
  -15.9168   -8.7730    6.4725 H   0  0  0  0  0  0  0  0  0  0  0  0
  -14.8506   -9.3116    5.1906 H   0  0  0  0  0  0  0  0  0  0  0  0
  -15.5961   -6.1423    5.5423 C   0  0  0  0  0  0  0  0  0  0  0  0
  -16.9227   -6.5286    4.9760 C   0  0  0  0  0  0  0  0  0  0  0  0
  -14.9259   -5.1707    4.5957 C   0  0  0  0  0  0  0  0  0  0  0  0
  -12.7777   -6.8146    9.5432 C   0  0  0  0  0  0  0  0  0  0  0  0
  -12.6914   -5.5585   10.3724 C   0  0  0  0  0  0  0  0  0  0  0  0
  -11.5641   -5.6365   11.3443 C   0  0  0  0  0  0  0  0  0  0  0  0
  -10.2677   -5.7608   10.8337 O   0  0  0  0  0  0  0  0  0  0  0  0
  -11.8265   -5.5861   12.5633 O   0  0  0  0  0  0  0  0  0  0  0  0
   -9.8209   -4.9637   10.3771 H   0  0  0  0  0  0  0  0  0  0  0  0
   -8.4009   -9.1139    7.0136 C   0  0  0  0  0  0  0  0  0  0  0  0
   -8.4725  -10.5934    7.1983 C   0  0  0  0  0  0  0  0  0  0  0  0
   -9.7437  -11.1032    6.5713 C   0  0  0  0  0  0  0  0  0  0  0  0
   -9.9121  -12.4745    6.5300 O   0  0  0  0  0  0  0  0  0  0  0  0
  -10.6165  -10.3507    6.1030 O   0  0  0  0  0  0  0  0  0  0  0  0
   -9.6151  -13.0192    7.3422 H   0  0  0  0  0  0  0  0  0  0  0  0
 22 23  1  0  0  0
 23 24  1  0  0  0
 23 21  1  0  0  0
 21  6  1  0  0  0
  6  2  1  0  0  0
  2  3  1  0  0  0
  3  4  2  0  0  0
  3  1  1  0  0  0
  1 47  1  0  0  0
 47 48  1  0  0  0
 48 49  1  0  0  0
 49 50  1  0  0  0
 49 51  2  0  0  0
  1 25  1  0  0  0
 25 26  1  0  0  0
 26 27  2  0  0  0
 26 29  1  0  0  0
 29 41  1  0  0  0
 41 42  1  0  0  0
 42 43  1  0  0  0
 43 44  1  0  0  0
 43 45  2  0  0  0
 29 30  1  0  0  0
 30 31  1  0  0  0
 31 32  2  0  0  0
 31 34  1  0  0  0
 34 35  1  0  0  0
 34 38  1  0  0  0
 38 39  1  0  0  0
 38 40  1  0  0  0
  6  7  1  0  0  0
  7  8  2  0  0  0
  7  9  1  0  0  0
  9 11  1  0  0  0
 11 16  1  0  0  0
 16 17  1  0  0  0
 17 18  1  0  0  0
 17 19  2  0  0  0
 11 12  1  0  0  0
 12 13  1  0  0  0
 12 14  2  0  0  0
  2  5  1  0  0  0
 50 52  1  0  0  0
 25 28  1  0  0  0
 44 46  1  0  0  0
 30 33  1  0  0  0
 35 36  1  0  0  0
 35 37  1  0  0  0
  9 10  1  0  0  0
 18 20  1  0  0  0
 13 15  1  0  0  0
M  END
> <minimizedAffinity>
-3.75221

> <CNNscore>
0.3207232356

> <CNNaffinity>
6.2150344849

> <CNN_VS>
1.9933059216

> <CNNaffinity_variance>
0.8965164423

$$$$
[H]OC(=O)C([H])([H])C([H])([H])[C@@]([H])(C(=O)N([H])[C@]([H])(C(=O)N([H])[C@]([H])(C(=O)N([H])[C@]([H])(C(=O)O[H])C([H])([H])C(=O)O[H])C([H])([H])C([H])(C([H])([H])[H])C([H])([H])[H])C([H])([H])C([H])([H])C(=O)O[H])N([H])C(=O)[C@@]([H])(N([H])[H])C([H])(C([H])([H])[H])C([H])([H])[H]


 52 51  0  0  0  0  0  0  0  0999 V2000
   -6.9108   -6.8527    7.2732 C   0  0  0  0  0  0  0  0  0  0  0  0
   -9.1972   -7.2320    8.3167 N   0  0  0  0  0  0  0  0  0  0  0  0
   -8.2896   -6.4428    7.6017 C   0  0  0  0  0  0  0  0  0  0  0  0
   -8.6888   -5.3262    7.2231 O   0  0  0  0  0  0  0  0  0  0  0  0
   -8.8051   -8.1897    8.6029 H   0  0  0  0  0  0  0  0  0  0  0  0
  -10.5287   -6.9828    8.7257 C   0  0  0  0  0  0  0  0  0  0  0  0
  -11.4760   -7.2038    7.6325 C   0  0  0  0  0  0  0  0  0  0  0  0
  -11.0552   -6.8478    6.4599 O   0  0  0  0  0  0  0  0  0  0  0  0
  -12.7480   -7.7338    7.6810 N   0  0  0  0  0  0  0  0  0  0  0  0
  -13.1802   -8.0649    8.5567 H   0  0  0  0  0  0  0  0  0  0  0  0
  -13.5470   -7.8460    6.4466 C   0  0  0  0  0  0  0  0  0  0  0  0
  -14.6863   -6.8735    6.5928 C   0  0  0  0  0  0  0  0  0  0  0  0
  -15.0681   -6.1174    5.5235 O   0  0  0  0  0  0  0  0  0  0  0  0
  -15.2751   -6.7573    7.6935 O   0  0  0  0  0  0  0  0  0  0  0  0
  -15.7317   -5.3787    5.6162 H   0  0  0  0  0  0  0  0  0  0  0  0
  -14.0967   -9.2193    6.2883 C   0  0  0  0  0  0  0  0  0  0  0  0
  -14.2446   -9.9086    7.5588 C   0  0  0  0  0  0  0  0  0  0  0  0
  -15.3144   -9.5933    8.4017 O   0  0  0  0  0  0  0  0  0  0  0  0
  -13.4591  -10.7790    7.9503 O   0  0  0  0  0  0  0  0  0  0  0  0
  -16.1526  -10.1450    8.3722 H   0  0  0  0  0  0  0  0  0  0  0  0
  -10.7353   -5.7312    9.5168 C   0  0  0  0  0  0  0  0  0  0  0  0
  -13.0810   -4.9385   10.0626 C   0  0  0  0  0  0  0  0  0  0  0  0
  -11.8371   -5.6322   10.4743 C   0  0  0  0  0  0  0  0  0  0  0  0
  -12.2397   -7.0875   10.7963 C   0  0  0  0  0  0  0  0  0  0  0  0
   -5.9834   -5.7459    7.6063 N   0  0  0  0  0  0  0  0  0  0  0  0
   -4.9342   -5.4592    6.7391 C   0  0  0  0  0  0  0  0  0  0  0  0
   -4.8371   -6.2087    5.6747 O   0  0  0  0  0  0  0  0  0  0  0  0
   -6.1816   -5.2300    8.4564 H   0  0  0  0  0  0  0  0  0  0  0  0
   -3.9423   -4.4017    6.8981 C   0  0  0  0  0  0  0  0  0  0  0  0
   -3.5760   -4.2332    8.3088 N   0  0  0  0  0  0  0  0  0  0  0  0
   -2.8183   -3.1369    8.7588 C   0  0  0  0  0  0  0  0  0  0  0  0
   -2.4561   -2.2927    7.8713 O   0  0  0  0  0  0  0  0  0  0  0  0
   -3.8925   -4.9549    8.9702 H   0  0  0  0  0  0  0  0  0  0  0  0
   -2.3973   -2.8443   10.1308 C   0  0  0  0  0  0  0  0  0  0  0  0
   -1.0831   -3.3230   10.4533 N   0  0  0  0  0  0  0  0  0  0  0  0
   -0.4076   -3.1370    9.6767 H   0  0  0  0  0  0  0  0  0  0  0  0
   -1.1303   -4.3178   10.7508 H   0  0  0  0  0  0  0  0  0  0  0  0
   -2.4439   -1.3396   10.3921 C   0  0  0  0  0  0  0  0  0  0  0  0
   -2.1421   -1.0068   11.8163 C   0  0  0  0  0  0  0  0  0  0  0  0
   -3.8495   -0.8808   10.0713 C   0  0  0  0  0  0  0  0  0  0  0  0
   -2.8363   -4.3393    5.9355 C   0  0  0  0  0  0  0  0  0  0  0  0
   -1.8285   -5.4516    6.0762 C   0  0  0  0  0  0  0  0  0  0  0  0
   -1.6041   -6.1373    4.7720 C   0  0  0  0  0  0  0  0  0  0  0  0
   -1.9456   -5.4483    3.6035 O   0  0  0  0  0  0  0  0  0  0  0  0
   -1.1227   -7.2887    4.7816 O   0  0  0  0  0  0  0  0  0  0  0  0
   -1.3742   -4.6616    3.2900 H   0  0  0  0  0  0  0  0  0  0  0  0
   -6.4016   -8.0185    8.0857 C   0  0  0  0  0  0  0  0  0  0  0  0
   -6.3752   -9.3127    7.3423 C   0  0  0  0  0  0  0  0  0  0  0  0
   -7.6289  -10.0846    7.6605 C   0  0  0  0  0  0  0  0  0  0  0  0
   -7.5006  -11.1510    8.5305 O   0  0  0  0  0  0  0  0  0  0  0  0
   -8.7394   -9.8010    7.1770 O   0  0  0  0  0  0  0  0  0  0  0  0
   -6.8775  -11.0429    9.3334 H   0  0  0  0  0  0  0  0  0  0  0  0
 22 23  1  0  0  0
 23 24  1  0  0  0
 23 21  1  0  0  0
 21  6  1  0  0  0
  6  2  1  0  0  0
  2  3  1  0  0  0
  3  4  2  0  0  0
  3  1  1  0  0  0
  1 47  1  0  0  0
 47 48  1  0  0  0
 48 49  1  0  0  0
 49 50  1  0  0  0
 49 51  2  0  0  0
  1 25  1  0  0  0
 25 26  1  0  0  0
 26 27  2  0  0  0
 26 29  1  0  0  0
 29 41  1  0  0  0
 41 42  1  0  0  0
 42 43  1  0  0  0
 43 44  1  0  0  0
 43 45  2  0  0  0
 29 30  1  0  0  0
 30 31  1  0  0  0
 31 32  2  0  0  0
 31 34  1  0  0  0
 34 35  1  0  0  0
 34 38  1  0  0  0
 38 39  1  0  0  0
 38 40  1  0  0  0
  6  7  1  0  0  0
  7  8  2  0  0  0
  7  9  1  0  0  0
  9 11  1  0  0  0
 11 16  1  0  0  0
 16 17  1  0  0  0
 17 18  1  0  0  0
 17 19  2  0  0  0
 11 12  1  0  0  0
 12 13  1  0  0  0
 12 14  2  0  0  0
  2  5  1  0  0  0
 50 52  1  0  0  0
 25 28  1  0  0  0
 44 46  1  0  0  0
 30 33  1  0  0  0
 35 36  1  0  0  0
 35 37  1  0  0  0
  9 10  1  0  0  0
 18 20  1  0  0  0
 13 15  1  0  0  0
M  END
> <minimizedAffinity>
-3.50422

> <CNNscore>
0.2780887783

> <CNNaffinity>
5.9071488380

> <CNN_VS>
1.6427117586

> <CNNaffinity_variance>
0.6219789982

$$$$
[H]OC(=O)C([H])([H])C([H])([H])[C@@]([H])(C(=O)N([H])[C@]([H])(C(=O)N([H])[C@]([H])(C(=O)N([H])[C@]([H])(C(=O)O[H])C([H])([H])C(=O)O[H])C([H])([H])C([H])(C([H])([H])[H])C([H])([H])[H])C([H])([H])C([H])([H])C(=O)O[H])N([H])C(=O)[C@@]([H])(N([H])[H])C([H])(C([H])([H])[H])C([H])([H])[H]


 52 51  0  0  0  0  0  0  0  0999 V2000
   -8.7735   -6.6820    7.0395 C   0  0  0  0  0  0  0  0  0  0  0  0
  -11.2421   -6.7443    7.6419 N   0  0  0  0  0  0  0  0  0  0  0  0
   -9.9068   -7.0735    7.8995 C   0  0  0  0  0  0  0  0  0  0  0  0
   -9.6774   -7.7381    8.9268 O   0  0  0  0  0  0  0  0  0  0  0  0
  -11.3787   -6.1573    6.7533 H   0  0  0  0  0  0  0  0  0  0  0  0
  -12.4306   -7.0539    8.3445 C   0  0  0  0  0  0  0  0  0  0  0  0
  -13.2933   -7.9482    7.5715 C   0  0  0  0  0  0  0  0  0  0  0  0
  -13.1781   -9.2066    7.8579 O   0  0  0  0  0  0  0  0  0  0  0  0
  -14.2045   -7.6356    6.5849 N   0  0  0  0  0  0  0  0  0  0  0  0
  -14.3905   -6.6665    6.2856 H   0  0  0  0  0  0  0  0  0  0  0  0
  -14.9599   -8.7091    5.9127 C   0  0  0  0  0  0  0  0  0  0  0  0
  -14.1957   -9.0402    4.6592 C   0  0  0  0  0  0  0  0  0  0  0  0
  -14.7113   -8.6940    3.4446 O   0  0  0  0  0  0  0  0  0  0  0  0
  -13.0950   -9.6356    4.7338 O   0  0  0  0  0  0  0  0  0  0  0  0
  -14.2963   -9.0053    2.5928 H   0  0  0  0  0  0  0  0  0  0  0  0
  -16.3261   -8.2507    5.5431 C   0  0  0  0  0  0  0  0  0  0  0  0
  -16.4589   -6.8046    5.5899 C   0  0  0  0  0  0  0  0  0  0  0  0
  -15.7982   -6.0137    4.6452 O   0  0  0  0  0  0  0  0  0  0  0  0
  -17.1376   -6.2158    6.4388 O   0  0  0  0  0  0  0  0  0  0  0  0
  -16.2844   -5.7088    3.8215 H   0  0  0  0  0  0  0  0  0  0  0  0
  -13.1167   -5.8937    8.9912 C   0  0  0  0  0  0  0  0  0  0  0  0
  -11.7524   -6.1540   11.1125 C   0  0  0  0  0  0  0  0  0  0  0  0
  -12.9647   -5.6475   10.4255 C   0  0  0  0  0  0  0  0  0  0  0  0
  -12.9417   -4.1119   10.5833 C   0  0  0  0  0  0  0  0  0  0  0  0
   -7.7805   -5.9416    7.8530 N   0  0  0  0  0  0  0  0  0  0  0  0
   -6.7122   -6.6357    8.4117 C   0  0  0  0  0  0  0  0  0  0  0  0
   -6.6665   -7.9194    8.1792 O   0  0  0  0  0  0  0  0  0  0  0  0
   -7.9234   -4.9417    7.9415 H   0  0  0  0  0  0  0  0  0  0  0  0
   -5.6386   -6.0698    9.2205 C   0  0  0  0  0  0  0  0  0  0  0  0
   -5.7800   -6.4596   10.6280 N   0  0  0  0  0  0  0  0  0  0  0  0
   -5.2971   -5.6580   11.6781 C   0  0  0  0  0  0  0  0  0  0  0  0
   -4.7189   -4.5693   11.3435 O   0  0  0  0  0  0  0  0  0  0  0  0
   -6.2481   -7.3538   10.8274 H   0  0  0  0  0  0  0  0  0  0  0  0
   -5.3830   -5.9220   13.1162 C   0  0  0  0  0  0  0  0  0  0  0  0
   -4.1132   -6.1513   13.7449 N   0  0  0  0  0  0  0  0  0  0  0  0
   -3.3918   -5.4735   13.4072 H   0  0  0  0  0  0  0  0  0  0  0  0
   -3.8425   -7.1499   13.6455 H   0  0  0  0  0  0  0  0  0  0  0  0
   -6.0759   -4.7620   13.8296 C   0  0  0  0  0  0  0  0  0  0  0  0
   -5.4780   -4.4891   15.1705 C   0  0  0  0  0  0  0  0  0  0  0  0
   -7.5239   -5.1605   14.0131 C   0  0  0  0  0  0  0  0  0  0  0  0
   -4.2746   -6.0999    8.6798 C   0  0  0  0  0  0  0  0  0  0  0  0
   -3.9800   -5.0108    7.6798 C   0  0  0  0  0  0  0  0  0  0  0  0
   -4.0891   -5.5231    6.2844 C   0  0  0  0  0  0  0  0  0  0  0  0
   -4.8398   -4.7764    5.3703 O   0  0  0  0  0  0  0  0  0  0  0  0
   -3.5074   -6.5889    5.9960 O   0  0  0  0  0  0  0  0  0  0  0  0
   -4.4775   -3.8887    5.0177 H   0  0  0  0  0  0  0  0  0  0  0  0
   -7.9947   -7.8451    6.4745 C   0  0  0  0  0  0  0  0  0  0  0  0
   -7.2030   -7.5114    5.2538 C   0  0  0  0  0  0  0  0  0  0  0  0
   -6.2763   -8.6577    4.9440 C   0  0  0  0  0  0  0  0  0  0  0  0
   -5.2200   -8.8578    5.8129 O   0  0  0  0  0  0  0  0  0  0  0  0
   -6.4276   -9.4036    3.9600 O   0  0  0  0  0  0  0  0  0  0  0  0
   -5.3915   -8.7352    6.8129 H   0  0  0  0  0  0  0  0  0  0  0  0
 22 23  1  0  0  0
 23 24  1  0  0  0
 23 21  1  0  0  0
 21  6  1  0  0  0
  6  2  1  0  0  0
  2  3  1  0  0  0
  3  4  2  0  0  0
  3  1  1  0  0  0
  1 47  1  0  0  0
 47 48  1  0  0  0
 48 49  1  0  0  0
 49 50  1  0  0  0
 49 51  2  0  0  0
  1 25  1  0  0  0
 25 26  1  0  0  0
 26 27  2  0  0  0
 26 29  1  0  0  0
 29 41  1  0  0  0
 41 42  1  0  0  0
 42 43  1  0  0  0
 43 44  1  0  0  0
 43 45  2  0  0  0
 29 30  1  0  0  0
 30 31  1  0  0  0
 31 32  2  0  0  0
 31 34  1  0  0  0
 34 35  1  0  0  0
 34 38  1  0  0  0
 38 39  1  0  0  0
 38 40  1  0  0  0
  6  7  1  0  0  0
  7  8  2  0  0  0
  7  9  1  0  0  0
  9 11  1  0  0  0
 11 16  1  0  0  0
 16 17  1  0  0  0
 17 18  1  0  0  0
 17 19  2  0  0  0
 11 12  1  0  0  0
 12 13  1  0  0  0
 12 14  2  0  0  0
  2  5  1  0  0  0
 50 52  1  0  0  0
 25 28  1  0  0  0
 44 46  1  0  0  0
 30 33  1  0  0  0
 35 36  1  0  0  0
 35 37  1  0  0  0
  9 10  1  0  0  0
 18 20  1  0  0  0
 13 15  1  0  0  0
M  END
> <minimizedAffinity>
-2.89812

> <CNNscore>
0.2477530241

> <CNNaffinity>
6.3991279602

> <CNN_VS>
1.5854033232

> <CNNaffinity_variance>
0.8994250298

$$$$
[H]OC(=O)C([H])([H])C([H])([H])[C@@]([H])(C(=O)N([H])[C@]([H])(C(=O)N([H])[C@]([H])(C(=O)N([H])[C@]([H])(C(=O)O[H])C([H])([H])C(=O)O[H])C([H])([H])C([H])(C([H])([H])[H])C([H])([H])[H])C([H])([H])C([H])([H])C(=O)O[H])N([H])C(=O)[C@@]([H])(N([H])[H])C([H])(C([H])([H])[H])C([H])([H])[H]


 52 51  0  0  0  0  0  0  0  0999 V2000
   -9.6780   -6.7060    8.2095 C   0  0  0  0  0  0  0  0  0  0  0  0
   -7.3335   -6.2095    7.3626 N   0  0  0  0  0  0  0  0  0  0  0  0
   -8.2449   -7.0187    8.0498 C   0  0  0  0  0  0  0  0  0  0  0  0
   -7.8017   -8.0687    8.5504 O   0  0  0  0  0  0  0  0  0  0  0  0
   -7.7737   -5.3270    6.9382 H   0  0  0  0  0  0  0  0  0  0  0  0
   -5.9439   -6.3535    7.1382 C   0  0  0  0  0  0  0  0  0  0  0  0
   -5.1690   -6.0064    8.3301 C   0  0  0  0  0  0  0  0  0  0  0  0
   -4.7246   -7.0157    9.0101 O   0  0  0  0  0  0  0  0  0  0  0  0
   -4.8517   -4.7593    8.8254 N   0  0  0  0  0  0  0  0  0  0  0  0
   -5.1388   -3.8854    8.3591 H   0  0  0  0  0  0  0  0  0  0  0  0
   -4.0701   -4.6379   10.0701 C   0  0  0  0  0  0  0  0  0  0  0  0
   -2.6669   -5.0616    9.7290 C   0  0  0  0  0  0  0  0  0  0  0  0
   -2.0832   -4.6010    8.5853 O   0  0  0  0  0  0  0  0  0  0  0  0
   -2.0429   -5.8377   10.4905 O   0  0  0  0  0  0  0  0  0  0  0  0
   -1.2078   -4.9562    8.2657 H   0  0  0  0  0  0  0  0  0  0  0  0
   -4.6063   -5.5361   11.1279 C   0  0  0  0  0  0  0  0  0  0  0  0
   -4.6461   -4.8970   12.4321 C   0  0  0  0  0  0  0  0  0  0  0  0
   -3.4669   -4.4139   13.0071 O   0  0  0  0  0  0  0  0  0  0  0  0
   -5.6876   -4.7529   13.0821 O   0  0  0  0  0  0  0  0  0  0  0  0
   -3.2184   -3.4472   12.8990 H   0  0  0  0  0  0  0  0  0  0  0  0
   -5.4378   -5.7866    5.8507 C   0  0  0  0  0  0  0  0  0  0  0  0
   -2.9756   -6.0124    5.2891 C   0  0  0  0  0  0  0  0  0  0  0  0
   -4.1056   -5.1861    5.7774 C   0  0  0  0  0  0  0  0  0  0  0  0
   -4.2358   -4.0053    4.7914 C   0  0  0  0  0  0  0  0  0  0  0  0
  -10.4711   -7.9379    7.9871 N   0  0  0  0  0  0  0  0  0  0  0  0
  -11.7342   -7.8342    7.4136 C   0  0  0  0  0  0  0  0  0  0  0  0
  -12.1404   -6.6304    7.1137 O   0  0  0  0  0  0  0  0  0  0  0  0
  -10.0309   -8.8128    8.2495 H   0  0  0  0  0  0  0  0  0  0  0  0
  -12.6405   -8.9352    7.1079 C   0  0  0  0  0  0  0  0  0  0  0  0
  -13.5349   -8.5865    5.9983 N   0  0  0  0  0  0  0  0  0  0  0  0
  -14.9175   -8.4036    6.1813 C   0  0  0  0  0  0  0  0  0  0  0  0
  -15.3606   -8.5640    7.3685 O   0  0  0  0  0  0  0  0  0  0  0  0
  -13.1140   -8.4811    5.0654 H   0  0  0  0  0  0  0  0  0  0  0  0
  -15.9133   -8.0449    5.1689 C   0  0  0  0  0  0  0  0  0  0  0  0
  -17.2464   -8.4744    5.4828 N   0  0  0  0  0  0  0  0  0  0  0  0
  -17.4766   -8.3014    6.4883 H   0  0  0  0  0  0  0  0  0  0  0  0
  -17.3850   -9.4573    5.1746 H   0  0  0  0  0  0  0  0  0  0  0  0
  -15.9289   -6.5326    4.9505 C   0  0  0  0  0  0  0  0  0  0  0  0
  -14.9202   -5.8316    5.7997 C   0  0  0  0  0  0  0  0  0  0  0  0
  -17.3101   -6.0473    5.3327 C   0  0  0  0  0  0  0  0  0  0  0  0
  -12.0940  -10.2971    7.0886 C   0  0  0  0  0  0  0  0  0  0  0  0
  -10.9919  -10.5086    6.0819 C   0  0  0  0  0  0  0  0  0  0  0  0
   -9.7920  -11.1169    6.7235 C   0  0  0  0  0  0  0  0  0  0  0  0
   -9.1025  -10.3569    7.6741 O   0  0  0  0  0  0  0  0  0  0  0  0
   -9.4595  -12.2715    6.3862 O   0  0  0  0  0  0  0  0  0  0  0  0
   -9.5150  -10.1958    8.5947 H   0  0  0  0  0  0  0  0  0  0  0  0
  -10.0637   -6.2645    9.6005 C   0  0  0  0  0  0  0  0  0  0  0  0
  -11.2044   -5.3024    9.6389 C   0  0  0  0  0  0  0  0  0  0  0  0
  -12.2394   -5.8102   10.6085 C   0  0  0  0  0  0  0  0  0  0  0  0
  -11.9512   -5.6778   11.9539 O   0  0  0  0  0  0  0  0  0  0  0  0
  -13.3095   -6.3302   10.2456 O   0  0  0  0  0  0  0  0  0  0  0  0
  -11.4934   -4.8183   12.2643 H   0  0  0  0  0  0  0  0  0  0  0  0
 22 23  1  0  0  0
 23 24  1  0  0  0
 23 21  1  0  0  0
 21  6  1  0  0  0
  6  2  1  0  0  0
  2  3  1  0  0  0
  3  4  2  0  0  0
  3  1  1  0  0  0
  1 47  1  0  0  0
 47 48  1  0  0  0
 48 49  1  0  0  0
 49 50  1  0  0  0
 49 51  2  0  0  0
  1 25  1  0  0  0
 25 26  1  0  0  0
 26 27  2  0  0  0
 26 29  1  0  0  0
 29 41  1  0  0  0
 41 42  1  0  0  0
 42 43  1  0  0  0
 43 44  1  0  0  0
 43 45  2  0  0  0
 29 30  1  0  0  0
 30 31  1  0  0  0
 31 32  2  0  0  0
 31 34  1  0  0  0
 34 35  1  0  0  0
 34 38  1  0  0  0
 38 39  1  0  0  0
 38 40  1  0  0  0
  6  7  1  0  0  0
  7  8  2  0  0  0
  7  9  1  0  0  0
  9 11  1  0  0  0
 11 16  1  0  0  0
 16 17  1  0  0  0
 17 18  1  0  0  0
 17 19  2  0  0  0
 11 12  1  0  0  0
 12 13  1  0  0  0
 12 14  2  0  0  0
  2  5  1  0  0  0
 50 52  1  0  0  0
 25 28  1  0  0  0
 44 46  1  0  0  0
 30 33  1  0  0  0
 35 36  1  0  0  0
 35 37  1  0  0  0
  9 10  1  0  0  0
 18 20  1  0  0  0
 13 15  1  0  0  0
M  END
> <minimizedAffinity>
-3.84025

> <CNNscore>
0.2378470153

> <CNNaffinity>
6.2586078644

> <CNN_VS>
1.4885911942

> <CNNaffinity_variance>
0.7718611956

$$$$
[H]OC(=O)C([H])([H])C([H])([H])[C@@]([H])(C(=O)N([H])[C@]([H])(C(=O)N([H])[C@]([H])(C(=O)N([H])[C@]([H])(C(=O)O[H])C([H])([H])C(=O)O[H])C([H])([H])C([H])(C([H])([H])[H])C([H])([H])[H])C([H])([H])C([H])([H])C(=O)O[H])N([H])C(=O)[C@@]([H])(N([H])[H])C([H])(C([H])([H])[H])C([H])([H])[H]


 52 51  0  0  0  0  0  0  0  0999 V2000
   -8.5699   -8.0563    8.2751 C   0  0  0  0  0  0  0  0  0  0  0  0
   -6.5859   -6.6104    7.6168 N   0  0  0  0  0  0  0  0  0  0  0  0
   -7.3875   -7.2290    8.5824 C   0  0  0  0  0  0  0  0  0  0  0  0
   -7.0663   -7.0624    9.7735 O   0  0  0  0  0  0  0  0  0  0  0  0
   -6.8994   -6.8017    6.6079 H   0  0  0  0  0  0  0  0  0  0  0  0
   -5.4466   -5.7809    7.7433 C   0  0  0  0  0  0  0  0  0  0  0  0
   -4.9324   -5.3723    6.4356 C   0  0  0  0  0  0  0  0  0  0  0  0
   -5.0937   -6.2392    5.4862 O   0  0  0  0  0  0  0  0  0  0  0  0
   -4.3021   -4.1988    6.0796 N   0  0  0  0  0  0  0  0  0  0  0  0
   -4.1338   -3.4321    6.7483 H   0  0  0  0  0  0  0  0  0  0  0  0
   -3.8392   -4.0023    4.6932 C   0  0  0  0  0  0  0  0  0  0  0  0
   -2.4410   -4.5557    4.6338 C   0  0  0  0  0  0  0  0  0  0  0  0
   -2.2056   -5.7213    3.9653 O   0  0  0  0  0  0  0  0  0  0  0  0
   -1.5014   -3.9499    5.2011 O   0  0  0  0  0  0  0  0  0  0  0  0
   -1.3211   -6.1799    4.0099 H   0  0  0  0  0  0  0  0  0  0  0  0
   -3.8062   -2.5574    4.3403 C   0  0  0  0  0  0  0  0  0  0  0  0
   -3.3252   -2.3262    2.9889 C   0  0  0  0  0  0  0  0  0  0  0  0
   -3.9867   -2.9107    1.9048 O   0  0  0  0  0  0  0  0  0  0  0  0
   -2.3387   -1.6266    2.7337 O   0  0  0  0  0  0  0  0  0  0  0  0
   -4.6803   -2.3873    1.4020 H   0  0  0  0  0  0  0  0  0  0  0  0
   -4.4192   -6.2442    8.7256 C   0  0  0  0  0  0  0  0  0  0  0  0
   -4.1599   -4.9756   10.9056 C   0  0  0  0  0  0  0  0  0  0  0  0
   -3.6785   -5.2771    9.5361 C   0  0  0  0  0  0  0  0  0  0  0  0
   -2.2612   -5.8681    9.6961 C   0  0  0  0  0  0  0  0  0  0  0  0
   -9.7162   -7.1689    7.9674 N   0  0  0  0  0  0  0  0  0  0  0  0
  -10.9809   -7.5122    8.4342 C   0  0  0  0  0  0  0  0  0  0  0  0
  -11.0680   -8.6206    9.1181 O   0  0  0  0  0  0  0  0  0  0  0  0
   -9.5084   -6.3277    7.4409 H   0  0  0  0  0  0  0  0  0  0  0  0
  -12.2113   -6.7530    8.2423 C   0  0  0  0  0  0  0  0  0  0  0  0
  -12.9229   -7.2013    7.0400 N   0  0  0  0  0  0  0  0  0  0  0  0
  -14.0639   -8.0209    7.1084 C   0  0  0  0  0  0  0  0  0  0  0  0
  -14.4491   -8.3641    8.2769 O   0  0  0  0  0  0  0  0  0  0  0  0
  -12.5542   -6.8958    6.1294 H   0  0  0  0  0  0  0  0  0  0  0  0
  -14.8695   -8.5261    5.9943 C   0  0  0  0  0  0  0  0  0  0  0  0
  -16.2848   -8.4807    6.2290 N   0  0  0  0  0  0  0  0  0  0  0  0
  -16.5688   -7.5798    6.6780 H   0  0  0  0  0  0  0  0  0  0  0  0
  -16.5869   -9.3306    6.7455 H   0  0  0  0  0  0  0  0  0  0  0  0
  -14.5633   -7.7431    4.7184 C   0  0  0  0  0  0  0  0  0  0  0  0
  -15.3422   -6.4715    4.6387 C   0  0  0  0  0  0  0  0  0  0  0  0
  -14.9538   -8.6281    3.5549 C   0  0  0  0  0  0  0  0  0  0  0  0
  -13.0461   -6.4785    9.4177 C   0  0  0  0  0  0  0  0  0  0  0  0
  -12.6238   -5.2664   10.2084 C   0  0  0  0  0  0  0  0  0  0  0  0
  -11.5555   -5.6134   11.1881 C   0  0  0  0  0  0  0  0  0  0  0  0
  -10.2736   -5.8746   10.6928 O   0  0  0  0  0  0  0  0  0  0  0  0
  -11.8513   -5.6534   12.3998 O   0  0  0  0  0  0  0  0  0  0  0  0
   -9.6994   -5.1091   10.3353 H   0  0  0  0  0  0  0  0  0  0  0  0
   -8.4227   -8.9113    7.0397 C   0  0  0  0  0  0  0  0  0  0  0  0
   -8.8549  -10.3279    7.2254 C   0  0  0  0  0  0  0  0  0  0  0  0
  -10.1110  -10.5640    6.4282 C   0  0  0  0  0  0  0  0  0  0  0  0
  -11.3084  -10.4900    7.1149 O   0  0  0  0  0  0  0  0  0  0  0  0
  -10.1022  -10.8177    5.2105 O   0  0  0  0  0  0  0  0  0  0  0  0
  -11.4105   -9.7613    7.8242 H   0  0  0  0  0  0  0  0  0  0  0  0
 22 23  1  0  0  0
 23 24  1  0  0  0
 23 21  1  0  0  0
 21  6  1  0  0  0
  6  2  1  0  0  0
  2  3  1  0  0  0
  3  4  2  0  0  0
  3  1  1  0  0  0
  1 47  1  0  0  0
 47 48  1  0  0  0
 48 49  1  0  0  0
 49 50  1  0  0  0
 49 51  2  0  0  0
  1 25  1  0  0  0
 25 26  1  0  0  0
 26 27  2  0  0  0
 26 29  1  0  0  0
 29 41  1  0  0  0
 41 42  1  0  0  0
 42 43  1  0  0  0
 43 44  1  0  0  0
 43 45  2  0  0  0
 29 30  1  0  0  0
 30 31  1  0  0  0
 31 32  2  0  0  0
 31 34  1  0  0  0
 34 35  1  0  0  0
 34 38  1  0  0  0
 38 39  1  0  0  0
 38 40  1  0  0  0
  6  7  1  0  0  0
  7  8  2  0  0  0
  7  9  1  0  0  0
  9 11  1  0  0  0
 11 16  1  0  0  0
 16 17  1  0  0  0
 17 18  1  0  0  0
 17 19  2  0  0  0
 11 12  1  0  0  0
 12 13  1  0  0  0
 12 14  2  0  0  0
  2  5  1  0  0  0
 50 52  1  0  0  0
 25 28  1  0  0  0
 44 46  1  0  0  0
 30 33  1  0  0  0
 35 36  1  0  0  0
 35 37  1  0  0  0
  9 10  1  0  0  0
 18 20  1  0  0  0
 13 15  1  0  0  0
M  END
> <minimizedAffinity>
-4.55860

> <CNNscore>
0.2281406075

> <CNNaffinity>
6.2092356682

> <CNN_VS>
1.4165787697

> <CNNaffinity_variance>
0.4260560572

$$$$
[H]OC(=O)C([H])([H])C([H])([H])[C@@]([H])(C(=O)N([H])[C@]([H])(C(=O)N([H])[C@]([H])(C(=O)N([H])[C@]([H])(C(=O)O[H])C([H])([H])C(=O)O[H])C([H])([H])C([H])(C([H])([H])[H])C([H])([H])[H])C([H])([H])C([H])([H])C(=O)O[H])N([H])C(=O)[C@@]([H])(N([H])[H])C([H])(C([H])([H])[H])C([H])([H])[H]


 52 51  0  0  0  0  0  0  0  0999 V2000
   -7.9894   -8.1486    8.1988 C   0  0  0  0  0  0  0  0  0  0  0  0
   -5.8927   -6.9527    7.4025 N   0  0  0  0  0  0  0  0  0  0  0  0
   -6.8345   -7.2512    8.3933 C   0  0  0  0  0  0  0  0  0  0  0  0
   -6.6706   -6.7188    9.5065 O   0  0  0  0  0  0  0  0  0  0  0  0
   -6.0742   -7.4520    6.4694 H   0  0  0  0  0  0  0  0  0  0  0  0
   -4.7562   -6.1101    7.4203 C   0  0  0  0  0  0  0  0  0  0  0  0
   -4.6671   -5.3034    6.2026 C   0  0  0  0  0  0  0  0  0  0  0  0
   -5.2893   -5.7888    5.1749 O   0  0  0  0  0  0  0  0  0  0  0  0
   -4.0135   -4.1062    6.0013 N   0  0  0  0  0  0  0  0  0  0  0  0
   -3.4988   -3.6198    6.7509 H   0  0  0  0  0  0  0  0  0  0  0  0
   -4.0343   -3.4699    4.6710 C   0  0  0  0  0  0  0  0  0  0  0  0
   -2.7393   -3.8474    4.0036 C   0  0  0  0  0  0  0  0  0  0  0  0
   -2.4914   -5.1553    3.7052 O   0  0  0  0  0  0  0  0  0  0  0  0
   -1.8932   -2.9637    3.7299 O   0  0  0  0  0  0  0  0  0  0  0  0
   -1.5984   -5.4565    3.3788 H   0  0  0  0  0  0  0  0  0  0  0  0
   -4.1080   -1.9886    4.7878 C   0  0  0  0  0  0  0  0  0  0  0  0
   -3.6560   -1.5101    6.0831 C   0  0  0  0  0  0  0  0  0  0  0  0
   -2.3080   -1.6238    6.4359 O   0  0  0  0  0  0  0  0  0  0  0  0
   -4.4125   -0.9965    6.9149 O   0  0  0  0  0  0  0  0  0  0  0  0
   -1.6874   -0.8477    6.2931 H   0  0  0  0  0  0  0  0  0  0  0  0
   -3.4826   -6.7567    7.8617 C   0  0  0  0  0  0  0  0  0  0  0  0
   -2.3080   -7.8432    5.8947 C   0  0  0  0  0  0  0  0  0  0  0  0
   -2.9983   -7.9690    7.2008 C   0  0  0  0  0  0  0  0  0  0  0  0
   -1.9735   -8.5913    8.1735 C   0  0  0  0  0  0  0  0  0  0  0  0
   -9.1642   -7.3447    7.7866 N   0  0  0  0  0  0  0  0  0  0  0  0
  -10.4261   -7.7075    8.2460 C   0  0  0  0  0  0  0  0  0  0  0  0
  -10.4848   -8.7584    9.0181 O   0  0  0  0  0  0  0  0  0  0  0  0
   -8.9781   -6.5410    7.1971 H   0  0  0  0  0  0  0  0  0  0  0  0
  -11.6828   -7.0257    7.9576 C   0  0  0  0  0  0  0  0  0  0  0  0
  -12.6442   -7.9395    7.3305 N   0  0  0  0  0  0  0  0  0  0  0  0
  -13.7453   -7.4735    6.5898 C   0  0  0  0  0  0  0  0  0  0  0  0
  -13.8721   -6.2060    6.4950 O   0  0  0  0  0  0  0  0  0  0  0  0
  -12.4882   -8.9490    7.4535 H   0  0  0  0  0  0  0  0  0  0  0  0
  -14.7658   -8.2721    5.9072 C   0  0  0  0  0  0  0  0  0  0  0  0
  -15.9555   -8.4852    6.6814 N   0  0  0  0  0  0  0  0  0  0  0  0
  -16.2550   -7.6103    7.1700 H   0  0  0  0  0  0  0  0  0  0  0  0
  -15.8294   -9.3043    7.3086 H   0  0  0  0  0  0  0  0  0  0  0  0
  -15.1582   -7.6157    4.5843 C   0  0  0  0  0  0  0  0  0  0  0  0
  -16.5908   -7.1945    4.5690 C   0  0  0  0  0  0  0  0  0  0  0  0
  -14.9417   -8.6481    3.4997 C   0  0  0  0  0  0  0  0  0  0  0  0
  -12.2280   -6.1190    8.9747 C   0  0  0  0  0  0  0  0  0  0  0  0
  -12.5698   -6.7875   10.2819 C   0  0  0  0  0  0  0  0  0  0  0  0
  -13.5366   -7.9029   10.0747 C   0  0  0  0  0  0  0  0  0  0  0  0
  -13.0488   -9.2122   10.1421 O   0  0  0  0  0  0  0  0  0  0  0  0
  -14.7315   -7.6194    9.8531 O   0  0  0  0  0  0  0  0  0  0  0  0
  -12.7802   -9.6104   11.0437 H   0  0  0  0  0  0  0  0  0  0  0  0
   -7.8152   -9.1480    7.0810 C   0  0  0  0  0  0  0  0  0  0  0  0
   -8.4346  -10.4787    7.3528 C   0  0  0  0  0  0  0  0  0  0  0  0
   -9.6344  -10.6510    6.4586 C   0  0  0  0  0  0  0  0  0  0  0  0
  -10.8762  -10.5894    7.0627 O   0  0  0  0  0  0  0  0  0  0  0  0
   -9.5432  -10.8431    5.2330 O   0  0  0  0  0  0  0  0  0  0  0  0
  -11.0173   -9.8955    7.7997 H   0  0  0  0  0  0  0  0  0  0  0  0
 22 23  1  0  0  0
 23 24  1  0  0  0
 23 21  1  0  0  0
 21  6  1  0  0  0
  6  2  1  0  0  0
  2  3  1  0  0  0
  3  4  2  0  0  0
  3  1  1  0  0  0
  1 47  1  0  0  0
 47 48  1  0  0  0
 48 49  1  0  0  0
 49 50  1  0  0  0
 49 51  2  0  0  0
  1 25  1  0  0  0
 25 26  1  0  0  0
 26 27  2  0  0  0
 26 29  1  0  0  0
 29 41  1  0  0  0
 41 42  1  0  0  0
 42 43  1  0  0  0
 43 44  1  0  0  0
 43 45  2  0  0  0
 29 30  1  0  0  0
 30 31  1  0  0  0
 31 32  2  0  0  0
 31 34  1  0  0  0
 34 35  1  0  0  0
 34 38  1  0  0  0
 38 39  1  0  0  0
 38 40  1  0  0  0
  6  7  1  0  0  0
  7  8  2  0  0  0
  7  9  1  0  0  0
  9 11  1  0  0  0
 11 16  1  0  0  0
 16 17  1  0  0  0
 17 18  1  0  0  0
 17 19  2  0  0  0
 11 12  1  0  0  0
 12 13  1  0  0  0
 12 14  2  0  0  0
  2  5  1  0  0  0
 50 52  1  0  0  0
 25 28  1  0  0  0
 44 46  1  0  0  0
 30 33  1  0  0  0
 35 36  1  0  0  0
 35 37  1  0  0  0
  9 10  1  0  0  0
 18 20  1  0  0  0
 13 15  1  0  0  0
M  END
> <minimizedAffinity>
-4.72238

> <CNNscore>
0.2241898775

> <CNNaffinity>
6.0259232521

> <CNN_VS>
1.3509509563

> <CNNaffinity_variance>
0.3028041720

$$$$
[H]OC(=O)C([H])([H])C([H])([H])[C@@]([H])(C(=O)N([H])[C@]([H])(C(=O)N([H])[C@]([H])(C(=O)N([H])[C@]([H])(C(=O)O[H])C([H])([H])C(=O)O[H])C([H])([H])C([H])(C([H])([H])[H])C([H])([H])[H])C([H])([H])C([H])([H])C(=O)O[H])N([H])C(=O)[C@@]([H])(N([H])[H])C([H])(C([H])([H])[H])C([H])([H])[H]


 52 51  0  0  0  0  0  0  0  0999 V2000
   -8.2859   -8.1877    8.3247 C   0  0  0  0  0  0  0  0  0  0  0  0
   -6.5014   -6.4854    7.7097 N   0  0  0  0  0  0  0  0  0  0  0  0
   -7.1157   -7.3422    8.6296 C   0  0  0  0  0  0  0  0  0  0  0  0
   -6.6289   -7.3837    9.7745 O   0  0  0  0  0  0  0  0  0  0  0  0
   -6.9522   -6.5027    6.7354 H   0  0  0  0  0  0  0  0  0  0  0  0
   -5.4010   -5.6063    7.8456 C   0  0  0  0  0  0  0  0  0  0  0  0
   -4.7941   -5.3020    6.5492 C   0  0  0  0  0  0  0  0  0  0  0  0
   -4.7150   -6.3032    5.7306 O   0  0  0  0  0  0  0  0  0  0  0  0
   -4.2966   -4.1029    6.0846 N   0  0  0  0  0  0  0  0  0  0  0  0
   -4.3206   -3.2363    6.6430 H   0  0  0  0  0  0  0  0  0  0  0  0
   -3.7007   -4.0247    4.7379 C   0  0  0  0  0  0  0  0  0  0  0  0
   -2.2627   -4.4422    4.8890 C   0  0  0  0  0  0  0  0  0  0  0  0
   -1.8980   -5.7224    4.5908 O   0  0  0  0  0  0  0  0  0  0  0  0
   -1.4087   -3.6177    5.2921 O   0  0  0  0  0  0  0  0  0  0  0  0
   -0.9848   -6.0669    4.7961 H   0  0  0  0  0  0  0  0  0  0  0  0
   -3.7511   -2.6344    4.2108 C   0  0  0  0  0  0  0  0  0  0  0  0
   -4.1548   -1.6713    5.2210 C   0  0  0  0  0  0  0  0  0  0  0  0
   -3.3485   -1.4600    6.3434 O   0  0  0  0  0  0  0  0  0  0  0  0
   -5.1974   -1.0114    5.1465 O   0  0  0  0  0  0  0  0  0  0  0  0
   -2.6883   -0.7038    6.3485 H   0  0  0  0  0  0  0  0  0  0  0  0
   -4.4440   -5.9384    8.9451 C   0  0  0  0  0  0  0  0  0  0  0  0
   -4.3428   -4.9507   11.2781 C   0  0  0  0  0  0  0  0  0  0  0  0
   -3.9589   -4.8936    9.8471 C   0  0  0  0  0  0  0  0  0  0  0  0
   -2.4188   -4.9930    9.8081 C   0  0  0  0  0  0  0  0  0  0  0  0
   -9.4704   -7.3210    8.1201 N   0  0  0  0  0  0  0  0  0  0  0  0
  -10.7240   -7.9097    7.9896 C   0  0  0  0  0  0  0  0  0  0  0  0
  -10.7645   -9.2130    8.0508 O   0  0  0  0  0  0  0  0  0  0  0  0
   -9.3029   -6.3211    8.1092 H   0  0  0  0  0  0  0  0  0  0  0  0
  -11.9926   -7.2151    7.8012 C   0  0  0  0  0  0  0  0  0  0  0  0
  -12.7206   -7.7550    6.6474 N   0  0  0  0  0  0  0  0  0  0  0  0
  -13.9117   -7.1740    6.1761 C   0  0  0  0  0  0  0  0  0  0  0  0
  -14.3354   -6.1497    6.8108 O   0  0  0  0  0  0  0  0  0  0  0  0
  -12.3290   -8.5877    6.1872 H   0  0  0  0  0  0  0  0  0  0  0  0
  -14.7251   -7.6027    5.0360 C   0  0  0  0  0  0  0  0  0  0  0  0
  -14.8291   -9.0274    4.8954 N   0  0  0  0  0  0  0  0  0  0  0  0
  -14.9858   -9.4919    5.8192 H   0  0  0  0  0  0  0  0  0  0  0  0
  -14.0132   -9.3926    4.3651 H   0  0  0  0  0  0  0  0  0  0  0  0
  -16.1342   -7.0207    5.1391 C   0  0  0  0  0  0  0  0  0  0  0  0
  -17.1481   -8.0608    5.4853 C   0  0  0  0  0  0  0  0  0  0  0  0
  -16.4717   -6.4431    3.7820 C   0  0  0  0  0  0  0  0  0  0  0  0
  -12.8016   -6.9164    8.9886 C   0  0  0  0  0  0  0  0  0  0  0  0
  -13.3333   -8.1351    9.6991 C   0  0  0  0  0  0  0  0  0  0  0  0
  -14.3810   -8.8136    8.8846 C   0  0  0  0  0  0  0  0  0  0  0  0
  -15.6394   -8.2083    8.8023 O   0  0  0  0  0  0  0  0  0  0  0  0
  -14.0890   -9.8848    8.3147 O   0  0  0  0  0  0  0  0  0  0  0  0
  -15.7605   -7.3566    8.2513 H   0  0  0  0  0  0  0  0  0  0  0  0
   -8.1692   -8.9642    7.0355 C   0  0  0  0  0  0  0  0  0  0  0  0
   -7.7210   -8.1452    5.8707 C   0  0  0  0  0  0  0  0  0  0  0  0
   -6.5158   -8.8000    5.2480 C   0  0  0  0  0  0  0  0  0  0  0  0
   -5.3842   -8.9005    6.0355 O   0  0  0  0  0  0  0  0  0  0  0  0
   -6.5088   -9.2365    4.0831 O   0  0  0  0  0  0  0  0  0  0  0  0
   -5.5061   -9.1336    7.0231 H   0  0  0  0  0  0  0  0  0  0  0  0
 22 23  1  0  0  0
 23 24  1  0  0  0
 23 21  1  0  0  0
 21  6  1  0  0  0
  6  2  1  0  0  0
  2  3  1  0  0  0
  3  4  2  0  0  0
  3  1  1  0  0  0
  1 47  1  0  0  0
 47 48  1  0  0  0
 48 49  1  0  0  0
 49 50  1  0  0  0
 49 51  2  0  0  0
  1 25  1  0  0  0
 25 26  1  0  0  0
 26 27  2  0  0  0
 26 29  1  0  0  0
 29 41  1  0  0  0
 41 42  1  0  0  0
 42 43  1  0  0  0
 43 44  1  0  0  0
 43 45  2  0  0  0
 29 30  1  0  0  0
 30 31  1  0  0  0
 31 32  2  0  0  0
 31 34  1  0  0  0
 34 35  1  0  0  0
 34 38  1  0  0  0
 38 39  1  0  0  0
 38 40  1  0  0  0
  6  7  1  0  0  0
  7  8  2  0  0  0
  7  9  1  0  0  0
  9 11  1  0  0  0
 11 16  1  0  0  0
 16 17  1  0  0  0
 17 18  1  0  0  0
 17 19  2  0  0  0
 11 12  1  0  0  0
 12 13  1  0  0  0
 12 14  2  0  0  0
  2  5  1  0  0  0
 50 52  1  0  0  0
 25 28  1  0  0  0
 44 46  1  0  0  0
 30 33  1  0  0  0
 35 36  1  0  0  0
 35 37  1  0  0  0
  9 10  1  0  0  0
 18 20  1  0  0  0
 13 15  1  0  0  0
M  END
> <minimizedAffinity>
-5.13446

> <CNNscore>
0.1828399897

> <CNNaffinity>
6.3041353226

> <CNN_VS>
1.1526480913

> <CNNaffinity_variance>
0.3509492874

$$$$
[H]OC(=O)C([H])([H])C([H])([H])[C@@]([H])(C(=O)N([H])[C@]([H])(C(=O)N([H])[C@]([H])(C(=O)N([H])[C@]([H])(C(=O)O[H])C([H])([H])C(=O)O[H])C([H])([H])C([H])(C([H])([H])[H])C([H])([H])[H])C([H])([H])C([H])([H])C(=O)O[H])N([H])C(=O)[C@@]([H])(N([H])[H])C([H])(C([H])([H])[H])C([H])([H])[H]


 52 51  0  0  0  0  0  0  0  0999 V2000
  -13.9673   -8.9099    7.8360 C   0  0  0  0  0  0  0  0  0  0  0  0
  -11.9173   -7.6217    8.6094 N   0  0  0  0  0  0  0  0  0  0  0  0
  -13.1638   -7.6804    7.9766 C   0  0  0  0  0  0  0  0  0  0  0  0
  -13.6106   -6.6163    7.5101 O   0  0  0  0  0  0  0  0  0  0  0  0
  -11.5896   -8.5638    9.0067 H   0  0  0  0  0  0  0  0  0  0  0  0
  -11.0230   -6.5434    8.8087 C   0  0  0  0  0  0  0  0  0  0  0  0
   -9.7511   -6.7670    8.1204 C   0  0  0  0  0  0  0  0  0  0  0  0
   -9.7112   -6.3568    6.8920 O   0  0  0  0  0  0  0  0  0  0  0  0
   -8.5979   -7.3528    8.5979 N   0  0  0  0  0  0  0  0  0  0  0  0
   -8.5096   -7.7020    9.5642 H   0  0  0  0  0  0  0  0  0  0  0  0
   -7.4257   -7.4992    7.7150 C   0  0  0  0  0  0  0  0  0  0  0  0
   -7.4299   -8.9283    7.2433 C   0  0  0  0  0  0  0  0  0  0  0  0
   -7.7650   -9.9241    8.1134 O   0  0  0  0  0  0  0  0  0  0  0  0
   -7.1215   -9.1992    6.0587 O   0  0  0  0  0  0  0  0  0  0  0  0
   -7.6588  -10.8860    7.8726 H   0  0  0  0  0  0  0  0  0  0  0  0
   -6.1625   -7.2347    8.4551 C   0  0  0  0  0  0  0  0  0  0  0  0
   -5.3191   -6.2599    7.7846 C   0  0  0  0  0  0  0  0  0  0  0  0
   -5.6863   -5.7684    6.5284 O   0  0  0  0  0  0  0  0  0  0  0  0
   -4.2672   -5.8293    8.2704 O   0  0  0  0  0  0  0  0  0  0  0  0
   -6.1891   -4.9023    6.4587 H   0  0  0  0  0  0  0  0  0  0  0  0
  -10.9182   -6.0457   10.2145 C   0  0  0  0  0  0  0  0  0  0  0  0
  -11.9312   -5.6502   12.5050 C   0  0  0  0  0  0  0  0  0  0  0  0
  -12.1023   -5.9908   11.0722 C   0  0  0  0  0  0  0  0  0  0  0  0
  -13.0008   -4.8891   10.4700 C   0  0  0  0  0  0  0  0  0  0  0  0
  -15.0544   -8.6697    6.8579 N   0  0  0  0  0  0  0  0  0  0  0  0
  -16.3016   -8.2624    7.3203 C   0  0  0  0  0  0  0  0  0  0  0  0
  -16.4276   -8.1263    8.6124 O   0  0  0  0  0  0  0  0  0  0  0  0
  -14.8188   -8.7954    5.8798 H   0  0  0  0  0  0  0  0  0  0  0  0
  -17.4739   -7.9655    6.5049 C   0  0  0  0  0  0  0  0  0  0  0  0
  -17.3057   -6.6980    5.7853 N   0  0  0  0  0  0  0  0  0  0  0  0
  -16.6110   -6.6174    4.5649 C   0  0  0  0  0  0  0  0  0  0  0  0
  -16.1240   -7.7088    4.1140 O   0  0  0  0  0  0  0  0  0  0  0  0
  -17.7153   -5.8546    6.2087 H   0  0  0  0  0  0  0  0  0  0  0  0
  -16.3825   -5.4264    3.7435 C   0  0  0  0  0  0  0  0  0  0  0  0
  -17.5704   -4.6685    3.4703 N   0  0  0  0  0  0  0  0  0  0  0  0
  -18.1688   -4.5756    4.3230 H   0  0  0  0  0  0  0  0  0  0  0  0
  -18.0612   -5.0629    2.6434 H   0  0  0  0  0  0  0  0  0  0  0  0
  -15.3624   -4.5064    4.4126 C   0  0  0  0  0  0  0  0  0  0  0  0
  -15.1871   -3.2247    3.6667 C   0  0  0  0  0  0  0  0  0  0  0  0
  -14.0435   -5.2477    4.4254 C   0  0  0  0  0  0  0  0  0  0  0  0
  -18.0821   -9.0616    5.7416 C   0  0  0  0  0  0  0  0  0  0  0  0
  -19.5639   -8.9083    5.5103 C   0  0  0  0  0  0  0  0  0  0  0  0
  -20.3450   -9.6255    6.5577 C   0  0  0  0  0  0  0  0  0  0  0  0
  -19.8198   -9.6641    7.8536 O   0  0  0  0  0  0  0  0  0  0  0  0
  -21.4273  -10.1550    6.2329 O   0  0  0  0  0  0  0  0  0  0  0  0
  -19.8199   -8.8201    8.4292 H   0  0  0  0  0  0  0  0  0  0  0  0
  -13.2086  -10.0829    7.2641 C   0  0  0  0  0  0  0  0  0  0  0  0
  -12.2159   -9.7112    6.2131 C   0  0  0  0  0  0  0  0  0  0  0  0
  -10.8467  -10.1578    6.6544 C   0  0  0  0  0  0  0  0  0  0  0  0
  -10.5342   -9.9832    7.9895 O   0  0  0  0  0  0  0  0  0  0  0  0
  -10.0155  -10.6603    5.8773 O   0  0  0  0  0  0  0  0  0  0  0  0
  -11.2630  -10.1700    8.6813 H   0  0  0  0  0  0  0  0  0  0  0  0
 22 23  1  0  0  0
 23 24  1  0  0  0
 23 21  1  0  0  0
 21  6  1  0  0  0
  6  2  1  0  0  0
  2  3  1  0  0  0
  3  4  2  0  0  0
  3  1  1  0  0  0
  1 47  1  0  0  0
 47 48  1  0  0  0
 48 49  1  0  0  0
 49 50  1  0  0  0
 49 51  2  0  0  0
  1 25  1  0  0  0
 25 26  1  0  0  0
 26 27  2  0  0  0
 26 29  1  0  0  0
 29 41  1  0  0  0
 41 42  1  0  0  0
 42 43  1  0  0  0
 43 44  1  0  0  0
 43 45  2  0  0  0
 29 30  1  0  0  0
 30 31  1  0  0  0
 31 32  2  0  0  0
 31 34  1  0  0  0
 34 35  1  0  0  0
 34 38  1  0  0  0
 38 39  1  0  0  0
 38 40  1  0  0  0
  6  7  1  0  0  0
  7  8  2  0  0  0
  7  9  1  0  0  0
  9 11  1  0  0  0
 11 16  1  0  0  0
 16 17  1  0  0  0
 17 18  1  0  0  0
 17 19  2  0  0  0
 11 12  1  0  0  0
 12 13  1  0  0  0
 12 14  2  0  0  0
  2  5  1  0  0  0
 50 52  1  0  0  0
 25 28  1  0  0  0
 44 46  1  0  0  0
 30 33  1  0  0  0
 35 36  1  0  0  0
 35 37  1  0  0  0
  9 10  1  0  0  0
 18 20  1  0  0  0
 13 15  1  0  0  0
M  END
> <minimizedAffinity>
-5.28937

> <CNNscore>
0.1810833812

> <CNNaffinity>
6.4294991493

> <CNN_VS>
1.1642754078

> <CNNaffinity_variance>
0.3496651053

$$$$
[H]OC(=O)C([H])([H])C([H])([H])[C@@]([H])(C(=O)N([H])[C@]([H])(C(=O)N([H])[C@]([H])(C(=O)N([H])[C@]([H])(C(=O)O[H])C([H])([H])C(=O)O[H])C([H])([H])C([H])(C([H])([H])[H])C([H])([H])[H])C([H])([H])C([H])([H])C(=O)O[H])N([H])C(=O)[C@@]([H])(N([H])[H])C([H])(C([H])([H])[H])C([H])([H])[H]


 52 51  0  0  0  0  0  0  0  0999 V2000
   -7.6554   -8.0960    8.4683 C   0  0  0  0  0  0  0  0  0  0  0  0
   -5.6238   -6.6692    7.9229 N   0  0  0  0  0  0  0  0  0  0  0  0
   -6.5394   -7.2036    8.8360 C   0  0  0  0  0  0  0  0  0  0  0  0
   -6.3862   -6.8983   10.0331 O   0  0  0  0  0  0  0  0  0  0  0  0
   -5.7939   -6.9790    6.9090 H   0  0  0  0  0  0  0  0  0  0  0  0
   -4.5259   -5.7957    8.1066 C   0  0  0  0  0  0  0  0  0  0  0  0
   -4.2831   -4.9811    6.9155 C   0  0  0  0  0  0  0  0  0  0  0  0
   -4.8720   -5.3940    5.8377 O   0  0  0  0  0  0  0  0  0  0  0  0
   -3.5163   -3.8427    6.7849 N   0  0  0  0  0  0  0  0  0  0  0  0
   -3.0148   -3.4151    7.5780 H   0  0  0  0  0  0  0  0  0  0  0  0
   -3.3896   -3.1864    5.4703 C   0  0  0  0  0  0  0  0  0  0  0  0
   -1.9298   -2.8620    5.3007 C   0  0  0  0  0  0  0  0  0  0  0  0
   -1.5581   -1.6029    4.9300 O   0  0  0  0  0  0  0  0  0  0  0  0
   -1.0634   -3.7472    5.4942 O   0  0  0  0  0  0  0  0  0  0  0  0
   -0.6150   -1.3863    4.6885 H   0  0  0  0  0  0  0  0  0  0  0  0
   -4.1770   -1.9251    5.4243 C   0  0  0  0  0  0  0  0  0  0  0  0
   -4.1419   -1.2953    4.1154 C   0  0  0  0  0  0  0  0  0  0  0  0
   -4.1027    0.0985    4.0140 O   0  0  0  0  0  0  0  0  0  0  0  0
   -4.1468   -1.9351    3.0577 O   0  0  0  0  0  0  0  0  0  0  0  0
   -3.2212    0.5666    3.9061 H   0  0  0  0  0  0  0  0  0  0  0  0
   -3.3125   -6.4093    8.7282 C   0  0  0  0  0  0  0  0  0  0  0  0
   -3.3050   -8.4695    7.2502 C   0  0  0  0  0  0  0  0  0  0  0  0
   -2.5596   -7.4449    8.0203 C   0  0  0  0  0  0  0  0  0  0  0  0
   -1.6780   -6.6934    6.9997 C   0  0  0  0  0  0  0  0  0  0  0  0
   -8.8357   -7.2744    8.1104 N   0  0  0  0  0  0  0  0  0  0  0  0
  -10.0988   -7.8564    8.1420 C   0  0  0  0  0  0  0  0  0  0  0  0
  -10.1517   -9.1147    8.4851 O   0  0  0  0  0  0  0  0  0  0  0  0
   -8.6576   -6.3035    7.8789 H   0  0  0  0  0  0  0  0  0  0  0  0
  -11.3645   -7.1979    7.8393 C   0  0  0  0  0  0  0  0  0  0  0  0
  -12.1844   -8.0221    6.9442 N   0  0  0  0  0  0  0  0  0  0  0  0
  -13.5693   -7.8214    6.8023 C   0  0  0  0  0  0  0  0  0  0  0  0
  -14.0832   -6.8840    7.5013 O   0  0  0  0  0  0  0  0  0  0  0  0
  -11.7086   -8.7663    6.4167 H   0  0  0  0  0  0  0  0  0  0  0  0
  -14.4957   -8.5597    5.9408 C   0  0  0  0  0  0  0  0  0  0  0  0
  -15.8489   -8.5784    6.4187 N   0  0  0  0  0  0  0  0  0  0  0  0
  -16.1422   -7.6388    6.7723 H   0  0  0  0  0  0  0  0  0  0  0  0
  -15.9737   -9.3514    7.1023 H   0  0  0  0  0  0  0  0  0  0  0  0
  -14.4874   -7.9772    4.5282 C   0  0  0  0  0  0  0  0  0  0  0  0
  -15.1365   -6.6336    4.4705 C   0  0  0  0  0  0  0  0  0  0  0  0
  -15.2676   -8.9338    3.6534 C   0  0  0  0  0  0  0  0  0  0  0  0
  -12.0794   -6.5342    8.9358 C   0  0  0  0  0  0  0  0  0  0  0  0
  -11.1953   -6.0907   10.0735 C   0  0  0  0  0  0  0  0  0  0  0  0
  -12.0063   -5.5445   11.1985 C   0  0  0  0  0  0  0  0  0  0  0  0
  -13.1937   -4.8753   10.8842 O   0  0  0  0  0  0  0  0  0  0  0  0
  -11.5919   -5.7095   12.3640 O   0  0  0  0  0  0  0  0  0  0  0  0
  -14.0041   -5.4025   10.5539 H   0  0  0  0  0  0  0  0  0  0  0  0
   -7.3998   -8.9313    7.2372 C   0  0  0  0  0  0  0  0  0  0  0  0
   -7.4755   -8.1671    5.9571 C   0  0  0  0  0  0  0  0  0  0  0  0
   -6.3731   -8.6344    5.0432 C   0  0  0  0  0  0  0  0  0  0  0  0
   -6.7513   -9.3687    3.9349 O   0  0  0  0  0  0  0  0  0  0  0  0
   -5.1716   -8.3886    5.2513 O   0  0  0  0  0  0  0  0  0  0  0  0
   -7.5966   -9.0838    3.4361 H   0  0  0  0  0  0  0  0  0  0  0  0
 22 23  1  0  0  0
 23 24  1  0  0  0
 23 21  1  0  0  0
 21  6  1  0  0  0
  6  2  1  0  0  0
  2  3  1  0  0  0
  3  4  2  0  0  0
  3  1  1  0  0  0
  1 47  1  0  0  0
 47 48  1  0  0  0
 48 49  1  0  0  0
 49 50  1  0  0  0
 49 51  2  0  0  0
  1 25  1  0  0  0
 25 26  1  0  0  0
 26 27  2  0  0  0
 26 29  1  0  0  0
 29 41  1  0  0  0
 41 42  1  0  0  0
 42 43  1  0  0  0
 43 44  1  0  0  0
 43 45  2  0  0  0
 29 30  1  0  0  0
 30 31  1  0  0  0
 31 32  2  0  0  0
 31 34  1  0  0  0
 34 35  1  0  0  0
 34 38  1  0  0  0
 38 39  1  0  0  0
 38 40  1  0  0  0
  6  7  1  0  0  0
  7  8  2  0  0  0
  7  9  1  0  0  0
  9 11  1  0  0  0
 11 16  1  0  0  0
 16 17  1  0  0  0
 17 18  1  0  0  0
 17 19  2  0  0  0
 11 12  1  0  0  0
 12 13  1  0  0  0
 12 14  2  0  0  0
  2  5  1  0  0  0
 50 52  1  0  0  0
 25 28  1  0  0  0
 44 46  1  0  0  0
 30 33  1  0  0  0
 35 36  1  0  0  0
 35 37  1  0  0  0
  9 10  1  0  0  0
 18 20  1  0  0  0
 13 15  1  0  0  0
M  END
> <minimizedAffinity>
-4.29521

> <CNNscore>
0.1789264083

> <CNNaffinity>
6.2429494858

> <CNN_VS>
1.1170284748

> <CNNaffinity_variance>
0.5959173441

$$$$
[H]O[C@@]1([H])C([H])([H])C([H])([H])[C@]2([H])[C@]([H])(C([H])([H])[C@]([H])(O[H])[C@]3([H])[C@@]2([H])C([H])([H])C([H])([H])C2=C([H])C(=O)C([H])=C([H])[C@@]23C([H])([H])[H])[C@]1([H])C([H])([H])[H]


 25 28  0  0  0  0  0  0  0  0999 V2000
  -14.9695   -2.7478    6.0506 C   0  0  0  0  0  0  0  0  0  0  0  0
  -14.1658   -3.7522    5.2628 C   0  0  0  0  0  0  0  0  0  0  0  0
  -13.6272   -3.0991    4.0285 C   0  0  0  0  0  0  0  0  0  0  0  0
  -12.4384   -3.7882    3.6908 O   0  0  0  0  0  0  0  0  0  0  0  0
  -14.5533   -3.0063    2.8845 C   0  0  0  0  0  0  0  0  0  0  0  0
  -15.6056   -4.0322    2.7695 C   0  0  0  0  0  0  0  0  0  0  0  0
  -16.1569   -4.4461    4.1135 C   0  0  0  0  0  0  0  0  0  0  0  0
  -17.2308   -5.4838    3.9834 C   0  0  0  0  0  0  0  0  0  0  0  0
  -18.4012   -5.0935    4.8397 C   0  0  0  0  0  0  0  0  0  0  0  0
  -19.5784   -5.9342    4.3797 C   0  0  0  0  0  0  0  0  0  0  0  0
  -19.1124   -7.3571    4.5882 C   0  0  0  0  0  0  0  0  0  0  0  0
  -19.8997   -8.0999    5.3117 C   0  0  0  0  0  0  0  0  0  0  0  0
  -19.5990   -9.4912    5.6128 C   0  0  0  0  0  0  0  0  0  0  0  0
  -20.3854  -10.1713    6.3130 O   0  0  0  0  0  0  0  0  0  0  0  0
  -18.3546   -9.9920    5.0479 C   0  0  0  0  0  0  0  0  0  0  0  0
  -17.5767   -9.2278    4.3208 C   0  0  0  0  0  0  0  0  0  0  0  0
  -17.8764   -7.8440    4.0147 C   0  0  0  0  0  0  0  0  0  0  0  0
  -18.1189   -7.8344    2.4721 C   0  0  0  0  0  0  0  0  0  0  0  0
  -16.7140   -6.8827    4.2411 C   0  0  0  0  0  0  0  0  0  0  0  0
  -16.0214   -7.0588    5.5436 C   0  0  0  0  0  0  0  0  0  0  0  0
  -15.0139   -8.0206    5.4550 O   0  0  0  0  0  0  0  0  0  0  0  0
  -15.3755   -5.8022    6.0680 C   0  0  0  0  0  0  0  0  0  0  0  0
  -14.9647   -4.9611    4.8933 C   0  0  0  0  0  0  0  0  0  0  0  0
  -11.9316   -3.8386    4.5605 H   0  0  0  0  0  0  0  0  0  0  0  0
  -14.6881   -8.0312    4.5096 H   0  0  0  0  0  0  0  0  0  0  0  0
  1  2  1  0  0  0
  2  3  1  0  0  0
  3  4  1  0  0  0
  3  5  1  0  0  0
  5  6  1  0  0  0
  6  7  1  0  0  0
  7  8  1  0  0  0
  8  9  1  0  0  0
  9 10  1  0  0  0
 10 11  1  0  0  0
 11 12  2  0  0  0
 12 13  1  0  0  0
 13 14  2  0  0  0
 13 15  1  0  0  0
 15 16  2  0  0  0
 16 17  1  0  0  0
 17 18  1  0  0  0
 17 19  1  0  0  0
 19 20  1  0  0  0
 20 21  1  0  0  0
 20 22  1  0  0  0
 22 23  1  0  0  0
 23  2  1  0  0  0
 23  7  1  0  0  0
 19  8  1  0  0  0
 17 11  1  0  0  0
  4 24  1  0  0  0
 21 25  1  0  0  0
M  END
> <minimizedAffinity>
19.33916

> <CNNscore>
0.4870504141

> <CNNaffinity>
6.2737298012

> <CNN_VS>
3.0556228161

> <CNNaffinity_variance>
1.0774341822

$$$$
[H]O[C@@]1([H])C([H])([H])C([H])([H])[C@]2([H])[C@]([H])(C([H])([H])[C@]([H])(O[H])[C@]3([H])[C@@]2([H])C([H])([H])C([H])([H])C2=C([H])C(=O)C([H])=C([H])[C@@]23C([H])([H])[H])[C@]1([H])C([H])([H])[H]


 25 28  0  0  0  0  0  0  0  0999 V2000
  -13.2207   -9.5977    3.1801 C   0  0  0  0  0  0  0  0  0  0  0  0
  -12.8541   -8.7856    4.3972 C   0  0  0  0  0  0  0  0  0  0  0  0
  -12.3927   -9.7030    5.4861 C   0  0  0  0  0  0  0  0  0  0  0  0
  -11.4997   -8.9585    6.2925 O   0  0  0  0  0  0  0  0  0  0  0  0
  -13.4509  -10.3468    6.2866 C   0  0  0  0  0  0  0  0  0  0  0  0
  -14.7345   -9.6352    6.4246 C   0  0  0  0  0  0  0  0  0  0  0  0
  -15.1273   -8.9040    5.1626 C   0  0  0  0  0  0  0  0  0  0  0  0
  -16.4370   -8.1907    5.3126 C   0  0  0  0  0  0  0  0  0  0  0  0
  -17.2977   -8.4814    4.1167 C   0  0  0  0  0  0  0  0  0  0  0  0
  -18.7134   -8.0803    4.4896 C   0  0  0  0  0  0  0  0  0  0  0  0
  -18.5991   -6.6097    4.8210 C   0  0  0  0  0  0  0  0  0  0  0  0
  -19.4102   -5.8279    4.1683 C   0  0  0  0  0  0  0  0  0  0  0  0
  -19.4285   -4.3862    4.3638 C   0  0  0  0  0  0  0  0  0  0  0  0
  -20.2267   -3.6698    3.7149 O   0  0  0  0  0  0  0  0  0  0  0  0
  -18.4745   -3.8816    5.3403 C   0  0  0  0  0  0  0  0  0  0  0  0
  -17.6676   -4.6862    5.9877 C   0  0  0  0  0  0  0  0  0  0  0  0
  -17.6510   -6.1225    5.7994 C   0  0  0  0  0  0  0  0  0  0  0  0
  -18.1515   -6.6957    7.1630 C   0  0  0  0  0  0  0  0  0  0  0  0
  -16.2597   -6.7163    5.6042 C   0  0  0  0  0  0  0  0  0  0  0  0
  -15.4168   -5.9860    4.6228 C   0  0  0  0  0  0  0  0  0  0  0  0
  -14.7221   -4.9399    5.2318 O   0  0  0  0  0  0  0  0  0  0  0  0
  -14.3877   -6.8487    3.9385 C   0  0  0  0  0  0  0  0  0  0  0  0
  -13.9889   -7.9435    4.8863 C   0  0  0  0  0  0  0  0  0  0  0  0
  -10.8774   -8.5247    5.6289 H   0  0  0  0  0  0  0  0  0  0  0  0
  -14.5822   -5.1873    6.1906 H   0  0  0  0  0  0  0  0  0  0  0  0
  1  2  1  0  0  0
  2  3  1  0  0  0
  3  4  1  0  0  0
  3  5  1  0  0  0
  5  6  1  0  0  0
  6  7  1  0  0  0
  7  8  1  0  0  0
  8  9  1  0  0  0
  9 10  1  0  0  0
 10 11  1  0  0  0
 11 12  2  0  0  0
 12 13  1  0  0  0
 13 14  2  0  0  0
 13 15  1  0  0  0
 15 16  2  0  0  0
 16 17  1  0  0  0
 17 18  1  0  0  0
 17 19  1  0  0  0
 19 20  1  0  0  0
 20 21  1  0  0  0
 20 22  1  0  0  0
 22 23  1  0  0  0
 23  2  1  0  0  0
 23  7  1  0  0  0
 19  8  1  0  0  0
 17 11  1  0  0  0
  4 24  1  0  0  0
 21 25  1  0  0  0
M  END
> <minimizedAffinity>
14.09307

> <CNNscore>
0.4490031898

> <CNNaffinity>
6.0865616798

> <CNN_VS>
2.7328855991

> <CNNaffinity_variance>
0.6370002031

$$$$
[H]O[C@@]1([H])C([H])([H])C([H])([H])[C@]2([H])[C@]([H])(C([H])([H])[C@]([H])(O[H])[C@]3([H])[C@@]2([H])C([H])([H])C([H])([H])C2=C([H])C(=O)C([H])=C([H])[C@@]23C([H])([H])[H])[C@]1([H])C([H])([H])[H]


 25 28  0  0  0  0  0  0  0  0999 V2000
   -3.0181   -4.2577    6.1465 C   0  0  0  0  0  0  0  0  0  0  0  0
   -2.8463   -4.9176    7.4919 C   0  0  0  0  0  0  0  0  0  0  0  0
   -1.4922   -5.5512    7.5652 C   0  0  0  0  0  0  0  0  0  0  0  0
   -1.1263   -5.5692    8.9318 O   0  0  0  0  0  0  0  0  0  0  0  0
   -1.3619   -6.8819    6.9430 C   0  0  0  0  0  0  0  0  0  0  0  0
   -2.5650   -7.7318    6.8843 C   0  0  0  0  0  0  0  0  0  0  0  0
   -3.8223   -6.9348    6.6286 C   0  0  0  0  0  0  0  0  0  0  0  0
   -5.0374   -7.8102    6.5637 C   0  0  0  0  0  0  0  0  0  0  0  0
   -5.8540   -7.4335    5.3609 C   0  0  0  0  0  0  0  0  0  0  0  0
   -6.8282   -8.5724    5.1203 C   0  0  0  0  0  0  0  0  0  0  0  0
   -7.6237   -8.6474    6.4037 C   0  0  0  0  0  0  0  0  0  0  0  0
   -8.9162   -8.5817    6.2615 C   0  0  0  0  0  0  0  0  0  0  0  0
   -9.8284   -8.6351    7.3938 C   0  0  0  0  0  0  0  0  0  0  0  0
  -11.0669   -8.5694    7.2121 O   0  0  0  0  0  0  0  0  0  0  0  0
   -9.1918   -8.7663    8.6960 C   0  0  0  0  0  0  0  0  0  0  0  0
   -7.8885   -8.8323    8.8172 C   0  0  0  0  0  0  0  0  0  0  0  0
   -6.9781   -8.7851    7.6912 C   0  0  0  0  0  0  0  0  0  0  0  0
   -6.3260  -10.2037    7.6633 C   0  0  0  0  0  0  0  0  0  0  0  0
   -5.8139   -7.8148    7.8627 C   0  0  0  0  0  0  0  0  0  0  0  0
   -6.2080   -6.4698    8.3554 C   0  0  0  0  0  0  0  0  0  0  0  0
   -6.2489   -6.4336    9.7500 O   0  0  0  0  0  0  0  0  0  0  0  0
   -5.2818   -5.3632    7.9207 C   0  0  0  0  0  0  0  0  0  0  0  0
   -3.9031   -5.9391    7.7673 C   0  0  0  0  0  0  0  0  0  0  0  0
   -1.3203   -4.6319    9.2475 H   0  0  0  0  0  0  0  0  0  0  0  0
   -5.5993   -7.1140   10.0894 H   0  0  0  0  0  0  0  0  0  0  0  0
  1  2  1  0  0  0
  2  3  1  0  0  0
  3  4  1  0  0  0
  3  5  1  0  0  0
  5  6  1  0  0  0
  6  7  1  0  0  0
  7  8  1  0  0  0
  8  9  1  0  0  0
  9 10  1  0  0  0
 10 11  1  0  0  0
 11 12  2  0  0  0
 12 13  1  0  0  0
 13 14  2  0  0  0
 13 15  1  0  0  0
 15 16  2  0  0  0
 16 17  1  0  0  0
 17 18  1  0  0  0
 17 19  1  0  0  0
 19 20  1  0  0  0
 20 21  1  0  0  0
 20 22  1  0  0  0
 22 23  1  0  0  0
 23  2  1  0  0  0
 23  7  1  0  0  0
 19  8  1  0  0  0
 17 11  1  0  0  0
  4 24  1  0  0  0
 21 25  1  0  0  0
M  END
> <minimizedAffinity>
-0.55748

> <CNNscore>
0.4450886548

> <CNNaffinity>
5.1163663864

> <CNN_VS>
2.2772367001

> <CNNaffinity_variance>
0.7926157713

$$$$
[H]O[C@@]1([H])C([H])([H])C([H])([H])[C@]2([H])[C@]([H])(C([H])([H])[C@]([H])(O[H])[C@]3([H])[C@@]2([H])C([H])([H])C([H])([H])C2=C([H])C(=O)C([H])=C([H])[C@@]23C([H])([H])[H])[C@]1([H])C([H])([H])[H]


 25 28  0  0  0  0  0  0  0  0999 V2000
  -14.5726   -9.5755    1.9265 C   0  0  0  0  0  0  0  0  0  0  0  0
  -14.8867   -9.7880    3.3864 C   0  0  0  0  0  0  0  0  0  0  0  0
  -16.0743  -10.6901    3.5129 C   0  0  0  0  0  0  0  0  0  0  0  0
  -15.9463  -11.3576    4.7539 O   0  0  0  0  0  0  0  0  0  0  0  0
  -17.3953  -10.0513    3.3653 C   0  0  0  0  0  0  0  0  0  0  0  0
  -17.5141   -8.6293    3.7354 C   0  0  0  0  0  0  0  0  0  0  0  0
  -16.2824   -7.8339    3.3721 C   0  0  0  0  0  0  0  0  0  0  0  0
  -16.4179   -6.3888    3.7463 C   0  0  0  0  0  0  0  0  0  0  0  0
  -15.9827   -5.5359    2.5893 C   0  0  0  0  0  0  0  0  0  0  0  0
  -16.5000   -4.1349    2.8605 C   0  0  0  0  0  0  0  0  0  0  0  0
  -15.8578   -3.7588    4.1764 C   0  0  0  0  0  0  0  0  0  0  0  0
  -15.1899   -2.6412    4.1699 C   0  0  0  0  0  0  0  0  0  0  0  0
  -14.5073   -2.1345    5.3507 C   0  0  0  0  0  0  0  0  0  0  0  0
  -13.8759   -1.0528    5.3012 O   0  0  0  0  0  0  0  0  0  0  0  0
  -14.6244   -2.9673    6.5386 C   0  0  0  0  0  0  0  0  0  0  0  0
  -15.3030   -4.0885    6.5243 C   0  0  0  0  0  0  0  0  0  0  0  0
  -15.9882   -4.5925    5.3517 C   0  0  0  0  0  0  0  0  0  0  0  0
  -17.5018   -4.5199    5.7290 C   0  0  0  0  0  0  0  0  0  0  0  0
  -15.7229   -6.0641    5.0509 C   0  0  0  0  0  0  0  0  0  0  0  0
  -14.2888   -6.4486    5.1030 C   0  0  0  0  0  0  0  0  0  0  0  0
  -13.9054   -6.7982    6.3986 O   0  0  0  0  0  0  0  0  0  0  0  0
  -13.9356   -7.6156    4.2172 C   0  0  0  0  0  0  0  0  0  0  0  0
  -15.1417   -8.5043    4.1097 C   0  0  0  0  0  0  0  0  0  0  0  0
  -14.9939  -11.6874    4.7552 H   0  0  0  0  0  0  0  0  0  0  0  0
  -14.7157   -7.1457    6.8706 H   0  0  0  0  0  0  0  0  0  0  0  0
  1  2  1  0  0  0
  2  3  1  0  0  0
  3  4  1  0  0  0
  3  5  1  0  0  0
  5  6  1  0  0  0
  6  7  1  0  0  0
  7  8  1  0  0  0
  8  9  1  0  0  0
  9 10  1  0  0  0
 10 11  1  0  0  0
 11 12  2  0  0  0
 12 13  1  0  0  0
 13 14  2  0  0  0
 13 15  1  0  0  0
 15 16  2  0  0  0
 16 17  1  0  0  0
 17 18  1  0  0  0
 17 19  1  0  0  0
 19 20  1  0  0  0
 20 21  1  0  0  0
 20 22  1  0  0  0
 22 23  1  0  0  0
 23  2  1  0  0  0
 23  7  1  0  0  0
 19  8  1  0  0  0
 17 11  1  0  0  0
  4 24  1  0  0  0
 21 25  1  0  0  0
M  END
> <minimizedAffinity>
32.24577

> <CNNscore>
0.3957005441

> <CNNaffinity>
6.2210035324

> <CNN_VS>
2.4616544247

> <CNNaffinity_variance>
1.1841638088

$$$$
[H]O[C@@]1([H])C([H])([H])C([H])([H])[C@]2([H])[C@]([H])(C([H])([H])[C@]([H])(O[H])[C@]3([H])[C@@]2([H])C([H])([H])C([H])([H])C2=C([H])C(=O)C([H])=C([H])[C@@]23C([H])([H])[H])[C@]1([H])C([H])([H])[H]


 25 28  0  0  0  0  0  0  0  0999 V2000
   -1.0602   -4.9585    8.7435 C   0  0  0  0  0  0  0  0  0  0  0  0
   -1.3839   -4.9143    7.2709 C   0  0  0  0  0  0  0  0  0  0  0  0
   -1.3974   -3.4912    6.8077 C   0  0  0  0  0  0  0  0  0  0  0  0
   -1.0603   -3.5087    5.4336 O   0  0  0  0  0  0  0  0  0  0  0  0
   -2.6391   -2.7364    7.0602 C   0  0  0  0  0  0  0  0  0  0  0  0
   -3.9008   -3.4957    7.1279 C   0  0  0  0  0  0  0  0  0  0  0  0
   -3.7282   -4.8437    7.7871 C   0  0  0  0  0  0  0  0  0  0  0  0
   -5.0187   -5.6030    7.8568 C   0  0  0  0  0  0  0  0  0  0  0  0
   -5.1897   -6.1607    9.2407 C   0  0  0  0  0  0  0  0  0  0  0  0
   -6.6471   -6.5640    9.3721 C   0  0  0  0  0  0  0  0  0  0  0  0
   -6.8433   -7.5816    8.2713 C   0  0  0  0  0  0  0  0  0  0  0  0
   -7.3276   -8.7281    8.6536 C   0  0  0  0  0  0  0  0  0  0  0  0
   -7.5741   -9.8191    7.7231 C   0  0  0  0  0  0  0  0  0  0  0  0
   -8.0426  -10.9070    8.1334 O   0  0  0  0  0  0  0  0  0  0  0  0
   -7.2394   -9.5366    6.3351 C   0  0  0  0  0  0  0  0  0  0  0  0
   -6.7542   -8.3749    5.9709 C   0  0  0  0  0  0  0  0  0  0  0  0
   -6.5130   -7.2849    6.8942 C   0  0  0  0  0  0  0  0  0  0  0  0
   -7.5337   -6.1836    6.4654 C   0  0  0  0  0  0  0  0  0  0  0  0
   -5.1413   -6.6328    6.7545 C   0  0  0  0  0  0  0  0  0  0  0  0
   -4.0129   -7.5959    6.6762 C   0  0  0  0  0  0  0  0  0  0  0  0
   -3.7872   -8.0050    5.3611 O   0  0  0  0  0  0  0  0  0  0  0  0
   -2.7056   -7.0500    7.1902 C   0  0  0  0  0  0  0  0  0  0  0  0
   -2.6912   -5.5670    6.9526 C   0  0  0  0  0  0  0  0  0  0  0  0
   -0.2455   -4.1004    5.3910 H   0  0  0  0  0  0  0  0  0  0  0  0
   -4.0875   -7.2656    4.7584 H   0  0  0  0  0  0  0  0  0  0  0  0
  1  2  1  0  0  0
  2  3  1  0  0  0
  3  4  1  0  0  0
  3  5  1  0  0  0
  5  6  1  0  0  0
  6  7  1  0  0  0
  7  8  1  0  0  0
  8  9  1  0  0  0
  9 10  1  0  0  0
 10 11  1  0  0  0
 11 12  2  0  0  0
 12 13  1  0  0  0
 13 14  2  0  0  0
 13 15  1  0  0  0
 15 16  2  0  0  0
 16 17  1  0  0  0
 17 18  1  0  0  0
 17 19  1  0  0  0
 19 20  1  0  0  0
 20 21  1  0  0  0
 20 22  1  0  0  0
 22 23  1  0  0  0
 23  2  1  0  0  0
 23  7  1  0  0  0
 19  8  1  0  0  0
 17 11  1  0  0  0
  4 24  1  0  0  0
 21 25  1  0  0  0
M  END
> <minimizedAffinity>
-2.36231

> <CNNscore>
0.3752209544

> <CNNaffinity>
4.8036866188

> <CNN_VS>
1.8024438620

> <CNNaffinity_variance>
0.4259538054

$$$$
[H]O[C@@]1([H])C([H])([H])C([H])([H])[C@]2([H])[C@]([H])(C([H])([H])[C@]([H])(O[H])[C@]3([H])[C@@]2([H])C([H])([H])C([H])([H])C2=C([H])C(=O)C([H])=C([H])[C@@]23C([H])([H])[H])[C@]1([H])C([H])([H])[H]


 25 28  0  0  0  0  0  0  0  0999 V2000
  -10.1816   -9.5516    7.7002 C   0  0  0  0  0  0  0  0  0  0  0  0
  -10.0320   -8.2625    8.4690 C   0  0  0  0  0  0  0  0  0  0  0  0
  -11.0387   -7.2705    7.9764 C   0  0  0  0  0  0  0  0  0  0  0  0
  -11.3118   -6.3990    9.0571 O   0  0  0  0  0  0  0  0  0  0  0  0
  -10.6792   -6.5323    6.7513 C   0  0  0  0  0  0  0  0  0  0  0  0
   -9.2470   -6.3199    6.4746 C   0  0  0  0  0  0  0  0  0  0  0  0
   -8.3995   -7.5027    6.8801 C   0  0  0  0  0  0  0  0  0  0  0  0
   -6.9468   -7.2780    6.5871 C   0  0  0  0  0  0  0  0  0  0  0  0
   -6.3868   -8.4929    5.9045 C   0  0  0  0  0  0  0  0  0  0  0  0
   -5.0638   -8.0765    5.2879 C   0  0  0  0  0  0  0  0  0  0  0  0
   -4.2457   -7.6034    6.4679 C   0  0  0  0  0  0  0  0  0  0  0  0
   -3.0828   -8.1730    6.6026 C   0  0  0  0  0  0  0  0  0  0  0  0
   -2.1716   -7.8375    7.6862 C   0  0  0  0  0  0  0  0  0  0  0  0
   -1.0601   -8.4098    7.7784 O   0  0  0  0  0  0  0  0  0  0  0  0
   -2.6544   -6.8205    8.6086 C   0  0  0  0  0  0  0  0  0  0  0  0
   -3.8282   -6.2582    8.4542 C   0  0  0  0  0  0  0  0  0  0  0  0
   -4.7350   -6.5862    7.3731 C   0  0  0  0  0  0  0  0  0  0  0  0
   -4.7990   -5.2830    6.5151 C   0  0  0  0  0  0  0  0  0  0  0  0
   -6.1725   -6.8444    7.8130 C   0  0  0  0  0  0  0  0  0  0  0  0
   -6.2991   -7.7534    8.9812 C   0  0  0  0  0  0  0  0  0  0  0  0
   -6.2157   -7.0480   10.1827 O   0  0  0  0  0  0  0  0  0  0  0  0
   -7.5943   -8.5231    9.0201 C   0  0  0  0  0  0  0  0  0  0  0  0
   -8.6553   -7.6886    8.3615 C   0  0  0  0  0  0  0  0  0  0  0  0
  -11.4757   -7.0197    9.8341 H   0  0  0  0  0  0  0  0  0  0  0  0
   -6.5426   -6.1186   10.0111 H   0  0  0  0  0  0  0  0  0  0  0  0
  1  2  1  0  0  0
  2  3  1  0  0  0
  3  4  1  0  0  0
  3  5  1  0  0  0
  5  6  1  0  0  0
  6  7  1  0  0  0
  7  8  1  0  0  0
  8  9  1  0  0  0
  9 10  1  0  0  0
 10 11  1  0  0  0
 11 12  2  0  0  0
 12 13  1  0  0  0
 13 14  2  0  0  0
 13 15  1  0  0  0
 15 16  2  0  0  0
 16 17  1  0  0  0
 17 18  1  0  0  0
 17 19  1  0  0  0
 19 20  1  0  0  0
 20 21  1  0  0  0
 20 22  1  0  0  0
 22 23  1  0  0  0
 23  2  1  0  0  0
 23  7  1  0  0  0
 19  8  1  0  0  0
 17 11  1  0  0  0
  4 24  1  0  0  0
 21 25  1  0  0  0
M  END
> <minimizedAffinity>
-2.50509

> <CNNscore>
0.3650162518

> <CNNaffinity>
5.2088193893

> <CNN_VS>
1.9013037682

> <CNNaffinity_variance>
0.5285460353

$$$$
[H]O[C@@]1([H])C([H])([H])C([H])([H])[C@]2([H])[C@]([H])(C([H])([H])[C@]([H])(O[H])[C@]3([H])[C@@]2([H])C([H])([H])C([H])([H])C2=C([H])C(=O)C([H])=C([H])[C@@]23C([H])([H])[H])[C@]1([H])C([H])([H])[H]


 25 28  0  0  0  0  0  0  0  0999 V2000
  -13.6882   -8.7375    2.6876 C   0  0  0  0  0  0  0  0  0  0  0  0
  -14.4471   -9.4602    3.7725 C   0  0  0  0  0  0  0  0  0  0  0  0
  -15.0223  -10.7258    3.2178 C   0  0  0  0  0  0  0  0  0  0  0  0
  -15.1350  -11.6290    4.3010 O   0  0  0  0  0  0  0  0  0  0  0  0
  -16.2907  -10.5941    2.4768 C   0  0  0  0  0  0  0  0  0  0  0  0
  -17.1867   -9.4827    2.8441 C   0  0  0  0  0  0  0  0  0  0  0  0
  -16.4295   -8.2276    3.2087 C   0  0  0  0  0  0  0  0  0  0  0  0
  -17.3510   -7.1029    3.5729 C   0  0  0  0  0  0  0  0  0  0  0  0
  -16.9151   -5.8559    2.8584 C   0  0  0  0  0  0  0  0  0  0  0  0
  -18.0737   -4.8787    2.9391 C   0  0  0  0  0  0  0  0  0  0  0  0
  -18.2892   -4.6922    4.4238 C   0  0  0  0  0  0  0  0  0  0  0  0
  -18.2709   -3.4579    4.8378 C   0  0  0  0  0  0  0  0  0  0  0  0
  -18.4578   -3.1022    6.2361 C   0  0  0  0  0  0  0  0  0  0  0  0
  -18.4338   -1.9005    6.5920 O   0  0  0  0  0  0  0  0  0  0  0  0
  -18.6656   -4.2254    7.1383 C   0  0  0  0  0  0  0  0  0  0  0  0
  -18.6819   -5.4606    6.7007 C   0  0  0  0  0  0  0  0  0  0  0  0
  -18.5018   -5.8174    5.3083 C   0  0  0  0  0  0  0  0  0  0  0  0
  -19.8822   -6.4087    4.8803 C   0  0  0  0  0  0  0  0  0  0  0  0
  -17.4967   -6.9398    5.0704 C   0  0  0  0  0  0  0  0  0  0  0  0
  -16.2157   -6.7775    5.8050 C   0  0  0  0  0  0  0  0  0  0  0  0
  -16.2952   -7.3223    7.0875 O   0  0  0  0  0  0  0  0  0  0  0  0
  -15.0364   -7.4295    5.1300 C   0  0  0  0  0  0  0  0  0  0  0  0
  -15.5346   -8.6224    4.3654 C   0  0  0  0  0  0  0  0  0  0  0  0
  -14.2363  -11.5777    4.7545 H   0  0  0  0  0  0  0  0  0  0  0  0
  -16.9707   -8.0593    7.0617 H   0  0  0  0  0  0  0  0  0  0  0  0
  1  2  1  0  0  0
  2  3  1  0  0  0
  3  4  1  0  0  0
  3  5  1  0  0  0
  5  6  1  0  0  0
  6  7  1  0  0  0
  7  8  1  0  0  0
  8  9  1  0  0  0
  9 10  1  0  0  0
 10 11  1  0  0  0
 11 12  2  0  0  0
 12 13  1  0  0  0
 13 14  2  0  0  0
 13 15  1  0  0  0
 15 16  2  0  0  0
 16 17  1  0  0  0
 17 18  1  0  0  0
 17 19  1  0  0  0
 19 20  1  0  0  0
 20 21  1  0  0  0
 20 22  1  0  0  0
 22 23  1  0  0  0
 23  2  1  0  0  0
 23  7  1  0  0  0
 19  8  1  0  0  0
 17 11  1  0  0  0
  4 24  1  0  0  0
 21 25  1  0  0  0
M  END
> <minimizedAffinity>
38.30303

> <CNNscore>
0.3621307611

> <CNNaffinity>
6.0615730286

> <CNN_VS>
2.1950819492

> <CNNaffinity_variance>
1.2090950012

$$$$
[H]O[C@@]1([H])C([H])([H])C([H])([H])[C@]2([H])[C@]([H])(C([H])([H])[C@]([H])(O[H])[C@]3([H])[C@@]2([H])C([H])([H])C([H])([H])C2=C([H])C(=O)C([H])=C([H])[C@@]23C([H])([H])[H])[C@]1([H])C([H])([H])[H]


 25 28  0  0  0  0  0  0  0  0999 V2000
   -2.3527   -4.7697    7.5949 C   0  0  0  0  0  0  0  0  0  0  0  0
   -2.4387   -5.9773    8.4947 C   0  0  0  0  0  0  0  0  0  0  0  0
   -1.3652   -6.9516    8.1226 C   0  0  0  0  0  0  0  0  0  0  0  0
   -1.0602   -7.6857    9.2931 O   0  0  0  0  0  0  0  0  0  0  0  0
   -1.6569   -7.8357    6.9788 C   0  0  0  0  0  0  0  0  0  0  0  0
   -3.0684   -8.1642    6.7090 C   0  0  0  0  0  0  0  0  0  0  0  0
   -3.9928   -6.9999    6.9762 C   0  0  0  0  0  0  0  0  0  0  0  0
   -5.4238   -7.3435    6.6913 C   0  0  0  0  0  0  0  0  0  0  0  0
   -6.0431   -6.2443    5.8766 C   0  0  0  0  0  0  0  0  0  0  0  0
   -7.3270   -6.8043    5.2920 C   0  0  0  0  0  0  0  0  0  0  0  0
   -8.1368   -7.1999    6.5058 C   0  0  0  0  0  0  0  0  0  0  0  0
   -9.3343   -6.6922    6.5651 C   0  0  0  0  0  0  0  0  0  0  0  0
  -10.2434   -6.9672    7.6672 C   0  0  0  0  0  0  0  0  0  0  0  0
  -11.3888   -6.4581    7.6846 O   0  0  0  0  0  0  0  0  0  0  0  0
   -9.7175   -7.8494    8.6984 C   0  0  0  0  0  0  0  0  0  0  0  0
   -8.5094   -8.3512    8.6188 C   0  0  0  0  0  0  0  0  0  0  0  0
   -7.6041   -8.0838    7.5199 C   0  0  0  0  0  0  0  0  0  0  0  0
   -7.4460   -9.4638    6.8063 C   0  0  0  0  0  0  0  0  0  0  0  0
   -6.1932   -7.6923    7.9471 C   0  0  0  0  0  0  0  0  0  0  0  0
   -6.1430   -6.6591    9.0133 C   0  0  0  0  0  0  0  0  0  0  0  0
   -6.2060   -7.2376   10.2819 O   0  0  0  0  0  0  0  0  0  0  0  0
   -4.8974   -5.8110    8.9856 C   0  0  0  0  0  0  0  0  0  0  0  0
   -3.7761   -6.6433    8.4324 C   0  0  0  0  0  0  0  0  0  0  0  0
   -0.9483   -6.9776   10.0016 H   0  0  0  0  0  0  0  0  0  0  0  0
   -5.8207   -8.1580   10.2142 H   0  0  0  0  0  0  0  0  0  0  0  0
  1  2  1  0  0  0
  2  3  1  0  0  0
  3  4  1  0  0  0
  3  5  1  0  0  0
  5  6  1  0  0  0
  6  7  1  0  0  0
  7  8  1  0  0  0
  8  9  1  0  0  0
  9 10  1  0  0  0
 10 11  1  0  0  0
 11 12  2  0  0  0
 12 13  1  0  0  0
 13 14  2  0  0  0
 13 15  1  0  0  0
 15 16  2  0  0  0
 16 17  1  0  0  0
 17 18  1  0  0  0
 17 19  1  0  0  0
 19 20  1  0  0  0
 20 21  1  0  0  0
 20 22  1  0  0  0
 22 23  1  0  0  0
 23  2  1  0  0  0
 23  7  1  0  0  0
 19  8  1  0  0  0
 17 11  1  0  0  0
  4 24  1  0  0  0
 21 25  1  0  0  0
M  END
> <minimizedAffinity>
-3.32659

> <CNNscore>
0.3431403935

> <CNNaffinity>
5.0812444687

> <CNN_VS>
1.7435802221

> <CNNaffinity_variance>
0.2696407437

$$$$
[H]O[C@@]1([H])C([H])([H])C([H])([H])[C@]2([H])[C@]([H])(C([H])([H])[C@]([H])(O[H])[C@]3([H])[C@@]2([H])C([H])([H])C([H])([H])C2=C([H])C(=O)C([H])=C([H])[C@@]23C([H])([H])[H])[C@]1([H])C([H])([H])[H]


 25 28  0  0  0  0  0  0  0  0999 V2000
  -14.3654   -4.7113    6.9825 C   0  0  0  0  0  0  0  0  0  0  0  0
  -14.1461   -4.4969    5.5057 C   0  0  0  0  0  0  0  0  0  0  0  0
  -14.7340   -3.1810    5.1020 C   0  0  0  0  0  0  0  0  0  0  0  0
  -13.9956   -2.7336    3.9810 O   0  0  0  0  0  0  0  0  0  0  0  0
  -16.1862   -3.1685    4.8451 C   0  0  0  0  0  0  0  0  0  0  0  0
  -16.8114   -4.4212    4.3839 C   0  0  0  0  0  0  0  0  0  0  0  0
  -16.2030   -5.6423    5.0324 C   0  0  0  0  0  0  0  0  0  0  0  0
  -16.8516   -6.9089    4.5615 C   0  0  0  0  0  0  0  0  0  0  0  0
  -17.1658   -7.7740    5.7482 C   0  0  0  0  0  0  0  0  0  0  0  0
  -18.1502   -8.8270    5.2727 C   0  0  0  0  0  0  0  0  0  0  0  0
  -17.4085   -9.5454    4.1684 C   0  0  0  0  0  0  0  0  0  0  0  0
  -17.3280  -10.8380    4.3019 C   0  0  0  0  0  0  0  0  0  0  0  0
  -16.6456  -11.6806    3.3317 C   0  0  0  0  0  0  0  0  0  0  0  0
  -16.5922  -12.9218    3.4983 O   0  0  0  0  0  0  0  0  0  0  0  0
  -16.0590  -10.9742    2.2023 C   0  0  0  0  0  0  0  0  0  0  0  0
  -16.1528   -9.6722    2.0860 C   0  0  0  0  0  0  0  0  0  0  0  0
  -16.8365   -8.8314    3.0475 C   0  0  0  0  0  0  0  0  0  0  0  0
  -18.0632   -8.2677    2.2628 C   0  0  0  0  0  0  0  0  0  0  0  0
  -16.0451   -7.6032    3.4853 C   0  0  0  0  0  0  0  0  0  0  0  0
  -14.6335   -7.8857    3.8520 C   0  0  0  0  0  0  0  0  0  0  0  0
  -13.8008   -7.8388    2.7329 O   0  0  0  0  0  0  0  0  0  0  0  0
  -14.0588   -6.9237    4.8599 C   0  0  0  0  0  0  0  0  0  0  0  0
  -14.7318   -5.5937    4.6749 C   0  0  0  0  0  0  0  0  0  0  0  0
  -13.0345   -2.8518    4.2604 H   0  0  0  0  0  0  0  0  0  0  0  0
  -14.2151   -7.2111    2.0737 H   0  0  0  0  0  0  0  0  0  0  0  0
  1  2  1  0  0  0
  2  3  1  0  0  0
  3  4  1  0  0  0
  3  5  1  0  0  0
  5  6  1  0  0  0
  6  7  1  0  0  0
  7  8  1  0  0  0
  8  9  1  0  0  0
  9 10  1  0  0  0
 10 11  1  0  0  0
 11 12  2  0  0  0
 12 13  1  0  0  0
 13 14  2  0  0  0
 13 15  1  0  0  0
 15 16  2  0  0  0
 16 17  1  0  0  0
 17 18  1  0  0  0
 17 19  1  0  0  0
 19 20  1  0  0  0
 20 21  1  0  0  0
 20 22  1  0  0  0
 22 23  1  0  0  0
 23  2  1  0  0  0
 23  7  1  0  0  0
 19  8  1  0  0  0
 17 11  1  0  0  0
  4 24  1  0  0  0
 21 25  1  0  0  0
M  END
> <minimizedAffinity>
32.49384

> <CNNscore>
0.3242022097

> <CNNaffinity>
6.1203980446

> <CNN_VS>
1.9842466116

> <CNNaffinity_variance>
1.3140389919

$$$$
[H]c1nnc2c(c1-c1c([H])c([H])c(C#N)c(C([H])([H])[H])c1[H])n(Br)c(=O)n2[H]


 21 23  0  0  0  0  0  0  0  0999 V2000
  -15.6952   -7.1821    6.3069 C   0  0  0  0  0  0  0  0  0  0  0  0
  -14.5519   -7.5804    7.0212 C   0  0  0  0  0  0  0  0  0  0  0  0
  -13.3979   -6.9548    6.8524 N   0  0  0  0  0  0  0  0  0  0  0  0
  -13.2383   -5.9358    6.0220 N   0  0  0  0  0  0  0  0  0  0  0  0
  -14.2965   -5.5049    5.3090 C   0  0  0  0  0  0  0  0  0  0  0  0
  -14.3897   -4.4947    4.4267 N   0  0  0  0  0  0  0  0  0  0  0  0
  -15.6637   -4.4771    4.0176 C   0  0  0  0  0  0  0  0  0  0  0  0
  -16.1606   -3.6773    3.1883 O   0  0  0  0  0  0  0  0  0  0  0  0
  -16.3545   -5.4686    4.6411 N   0  0  0  0  0  0  0  0  0  0  0  0
  -18.2213   -5.7774    4.3786 Br  0  0  0  0  0  0  0  0  0  0  0  0
  -15.5306   -6.1248    5.4476 C   0  0  0  0  0  0  0  0  0  0  0  0
  -13.6000   -3.8459    4.1229 H   0  0  0  0  0  0  0  0  0  0  0  0
  -19.5004   -9.7663    4.4399 C   0  0  0  0  0  0  0  0  0  0  0  0
  -18.7933   -9.1530    5.5910 C   0  0  0  0  0  0  0  0  0  0  0  0
  -17.5882   -8.5108    5.4074 C   0  0  0  0  0  0  0  0  0  0  0  0
  -16.9316   -7.9407    6.4803 C   0  0  0  0  0  0  0  0  0  0  0  0
  -17.5071   -8.0311    7.7252 C   0  0  0  0  0  0  0  0  0  0  0  0
  -18.7205   -8.6818    7.8870 C   0  0  0  0  0  0  0  0  0  0  0  0
  -19.3906   -9.2564    6.8288 C   0  0  0  0  0  0  0  0  0  0  0  0
  -20.6611   -9.9346    7.0149 C   0  0  0  0  0  0  0  0  0  0  0  0
  -21.6774  -10.4754    7.1445 N   0  0  0  0  0  0  0  0  0  0  0  0
 13 14  1  0  0  0
 14 15  2  0  0  0
 15 16  1  0  0  0
 16 17  2  0  0  0
 17 18  1  0  0  0
 18 19  2  0  0  0
 19 20  1  0  0  0
 20 21  3  0  0  0
 16  1  1  0  0  0
  1  2  2  0  0  0
  2  3  1  0  0  0
  3  4  2  0  0  0
  4  5  1  0  0  0
  5  6  1  0  0  0
  6  7  1  0  0  0
  7  8  2  0  0  0
  7  9  1  0  0  0
  9 10  1  0  0  0
  9 11  1  0  0  0
 19 14  1  0  0  0
 11  1  1  0  0  0
 11  5  2  0  0  0
  6 12  1  0  0  0
M  END
> <minimizedAffinity>
5.26962

> <CNNscore>
0.3354553580

> <CNNaffinity>
5.8304395676

> <CNN_VS>
1.9558521509

> <CNNaffinity_variance>
0.6071785688

$$$$
[H]c1nnc2c(c1-c1c([H])c([H])c(C#N)c(C([H])([H])[H])c1[H])n(Br)c(=O)n2[H]


 21 23  0  0  0  0  0  0  0  0999 V2000
  -11.4898   -8.8363    7.6638 C   0  0  0  0  0  0  0  0  0  0  0  0
  -12.0892   -9.9107    6.9837 C   0  0  0  0  0  0  0  0  0  0  0  0
  -13.3869  -10.1435    7.0991 N   0  0  0  0  0  0  0  0  0  0  0  0
  -14.1949   -9.4031    7.8422 N   0  0  0  0  0  0  0  0  0  0  0  0
  -13.6820   -8.3573    8.5183 C   0  0  0  0  0  0  0  0  0  0  0  0
  -14.2911   -7.4610    9.3141 N   0  0  0  0  0  0  0  0  0  0  0  0
  -13.3349   -6.6182    9.7217 C   0  0  0  0  0  0  0  0  0  0  0  0
  -13.4956   -5.6334   10.4825 O   0  0  0  0  0  0  0  0  0  0  0  0
  -12.1428   -6.9892    9.1830 N   0  0  0  0  0  0  0  0  0  0  0  0
  -10.5137   -6.0344    9.4720 Br  0  0  0  0  0  0  0  0  0  0  0  0
  -12.3274   -8.0676    8.4326 C   0  0  0  0  0  0  0  0  0  0  0  0
  -15.3277   -7.4377    9.5624 H   0  0  0  0  0  0  0  0  0  0  0  0
   -7.5441   -6.2145    6.1804 C   0  0  0  0  0  0  0  0  0  0  0  0
   -8.1335   -7.4220    6.8095 C   0  0  0  0  0  0  0  0  0  0  0  0
   -9.4978   -7.5298    6.9690 C   0  0  0  0  0  0  0  0  0  0  0  0
  -10.0444   -8.6546    7.5549 C   0  0  0  0  0  0  0  0  0  0  0  0
   -9.1983   -9.6544    7.9716 C   0  0  0  0  0  0  0  0  0  0  0  0
   -7.8285   -9.5250    7.8010 C   0  0  0  0  0  0  0  0  0  0  0  0
   -7.2647   -8.4107    7.2185 C   0  0  0  0  0  0  0  0  0  0  0  0
   -5.8278   -8.2904    7.0469 C   0  0  0  0  0  0  0  0  0  0  0  0
   -4.6829   -8.1756    6.9122 N   0  0  0  0  0  0  0  0  0  0  0  0
 13 14  1  0  0  0
 14 15  2  0  0  0
 15 16  1  0  0  0
 16 17  2  0  0  0
 17 18  1  0  0  0
 18 19  2  0  0  0
 19 20  1  0  0  0
 20 21  3  0  0  0
 16  1  1  0  0  0
  1  2  2  0  0  0
  2  3  1  0  0  0
  3  4  2  0  0  0
  4  5  1  0  0  0
  5  6  1  0  0  0
  6  7  1  0  0  0
  7  8  2  0  0  0
  7  9  1  0  0  0
  9 10  1  0  0  0
  9 11  1  0  0  0
 19 14  1  0  0  0
 11  1  1  0  0  0
 11  5  2  0  0  0
  6 12  1  0  0  0
M  END
> <minimizedAffinity>
-7.13648

> <CNNscore>
0.3259849548

> <CNNaffinity>
6.0449256897

> <CNN_VS>
1.9705548286

> <CNNaffinity_variance>
0.0975296646

$$$$
[H]c1nnc2c(c1-c1c([H])c([H])c(C#N)c(C([H])([H])[H])c1[H])n(Br)c(=O)n2[H]


 21 23  0  0  0  0  0  0  0  0999 V2000
  -10.4758   -7.0528    8.6954 C   0  0  0  0  0  0  0  0  0  0  0  0
  -10.7949   -5.8993    9.4326 C   0  0  0  0  0  0  0  0  0  0  0  0
  -12.0316   -5.6875    9.8539 N   0  0  0  0  0  0  0  0  0  0  0  0
  -13.0322   -6.5223    9.6194 N   0  0  0  0  0  0  0  0  0  0  0  0
  -12.7914   -7.6473    8.9192 C   0  0  0  0  0  0  0  0  0  0  0  0
  -13.6250   -8.6430    8.5713 N   0  0  0  0  0  0  0  0  0  0  0  0
  -12.8818   -9.5298    7.8990 C   0  0  0  0  0  0  0  0  0  0  0  0
  -13.2898  -10.6074    7.4022 O   0  0  0  0  0  0  0  0  0  0  0  0
  -11.5979   -9.0872    7.8305 N   0  0  0  0  0  0  0  0  0  0  0  0
  -10.1893  -10.0673    6.9915 Br  0  0  0  0  0  0  0  0  0  0  0  0
  -11.5124   -7.9192    8.4538 C   0  0  0  0  0  0  0  0  0  0  0  0
  -14.6663   -8.7020    8.7926 H   0  0  0  0  0  0  0  0  0  0  0  0
   -7.0551   -6.4981    5.1408 C   0  0  0  0  0  0  0  0  0  0  0  0
   -7.4622   -6.9910    6.4797 C   0  0  0  0  0  0  0  0  0  0  0  0
   -8.7345   -6.7547    6.9527 C   0  0  0  0  0  0  0  0  0  0  0  0
   -9.1112   -7.2144    8.1993 C   0  0  0  0  0  0  0  0  0  0  0  0
   -8.1908   -7.9070    8.9491 C   0  0  0  0  0  0  0  0  0  0  0  0
   -6.9160   -8.1336    8.4533 C   0  0  0  0  0  0  0  0  0  0  0  0
   -6.5219   -7.6831    7.2121 C   0  0  0  0  0  0  0  0  0  0  0  0
   -5.1827   -7.9287    6.7071 C   0  0  0  0  0  0  0  0  0  0  0  0
   -4.1074   -8.1223    6.3218 N   0  0  0  0  0  0  0  0  0  0  0  0
 13 14  1  0  0  0
 14 15  2  0  0  0
 15 16  1  0  0  0
 16 17  2  0  0  0
 17 18  1  0  0  0
 18 19  2  0  0  0
 19 20  1  0  0  0
 20 21  3  0  0  0
 16  1  1  0  0  0
  1  2  2  0  0  0
  2  3  1  0  0  0
  3  4  2  0  0  0
  4  5  1  0  0  0
  5  6  1  0  0  0
  6  7  1  0  0  0
  7  8  2  0  0  0
  7  9  1  0  0  0
  9 10  1  0  0  0
  9 11  1  0  0  0
 19 14  1  0  0  0
 11  1  1  0  0  0
 11  5  2  0  0  0
  6 12  1  0  0  0
M  END
> <minimizedAffinity>
-7.62667

> <CNNscore>
0.3021372259

> <CNNaffinity>
5.9022374153

> <CNN_VS>
1.7832856178

> <CNNaffinity_variance>
0.2013106048

$$$$
[H]c1nnc2c(c1-c1c([H])c([H])c(C#N)c(C([H])([H])[H])c1[H])n(Br)c(=O)n2[H]


 21 23  0  0  0  0  0  0  0  0999 V2000
   -6.6588   -6.9238    8.2116 C   0  0  0  0  0  0  0  0  0  0  0  0
   -7.8272   -6.8795    8.9919 C   0  0  0  0  0  0  0  0  0  0  0  0
   -8.9024   -7.5652    8.6378 N   0  0  0  0  0  0  0  0  0  0  0  0
   -8.9566   -8.3228    7.5532 N   0  0  0  0  0  0  0  0  0  0  0  0
   -7.8689   -8.4085    6.7636 C   0  0  0  0  0  0  0  0  0  0  0  0
   -7.6742   -9.1133    5.6354 N   0  0  0  0  0  0  0  0  0  0  0  0
   -6.4151   -8.8646    5.2565 C   0  0  0  0  0  0  0  0  0  0  0  0
   -5.8433   -9.3359    4.2439 O   0  0  0  0  0  0  0  0  0  0  0  0
   -5.8341   -8.0124    6.1426 N   0  0  0  0  0  0  0  0  0  0  0  0
   -4.0222   -7.4236    6.0046 Br  0  0  0  0  0  0  0  0  0  0  0  0
   -6.7141   -7.7104    7.0884 C   0  0  0  0  0  0  0  0  0  0  0  0
   -8.3875   -9.7400    5.1506 H   0  0  0  0  0  0  0  0  0  0  0  0
   -2.9826   -3.7761    7.1068 C   0  0  0  0  0  0  0  0  0  0  0  0
   -3.7158   -4.6179    8.0841 C   0  0  0  0  0  0  0  0  0  0  0  0
   -4.8363   -5.3201    7.6973 C   0  0  0  0  0  0  0  0  0  0  0  0
   -5.5174   -6.1030    8.6086 C   0  0  0  0  0  0  0  0  0  0  0  0
   -5.0519   -6.1619    9.9004 C   0  0  0  0  0  0  0  0  0  0  0  0
   -3.9220   -5.4472   10.2678 C   0  0  0  0  0  0  0  0  0  0  0  0
   -3.2292   -4.6610    9.3729 C   0  0  0  0  0  0  0  0  0  0  0  0
   -2.0473   -3.9185    9.7735 C   0  0  0  0  0  0  0  0  0  0  0  0
   -1.0944   -3.3350   10.0795 N   0  0  0  0  0  0  0  0  0  0  0  0
 13 14  1  0  0  0
 14 15  2  0  0  0
 15 16  1  0  0  0
 16 17  2  0  0  0
 17 18  1  0  0  0
 18 19  2  0  0  0
 19 20  1  0  0  0
 20 21  3  0  0  0
 16  1  1  0  0  0
  1  2  2  0  0  0
  2  3  1  0  0  0
  3  4  2  0  0  0
  4  5  1  0  0  0
  5  6  1  0  0  0
  6  7  1  0  0  0
  7  8  2  0  0  0
  7  9  1  0  0  0
  9 10  1  0  0  0
  9 11  1  0  0  0
 19 14  1  0  0  0
 11  1  1  0  0  0
 11  5  2  0  0  0
  6 12  1  0  0  0
M  END
> <minimizedAffinity>
0.72747

> <CNNscore>
0.3016711771

> <CNNaffinity>
4.6232347488

> <CNN_VS>
1.3946967125

> <CNNaffinity_variance>
0.7208051682

$$$$
[H]c1nnc2c(c1-c1c([H])c([H])c(C#N)c(C([H])([H])[H])c1[H])n(Br)c(=O)n2[H]


 21 23  0  0  0  0  0  0  0  0999 V2000
   -8.7827   -6.9729    7.7791 C   0  0  0  0  0  0  0  0  0  0  0  0
   -9.4978   -5.9944    8.4914 C   0  0  0  0  0  0  0  0  0  0  0  0
  -10.7315   -6.2293    8.9088 N   0  0  0  0  0  0  0  0  0  0  0  0
  -11.3667   -7.3710    8.6932 N   0  0  0  0  0  0  0  0  0  0  0  0
  -10.7352   -8.3500    8.0173 C   0  0  0  0  0  0  0  0  0  0  0  0
  -11.1561   -9.5846    7.6917 N   0  0  0  0  0  0  0  0  0  0  0  0
  -10.1406  -10.1613    7.0383 C   0  0  0  0  0  0  0  0  0  0  0  0
  -10.1337  -11.3235    6.5652 O   0  0  0  0  0  0  0  0  0  0  0  0
   -9.0988   -9.2910    6.9593 N   0  0  0  0  0  0  0  0  0  0  0  0
   -7.4272   -9.7208    6.1407 Br  0  0  0  0  0  0  0  0  0  0  0  0
   -9.4401   -8.1569    7.5571 C   0  0  0  0  0  0  0  0  0  0  0  0
  -12.1093  -10.0069    7.9150 H   0  0  0  0  0  0  0  0  0  0  0  0
   -3.9896   -5.9560    8.5759 C   0  0  0  0  0  0  0  0  0  0  0  0
   -5.1436   -6.1147    7.6570 C   0  0  0  0  0  0  0  0  0  0  0  0
   -6.3741   -6.4996    8.1428 C   0  0  0  0  0  0  0  0  0  0  0  0
   -7.4469   -6.6468    7.2857 C   0  0  0  0  0  0  0  0  0  0  0  0
   -7.2557   -6.4019    5.9468 C   0  0  0  0  0  0  0  0  0  0  0  0
   -6.0088   -6.0153    5.4797 C   0  0  0  0  0  0  0  0  0  0  0  0
   -4.9268   -5.8630    6.3194 C   0  0  0  0  0  0  0  0  0  0  0  0
   -3.6271   -5.4573    5.8144 C   0  0  0  0  0  0  0  0  0  0  0  0
   -2.5946   -5.1156    5.4153 N   0  0  0  0  0  0  0  0  0  0  0  0
 13 14  1  0  0  0
 14 15  2  0  0  0
 15 16  1  0  0  0
 16 17  2  0  0  0
 17 18  1  0  0  0
 18 19  2  0  0  0
 19 20  1  0  0  0
 20 21  3  0  0  0
 16  1  1  0  0  0
  1  2  2  0  0  0
  2  3  1  0  0  0
  3  4  2  0  0  0
  4  5  1  0  0  0
  5  6  1  0  0  0
  6  7  1  0  0  0
  7  8  2  0  0  0
  7  9  1  0  0  0
  9 10  1  0  0  0
  9 11  1  0  0  0
 19 14  1  0  0  0
 11  1  1  0  0  0
 11  5  2  0  0  0
  6 12  1  0  0  0
M  END
> <minimizedAffinity>
-4.00499

> <CNNscore>
0.1882932037

> <CNNaffinity>
5.1350579262

> <CNN_VS>
0.9668965340

> <CNNaffinity_variance>
0.1315982342

$$$$
[H]c1nnc2c(c1-c1c([H])c([H])c(C#N)c(C([H])([H])[H])c1[H])n(Br)c(=O)n2[H]


 21 23  0  0  0  0  0  0  0  0999 V2000
  -12.9936   -6.6602    8.5709 C   0  0  0  0  0  0  0  0  0  0  0  0
  -13.8015   -5.9711    9.4920 C   0  0  0  0  0  0  0  0  0  0  0  0
  -13.2825   -5.4635   10.5986 N   0  0  0  0  0  0  0  0  0  0  0  0
  -11.9999   -5.5635   10.9120 N   0  0  0  0  0  0  0  0  0  0  0  0
  -11.1722   -6.2111   10.0697 C   0  0  0  0  0  0  0  0  0  0  0  0
   -9.8482   -6.4278   10.1566 N   0  0  0  0  0  0  0  0  0  0  0  0
   -9.5106   -7.1034    9.0519 C   0  0  0  0  0  0  0  0  0  0  0  0
   -8.3577   -7.4982    8.7527 O   0  0  0  0  0  0  0  0  0  0  0  0
  -10.6165   -7.3040    8.2865 N   0  0  0  0  0  0  0  0  0  0  0  0
  -10.5806   -8.1943    6.5969 Br  0  0  0  0  0  0  0  0  0  0  0  0
  -11.6638   -6.7623    8.8946 C   0  0  0  0  0  0  0  0  0  0  0  0
   -9.2078   -6.1185   10.9510 H   0  0  0  0  0  0  0  0  0  0  0  0
  -15.4237   -6.2332    4.2633 C   0  0  0  0  0  0  0  0  0  0  0  0
  -14.8288   -7.0671    5.3366 C   0  0  0  0  0  0  0  0  0  0  0  0
  -14.1743   -6.4776    6.3960 C   0  0  0  0  0  0  0  0  0  0  0  0
  -13.6211   -7.2558    7.3938 C   0  0  0  0  0  0  0  0  0  0  0  0
  -13.7394   -8.6221    7.3021 C   0  0  0  0  0  0  0  0  0  0  0  0
  -14.4025   -9.1941    6.2273 C   0  0  0  0  0  0  0  0  0  0  0  0
  -14.9610   -8.4343    5.2224 C   0  0  0  0  0  0  0  0  0  0  0  0
  -15.6524   -9.0488    4.1030 C   0  0  0  0  0  0  0  0  0  0  0  0
  -16.2203   -9.5386    3.2200 N   0  0  0  0  0  0  0  0  0  0  0  0
 13 14  1  0  0  0
 14 15  2  0  0  0
 15 16  1  0  0  0
 16 17  2  0  0  0
 17 18  1  0  0  0
 18 19  2  0  0  0
 19 20  1  0  0  0
 20 21  3  0  0  0
 16  1  1  0  0  0
  1  2  2  0  0  0
  2  3  1  0  0  0
  3  4  2  0  0  0
  4  5  1  0  0  0
  5  6  1  0  0  0
  6  7  1  0  0  0
  7  8  2  0  0  0
  7  9  1  0  0  0
  9 10  1  0  0  0
  9 11  1  0  0  0
 19 14  1  0  0  0
 11  1  1  0  0  0
 11  5  2  0  0  0
  6 12  1  0  0  0
M  END
> <minimizedAffinity>
-3.69561

> <CNNscore>
0.1535881162

> <CNNaffinity>
5.8385171890

> <CNN_VS>
0.8967268467

> <CNNaffinity_variance>
0.3982987106

$$$$
[H]c1nnc2c(c1-c1c([H])c([H])c(C#N)c(C([H])([H])[H])c1[H])n(Br)c(=O)n2[H]


 21 23  0  0  0  0  0  0  0  0999 V2000
   -4.3438   -5.4154    6.2572 C   0  0  0  0  0  0  0  0  0  0  0  0
   -5.3075   -6.4023    5.9866 C   0  0  0  0  0  0  0  0  0  0  0  0
   -5.9479   -7.0095    6.9729 N   0  0  0  0  0  0  0  0  0  0  0  0
   -5.7352   -6.7406    8.2518 N   0  0  0  0  0  0  0  0  0  0  0  0
   -4.8246   -5.8031    8.5775 C   0  0  0  0  0  0  0  0  0  0  0  0
   -4.4479   -5.3480    9.7851 N   0  0  0  0  0  0  0  0  0  0  0  0
   -3.5260   -4.4059    9.5543 C   0  0  0  0  0  0  0  0  0  0  0  0
   -2.9235   -3.7347   10.4267 O   0  0  0  0  0  0  0  0  0  0  0  0
   -3.3327   -4.2783    8.2144 N   0  0  0  0  0  0  0  0  0  0  0  0
   -2.1281   -3.0143    7.4397 Br  0  0  0  0  0  0  0  0  0  0  0  0
   -4.1244   -5.1351    7.5826 C   0  0  0  0  0  0  0  0  0  0  0  0
   -4.8169   -5.6794   10.7289 H   0  0  0  0  0  0  0  0  0  0  0  0
   -3.8166   -1.8604    2.8326 C   0  0  0  0  0  0  0  0  0  0  0  0
   -3.3749   -3.1318    3.4569 C   0  0  0  0  0  0  0  0  0  0  0  0
   -4.0319   -3.6323    4.5597 C   0  0  0  0  0  0  0  0  0  0  0  0
   -3.6190   -4.8159    5.1393 C   0  0  0  0  0  0  0  0  0  0  0  0
   -2.5443   -5.4749    4.5918 C   0  0  0  0  0  0  0  0  0  0  0  0
   -1.8982   -4.9533    3.4816 C   0  0  0  0  0  0  0  0  0  0  0  0
   -2.2956   -3.7741    2.8894 C   0  0  0  0  0  0  0  0  0  0  0  0
   -1.6081   -3.2409    1.7267 C   0  0  0  0  0  0  0  0  0  0  0  0
   -1.0714   -2.8006    0.7992 N   0  0  0  0  0  0  0  0  0  0  0  0
 13 14  1  0  0  0
 14 15  2  0  0  0
 15 16  1  0  0  0
 16 17  2  0  0  0
 17 18  1  0  0  0
 18 19  2  0  0  0
 19 20  1  0  0  0
 20 21  3  0  0  0
 16  1  1  0  0  0
  1  2  2  0  0  0
  2  3  1  0  0  0
  3  4  2  0  0  0
  4  5  1  0  0  0
  5  6  1  0  0  0
  6  7  1  0  0  0
  7  8  2  0  0  0
  7  9  1  0  0  0
  9 10  1  0  0  0
  9 11  1  0  0  0
 19 14  1  0  0  0
 11  1  1  0  0  0
 11  5  2  0  0  0
  6 12  1  0  0  0
M  END
> <minimizedAffinity>
-4.22829

> <CNNscore>
0.1366344839

> <CNNaffinity>
4.2209901810

> <CNN_VS>
0.5767328143

> <CNNaffinity_variance>
0.1633189470

$$$$
[H]c1nnc2c(c1-c1c([H])c([H])c(C#N)c(C([H])([H])[H])c1[H])n(Br)c(=O)n2[H]


 21 23  0  0  0  0  0  0  0  0999 V2000
  -15.0584   -7.5941    7.7780 C   0  0  0  0  0  0  0  0  0  0  0  0
  -16.4299   -7.2936    7.7106 C   0  0  0  0  0  0  0  0  0  0  0  0
  -17.1471   -7.6436    6.6548 N   0  0  0  0  0  0  0  0  0  0  0  0
  -16.6412   -8.2850    5.6127 N   0  0  0  0  0  0  0  0  0  0  0  0
  -15.3325   -8.6034    5.6166 C   0  0  0  0  0  0  0  0  0  0  0  0
  -14.6002   -9.2571    4.6979 N   0  0  0  0  0  0  0  0  0  0  0  0
  -13.3598   -9.3269    5.1951 C   0  0  0  0  0  0  0  0  0  0  0  0
  -12.3717   -9.8641    4.6386 O   0  0  0  0  0  0  0  0  0  0  0  0
  -13.3235   -8.7212    6.4120 N   0  0  0  0  0  0  0  0  0  0  0  0
  -11.7529   -8.6269    7.4952 Br  0  0  0  0  0  0  0  0  0  0  0  0
  -14.5341   -8.2605    6.6988 C   0  0  0  0  0  0  0  0  0  0  0  0
  -14.9495   -9.6378    3.7653 H   0  0  0  0  0  0  0  0  0  0  0  0
  -12.5433   -4.0616   10.1945 C   0  0  0  0  0  0  0  0  0  0  0  0
  -13.0445   -5.4544   10.0933 C   0  0  0  0  0  0  0  0  0  0  0  0
  -13.8290   -5.8376    9.0274 C   0  0  0  0  0  0  0  0  0  0  0  0
  -14.2945   -7.1346    8.9353 C   0  0  0  0  0  0  0  0  0  0  0  0
  -13.9578   -8.0247    9.9270 C   0  0  0  0  0  0  0  0  0  0  0  0
  -13.1669   -7.6175   10.9905 C   0  0  0  0  0  0  0  0  0  0  0  0
  -12.6929   -6.3282   11.0995 C   0  0  0  0  0  0  0  0  0  0  0  0
  -11.8655   -5.9174   12.2199 C   0  0  0  0  0  0  0  0  0  0  0  0
  -11.2033   -5.5725   13.1058 N   0  0  0  0  0  0  0  0  0  0  0  0
 13 14  1  0  0  0
 14 15  2  0  0  0
 15 16  1  0  0  0
 16 17  2  0  0  0
 17 18  1  0  0  0
 18 19  2  0  0  0
 19 20  1  0  0  0
 20 21  3  0  0  0
 16  1  1  0  0  0
  1  2  2  0  0  0
  2  3  1  0  0  0
  3  4  2  0  0  0
  4  5  1  0  0  0
  5  6  1  0  0  0
  6  7  1  0  0  0
  7  8  2  0  0  0
  7  9  1  0  0  0
  9 10  1  0  0  0
  9 11  1  0  0  0
 19 14  1  0  0  0
 11  1  1  0  0  0
 11  5  2  0  0  0
  6 12  1  0  0  0
M  END
> <minimizedAffinity>
-2.06419

> <CNNscore>
0.1350702941

> <CNNaffinity>
5.6110396385

> <CNN_VS>
0.7578848004

> <CNNaffinity_variance>
0.2996747792

$$$$
[H]c1nnc2c(c1-c1c([H])c([H])c(C#N)c(C([H])([H])[H])c1[H])n(Br)c(=O)n2[H]


 21 23  0  0  0  0  0  0  0  0999 V2000
   -8.5325   -8.7809    7.6782 C   0  0  0  0  0  0  0  0  0  0  0  0
   -8.0547   -9.9416    8.3110 C   0  0  0  0  0  0  0  0  0  0  0  0
   -6.7808  -10.2875    8.2153 N   0  0  0  0  0  0  0  0  0  0  0  0
   -5.8863   -9.5861    7.5361 N   0  0  0  0  0  0  0  0  0  0  0  0
   -6.2808   -8.4620    6.9078 C   0  0  0  0  0  0  0  0  0  0  0  0
   -5.5685   -7.5843    6.1799 N   0  0  0  0  0  0  0  0  0  0  0  0
   -6.4309   -6.6355    5.7969 C   0  0  0  0  0  0  0  0  0  0  0  0
   -6.1579   -5.6300    5.0976 O   0  0  0  0  0  0  0  0  0  0  0  0
   -7.6678   -6.9228    6.2834 N   0  0  0  0  0  0  0  0  0  0  0  0
   -9.1932   -5.8065    6.0082 Br  0  0  0  0  0  0  0  0  0  0  0  0
   -7.6053   -8.0527    6.9757 C   0  0  0  0  0  0  0  0  0  0  0  0
   -4.5271   -7.6440    5.9595 H   0  0  0  0  0  0  0  0  0  0  0  0
  -12.3045   -6.1644    9.5676 C   0  0  0  0  0  0  0  0  0  0  0  0
  -11.7901   -7.2469    8.6930 C   0  0  0  0  0  0  0  0  0  0  0  0
  -10.4346   -7.4637    8.5755 C   0  0  0  0  0  0  0  0  0  0  0  0
   -9.9579   -8.4718    7.7608 C   0  0  0  0  0  0  0  0  0  0  0  0
  -10.8640   -9.2457    7.0758 C   0  0  0  0  0  0  0  0  0  0  0  0
  -12.2238   -9.0101    7.2091 C   0  0  0  0  0  0  0  0  0  0  0  0
  -12.7183   -8.0094    8.0172 C   0  0  0  0  0  0  0  0  0  0  0  0
  -14.1456   -7.7754    8.1460 C   0  0  0  0  0  0  0  0  0  0  0  0
  -15.2873   -7.6075    8.2484 N   0  0  0  0  0  0  0  0  0  0  0  0
 13 14  1  0  0  0
 14 15  2  0  0  0
 15 16  1  0  0  0
 16 17  2  0  0  0
 17 18  1  0  0  0
 18 19  2  0  0  0
 19 20  1  0  0  0
 20 21  3  0  0  0
 16  1  1  0  0  0
  1  2  2  0  0  0
  2  3  1  0  0  0
  3  4  2  0  0  0
  4  5  1  0  0  0
  5  6  1  0  0  0
  6  7  1  0  0  0
  7  8  2  0  0  0
  7  9  1  0  0  0
  9 10  1  0  0  0
  9 11  1  0  0  0
 19 14  1  0  0  0
 11  1  1  0  0  0
 11  5  2  0  0  0
  6 12  1  0  0  0
M  END
> <minimizedAffinity>
-3.35831

> <CNNscore>
0.1348873973

> <CNNaffinity>
5.3620786667

> <CNN_VS>
0.7232768536

> <CNNaffinity_variance>
0.1745944917

$$$$
[H]c1nc(-c2c([H])c([H])c(N3C([H])([H])C([H])([H])O[C@@]([H])(N(C([H])([H])[H])C([H])([H])[H])C3([H])[H])c([H])c2[H])c([H])c([H])c1N([H])C1([H])C([H])([H])OC([H])([H])C1([H])[H]


 28 31  0  0  0  0  0  0  0  0999 V2000
   -8.3860   -8.1337    7.4735 C   0  0  0  0  0  0  0  0  0  0  0  0
   -8.9148   -9.3795    7.2441 C   0  0  0  0  0  0  0  0  0  0  0  0
  -10.2815   -9.6555    7.3535 C   0  0  0  0  0  0  0  0  0  0  0  0
  -11.1481   -8.6493    7.7040 C   0  0  0  0  0  0  0  0  0  0  0  0
  -10.6481   -7.3875    7.9376 C   0  0  0  0  0  0  0  0  0  0  0  0
   -9.3055   -7.1532    7.8210 C   0  0  0  0  0  0  0  0  0  0  0  0
   -4.2738   -7.2593    7.4417 C   0  0  0  0  0  0  0  0  0  0  0  0
   -4.8258   -8.1141    6.5128 C   0  0  0  0  0  0  0  0  0  0  0  0
   -6.1684   -8.4367    6.4523 C   0  0  0  0  0  0  0  0  0  0  0  0
   -6.9640   -7.8259    7.4120 C   0  0  0  0  0  0  0  0  0  0  0  0
   -6.4372   -7.0024    8.3059 N   0  0  0  0  0  0  0  0  0  0  0  0
   -5.1068   -6.6803    8.3687 C   0  0  0  0  0  0  0  0  0  0  0  0
   -2.8735   -7.0374    7.4437 N   0  0  0  0  0  0  0  0  0  0  0  0
   -2.2627   -7.7917    7.8649 H   0  0  0  0  0  0  0  0  0  0  0  0
   -3.4511   -4.8865    5.0506 C   0  0  0  0  0  0  0  0  0  0  0  0
   -2.4273   -5.9327    5.3852 C   0  0  0  0  0  0  0  0  0  0  0  0
   -2.2769   -5.8199    6.8828 C   0  0  0  0  0  0  0  0  0  0  0  0
   -3.0462   -4.5783    7.2114 C   0  0  0  0  0  0  0  0  0  0  0  0
   -3.2543   -3.9161    5.9976 O   0  0  0  0  0  0  0  0  0  0  0  0
  -12.5509   -8.9150    7.8335 N   0  0  0  0  0  0  0  0  0  0  0  0
  -13.2434   -8.8025    9.1054 C   0  0  0  0  0  0  0  0  0  0  0  0
  -14.3864   -7.8534    8.9565 C   0  0  0  0  0  0  0  0  0  0  0  0
  -14.6770   -7.5128    7.6693 O   0  0  0  0  0  0  0  0  0  0  0  0
  -14.6742   -8.5686    6.7698 C   0  0  0  0  0  0  0  0  0  0  0  0
  -13.3510   -9.3109    6.7101 C   0  0  0  0  0  0  0  0  0  0  0  0
  -14.8750   -8.0060    5.4561 N   0  0  0  0  0  0  0  0  0  0  0  0
  -14.5643   -6.6123    5.4733 C   0  0  0  0  0  0  0  0  0  0  0  0
  -16.1488   -8.2588    4.8748 C   0  0  0  0  0  0  0  0  0  0  0  0
 15 16  1  0  0  0
 16 17  1  0  0  0
 17 18  1  0  0  0
 18 19  1  0  0  0
 17 13  1  0  0  0
 13  7  1  0  0  0
  7  8  2  0  0  0
  8  9  1  0  0  0
  9 10  2  0  0  0
 10 11  1  0  0  0
 11 12  2  0  0  0
 10  1  1  0  0  0
  1  2  2  0  0  0
  2  3  1  0  0  0
  3  4  2  0  0  0
  4  5  1  0  0  0
  5  6  2  0  0  0
  4 20  1  0  0  0
 20 21  1  0  0  0
 21 22  1  0  0  0
 22 23  1  0  0  0
 23 24  1  0  0  0
 24 25  1  0  0  0
 24 26  1  0  0  0
 26 27  1  0  0  0
 26 28  1  0  0  0
 19 15  1  0  0  0
 12  7  1  0  0  0
  6  1  1  0  0  0
 25 20  1  0  0  0
 13 14  1  0  0  0
M  END
> <minimizedAffinity>
-7.96177

> <CNNscore>
0.6305935979

> <CNNaffinity>
6.6239647865

> <CNN_VS>
4.1770296097

> <CNNaffinity_variance>
0.2616533041

$$$$
[H]c1nc(-c2c([H])c([H])c(N3C([H])([H])C([H])([H])O[C@@]([H])(N(C([H])([H])[H])C([H])([H])[H])C3([H])[H])c([H])c2[H])c([H])c([H])c1N([H])C1([H])C([H])([H])OC([H])([H])C1([H])[H]


 28 31  0  0  0  0  0  0  0  0999 V2000
   -8.5525   -8.0796    7.5826 C   0  0  0  0  0  0  0  0  0  0  0  0
   -9.4245   -7.1384    8.0706 C   0  0  0  0  0  0  0  0  0  0  0  0
  -10.7951   -7.3765    8.2146 C   0  0  0  0  0  0  0  0  0  0  0  0
  -11.3098   -8.5989    7.8580 C   0  0  0  0  0  0  0  0  0  0  0  0
  -10.4595   -9.5651    7.3679 C   0  0  0  0  0  0  0  0  0  0  0  0
   -9.1241   -9.2979    7.2409 C   0  0  0  0  0  0  0  0  0  0  0  0
   -4.4253   -7.4128    7.1387 C   0  0  0  0  0  0  0  0  0  0  0  0
   -5.0942   -8.2974    6.3213 C   0  0  0  0  0  0  0  0  0  0  0  0
   -6.4497   -8.5566    6.3983 C   0  0  0  0  0  0  0  0  0  0  0  0
   -7.1296   -7.8468    7.3786 C   0  0  0  0  0  0  0  0  0  0  0  0
   -6.4902   -6.9944    8.1655 N   0  0  0  0  0  0  0  0  0  0  0  0
   -5.1468   -6.7349    8.0919 C   0  0  0  0  0  0  0  0  0  0  0  0
   -3.0220   -7.2605    7.0056 N   0  0  0  0  0  0  0  0  0  0  0  0
   -2.4139   -8.0675    7.3189 H   0  0  0  0  0  0  0  0  0  0  0  0
   -1.3407   -6.3249    4.3627 C   0  0  0  0  0  0  0  0  0  0  0  0
   -1.1070   -6.4672    5.8391 C   0  0  0  0  0  0  0  0  0  0  0  0
   -2.4197   -6.0427    6.4515 C   0  0  0  0  0  0  0  0  0  0  0  0
   -3.1766   -5.4855    5.2862 C   0  0  0  0  0  0  0  0  0  0  0  0
   -2.2381   -5.2940    4.2674 O   0  0  0  0  0  0  0  0  0  0  0  0
  -12.7139   -8.8580    7.9864 N   0  0  0  0  0  0  0  0  0  0  0  0
  -13.4061   -8.7466    9.2585 C   0  0  0  0  0  0  0  0  0  0  0  0
  -14.5442   -7.7913    9.1129 C   0  0  0  0  0  0  0  0  0  0  0  0
  -14.8329   -7.4445    7.8269 O   0  0  0  0  0  0  0  0  0  0  0  0
  -14.8353   -8.4970    6.9236 C   0  0  0  0  0  0  0  0  0  0  0  0
  -13.5158   -9.2459    6.8613 C   0  0  0  0  0  0  0  0  0  0  0  0
  -15.0330   -7.9287    5.6119 N   0  0  0  0  0  0  0  0  0  0  0  0
  -14.5017   -8.8063    4.6186 C   0  0  0  0  0  0  0  0  0  0  0  0
  -14.5620   -6.5959    5.4496 C   0  0  0  0  0  0  0  0  0  0  0  0
 15 16  1  0  0  0
 16 17  1  0  0  0
 17 18  1  0  0  0
 18 19  1  0  0  0
 17 13  1  0  0  0
 13  7  1  0  0  0
  7  8  2  0  0  0
  8  9  1  0  0  0
  9 10  2  0  0  0
 10 11  1  0  0  0
 11 12  2  0  0  0
 10  1  1  0  0  0
  1  2  2  0  0  0
  2  3  1  0  0  0
  3  4  2  0  0  0
  4  5  1  0  0  0
  5  6  2  0  0  0
  4 20  1  0  0  0
 20 21  1  0  0  0
 21 22  1  0  0  0
 22 23  1  0  0  0
 23 24  1  0  0  0
 24 25  1  0  0  0
 24 26  1  0  0  0
 26 27  1  0  0  0
 26 28  1  0  0  0
 19 15  1  0  0  0
 12  7  1  0  0  0
  6  1  1  0  0  0
 25 20  1  0  0  0
 13 14  1  0  0  0
M  END
> <minimizedAffinity>
-7.86263

> <CNNscore>
0.6244321465

> <CNNaffinity>
6.7458372116

> <CNN_VS>
4.2123174667

> <CNNaffinity_variance>
0.2506854236

$$$$
[H]c1nc(-c2c([H])c([H])c(N3C([H])([H])C([H])([H])O[C@@]([H])(N(C([H])([H])[H])C([H])([H])[H])C3([H])[H])c([H])c2[H])c([H])c([H])c1N([H])C1([H])C([H])([H])OC([H])([H])C1([H])[H]


 28 31  0  0  0  0  0  0  0  0999 V2000
   -9.7512   -8.1582    7.5377 C   0  0  0  0  0  0  0  0  0  0  0  0
   -8.8681   -9.1905    7.7353 C   0  0  0  0  0  0  0  0  0  0  0  0
   -7.4835   -9.0033    7.7955 C   0  0  0  0  0  0  0  0  0  0  0  0
   -6.9657   -7.7392    7.6535 C   0  0  0  0  0  0  0  0  0  0  0  0
   -7.8265   -6.6822    7.4570 C   0  0  0  0  0  0  0  0  0  0  0  0
   -9.1755   -6.9018    7.4039 C   0  0  0  0  0  0  0  0  0  0  0  0
  -13.9215   -8.5168    7.1435 C   0  0  0  0  0  0  0  0  0  0  0  0
  -13.0897   -9.5870    6.8965 C   0  0  0  0  0  0  0  0  0  0  0  0
  -11.7135   -9.5483    7.0191 C   0  0  0  0  0  0  0  0  0  0  0  0
  -11.1932   -8.3271    7.4251 C   0  0  0  0  0  0  0  0  0  0  0  0
  -11.9898   -7.2962    7.6649 N   0  0  0  0  0  0  0  0  0  0  0  0
  -13.3543   -7.3310    7.5445 C   0  0  0  0  0  0  0  0  0  0  0  0
  -15.3176   -8.6531    6.9376 N   0  0  0  0  0  0  0  0  0  0  0  0
  -15.8166   -9.4128    7.4790 H   0  0  0  0  0  0  0  0  0  0  0  0
  -16.4284   -8.6859    3.8631 C   0  0  0  0  0  0  0  0  0  0  0  0
  -15.4032   -7.9419    4.6696 C   0  0  0  0  0  0  0  0  0  0  0  0
  -16.0585   -7.7806    6.0197 C   0  0  0  0  0  0  0  0  0  0  0  0
  -17.4635   -8.2361    5.7748 C   0  0  0  0  0  0  0  0  0  0  0  0
  -17.6251   -8.2720    4.3863 O   0  0  0  0  0  0  0  0  0  0  0  0
   -5.5484   -7.5285    7.6997 N   0  0  0  0  0  0  0  0  0  0  0  0
   -4.6718   -7.9362    6.6156 C   0  0  0  0  0  0  0  0  0  0  0  0
   -3.8928   -6.7522    6.1462 C   0  0  0  0  0  0  0  0  0  0  0  0
   -3.9754   -5.6606    6.9579 O   0  0  0  0  0  0  0  0  0  0  0  0
   -3.8665   -5.9303    8.3140 C   0  0  0  0  0  0  0  0  0  0  0  0
   -4.9145   -6.9031    8.8250 C   0  0  0  0  0  0  0  0  0  0  0  0
   -4.1006   -4.6894    9.0126 N   0  0  0  0  0  0  0  0  0  0  0  0
   -3.0874   -3.7428    8.6713 C   0  0  0  0  0  0  0  0  0  0  0  0
   -4.2650   -4.8065   10.4210 C   0  0  0  0  0  0  0  0  0  0  0  0
 15 16  1  0  0  0
 16 17  1  0  0  0
 17 18  1  0  0  0
 18 19  1  0  0  0
 17 13  1  0  0  0
 13  7  1  0  0  0
  7  8  2  0  0  0
  8  9  1  0  0  0
  9 10  2  0  0  0
 10 11  1  0  0  0
 11 12  2  0  0  0
 10  1  1  0  0  0
  1  2  2  0  0  0
  2  3  1  0  0  0
  3  4  2  0  0  0
  4  5  1  0  0  0
  5  6  2  0  0  0
  4 20  1  0  0  0
 20 21  1  0  0  0
 21 22  1  0  0  0
 22 23  1  0  0  0
 23 24  1  0  0  0
 24 25  1  0  0  0
 24 26  1  0  0  0
 26 27  1  0  0  0
 26 28  1  0  0  0
 19 15  1  0  0  0
 12  7  1  0  0  0
  6  1  1  0  0  0
 25 20  1  0  0  0
 13 14  1  0  0  0
M  END
> <minimizedAffinity>
-7.78610

> <CNNscore>
0.5955700278

> <CNNaffinity>
6.7738966942

> <CNN_VS>
4.0343298912

> <CNNaffinity_variance>
0.2278211415

$$$$
[H]c1nc(-c2c([H])c([H])c(N3C([H])([H])C([H])([H])O[C@@]([H])(N(C([H])([H])[H])C([H])([H])[H])C3([H])[H])c([H])c2[H])c([H])c([H])c1N([H])C1([H])C([H])([H])OC([H])([H])C1([H])[H]


 28 31  0  0  0  0  0  0  0  0999 V2000
   -8.4217   -7.6852    7.3988 C   0  0  0  0  0  0  0  0  0  0  0  0
   -8.8584   -8.9787    7.2557 C   0  0  0  0  0  0  0  0  0  0  0  0
  -10.1773   -9.3669    7.5125 C   0  0  0  0  0  0  0  0  0  0  0  0
  -11.0898   -8.4275    7.9260 C   0  0  0  0  0  0  0  0  0  0  0  0
  -10.6826   -7.1204    8.0759 C   0  0  0  0  0  0  0  0  0  0  0  0
   -9.3848   -6.7761    7.8155 C   0  0  0  0  0  0  0  0  0  0  0  0
   -4.4048   -6.5701    6.8543 C   0  0  0  0  0  0  0  0  0  0  0  0
   -5.3020   -6.5273    5.8097 C   0  0  0  0  0  0  0  0  0  0  0  0
   -6.6383   -6.8642    5.9165 C   0  0  0  0  0  0  0  0  0  0  0  0
   -7.0460   -7.2590    7.1833 C   0  0  0  0  0  0  0  0  0  0  0  0
   -6.1867   -7.3000    8.1905 N   0  0  0  0  0  0  0  0  0  0  0  0
   -4.8615   -6.9667    8.0883 C   0  0  0  0  0  0  0  0  0  0  0  0
   -3.0433   -6.2504    6.6214 N   0  0  0  0  0  0  0  0  0  0  0  0
   -2.7731   -5.2278    6.6470 H   0  0  0  0  0  0  0  0  0  0  0  0
   -1.5307   -8.6754    8.2083 C   0  0  0  0  0  0  0  0  0  0  0  0
   -1.1746   -7.3499    7.5992 C   0  0  0  0  0  0  0  0  0  0  0  0
   -2.0342   -7.2831    6.3603 C   0  0  0  0  0  0  0  0  0  0  0  0
   -2.6091   -8.6624    6.2680 C   0  0  0  0  0  0  0  0  0  0  0  0
   -1.8508   -9.4593    7.1312 O   0  0  0  0  0  0  0  0  0  0  0  0
  -12.4434   -8.8080    8.2062 N   0  0  0  0  0  0  0  0  0  0  0  0
  -13.0199   -8.6869    9.5340 C   0  0  0  0  0  0  0  0  0  0  0  0
  -14.2549   -7.8517    9.4555 C   0  0  0  0  0  0  0  0  0  0  0  0
  -14.6964   -7.6092    8.1892 O   0  0  0  0  0  0  0  0  0  0  0  0
  -14.6808   -8.7085    7.3436 C   0  0  0  0  0  0  0  0  0  0  0  0
  -13.3060   -9.3339    7.1872 C   0  0  0  0  0  0  0  0  0  0  0  0
  -15.0563   -8.2389    6.0317 N   0  0  0  0  0  0  0  0  0  0  0  0
  -14.2918   -7.0809    5.6945 C   0  0  0  0  0  0  0  0  0  0  0  0
  -16.4502   -8.0301    5.8368 C   0  0  0  0  0  0  0  0  0  0  0  0
 15 16  1  0  0  0
 16 17  1  0  0  0
 17 18  1  0  0  0
 18 19  1  0  0  0
 17 13  1  0  0  0
 13  7  1  0  0  0
  7  8  2  0  0  0
  8  9  1  0  0  0
  9 10  2  0  0  0
 10 11  1  0  0  0
 11 12  2  0  0  0
 10  1  1  0  0  0
  1  2  2  0  0  0
  2  3  1  0  0  0
  3  4  2  0  0  0
  4  5  1  0  0  0
  5  6  2  0  0  0
  4 20  1  0  0  0
 20 21  1  0  0  0
 21 22  1  0  0  0
 22 23  1  0  0  0
 23 24  1  0  0  0
 24 25  1  0  0  0
 24 26  1  0  0  0
 26 27  1  0  0  0
 26 28  1  0  0  0
 19 15  1  0  0  0
 12  7  1  0  0  0
  6  1  1  0  0  0
 25 20  1  0  0  0
 13 14  1  0  0  0
M  END
> <minimizedAffinity>
-7.59301

> <CNNscore>
0.5489419103

> <CNNaffinity>
6.5285515785

> <CNN_VS>
3.5837955475

> <CNNaffinity_variance>
0.1488381922

$$$$
[H]c1nc(-c2c([H])c([H])c(N3C([H])([H])C([H])([H])O[C@@]([H])(N(C([H])([H])[H])C([H])([H])[H])C3([H])[H])c([H])c2[H])c([H])c([H])c1N([H])C1([H])C([H])([H])OC([H])([H])C1([H])[H]


 28 31  0  0  0  0  0  0  0  0999 V2000
   -8.2706   -7.9313    7.2563 C   0  0  0  0  0  0  0  0  0  0  0  0
   -8.7802   -9.2022    7.1583 C   0  0  0  0  0  0  0  0  0  0  0  0
  -10.1143   -9.5088    7.4451 C   0  0  0  0  0  0  0  0  0  0  0  0
  -10.9670   -8.5084    7.8432 C   0  0  0  0  0  0  0  0  0  0  0  0
  -10.4860   -7.2222    7.9481 C   0  0  0  0  0  0  0  0  0  0  0  0
   -9.1754   -6.9583    7.6592 C   0  0  0  0  0  0  0  0  0  0  0  0
   -4.2553   -6.8432    6.6491 C   0  0  0  0  0  0  0  0  0  0  0  0
   -4.6394   -8.1663    6.6589 C   0  0  0  0  0  0  0  0  0  0  0  0
   -5.9400   -8.5984    6.8377 C   0  0  0  0  0  0  0  0  0  0  0  0
   -6.8771   -7.5887    7.0087 C   0  0  0  0  0  0  0  0  0  0  0  0
   -6.5120   -6.3154    6.9984 N   0  0  0  0  0  0  0  0  0  0  0  0
   -5.2237   -5.8834    6.8214 C   0  0  0  0  0  0  0  0  0  0  0  0
   -2.8837   -6.5133    6.5074 N   0  0  0  0  0  0  0  0  0  0  0  0
   -2.4628   -6.5912    5.5399 H   0  0  0  0  0  0  0  0  0  0  0  0
   -2.4728   -3.8546    8.3646 C   0  0  0  0  0  0  0  0  0  0  0  0
   -1.6867   -4.6414    7.3558 C   0  0  0  0  0  0  0  0  0  0  0  0
   -2.0668   -6.0734    7.6441 C   0  0  0  0  0  0  0  0  0  0  0  0
   -2.8383   -5.9718    8.9231 C   0  0  0  0  0  0  0  0  0  0  0  0
   -2.5724   -4.6994    9.4386 O   0  0  0  0  0  0  0  0  0  0  0  0
  -12.3349   -8.8047    8.1538 N   0  0  0  0  0  0  0  0  0  0  0  0
  -12.8701   -8.6603    9.4964 C   0  0  0  0  0  0  0  0  0  0  0  0
  -14.0508   -7.7474    9.4555 C   0  0  0  0  0  0  0  0  0  0  0  0
  -14.5065   -7.4649    8.2026 O   0  0  0  0  0  0  0  0  0  0  0  0
  -14.5816   -8.5546    7.3479 C   0  0  0  0  0  0  0  0  0  0  0  0
  -13.2538   -9.2647    7.1522 C   0  0  0  0  0  0  0  0  0  0  0  0
  -14.9582   -8.0492    6.0496 N   0  0  0  0  0  0  0  0  0  0  0  0
  -14.3750   -6.7621    5.8431 C   0  0  0  0  0  0  0  0  0  0  0  0
  -16.3550   -8.0487    5.7792 C   0  0  0  0  0  0  0  0  0  0  0  0
 15 16  1  0  0  0
 16 17  1  0  0  0
 17 18  1  0  0  0
 18 19  1  0  0  0
 17 13  1  0  0  0
 13  7  1  0  0  0
  7  8  2  0  0  0
  8  9  1  0  0  0
  9 10  2  0  0  0
 10 11  1  0  0  0
 11 12  2  0  0  0
 10  1  1  0  0  0
  1  2  2  0  0  0
  2  3  1  0  0  0
  3  4  2  0  0  0
  4  5  1  0  0  0
  5  6  2  0  0  0
  4 20  1  0  0  0
 20 21  1  0  0  0
 21 22  1  0  0  0
 22 23  1  0  0  0
 23 24  1  0  0  0
 24 25  1  0  0  0
 24 26  1  0  0  0
 26 27  1  0  0  0
 26 28  1  0  0  0
 19 15  1  0  0  0
 12  7  1  0  0  0
  6  1  1  0  0  0
 25 20  1  0  0  0
 13 14  1  0  0  0
M  END
> <minimizedAffinity>
-7.58890

> <CNNscore>
0.5177035332

> <CNNaffinity>
6.4533348083

> <CNN_VS>
3.3409142494

> <CNNaffinity_variance>
0.2050254047

$$$$
[H]c1nc(-c2c([H])c([H])c(N3C([H])([H])C([H])([H])O[C@@]([H])(N(C([H])([H])[H])C([H])([H])[H])C3([H])[H])c([H])c2[H])c([H])c([H])c1N([H])C1([H])C([H])([H])OC([H])([H])C1([H])[H]


 28 31  0  0  0  0  0  0  0  0999 V2000
   -9.3205   -8.3431    7.4847 C   0  0  0  0  0  0  0  0  0  0  0  0
  -10.2348   -7.3661    7.7909 C   0  0  0  0  0  0  0  0  0  0  0  0
  -11.6163   -7.5662    7.7055 C   0  0  0  0  0  0  0  0  0  0  0  0
  -12.0985   -8.7866    7.3001 C   0  0  0  0  0  0  0  0  0  0  0  0
  -11.2060   -9.7882    6.9888 C   0  0  0  0  0  0  0  0  0  0  0  0
   -9.8612   -9.5576    7.0840 C   0  0  0  0  0  0  0  0  0  0  0  0
   -5.1582   -7.7523    7.4452 C   0  0  0  0  0  0  0  0  0  0  0  0
   -5.9319   -7.2892    8.4869 C   0  0  0  0  0  0  0  0  0  0  0  0
   -7.3008   -7.4584    8.5755 C   0  0  0  0  0  0  0  0  0  0  0  0
   -7.8774   -8.1515    7.5200 C   0  0  0  0  0  0  0  0  0  0  0  0
   -7.1367   -8.5996    6.5174 N   0  0  0  0  0  0  0  0  0  0  0  0
   -5.7796   -8.4337    6.4263 C   0  0  0  0  0  0  0  0  0  0  0  0
   -3.7671   -7.4789    7.4308 N   0  0  0  0  0  0  0  0  0  0  0  0
   -3.2241   -7.6761    8.3172 H   0  0  0  0  0  0  0  0  0  0  0  0
   -2.3737   -4.6997    6.4200 C   0  0  0  0  0  0  0  0  0  0  0  0
   -3.5772   -5.5307    6.0797 C   0  0  0  0  0  0  0  0  0  0  0  0
   -3.0894   -6.9499    6.2418 C   0  0  0  0  0  0  0  0  0  0  0  0
   -1.6128   -6.7852    6.4265 C   0  0  0  0  0  0  0  0  0  0  0  0
   -1.3143   -5.4772    6.0323 O   0  0  0  0  0  0  0  0  0  0  0  0
  -13.5111   -9.0075    7.1942 N   0  0  0  0  0  0  0  0  0  0  0  0
  -14.3483   -9.2217    8.3617 C   0  0  0  0  0  0  0  0  0  0  0  0
  -15.4491   -8.2131    8.3646 C   0  0  0  0  0  0  0  0  0  0  0  0
  -15.5784   -7.5110    7.2038 O   0  0  0  0  0  0  0  0  0  0  0  0
  -15.4863   -8.2708    6.0471 C   0  0  0  0  0  0  0  0  0  0  0  0
  -14.1781   -9.0318    5.9239 C   0  0  0  0  0  0  0  0  0  0  0  0
  -15.5195   -7.3530    4.9339 N   0  0  0  0  0  0  0  0  0  0  0  0
  -15.2438   -8.0532    3.7203 C   0  0  0  0  0  0  0  0  0  0  0  0
  -14.7043   -6.1955    5.0760 C   0  0  0  0  0  0  0  0  0  0  0  0
 15 16  1  0  0  0
 16 17  1  0  0  0
 17 18  1  0  0  0
 18 19  1  0  0  0
 17 13  1  0  0  0
 13  7  1  0  0  0
  7  8  2  0  0  0
  8  9  1  0  0  0
  9 10  2  0  0  0
 10 11  1  0  0  0
 11 12  2  0  0  0
 10  1  1  0  0  0
  1  2  2  0  0  0
  2  3  1  0  0  0
  3  4  2  0  0  0
  4  5  1  0  0  0
  5  6  2  0  0  0
  4 20  1  0  0  0
 20 21  1  0  0  0
 21 22  1  0  0  0
 22 23  1  0  0  0
 23 24  1  0  0  0
 24 25  1  0  0  0
 24 26  1  0  0  0
 26 27  1  0  0  0
 26 28  1  0  0  0
 19 15  1  0  0  0
 12  7  1  0  0  0
  6  1  1  0  0  0
 25 20  1  0  0  0
 13 14  1  0  0  0
M  END
> <minimizedAffinity>
-7.71943

> <CNNscore>
0.5018059015

> <CNNaffinity>
6.7001123428

> <CNN_VS>
3.3621559143

> <CNNaffinity_variance>
0.1950777769

$$$$
[H]c1nc(-c2c([H])c([H])c(N3C([H])([H])C([H])([H])O[C@@]([H])(N(C([H])([H])[H])C([H])([H])[H])C3([H])[H])c([H])c2[H])c([H])c([H])c1N([H])C1([H])C([H])([H])OC([H])([H])C1([H])[H]


 28 31  0  0  0  0  0  0  0  0999 V2000
   -7.4443   -7.2604    7.3755 C   0  0  0  0  0  0  0  0  0  0  0  0
   -7.0422   -6.8800    6.1193 C   0  0  0  0  0  0  0  0  0  0  0  0
   -5.7425   -6.4474    5.8374 C   0  0  0  0  0  0  0  0  0  0  0  0
   -4.8138   -6.3945    6.8478 C   0  0  0  0  0  0  0  0  0  0  0  0
   -5.1861   -6.7728    8.1186 C   0  0  0  0  0  0  0  0  0  0  0  0
   -6.4661   -7.1912    8.3584 C   0  0  0  0  0  0  0  0  0  0  0  0
  -11.4081   -8.3156    8.2976 C   0  0  0  0  0  0  0  0  0  0  0  0
  -10.5770   -9.1890    7.6309 C   0  0  0  0  0  0  0  0  0  0  0  0
   -9.2609   -8.9179    7.3071 C   0  0  0  0  0  0  0  0  0  0  0  0
   -8.8008   -7.6716    7.7094 C   0  0  0  0  0  0  0  0  0  0  0  0
   -9.5964   -6.8296    8.3520 N   0  0  0  0  0  0  0  0  0  0  0  0
  -10.9014   -7.0950    8.6746 C   0  0  0  0  0  0  0  0  0  0  0  0
  -12.7584   -8.6772    8.5348 N   0  0  0  0  0  0  0  0  0  0  0  0
  -13.0927   -8.6749    9.5385 H   0  0  0  0  0  0  0  0  0  0  0  0
  -15.6821   -7.7873    7.3743 C   0  0  0  0  0  0  0  0  0  0  0  0
  -15.0619   -8.9872    8.0301 C   0  0  0  0  0  0  0  0  0  0  0  0
  -13.6717   -9.0365    7.4441 C   0  0  0  0  0  0  0  0  0  0  0  0
  -13.7235   -8.0119    6.3538 C   0  0  0  0  0  0  0  0  0  0  0  0
  -15.0777   -7.7320    6.1460 O   0  0  0  0  0  0  0  0  0  0  0  0
   -3.4798   -5.9420    6.5813 N   0  0  0  0  0  0  0  0  0  0  0  0
   -2.6546   -6.5393    5.5458 C   0  0  0  0  0  0  0  0  0  0  0  0
   -2.2066   -5.4721    4.6027 C   0  0  0  0  0  0  0  0  0  0  0  0
   -2.4393   -4.2002    5.0332 O   0  0  0  0  0  0  0  0  0  0  0  0
   -2.1318   -3.9680    6.3656 C   0  0  0  0  0  0  0  0  0  0  0  0
   -2.8826   -4.8717    7.3276 C   0  0  0  0  0  0  0  0  0  0  0  0
   -2.5560   -2.6225    6.6698 N   0  0  0  0  0  0  0  0  0  0  0  0
   -2.8463   -2.5095    8.0634 C   0  0  0  0  0  0  0  0  0  0  0  0
   -3.6171   -2.1230    5.8642 C   0  0  0  0  0  0  0  0  0  0  0  0
 15 16  1  0  0  0
 16 17  1  0  0  0
 17 18  1  0  0  0
 18 19  1  0  0  0
 17 13  1  0  0  0
 13  7  1  0  0  0
  7  8  2  0  0  0
  8  9  1  0  0  0
  9 10  2  0  0  0
 10 11  1  0  0  0
 11 12  2  0  0  0
 10  1  1  0  0  0
  1  2  2  0  0  0
  2  3  1  0  0  0
  3  4  2  0  0  0
  4  5  1  0  0  0
  5  6  2  0  0  0
  4 20  1  0  0  0
 20 21  1  0  0  0
 21 22  1  0  0  0
 22 23  1  0  0  0
 23 24  1  0  0  0
 24 25  1  0  0  0
 24 26  1  0  0  0
 26 27  1  0  0  0
 26 28  1  0  0  0
 19 15  1  0  0  0
 12  7  1  0  0  0
  6  1  1  0  0  0
 25 20  1  0  0  0
 13 14  1  0  0  0
M  END
> <minimizedAffinity>
-6.84309

> <CNNscore>
0.4338850677

> <CNNaffinity>
6.1721391678

> <CNN_VS>
2.6779990196

> <CNNaffinity_variance>
0.0927884355

$$$$
[H]c1nc(-c2c([H])c([H])c(N3C([H])([H])C([H])([H])O[C@@]([H])(N(C([H])([H])[H])C([H])([H])[H])C3([H])[H])c([H])c2[H])c([H])c([H])c1N([H])C1([H])C([H])([H])OC([H])([H])C1([H])[H]


 28 31  0  0  0  0  0  0  0  0999 V2000
   -7.8598   -8.2613    7.5617 C   0  0  0  0  0  0  0  0  0  0  0  0
   -7.1208   -8.6534    6.4734 C   0  0  0  0  0  0  0  0  0  0  0  0
   -5.7530   -8.3894    6.3502 C   0  0  0  0  0  0  0  0  0  0  0  0
   -5.1030   -7.7100    7.3513 C   0  0  0  0  0  0  0  0  0  0  0  0
   -5.8168   -7.3059    8.4577 C   0  0  0  0  0  0  0  0  0  0  0  0
   -7.1536   -7.5816    8.5452 C   0  0  0  0  0  0  0  0  0  0  0  0
  -12.0193   -8.7552    7.9221 C   0  0  0  0  0  0  0  0  0  0  0  0
  -11.2466   -9.6904    7.2692 C   0  0  0  0  0  0  0  0  0  0  0  0
   -9.8748   -9.6031    7.1242 C   0  0  0  0  0  0  0  0  0  0  0  0
   -9.2928   -8.4811    7.6982 C   0  0  0  0  0  0  0  0  0  0  0  0
  -10.0323   -7.5804    8.3281 N   0  0  0  0  0  0  0  0  0  0  0  0
  -11.3922   -7.6639    8.4738 C   0  0  0  0  0  0  0  0  0  0  0  0
  -13.4268   -8.9193    7.9686 N   0  0  0  0  0  0  0  0  0  0  0  0
  -13.7965   -9.8919    8.1603 H   0  0  0  0  0  0  0  0  0  0  0  0
  -15.8307   -8.0364    5.9366 C   0  0  0  0  0  0  0  0  0  0  0  0
  -14.4378   -7.5895    6.2755 C   0  0  0  0  0  0  0  0  0  0  0  0
  -14.3491   -7.7959    7.7681 C   0  0  0  0  0  0  0  0  0  0  0  0
  -15.7605   -8.1128    8.1541 C   0  0  0  0  0  0  0  0  0  0  0  0
  -16.5546   -7.7463    7.0631 O   0  0  0  0  0  0  0  0  0  0  0  0
   -3.7039   -7.4188    7.2379 N   0  0  0  0  0  0  0  0  0  0  0  0
   -2.7160   -8.4575    7.0030 C   0  0  0  0  0  0  0  0  0  0  0  0
   -1.9339   -8.1190    5.7771 C   0  0  0  0  0  0  0  0  0  0  0  0
   -2.1276   -6.8527    5.3122 O   0  0  0  0  0  0  0  0  0  0  0  0
   -2.1393   -5.8667    6.2876 C   0  0  0  0  0  0  0  0  0  0  0  0
   -3.1997   -6.0803    7.3532 C   0  0  0  0  0  0  0  0  0  0  0  0
   -2.4777   -4.6265    5.6318 N   0  0  0  0  0  0  0  0  0  0  0  0
   -3.6577   -4.0752    6.2174 C   0  0  0  0  0  0  0  0  0  0  0  0
   -2.5706   -4.6944    4.2137 C   0  0  0  0  0  0  0  0  0  0  0  0
 15 16  1  0  0  0
 16 17  1  0  0  0
 17 18  1  0  0  0
 18 19  1  0  0  0
 17 13  1  0  0  0
 13  7  1  0  0  0
  7  8  2  0  0  0
  8  9  1  0  0  0
  9 10  2  0  0  0
 10 11  1  0  0  0
 11 12  2  0  0  0
 10  1  1  0  0  0
  1  2  2  0  0  0
  2  3  1  0  0  0
  3  4  2  0  0  0
  4  5  1  0  0  0
  5  6  2  0  0  0
  4 20  1  0  0  0
 20 21  1  0  0  0
 21 22  1  0  0  0
 22 23  1  0  0  0
 23 24  1  0  0  0
 24 25  1  0  0  0
 24 26  1  0  0  0
 26 27  1  0  0  0
 26 28  1  0  0  0
 19 15  1  0  0  0
 12  7  1  0  0  0
  6  1  1  0  0  0
 25 20  1  0  0  0
 13 14  1  0  0  0
M  END
> <minimizedAffinity>
-7.68209

> <CNNscore>
0.4294224679

> <CNNaffinity>
6.2580442429

> <CNN_VS>
2.6873447895

> <CNNaffinity_variance>
0.0633671209

$$$$
[H]c1nc(-c2c([H])c([H])c(N3C([H])([H])C([H])([H])O[C@@]([H])(N(C([H])([H])[H])C([H])([H])[H])C3([H])[H])c([H])c2[H])c([H])c([H])c1N([H])C1([H])C([H])([H])OC([H])([H])C1([H])[H]


 28 31  0  0  0  0  0  0  0  0999 V2000
   -7.6756   -7.3823    7.2639 C   0  0  0  0  0  0  0  0  0  0  0  0
   -6.7023   -7.2643    8.2247 C   0  0  0  0  0  0  0  0  0  0  0  0
   -5.4421   -6.7165    7.9647 C   0  0  0  0  0  0  0  0  0  0  0  0
   -5.1467   -6.2713    6.6995 C   0  0  0  0  0  0  0  0  0  0  0  0
   -6.1038   -6.3733    5.7144 C   0  0  0  0  0  0  0  0  0  0  0  0
   -7.3262   -6.9142    6.0042 C   0  0  0  0  0  0  0  0  0  0  0  0
  -11.3729   -9.2567    7.9649 C   0  0  0  0  0  0  0  0  0  0  0  0
  -11.1437   -7.9616    8.3750 C   0  0  0  0  0  0  0  0  0  0  0  0
   -9.9614   -7.2765    8.1671 C   0  0  0  0  0  0  0  0  0  0  0  0
   -8.9796   -7.9890    7.4922 C   0  0  0  0  0  0  0  0  0  0  0  0
   -9.1967   -9.2339    7.0950 N   0  0  0  0  0  0  0  0  0  0  0  0
  -10.3674   -9.9160    7.2993 C   0  0  0  0  0  0  0  0  0  0  0  0
  -12.6074   -9.8813    8.2751 N   0  0  0  0  0  0  0  0  0  0  0  0
  -12.6805  -10.3767    9.2071 H   0  0  0  0  0  0  0  0  0  0  0  0
  -14.6421   -7.6900    6.9539 C   0  0  0  0  0  0  0  0  0  0  0  0
  -14.7135   -8.8329    7.9252 C   0  0  0  0  0  0  0  0  0  0  0  0
  -13.7507   -9.8466    7.3561 C   0  0  0  0  0  0  0  0  0  0  0  0
  -13.4126   -9.2804    6.0120 C   0  0  0  0  0  0  0  0  0  0  0  0
  -14.3674   -8.2919    5.7541 O   0  0  0  0  0  0  0  0  0  0  0  0
   -3.8562   -5.7181    6.4100 N   0  0  0  0  0  0  0  0  0  0  0  0
   -2.6415   -6.5106    6.4892 C   0  0  0  0  0  0  0  0  0  0  0  0
   -1.9309   -6.4470    5.1777 C   0  0  0  0  0  0  0  0  0  0  0  0
   -2.4109   -5.5054    4.3173 O   0  0  0  0  0  0  0  0  0  0  0  0
   -2.6858   -4.2735    4.8923 C   0  0  0  0  0  0  0  0  0  0  0  0
   -3.6922   -4.3449    6.0271 C   0  0  0  0  0  0  0  0  0  0  0  0
   -3.2948   -3.4560    3.8707 N   0  0  0  0  0  0  0  0  0  0  0  0
   -2.3067   -3.0478    2.9240 C   0  0  0  0  0  0  0  0  0  0  0  0
   -4.0591   -2.3551    4.3486 C   0  0  0  0  0  0  0  0  0  0  0  0
 15 16  1  0  0  0
 16 17  1  0  0  0
 17 18  1  0  0  0
 18 19  1  0  0  0
 17 13  1  0  0  0
 13  7  1  0  0  0
  7  8  2  0  0  0
  8  9  1  0  0  0
  9 10  2  0  0  0
 10 11  1  0  0  0
 11 12  2  0  0  0
 10  1  1  0  0  0
  1  2  2  0  0  0
  2  3  1  0  0  0
  3  4  2  0  0  0
  4  5  1  0  0  0
  5  6  2  0  0  0
  4 20  1  0  0  0
 20 21  1  0  0  0
 21 22  1  0  0  0
 22 23  1  0  0  0
 23 24  1  0  0  0
 24 25  1  0  0  0
 24 26  1  0  0  0
 26 27  1  0  0  0
 26 28  1  0  0  0
 19 15  1  0  0  0
 12  7  1  0  0  0
  6  1  1  0  0  0
 25 20  1  0  0  0
 13 14  1  0  0  0
M  END
> <minimizedAffinity>
-7.60548

> <CNNscore>
0.4249693453

> <CNNaffinity>
6.0741233826

> <CNN_VS>
2.5813162327

> <CNNaffinity_variance>
0.0229289047

$$$$
[H]N=C(N([H])[H])N([H])C([H])([H])C([H])([H])C([H])([H])[C@@]([H])(C(=O)N([H])[C@]([H])(C(=O)N([H])[H])C([H])([H])c1c([H])n([H])c2c([H])c([H])c([H])c([H])c12)N([H])C(=O)[C@@]([H])(N([H])C(=O)[C@@]([H])(N([H])C(=O)[C@]([H])(N([H])C(=O)[C@@]([H])(N([H])[H])C([H])([H])c1c(C([H])([H])[H])c([H])c(O[H])c([H])c1C([H])([H])[H])C([H])([H])c1c([H])c([H])c([H])c([H])c1[H])C([H])([H])c1c([H])c([H])c([H])c([H])c1[H])C([H])([H])C([H])([H])C([H])([H])N([H])C(=N[H])N([H])[H]


 92 96  0  0  0  0  0  0  0  0999 V2000
   -3.8344   -4.5832   10.5447 C   0  0  0  0  0  0  0  0  0  0  0  0
   -2.1569   -2.7534   11.2012 C   0  0  0  0  0  0  0  0  0  0  0  0
   -1.1920   -3.5191   11.1344 O   0  0  0  0  0  0  0  0  0  0  0  0
   -3.4207   -3.2947   10.8931 N   0  0  0  0  0  0  0  0  0  0  0  0
   -4.2319   -2.5690   10.9456 H   0  0  0  0  0  0  0  0  0  0  0  0
   -2.0428   -1.3378   11.6007 C   0  0  0  0  0  0  0  0  0  0  0  0
   -3.1452   -0.1327    9.5610 C   0  0  0  0  0  0  0  0  0  0  0  0
   -3.7435   -1.0375    8.9542 O   0  0  0  0  0  0  0  0  0  0  0  0
   -2.4287   -0.3141   10.7234 N   0  0  0  0  0  0  0  0  0  0  0  0
   -2.0342    0.6717   11.0921 H   0  0  0  0  0  0  0  0  0  0  0  0
   -3.2496    1.2344    8.9157 C   0  0  0  0  0  0  0  0  0  0  0  0
   -3.5841    1.3316    6.4703 C   0  0  0  0  0  0  0  0  0  0  0  0
   -4.8289    1.2722    6.7361 O   0  0  0  0  0  0  0  0  0  0  0  0
   -2.7098    1.3107    7.5932 N   0  0  0  0  0  0  0  0  0  0  0  0
   -1.6966    1.3504    7.4395 H   0  0  0  0  0  0  0  0  0  0  0  0
   -3.2411    1.4192    5.0560 C   0  0  0  0  0  0  0  0  0  0  0  0
   -1.9200    1.1073    4.6823 N   0  0  0  0  0  0  0  0  0  0  0  0
   -1.2450    0.9129    5.4331 H   0  0  0  0  0  0  0  0  0  0  0  0
   -1.5566    1.7983    3.9869 H   0  0  0  0  0  0  0  0  0  0  0  0
   -4.3416    0.7836    4.2569 C   0  0  0  0  0  0  0  0  0  0  0  0
   -4.1233   -1.9587    5.3939 C   0  0  0  0  0  0  0  0  0  0  0  0
   -3.8703   -1.6448    3.9603 C   0  0  0  0  0  0  0  0  0  0  0  0
   -3.5254   -2.7103    3.1061 C   0  0  0  0  0  0  0  0  0  0  0  0
   -3.3299   -2.5214    1.7529 C   0  0  0  0  0  0  0  0  0  0  0  0
   -2.9882   -3.5619    0.9015 O   0  0  0  0  0  0  0  0  0  0  0  0
   -3.4913   -1.2338    1.2868 C   0  0  0  0  0  0  0  0  0  0  0  0
   -3.8237   -0.1668    2.0645 C   0  0  0  0  0  0  0  0  0  0  0  0
   -4.0004    1.1997    1.5009 C   0  0  0  0  0  0  0  0  0  0  0  0
   -4.0177   -0.3901    3.4570 C   0  0  0  0  0  0  0  0  0  0  0  0
   -2.8559   -3.3555   -0.0882 H   0  0  0  0  0  0  0  0  0  0  0  0
   -2.3516    2.1610    9.7593 C   0  0  0  0  0  0  0  0  0  0  0  0
   -3.1297    3.1324   10.5381 C   0  0  0  0  0  0  0  0  0  0  0  0
   -4.4607    3.0102   10.8615 C   0  0  0  0  0  0  0  0  0  0  0  0
   -5.1491    3.9700   11.5922 C   0  0  0  0  0  0  0  0  0  0  0  0
   -4.4786    5.0982   12.0183 C   0  0  0  0  0  0  0  0  0  0  0  0
   -3.1490    5.2643   11.7199 C   0  0  0  0  0  0  0  0  0  0  0  0
   -2.4945    4.2868   10.9889 C   0  0  0  0  0  0  0  0  0  0  0  0
   -2.5657   -1.1292   12.9863 C   0  0  0  0  0  0  0  0  0  0  0  0
   -2.4995    0.2656   13.4768 C   0  0  0  0  0  0  0  0  0  0  0  0
   -1.3129    0.9590   13.4770 C   0  0  0  0  0  0  0  0  0  0  0  0
   -1.2470    2.2673   13.9419 C   0  0  0  0  0  0  0  0  0  0  0  0
   -2.4102    2.8605   14.4074 C   0  0  0  0  0  0  0  0  0  0  0  0
   -3.6198    2.1785   14.4175 C   0  0  0  0  0  0  0  0  0  0  0  0
   -3.6539    0.8865   13.9519 C   0  0  0  0  0  0  0  0  0  0  0  0
   -4.1293   -4.9775    9.1645 C   0  0  0  0  0  0  0  0  0  0  0  0
   -3.4753   -4.4277    8.2559 O   0  0  0  0  0  0  0  0  0  0  0  0
   -5.0988   -5.9345    8.8304 N   0  0  0  0  0  0  0  0  0  0  0  0
   -5.6280   -6.3131    9.7071 H   0  0  0  0  0  0  0  0  0  0  0  0
   -5.4954   -6.4979    7.5634 C   0  0  0  0  0  0  0  0  0  0  0  0
   -6.7525   -7.2345    7.5181 C   0  0  0  0  0  0  0  0  0  0  0  0
   -7.1652   -7.5918    6.3311 O   0  0  0  0  0  0  0  0  0  0  0  0
   -7.6201   -7.6411    8.5326 N   0  0  0  0  0  0  0  0  0  0  0  0
   -7.5296   -7.3840    9.5104 H   0  0  0  0  0  0  0  0  0  0  0  0
   -8.8130   -8.4778    8.2244 C   0  0  0  0  0  0  0  0  0  0  0  0
   -8.4658   -9.7837    7.7017 C   0  0  0  0  0  0  0  0  0  0  0  0
   -9.0943  -10.3477    6.5658 N   0  0  0  0  0  0  0  0  0  0  0  0
   -7.5613  -10.5106    8.2572 O   0  0  0  0  0  0  0  0  0  0  0  0
   -8.6368  -11.0858    6.0301 H   0  0  0  0  0  0  0  0  0  0  0  0
  -10.0429  -10.0110    6.2680 H   0  0  0  0  0  0  0  0  0  0  0  0
   -9.7566   -7.6558    7.4509 C   0  0  0  0  0  0  0  0  0  0  0  0
  -11.1448   -7.5850    7.8785 C   0  0  0  0  0  0  0  0  0  0  0  0
  -12.2127   -8.3285    7.3287 C   0  0  0  0  0  0  0  0  0  0  0  0
  -13.3505   -8.0019    7.9368 N   0  0  0  0  0  0  0  0  0  0  0  0
  -13.0826   -7.0883    8.8525 C   0  0  0  0  0  0  0  0  0  0  0  0
  -13.9071   -6.4462    9.7498 C   0  0  0  0  0  0  0  0  0  0  0  0
  -13.4245   -5.5269   10.6486 C   0  0  0  0  0  0  0  0  0  0  0  0
  -12.0630   -5.2128   10.6779 C   0  0  0  0  0  0  0  0  0  0  0  0
  -11.2702   -5.8641    9.7758 C   0  0  0  0  0  0  0  0  0  0  0  0
  -11.7234   -6.7978    8.8534 C   0  0  0  0  0  0  0  0  0  0  0  0
  -14.3019   -8.4229    7.7063 H   0  0  0  0  0  0  0  0  0  0  0  0
   -4.3433   -6.9747    6.7742 C   0  0  0  0  0  0  0  0  0  0  0  0
   -3.6485   -8.2280    7.1515 C   0  0  0  0  0  0  0  0  0  0  0  0
   -2.1735   -8.0246    6.7676 C   0  0  0  0  0  0  0  0  0  0  0  0
   -1.7784   -8.8282    5.6589 N   0  0  0  0  0  0  0  0  0  0  0  0
   -2.0956   -9.8041    5.6017 H   0  0  0  0  0  0  0  0  0  0  0  0
   -0.9463   -8.2488    4.6590 C   0  0  0  0  0  0  0  0  0  0  0  0
   -0.8222   -8.8607    3.3733 N   0  0  0  0  0  0  0  0  0  0  0  0
   -0.3024   -7.1736    4.9051 N   0  0  0  0  0  0  0  0  0  0  0  0
   -0.8279   -9.8823    3.2628 H   0  0  0  0  0  0  0  0  0  0  0  0
   -0.7222   -8.2228    2.5455 H   0  0  0  0  0  0  0  0  0  0  0  0
   -0.3889   -6.7274    5.8399 H   0  0  0  0  0  0  0  0  0  0  0  0
   -4.5837   -5.3023   11.6403 C   0  0  0  0  0  0  0  0  0  0  0  0
   -4.9050   -4.4776   12.8183 C   0  0  0  0  0  0  0  0  0  0  0  0
   -6.0808   -5.0086   13.5738 C   0  0  0  0  0  0  0  0  0  0  0  0
   -6.1509   -4.8485   14.9689 N   0  0  0  0  0  0  0  0  0  0  0  0
   -6.9965   -4.2706   15.3219 H   0  0  0  0  0  0  0  0  0  0  0  0
   -5.3111   -5.3005   15.9995 C   0  0  0  0  0  0  0  0  0  0  0  0
   -4.9696   -4.6085   17.1751 N   0  0  0  0  0  0  0  0  0  0  0  0
   -4.8043   -6.4996   15.8561 N   0  0  0  0  0  0  0  0  0  0  0  0
   -4.0250   -4.7903   17.6166 H   0  0  0  0  0  0  0  0  0  0  0  0
   -5.5464   -3.9141   17.6868 H   0  0  0  0  0  0  0  0  0  0  0  0
   -5.0072   -7.0802   15.0345 H   0  0  0  0  0  0  0  0  0  0  0  0
 21 22  1  0  0  0
 22 23  2  0  0  0
 23 24  1  0  0  0
 24 25  1  0  0  0
 24 26  2  0  0  0
 26 27  1  0  0  0
 27 28  1  0  0  0
 27 29  2  0  0  0
 29 20  1  0  0  0
 20 16  1  0  0  0
 16 17  1  0  0  0
 16 12  1  0  0  0
 12 13  2  0  0  0
 12 14  1  0  0  0
 14 11  1  0  0  0
 11 31  1  0  0  0
 31 32  1  0  0  0
 32 33  2  0  0  0
 33 34  1  0  0  0
 34 35  2  0  0  0
 35 36  1  0  0  0
 36 37  2  0  0  0
 11  7  1  0  0  0
  7  8  2  0  0  0
  7  9  1  0  0  0
  9  6  1  0  0  0
  6 38  1  0  0  0
 38 39  1  0  0  0
 39 40  2  0  0  0
 40 41  1  0  0  0
 41 42  2  0  0  0
 42 43  1  0  0  0
 43 44  2  0  0  0
  6  2  1  0  0  0
  2  3  2  0  0  0
  2  4  1  0  0  0
  4  1  1  0  0  0
  1 82  1  0  0  0
 82 83  1  0  0  0
 83 84  1  0  0  0
 84 85  1  0  0  0
 85 87  1  0  0  0
 87 88  1  0  0  0
 87 89  2  0  0  0
  1 45  1  0  0  0
 45 46  2  0  0  0
 45 47  1  0  0  0
 47 49  1  0  0  0
 49 71  1  0  0  0
 71 72  1  0  0  0
 72 73  1  0  0  0
 73 74  1  0  0  0
 74 76  1  0  0  0
 76 77  1  0  0  0
 76 78  2  0  0  0
 49 50  1  0  0  0
 50 51  2  0  0  0
 50 52  1  0  0  0
 52 54  1  0  0  0
 54 60  1  0  0  0
 60 61  1  0  0  0
 61 62  2  0  0  0
 62 63  1  0  0  0
 63 64  1  0  0  0
 64 65  2  0  0  0
 65 66  1  0  0  0
 66 67  2  0  0  0
 67 68  1  0  0  0
 68 69  2  0  0  0
 54 55  1  0  0  0
 55 56  1  0  0  0
 55 57  2  0  0  0
 29 22  1  0  0  0
 37 32  1  0  0  0
 44 39  1  0  0  0
 69 61  1  0  0  0
 69 64  1  0  0  0
 25 30  1  0  0  0
 17 18  1  0  0  0
 17 19  1  0  0  0
 14 15  1  0  0  0
  9 10  1  0  0  0
  4  5  1  0  0  0
 85 86  1  0  0  0
 88 90  1  0  0  0
 88 91  1  0  0  0
 89 92  1  0  0  0
 47 48  1  0  0  0
 74 75  1  0  0  0
 77 79  1  0  0  0
 77 80  1  0  0  0
 78 81  1  0  0  0
 52 53  1  0  0  0
 63 70  1  0  0  0
 56 58  1  0  0  0
 56 59  1  0  0  0
M  END
> <minimizedAffinity>
-6.96203

> <CNNscore>
0.2602591217

> <CNNaffinity>
7.6519422531

> <CNN_VS>
1.9914877415

> <CNNaffinity_variance>
0.6164711118

$$$$
[H]N=C(N([H])[H])N([H])C([H])([H])C([H])([H])C([H])([H])[C@@]([H])(C(=O)N([H])[C@]([H])(C(=O)N([H])[H])C([H])([H])c1c([H])n([H])c2c([H])c([H])c([H])c([H])c12)N([H])C(=O)[C@@]([H])(N([H])C(=O)[C@@]([H])(N([H])C(=O)[C@]([H])(N([H])C(=O)[C@@]([H])(N([H])[H])C([H])([H])c1c(C([H])([H])[H])c([H])c(O[H])c([H])c1C([H])([H])[H])C([H])([H])c1c([H])c([H])c([H])c([H])c1[H])C([H])([H])c1c([H])c([H])c([H])c([H])c1[H])C([H])([H])C([H])([H])C([H])([H])N([H])C(=N[H])N([H])[H]


 92 96  0  0  0  0  0  0  0  0999 V2000
   -5.5515   -6.2446    7.0800 C   0  0  0  0  0  0  0  0  0  0  0  0
   -3.8678   -5.1308    5.4932 C   0  0  0  0  0  0  0  0  0  0  0  0
   -3.1804   -6.1506    5.3973 O   0  0  0  0  0  0  0  0  0  0  0  0
   -5.0189   -5.2135    6.3017 N   0  0  0  0  0  0  0  0  0  0  0  0
   -5.5997   -4.2920    6.3312 H   0  0  0  0  0  0  0  0  0  0  0  0
   -3.5279   -3.8581    4.8289 C   0  0  0  0  0  0  0  0  0  0  0  0
   -4.1110   -1.4521    5.6650 C   0  0  0  0  0  0  0  0  0  0  0  0
   -5.1138   -1.1303    5.0049 O   0  0  0  0  0  0  0  0  0  0  0  0
   -3.4644   -2.6640    5.5615 N   0  0  0  0  0  0  0  0  0  0  0  0
   -2.6237   -2.7184    6.3055 H   0  0  0  0  0  0  0  0  0  0  0  0
   -3.6190   -0.3862    6.6231 C   0  0  0  0  0  0  0  0  0  0  0  0
   -3.7638    1.9530    5.8429 C   0  0  0  0  0  0  0  0  0  0  0  0
   -4.9558    1.9268    6.2924 O   0  0  0  0  0  0  0  0  0  0  0  0
   -3.0193    0.7492    5.9927 N   0  0  0  0  0  0  0  0  0  0  0  0
   -2.0556    0.7101    5.6442 H   0  0  0  0  0  0  0  0  0  0  0  0
   -3.3379    3.2141    5.2483 C   0  0  0  0  0  0  0  0  0  0  0  0
   -2.4370    4.0115    5.9798 N   0  0  0  0  0  0  0  0  0  0  0  0
   -2.1892    3.7033    6.9288 H   0  0  0  0  0  0  0  0  0  0  0  0
   -2.7188    5.0178    5.9469 H   0  0  0  0  0  0  0  0  0  0  0  0
   -3.0146    2.9757    3.8018 C   0  0  0  0  0  0  0  0  0  0  0  0
   -5.4566    4.5410    3.1334 C   0  0  0  0  0  0  0  0  0  0  0  0
   -5.2174    3.1524    2.6514 C   0  0  0  0  0  0  0  0  0  0  0  0
   -6.1968    2.5664    1.8259 C   0  0  0  0  0  0  0  0  0  0  0  0
   -6.0321    1.3066    1.2867 C   0  0  0  0  0  0  0  0  0  0  0  0
   -6.9898    0.7178    0.4740 O   0  0  0  0  0  0  0  0  0  0  0  0
   -4.8573    0.6569    1.6013 C   0  0  0  0  0  0  0  0  0  0  0  0
   -3.8769    1.1734    2.3923 C   0  0  0  0  0  0  0  0  0  0  0  0
   -2.6205    0.4301    2.6839 C   0  0  0  0  0  0  0  0  0  0  0  0
   -4.0739    2.4740    2.9365 C   0  0  0  0  0  0  0  0  0  0  0  0
   -6.8080   -0.2168    0.1089 H   0  0  0  0  0  0  0  0  0  0  0  0
   -2.4739   -1.0416    7.4205 C   0  0  0  0  0  0  0  0  0  0  0  0
   -2.3123   -0.4475    8.7533 C   0  0  0  0  0  0  0  0  0  0  0  0
   -1.1205   -0.0360    9.3023 C   0  0  0  0  0  0  0  0  0  0  0  0
   -1.0269    0.5089   10.5764 C   0  0  0  0  0  0  0  0  0  0  0  0
   -2.1725    0.6492   11.3326 C   0  0  0  0  0  0  0  0  0  0  0  0
   -3.3855    0.2527   10.8269 C   0  0  0  0  0  0  0  0  0  0  0  0
   -3.4413   -0.2869    9.5525 C   0  0  0  0  0  0  0  0  0  0  0  0
   -2.3579   -4.0286    3.9130 C   0  0  0  0  0  0  0  0  0  0  0  0
   -2.6244   -3.7121    2.4919 C   0  0  0  0  0  0  0  0  0  0  0  0
   -3.7589   -3.0313    2.1203 C   0  0  0  0  0  0  0  0  0  0  0  0
   -4.0141   -2.7374    0.7860 C   0  0  0  0  0  0  0  0  0  0  0  0
   -3.0944   -3.1478   -0.1667 C   0  0  0  0  0  0  0  0  0  0  0  0
   -1.9420   -3.8378    0.1859 C   0  0  0  0  0  0  0  0  0  0  0  0
   -1.7170   -4.1141    1.5126 C   0  0  0  0  0  0  0  0  0  0  0  0
   -6.8293   -6.8932    6.7735 C   0  0  0  0  0  0  0  0  0  0  0  0
   -7.1298   -7.0352    5.5714 O   0  0  0  0  0  0  0  0  0  0  0  0
   -7.7114   -7.3555    7.7612 N   0  0  0  0  0  0  0  0  0  0  0  0
   -7.3553   -7.1390    8.7704 H   0  0  0  0  0  0  0  0  0  0  0  0
   -8.9666   -8.0605    7.6740 C   0  0  0  0  0  0  0  0  0  0  0  0
  -10.1612   -7.3688    8.1424 C   0  0  0  0  0  0  0  0  0  0  0  0
  -10.3830   -6.1912    7.6218 O   0  0  0  0  0  0  0  0  0  0  0  0
  -11.1388   -7.7396    9.0666 N   0  0  0  0  0  0  0  0  0  0  0  0
  -11.1015   -8.5710    9.6478 H   0  0  0  0  0  0  0  0  0  0  0  0
  -12.3300   -6.8772    9.3024 C   0  0  0  0  0  0  0  0  0  0  0  0
  -12.0505   -5.7569   10.1775 C   0  0  0  0  0  0  0  0  0  0  0  0
  -13.0164   -4.7729   10.4970 N   0  0  0  0  0  0  0  0  0  0  0  0
  -10.8905   -5.5932   10.7092 O   0  0  0  0  0  0  0  0  0  0  0  0
  -12.9190   -4.2005   11.3361 H   0  0  0  0  0  0  0  0  0  0  0  0
  -13.8420   -4.6220    9.8665 H   0  0  0  0  0  0  0  0  0  0  0  0
  -13.4628   -7.7514    9.6442 C   0  0  0  0  0  0  0  0  0  0  0  0
  -14.6333   -7.7587    8.7812 C   0  0  0  0  0  0  0  0  0  0  0  0
  -15.8711   -8.3699    9.0806 C   0  0  0  0  0  0  0  0  0  0  0  0
  -16.7130   -8.2072    8.0630 N   0  0  0  0  0  0  0  0  0  0  0  0
  -16.0927   -7.5231    7.1183 C   0  0  0  0  0  0  0  0  0  0  0  0
  -16.5325   -7.0881    5.8876 C   0  0  0  0  0  0  0  0  0  0  0  0
  -15.7272   -6.3617    5.0450 C   0  0  0  0  0  0  0  0  0  0  0  0
  -14.4198   -6.0393    5.4188 C   0  0  0  0  0  0  0  0  0  0  0  0
  -14.0111   -6.4851    6.6439 C   0  0  0  0  0  0  0  0  0  0  0  0
  -14.7969   -7.2214    7.5204 C   0  0  0  0  0  0  0  0  0  0  0  0
  -17.7131   -8.5746    8.0407 H   0  0  0  0  0  0  0  0  0  0  0  0
   -8.8180   -9.5073    7.9236 C   0  0  0  0  0  0  0  0  0  0  0  0
   -9.1319  -10.4845    6.8547 C   0  0  0  0  0  0  0  0  0  0  0  0
  -10.5591  -10.1544    6.3873 C   0  0  0  0  0  0  0  0  0  0  0  0
  -11.5367  -10.3930    7.3964 N   0  0  0  0  0  0  0  0  0  0  0  0
  -11.2340  -10.6037    8.3557 H   0  0  0  0  0  0  0  0  0  0  0  0
  -12.9139  -10.3348    7.0387 C   0  0  0  0  0  0  0  0  0  0  0  0
  -13.3216   -9.7133    5.8179 N   0  0  0  0  0  0  0  0  0  0  0  0
  -13.7982  -10.8399    7.8095 N   0  0  0  0  0  0  0  0  0  0  0  0
  -12.8381   -8.8842    5.4506 H   0  0  0  0  0  0  0  0  0  0  0  0
  -14.1379  -10.1376    5.3123 H   0  0  0  0  0  0  0  0  0  0  0  0
  -13.5051  -11.2906    8.6991 H   0  0  0  0  0  0  0  0  0  0  0  0
   -5.1373   -6.1926    8.5307 C   0  0  0  0  0  0  0  0  0  0  0  0
   -4.0652   -5.2292    8.8368 C   0  0  0  0  0  0  0  0  0  0  0  0
   -2.7756   -5.9086    9.1694 C   0  0  0  0  0  0  0  0  0  0  0  0
   -2.1251   -6.6949    8.2023 N   0  0  0  0  0  0  0  0  0  0  0  0
   -1.6044   -6.1373    7.4331 H   0  0  0  0  0  0  0  0  0  0  0  0
   -2.0321   -8.0872    8.0459 C   0  0  0  0  0  0  0  0  0  0  0  0
   -1.2700   -8.9754    8.8255 N   0  0  0  0  0  0  0  0  0  0  0  0
   -2.7421   -8.6149    7.0801 N   0  0  0  0  0  0  0  0  0  0  0  0
   -0.8931   -9.8550    8.3732 H   0  0  0  0  0  0  0  0  0  0  0  0
   -1.0182   -8.8765    9.8272 H   0  0  0  0  0  0  0  0  0  0  0  0
   -3.3351   -8.0436    6.4675 H   0  0  0  0  0  0  0  0  0  0  0  0
 21 22  1  0  0  0
 22 23  2  0  0  0
 23 24  1  0  0  0
 24 25  1  0  0  0
 24 26  2  0  0  0
 26 27  1  0  0  0
 27 28  1  0  0  0
 27 29  2  0  0  0
 29 20  1  0  0  0
 20 16  1  0  0  0
 16 17  1  0  0  0
 16 12  1  0  0  0
 12 13  2  0  0  0
 12 14  1  0  0  0
 14 11  1  0  0  0
 11 31  1  0  0  0
 31 32  1  0  0  0
 32 33  2  0  0  0
 33 34  1  0  0  0
 34 35  2  0  0  0
 35 36  1  0  0  0
 36 37  2  0  0  0
 11  7  1  0  0  0
  7  8  2  0  0  0
  7  9  1  0  0  0
  9  6  1  0  0  0
  6 38  1  0  0  0
 38 39  1  0  0  0
 39 40  2  0  0  0
 40 41  1  0  0  0
 41 42  2  0  0  0
 42 43  1  0  0  0
 43 44  2  0  0  0
  6  2  1  0  0  0
  2  3  2  0  0  0
  2  4  1  0  0  0
  4  1  1  0  0  0
  1 82  1  0  0  0
 82 83  1  0  0  0
 83 84  1  0  0  0
 84 85  1  0  0  0
 85 87  1  0  0  0
 87 88  1  0  0  0
 87 89  2  0  0  0
  1 45  1  0  0  0
 45 46  2  0  0  0
 45 47  1  0  0  0
 47 49  1  0  0  0
 49 71  1  0  0  0
 71 72  1  0  0  0
 72 73  1  0  0  0
 73 74  1  0  0  0
 74 76  1  0  0  0
 76 77  1  0  0  0
 76 78  2  0  0  0
 49 50  1  0  0  0
 50 51  2  0  0  0
 50 52  1  0  0  0
 52 54  1  0  0  0
 54 60  1  0  0  0
 60 61  1  0  0  0
 61 62  2  0  0  0
 62 63  1  0  0  0
 63 64  1  0  0  0
 64 65  2  0  0  0
 65 66  1  0  0  0
 66 67  2  0  0  0
 67 68  1  0  0  0
 68 69  2  0  0  0
 54 55  1  0  0  0
 55 56  1  0  0  0
 55 57  2  0  0  0
 29 22  1  0  0  0
 37 32  1  0  0  0
 44 39  1  0  0  0
 69 61  1  0  0  0
 69 64  1  0  0  0
 25 30  1  0  0  0
 17 18  1  0  0  0
 17 19  1  0  0  0
 14 15  1  0  0  0
  9 10  1  0  0  0
  4  5  1  0  0  0
 85 86  1  0  0  0
 88 90  1  0  0  0
 88 91  1  0  0  0
 89 92  1  0  0  0
 47 48  1  0  0  0
 74 75  1  0  0  0
 77 79  1  0  0  0
 77 80  1  0  0  0
 78 81  1  0  0  0
 52 53  1  0  0  0
 63 70  1  0  0  0
 56 58  1  0  0  0
 56 59  1  0  0  0
M  END
> <minimizedAffinity>
-7.28405

> <CNNscore>
0.2467987686

> <CNNaffinity>
8.0014438629

> <CNN_VS>
1.9747464657

> <CNNaffinity_variance>
0.1817186773

$$$$
[H]N=C(N([H])[H])N([H])C([H])([H])C([H])([H])C([H])([H])[C@@]([H])(C(=O)N([H])[C@]([H])(C(=O)N([H])[H])C([H])([H])c1c([H])n([H])c2c([H])c([H])c([H])c([H])c12)N([H])C(=O)[C@@]([H])(N([H])C(=O)[C@@]([H])(N([H])C(=O)[C@]([H])(N([H])C(=O)[C@@]([H])(N([H])[H])C([H])([H])c1c(C([H])([H])[H])c([H])c(O[H])c([H])c1C([H])([H])[H])C([H])([H])c1c([H])c([H])c([H])c([H])c1[H])C([H])([H])c1c([H])c([H])c([H])c([H])c1[H])C([H])([H])C([H])([H])C([H])([H])N([H])C(=N[H])N([H])[H]


 92 96  0  0  0  0  0  0  0  0999 V2000
   -3.3981   -3.3016    4.1286 C   0  0  0  0  0  0  0  0  0  0  0  0
   -4.4199   -1.0198    4.7139 C   0  0  0  0  0  0  0  0  0  0  0  0
   -5.5767   -1.4396    4.6276 O   0  0  0  0  0  0  0  0  0  0  0  0
   -3.3870   -1.9501    4.4835 N   0  0  0  0  0  0  0  0  0  0  0  0
   -2.3876   -1.5307    4.5957 H   0  0  0  0  0  0  0  0  0  0  0  0
   -4.0874    0.3846    5.0197 C   0  0  0  0  0  0  0  0  0  0  0  0
   -4.1359    1.8604    2.8639 C   0  0  0  0  0  0  0  0  0  0  0  0
   -3.3483    1.2959    2.0855 O   0  0  0  0  0  0  0  0  0  0  0  0
   -4.4365    1.4118    4.1311 N   0  0  0  0  0  0  0  0  0  0  0  0
   -5.2148    2.0728    4.6007 H   0  0  0  0  0  0  0  0  0  0  0  0
   -4.7649    3.1253    2.3159 C   0  0  0  0  0  0  0  0  0  0  0  0
   -6.4915    2.9126    0.5624 C   0  0  0  0  0  0  0  0  0  0  0  0
   -7.3225    2.8413    1.5257 O   0  0  0  0  0  0  0  0  0  0  0  0
   -5.1253    3.0597    0.9332 N   0  0  0  0  0  0  0  0  0  0  0  0
   -4.4109    3.1167    0.1996 H   0  0  0  0  0  0  0  0  0  0  0  0
   -7.0647    2.8399   -0.7762 C   0  0  0  0  0  0  0  0  0  0  0  0
   -6.4858    3.6391   -1.7804 N   0  0  0  0  0  0  0  0  0  0  0  0
   -5.7425    4.2922   -1.5011 H   0  0  0  0  0  0  0  0  0  0  0  0
   -7.2232    4.0978   -2.3627 H   0  0  0  0  0  0  0  0  0  0  0  0
   -7.3114    1.3979   -1.1130 C   0  0  0  0  0  0  0  0  0  0  0  0
  -10.2243    1.6411   -0.5505 C   0  0  0  0  0  0  0  0  0  0  0  0
   -9.6794    1.1523   -1.8474 C   0  0  0  0  0  0  0  0  0  0  0  0
  -10.5988    0.8047   -2.8563 C   0  0  0  0  0  0  0  0  0  0  0  0
  -10.1831    0.3975   -4.1078 C   0  0  0  0  0  0  0  0  0  0  0  0
  -11.0782    0.0507   -5.1092 O   0  0  0  0  0  0  0  0  0  0  0  0
   -8.8204    0.3510   -4.3132 C   0  0  0  0  0  0  0  0  0  0  0  0
   -7.8867    0.6751   -3.3768 C   0  0  0  0  0  0  0  0  0  0  0  0
   -6.4266    0.6212   -3.6623 C   0  0  0  0  0  0  0  0  0  0  0  0
   -8.3435    1.0902   -2.0940 C   0  0  0  0  0  0  0  0  0  0  0  0
  -10.7063   -0.2440   -6.0118 H   0  0  0  0  0  0  0  0  0  0  0  0
   -3.6614    4.1998    2.3824 C   0  0  0  0  0  0  0  0  0  0  0  0
   -3.3318    4.5749    3.7631 C   0  0  0  0  0  0  0  0  0  0  0  0
   -2.0708    4.5644    4.3115 C   0  0  0  0  0  0  0  0  0  0  0  0
   -1.8207    4.9185    5.6309 C   0  0  0  0  0  0  0  0  0  0  0  0
   -2.8750    5.2999    6.4352 C   0  0  0  0  0  0  0  0  0  0  0  0
   -4.1520    5.3262    5.9322 C   0  0  0  0  0  0  0  0  0  0  0  0
   -4.3643    4.9662    4.6117 C   0  0  0  0  0  0  0  0  0  0  0  0
   -4.4255    0.7176    6.4381 C   0  0  0  0  0  0  0  0  0  0  0  0
   -3.3453    1.3848    7.1987 C   0  0  0  0  0  0  0  0  0  0  0  0
   -3.6298    2.1628    8.2953 C   0  0  0  0  0  0  0  0  0  0  0  0
   -2.6176    2.7947    9.0083 C   0  0  0  0  0  0  0  0  0  0  0  0
   -1.3082    2.6219    8.5872 C   0  0  0  0  0  0  0  0  0  0  0  0
   -0.9977    1.8412    7.4815 C   0  0  0  0  0  0  0  0  0  0  0  0
   -2.0193    1.2293    6.7966 C   0  0  0  0  0  0  0  0  0  0  0  0
   -3.2860   -4.3826    5.1116 C   0  0  0  0  0  0  0  0  0  0  0  0
   -2.4358   -5.2697    4.8982 O   0  0  0  0  0  0  0  0  0  0  0  0
   -4.0810   -4.4564    6.2649 N   0  0  0  0  0  0  0  0  0  0  0  0
   -4.8108   -3.6461    6.3187 H   0  0  0  0  0  0  0  0  0  0  0  0
   -4.0895   -5.3860    7.3675 C   0  0  0  0  0  0  0  0  0  0  0  0
   -5.2590   -6.2435    7.5161 C   0  0  0  0  0  0  0  0  0  0  0  0
   -5.0588   -7.3873    8.1149 O   0  0  0  0  0  0  0  0  0  0  0  0
   -6.5879   -6.0659    7.1290 N   0  0  0  0  0  0  0  0  0  0  0  0
   -6.9303   -5.2905    6.5706 H   0  0  0  0  0  0  0  0  0  0  0  0
   -7.6264   -7.0713    7.4880 C   0  0  0  0  0  0  0  0  0  0  0  0
   -7.3534   -8.3842    6.9394 C   0  0  0  0  0  0  0  0  0  0  0  0
   -6.7399   -8.5767    5.6785 N   0  0  0  0  0  0  0  0  0  0  0  0
   -7.6674   -9.4568    7.5765 O   0  0  0  0  0  0  0  0  0  0  0  0
   -6.2698   -9.4548    5.4566 H   0  0  0  0  0  0  0  0  0  0  0  0
   -6.7684   -7.8143    4.9576 H   0  0  0  0  0  0  0  0  0  0  0  0
   -8.9454   -6.4758    7.2235 C   0  0  0  0  0  0  0  0  0  0  0  0
  -10.0486   -6.7787    8.1213 C   0  0  0  0  0  0  0  0  0  0  0  0
  -10.4309   -6.0087    9.2421 C   0  0  0  0  0  0  0  0  0  0  0  0
  -11.4626   -6.5842    9.8548 N   0  0  0  0  0  0  0  0  0  0  0  0
  -11.7739   -7.6852    9.1946 C   0  0  0  0  0  0  0  0  0  0  0  0
  -12.7665   -8.6147    9.4142 C   0  0  0  0  0  0  0  0  0  0  0  0
  -12.9409   -9.6982    8.5886 C   0  0  0  0  0  0  0  0  0  0  0  0
  -12.1034   -9.8903    7.4864 C   0  0  0  0  0  0  0  0  0  0  0  0
  -11.1278   -8.9534    7.2946 C   0  0  0  0  0  0  0  0  0  0  0  0
  -10.9221   -7.8473    8.1083 C   0  0  0  0  0  0  0  0  0  0  0  0
  -11.9392   -6.1999   10.7270 H   0  0  0  0  0  0  0  0  0  0  0  0
   -3.4297   -4.8399    8.5691 C   0  0  0  0  0  0  0  0  0  0  0  0
   -4.1309   -4.8502    9.8745 C   0  0  0  0  0  0  0  0  0  0  0  0
   -3.8057   -3.5020   10.5386 C   0  0  0  0  0  0  0  0  0  0  0  0
   -3.8040   -3.5768   11.9619 N   0  0  0  0  0  0  0  0  0  0  0  0
   -3.3949   -2.8092   12.5093 H   0  0  0  0  0  0  0  0  0  0  0  0
   -4.3712   -4.7248   12.5848 C   0  0  0  0  0  0  0  0  0  0  0  0
   -3.5315   -5.7326   13.1524 N   0  0  0  0  0  0  0  0  0  0  0  0
   -5.6397   -4.8626   12.6412 N   0  0  0  0  0  0  0  0  0  0  0  0
   -2.6327   -5.9860   12.7233 H   0  0  0  0  0  0  0  0  0  0  0  0
   -3.8721   -6.2059   14.0253 H   0  0  0  0  0  0  0  0  0  0  0  0
   -6.2531   -4.1325   12.2274 H   0  0  0  0  0  0  0  0  0  0  0  0
   -2.8655   -3.5745    2.7427 C   0  0  0  0  0  0  0  0  0  0  0  0
   -3.2405   -2.5771    1.7250 C   0  0  0  0  0  0  0  0  0  0  0  0
   -3.5045   -3.2030    0.3933 C   0  0  0  0  0  0  0  0  0  0  0  0
   -2.4394   -3.7229   -0.3630 N   0  0  0  0  0  0  0  0  0  0  0  0
   -2.0506   -4.6722   -0.0147 H   0  0  0  0  0  0  0  0  0  0  0  0
   -1.7755   -3.2269   -1.4965 C   0  0  0  0  0  0  0  0  0  0  0  0
   -2.0131   -2.0023   -2.1457 N   0  0  0  0  0  0  0  0  0  0  0  0
   -0.8247   -3.9790   -1.9920 N   0  0  0  0  0  0  0  0  0  0  0  0
   -1.8371   -1.9358   -3.1873 H   0  0  0  0  0  0  0  0  0  0  0  0
   -2.3529   -1.1194   -1.7194 H   0  0  0  0  0  0  0  0  0  0  0  0
   -0.5765   -4.8842   -1.5769 H   0  0  0  0  0  0  0  0  0  0  0  0
 21 22  1  0  0  0
 22 23  2  0  0  0
 23 24  1  0  0  0
 24 25  1  0  0  0
 24 26  2  0  0  0
 26 27  1  0  0  0
 27 28  1  0  0  0
 27 29  2  0  0  0
 29 20  1  0  0  0
 20 16  1  0  0  0
 16 17  1  0  0  0
 16 12  1  0  0  0
 12 13  2  0  0  0
 12 14  1  0  0  0
 14 11  1  0  0  0
 11 31  1  0  0  0
 31 32  1  0  0  0
 32 33  2  0  0  0
 33 34  1  0  0  0
 34 35  2  0  0  0
 35 36  1  0  0  0
 36 37  2  0  0  0
 11  7  1  0  0  0
  7  8  2  0  0  0
  7  9  1  0  0  0
  9  6  1  0  0  0
  6 38  1  0  0  0
 38 39  1  0  0  0
 39 40  2  0  0  0
 40 41  1  0  0  0
 41 42  2  0  0  0
 42 43  1  0  0  0
 43 44  2  0  0  0
  6  2  1  0  0  0
  2  3  2  0  0  0
  2  4  1  0  0  0
  4  1  1  0  0  0
  1 82  1  0  0  0
 82 83  1  0  0  0
 83 84  1  0  0  0
 84 85  1  0  0  0
 85 87  1  0  0  0
 87 88  1  0  0  0
 87 89  2  0  0  0
  1 45  1  0  0  0
 45 46  2  0  0  0
 45 47  1  0  0  0
 47 49  1  0  0  0
 49 71  1  0  0  0
 71 72  1  0  0  0
 72 73  1  0  0  0
 73 74  1  0  0  0
 74 76  1  0  0  0
 76 77  1  0  0  0
 76 78  2  0  0  0
 49 50  1  0  0  0
 50 51  2  0  0  0
 50 52  1  0  0  0
 52 54  1  0  0  0
 54 60  1  0  0  0
 60 61  1  0  0  0
 61 62  2  0  0  0
 62 63  1  0  0  0
 63 64  1  0  0  0
 64 65  2  0  0  0
 65 66  1  0  0  0
 66 67  2  0  0  0
 67 68  1  0  0  0
 68 69  2  0  0  0
 54 55  1  0  0  0
 55 56  1  0  0  0
 55 57  2  0  0  0
 29 22  1  0  0  0
 37 32  1  0  0  0
 44 39  1  0  0  0
 69 61  1  0  0  0
 69 64  1  0  0  0
 25 30  1  0  0  0
 17 18  1  0  0  0
 17 19  1  0  0  0
 14 15  1  0  0  0
  9 10  1  0  0  0
  4  5  1  0  0  0
 85 86  1  0  0  0
 88 90  1  0  0  0
 88 91  1  0  0  0
 89 92  1  0  0  0
 47 48  1  0  0  0
 74 75  1  0  0  0
 77 79  1  0  0  0
 77 80  1  0  0  0
 78 81  1  0  0  0
 52 53  1  0  0  0
 63 70  1  0  0  0
 56 58  1  0  0  0
 56 59  1  0  0  0
M  END
> <minimizedAffinity>
-7.13853

> <CNNscore>
0.2165233642

> <CNNaffinity>
7.3946404457

> <CNN_VS>
1.6011124849

> <CNNaffinity_variance>
0.5466434360

$$$$
[H]N=C(N([H])[H])N([H])C([H])([H])C([H])([H])C([H])([H])[C@@]([H])(C(=O)N([H])[C@]([H])(C(=O)N([H])[H])C([H])([H])c1c([H])n([H])c2c([H])c([H])c([H])c([H])c12)N([H])C(=O)[C@@]([H])(N([H])C(=O)[C@@]([H])(N([H])C(=O)[C@]([H])(N([H])C(=O)[C@@]([H])(N([H])[H])C([H])([H])c1c(C([H])([H])[H])c([H])c(O[H])c([H])c1C([H])([H])[H])C([H])([H])c1c([H])c([H])c([H])c([H])c1[H])C([H])([H])c1c([H])c([H])c([H])c([H])c1[H])C([H])([H])C([H])([H])C([H])([H])N([H])C(=N[H])N([H])[H]


 92 96  0  0  0  0  0  0  0  0999 V2000
   -5.2082   -6.3952    8.5039 C   0  0  0  0  0  0  0  0  0  0  0  0
   -4.5915   -5.3429    6.2444 C   0  0  0  0  0  0  0  0  0  0  0  0
   -5.4789   -5.9521    5.6417 O   0  0  0  0  0  0  0  0  0  0  0  0
   -4.4973   -5.5658    7.6325 N   0  0  0  0  0  0  0  0  0  0  0  0
   -3.7125   -4.9851    8.1165 H   0  0  0  0  0  0  0  0  0  0  0  0
   -3.6391   -4.4319    5.5815 C   0  0  0  0  0  0  0  0  0  0  0  0
   -3.9003   -1.8335    5.4890 C   0  0  0  0  0  0  0  0  0  0  0  0
   -4.5040   -1.6216    4.4234 O   0  0  0  0  0  0  0  0  0  0  0  0
   -3.5598   -3.0833    5.9578 N   0  0  0  0  0  0  0  0  0  0  0  0
   -3.0701   -2.9978    6.9659 H   0  0  0  0  0  0  0  0  0  0  0  0
   -3.5410   -0.5848    6.2685 C   0  0  0  0  0  0  0  0  0  0  0  0
   -2.3774   -0.1119    8.3954 C   0  0  0  0  0  0  0  0  0  0  0  0
   -1.6155    0.6359    7.6998 O   0  0  0  0  0  0  0  0  0  0  0  0
   -3.4091   -0.7814    7.6791 N   0  0  0  0  0  0  0  0  0  0  0  0
   -4.0495   -1.4013    8.1865 H   0  0  0  0  0  0  0  0  0  0  0  0
   -2.0832   -0.1649    9.8223 C   0  0  0  0  0  0  0  0  0  0  0  0
   -0.9606    0.5472   10.2861 N   0  0  0  0  0  0  0  0  0  0  0  0
   -0.3603    1.0006    9.5853 H   0  0  0  0  0  0  0  0  0  0  0  0
   -0.4146   -0.0233   10.9714 H   0  0  0  0  0  0  0  0  0  0  0  0
   -3.3652    0.0176   10.5819 C   0  0  0  0  0  0  0  0  0  0  0  0
   -2.6182   -0.9462   13.2973 C   0  0  0  0  0  0  0  0  0  0  0  0
   -3.0525    0.4502   13.0155 C   0  0  0  0  0  0  0  0  0  0  0  0
   -3.0936    1.3551   14.0941 C   0  0  0  0  0  0  0  0  0  0  0  0
   -3.4282    2.6821   13.9155 C   0  0  0  0  0  0  0  0  0  0  0  0
   -3.4740    3.5828   14.9696 O   0  0  0  0  0  0  0  0  0  0  0  0
   -3.7188    3.0700   12.6246 C   0  0  0  0  0  0  0  0  0  0  0  0
   -3.6951    2.2406   11.5451 C   0  0  0  0  0  0  0  0  0  0  0  0
   -4.0029    2.7211   10.1702 C   0  0  0  0  0  0  0  0  0  0  0  0
   -3.3483    0.8765   11.7585 C   0  0  0  0  0  0  0  0  0  0  0  0
   -3.7306    4.5495   14.7710 H   0  0  0  0  0  0  0  0  0  0  0  0
   -4.7486    0.3612    6.1161 C   0  0  0  0  0  0  0  0  0  0  0  0
   -4.3630    1.6761    5.5889 C   0  0  0  0  0  0  0  0  0  0  0  0
   -4.0207    1.9413    4.2836 C   0  0  0  0  0  0  0  0  0  0  0  0
   -3.6514    3.2060    3.8443 C   0  0  0  0  0  0  0  0  0  0  0  0
   -3.6242    4.2491    4.7471 C   0  0  0  0  0  0  0  0  0  0  0  0
   -3.9580    4.0330    6.0610 C   0  0  0  0  0  0  0  0  0  0  0  0
   -4.3210    2.7586    6.4639 C   0  0  0  0  0  0  0  0  0  0  0  0
   -2.2918   -5.0684    5.4520 C   0  0  0  0  0  0  0  0  0  0  0  0
   -1.8253   -5.2683    4.0616 C   0  0  0  0  0  0  0  0  0  0  0  0
   -2.1452   -4.3692    3.0727 C   0  0  0  0  0  0  0  0  0  0  0  0
   -1.7128   -4.5574    1.7652 C   0  0  0  0  0  0  0  0  0  0  0  0
   -0.9476   -5.6774    1.4790 C   0  0  0  0  0  0  0  0  0  0  0  0
   -0.6133   -6.5994    2.4621 C   0  0  0  0  0  0  0  0  0  0  0  0
   -1.0553   -6.3868    3.7453 C   0  0  0  0  0  0  0  0  0  0  0  0
   -6.3287   -7.2327    8.0676 C   0  0  0  0  0  0  0  0  0  0  0  0
   -6.0571   -8.2921    7.4681 O   0  0  0  0  0  0  0  0  0  0  0  0
   -7.6715   -6.8977    8.2960 N   0  0  0  0  0  0  0  0  0  0  0  0
   -7.7798   -5.9318    8.7934 H   0  0  0  0  0  0  0  0  0  0  0  0
   -8.8986   -7.5981    8.0066 C   0  0  0  0  0  0  0  0  0  0  0  0
  -10.1371   -7.0275    8.5219 C   0  0  0  0  0  0  0  0  0  0  0  0
  -10.2399   -5.7267    8.4563 O   0  0  0  0  0  0  0  0  0  0  0  0
  -11.2638   -7.6270    9.0862 N   0  0  0  0  0  0  0  0  0  0  0  0
  -11.3444   -8.6136    9.3107 H   0  0  0  0  0  0  0  0  0  0  0  0
  -12.4559   -6.8132    9.4533 C   0  0  0  0  0  0  0  0  0  0  0  0
  -12.1559   -5.7795   10.4231 C   0  0  0  0  0  0  0  0  0  0  0  0
  -12.5279   -4.4259   10.2420 N   0  0  0  0  0  0  0  0  0  0  0  0
  -11.5191   -6.0424   11.5096 O   0  0  0  0  0  0  0  0  0  0  0  0
  -12.6054   -3.7957   11.0408 H   0  0  0  0  0  0  0  0  0  0  0  0
  -12.7235   -4.0585    9.2785 H   0  0  0  0  0  0  0  0  0  0  0  0
  -13.5615   -7.7367    9.7520 C   0  0  0  0  0  0  0  0  0  0  0  0
  -14.7116   -7.7708    8.8626 C   0  0  0  0  0  0  0  0  0  0  0  0
  -15.9374   -8.4202    9.1292 C   0  0  0  0  0  0  0  0  0  0  0  0
  -16.7606   -8.2736    8.0939 N   0  0  0  0  0  0  0  0  0  0  0  0
  -16.1396   -7.5639    7.1690 C   0  0  0  0  0  0  0  0  0  0  0  0
  -16.5641   -7.1316    5.9319 C   0  0  0  0  0  0  0  0  0  0  0  0
  -15.7617   -6.3751    5.1135 C   0  0  0  0  0  0  0  0  0  0  0  0
  -14.4730   -6.0178    5.5193 C   0  0  0  0  0  0  0  0  0  0  0  0
  -14.0791   -6.4618    6.7499 C   0  0  0  0  0  0  0  0  0  0  0  0
  -14.8625   -7.2280    7.6026 C   0  0  0  0  0  0  0  0  0  0  0  0
  -17.7488   -8.6697    8.0462 H   0  0  0  0  0  0  0  0  0  0  0  0
   -8.7213   -9.0630    7.9951 C   0  0  0  0  0  0  0  0  0  0  0  0
   -9.0208   -9.8408    6.7698 C   0  0  0  0  0  0  0  0  0  0  0  0
  -10.3882  -10.5007    7.0129 C   0  0  0  0  0  0  0  0  0  0  0  0
  -11.4661   -9.7519    6.4574 N   0  0  0  0  0  0  0  0  0  0  0  0
  -11.2663   -8.9850    5.8030 H   0  0  0  0  0  0  0  0  0  0  0  0
  -12.7970  -10.0913    6.8334 C   0  0  0  0  0  0  0  0  0  0  0  0
  -13.0686  -10.6457    8.1225 N   0  0  0  0  0  0  0  0  0  0  0  0
  -13.7615   -9.9019    6.0179 N   0  0  0  0  0  0  0  0  0  0  0  0
  -12.4101  -11.2890    8.5792 H   0  0  0  0  0  0  0  0  0  0  0  0
  -13.9707  -10.3702    8.5833 H   0  0  0  0  0  0  0  0  0  0  0  0
  -13.5670   -9.5010    5.0788 H   0  0  0  0  0  0  0  0  0  0  0  0
   -5.2306   -5.9062    9.9320 C   0  0  0  0  0  0  0  0  0  0  0  0
   -4.0881   -5.0590   10.3169 C   0  0  0  0  0  0  0  0  0  0  0  0
   -4.0582   -4.7876   11.7867 C   0  0  0  0  0  0  0  0  0  0  0  0
   -5.2613   -4.6472   12.5006 N   0  0  0  0  0  0  0  0  0  0  0  0
   -5.8710   -3.8005   12.2089 H   0  0  0  0  0  0  0  0  0  0  0  0
   -5.8199   -5.4091   13.5394 C   0  0  0  0  0  0  0  0  0  0  0  0
   -7.0293   -5.1609   14.2125 N   0  0  0  0  0  0  0  0  0  0  0  0
   -5.1494   -6.4714   13.9099 N   0  0  0  0  0  0  0  0  0  0  0  0
   -7.1207   -5.4623   15.2230 H   0  0  0  0  0  0  0  0  0  0  0  0
   -7.8784   -4.7012   13.8323 H   0  0  0  0  0  0  0  0  0  0  0  0
   -4.2617   -6.7350   13.4673 H   0  0  0  0  0  0  0  0  0  0  0  0
 21 22  1  0  0  0
 22 23  2  0  0  0
 23 24  1  0  0  0
 24 25  1  0  0  0
 24 26  2  0  0  0
 26 27  1  0  0  0
 27 28  1  0  0  0
 27 29  2  0  0  0
 29 20  1  0  0  0
 20 16  1  0  0  0
 16 17  1  0  0  0
 16 12  1  0  0  0
 12 13  2  0  0  0
 12 14  1  0  0  0
 14 11  1  0  0  0
 11 31  1  0  0  0
 31 32  1  0  0  0
 32 33  2  0  0  0
 33 34  1  0  0  0
 34 35  2  0  0  0
 35 36  1  0  0  0
 36 37  2  0  0  0
 11  7  1  0  0  0
  7  8  2  0  0  0
  7  9  1  0  0  0
  9  6  1  0  0  0
  6 38  1  0  0  0
 38 39  1  0  0  0
 39 40  2  0  0  0
 40 41  1  0  0  0
 41 42  2  0  0  0
 42 43  1  0  0  0
 43 44  2  0  0  0
  6  2  1  0  0  0
  2  3  2  0  0  0
  2  4  1  0  0  0
  4  1  1  0  0  0
  1 82  1  0  0  0
 82 83  1  0  0  0
 83 84  1  0  0  0
 84 85  1  0  0  0
 85 87  1  0  0  0
 87 88  1  0  0  0
 87 89  2  0  0  0
  1 45  1  0  0  0
 45 46  2  0  0  0
 45 47  1  0  0  0
 47 49  1  0  0  0
 49 71  1  0  0  0
 71 72  1  0  0  0
 72 73  1  0  0  0
 73 74  1  0  0  0
 74 76  1  0  0  0
 76 77  1  0  0  0
 76 78  2  0  0  0
 49 50  1  0  0  0
 50 51  2  0  0  0
 50 52  1  0  0  0
 52 54  1  0  0  0
 54 60  1  0  0  0
 60 61  1  0  0  0
 61 62  2  0  0  0
 62 63  1  0  0  0
 63 64  1  0  0  0
 64 65  2  0  0  0
 65 66  1  0  0  0
 66 67  2  0  0  0
 67 68  1  0  0  0
 68 69  2  0  0  0
 54 55  1  0  0  0
 55 56  1  0  0  0
 55 57  2  0  0  0
 29 22  1  0  0  0
 37 32  1  0  0  0
 44 39  1  0  0  0
 69 61  1  0  0  0
 69 64  1  0  0  0
 25 30  1  0  0  0
 17 18  1  0  0  0
 17 19  1  0  0  0
 14 15  1  0  0  0
  9 10  1  0  0  0
  4  5  1  0  0  0
 85 86  1  0  0  0
 88 90  1  0  0  0
 88 91  1  0  0  0
 89 92  1  0  0  0
 47 48  1  0  0  0
 74 75  1  0  0  0
 77 79  1  0  0  0
 77 80  1  0  0  0
 78 81  1  0  0  0
 52 53  1  0  0  0
 63 70  1  0  0  0
 56 58  1  0  0  0
 56 59  1  0  0  0
M  END
> <minimizedAffinity>
-7.69546

> <CNNscore>
0.1958307177

> <CNNaffinity>
7.9128098488

> <CNN_VS>
1.5495712757

> <CNNaffinity_variance>
0.1789711416

$$$$
[H]N=C(N([H])[H])N([H])C([H])([H])C([H])([H])C([H])([H])[C@@]([H])(C(=O)N([H])[C@]([H])(C(=O)N([H])[H])C([H])([H])c1c([H])n([H])c2c([H])c([H])c([H])c([H])c12)N([H])C(=O)[C@@]([H])(N([H])C(=O)[C@@]([H])(N([H])C(=O)[C@]([H])(N([H])C(=O)[C@@]([H])(N([H])[H])C([H])([H])c1c(C([H])([H])[H])c([H])c(O[H])c([H])c1C([H])([H])[H])C([H])([H])c1c([H])c([H])c([H])c([H])c1[H])C([H])([H])c1c([H])c([H])c([H])c([H])c1[H])C([H])([H])C([H])([H])C([H])([H])N([H])C(=N[H])N([H])[H]


 92 96  0  0  0  0  0  0  0  0999 V2000
   -2.5014   -2.9629    6.3248 C   0  0  0  0  0  0  0  0  0  0  0  0
   -3.1201   -2.0797    3.9945 C   0  0  0  0  0  0  0  0  0  0  0  0
   -2.7203   -3.0996    3.4273 O   0  0  0  0  0  0  0  0  0  0  0  0
   -3.0164   -2.0513    5.3994 N   0  0  0  0  0  0  0  0  0  0  0  0
   -3.4054   -1.1378    5.8483 H   0  0  0  0  0  0  0  0  0  0  0  0
   -3.6678   -0.9135    3.2757 C   0  0  0  0  0  0  0  0  0  0  0  0
   -4.8228   -0.3672    0.9964 C   0  0  0  0  0  0  0  0  0  0  0  0
   -5.4551    0.6805    1.2139 O   0  0  0  0  0  0  0  0  0  0  0  0
   -4.0430   -1.0158    1.9283 N   0  0  0  0  0  0  0  0  0  0  0  0
   -3.5400   -1.9052    1.4599 H   0  0  0  0  0  0  0  0  0  0  0  0
   -4.9731   -0.9133   -0.4091 C   0  0  0  0  0  0  0  0  0  0  0  0
   -6.5880   -0.3100   -2.1781 C   0  0  0  0  0  0  0  0  0  0  0  0
   -5.5856    0.1862   -2.7887 O   0  0  0  0  0  0  0  0  0  0  0  0
   -6.3119   -0.8997   -0.9125 N   0  0  0  0  0  0  0  0  0  0  0  0
   -7.0816   -1.3100   -0.3730 H   0  0  0  0  0  0  0  0  0  0  0  0
   -7.8670   -0.2059   -2.8700 C   0  0  0  0  0  0  0  0  0  0  0  0
   -8.0045   -0.8828   -4.0969 N   0  0  0  0  0  0  0  0  0  0  0  0
   -7.1720   -1.3479   -4.4812 H   0  0  0  0  0  0  0  0  0  0  0  0
   -8.4877   -0.2810   -4.8023 H   0  0  0  0  0  0  0  0  0  0  0  0
   -8.9693   -0.3863   -1.8669 C   0  0  0  0  0  0  0  0  0  0  0  0
  -10.7876    0.7175   -3.9493 C   0  0  0  0  0  0  0  0  0  0  0  0
  -10.6778    1.2828   -2.5759 C   0  0  0  0  0  0  0  0  0  0  0  0
  -11.4914    2.3864   -2.2534 C   0  0  0  0  0  0  0  0  0  0  0  0
  -11.4978    2.9380   -0.9882 C   0  0  0  0  0  0  0  0  0  0  0  0
  -12.2930    4.0258   -0.6585 O   0  0  0  0  0  0  0  0  0  0  0  0
  -10.6647    2.3485   -0.0611 C   0  0  0  0  0  0  0  0  0  0  0  0
   -9.8578    1.2819   -0.3157 C   0  0  0  0  0  0  0  0  0  0  0  0
   -8.9904    0.6768    0.7320 C   0  0  0  0  0  0  0  0  0  0  0  0
   -9.8699    0.7340   -1.6296 C   0  0  0  0  0  0  0  0  0  0  0  0
  -12.2498    4.3875    0.2939 H   0  0  0  0  0  0  0  0  0  0  0  0
   -4.6052   -2.4074   -0.3152 C   0  0  0  0  0  0  0  0  0  0  0  0
   -3.3963   -2.7325   -1.0822 C   0  0  0  0  0  0  0  0  0  0  0  0
   -2.2017   -3.1519   -0.5455 C   0  0  0  0  0  0  0  0  0  0  0  0
   -1.0851   -3.4335   -1.3219 C   0  0  0  0  0  0  0  0  0  0  0  0
   -1.1666   -3.2911   -2.6919 C   0  0  0  0  0  0  0  0  0  0  0  0
   -2.3384   -2.8752   -3.2736 C   0  0  0  0  0  0  0  0  0  0  0  0
   -3.4318   -2.6029   -2.4683 C   0  0  0  0  0  0  0  0  0  0  0  0
   -4.6965   -0.2102    4.1027 C   0  0  0  0  0  0  0  0  0  0  0  0
   -4.1689    0.8551    4.9844 C   0  0  0  0  0  0  0  0  0  0  0  0
   -4.6248    0.9959    6.2733 C   0  0  0  0  0  0  0  0  0  0  0  0
   -4.1348    1.9987    7.1017 C   0  0  0  0  0  0  0  0  0  0  0  0
   -3.1711    2.8581    6.5970 C   0  0  0  0  0  0  0  0  0  0  0  0
   -2.6968    2.7350    5.2976 C   0  0  0  0  0  0  0  0  0  0  0  0
   -3.2001    1.7343    4.5024 C   0  0  0  0  0  0  0  0  0  0  0  0
   -3.3265   -3.9792    6.9832 C   0  0  0  0  0  0  0  0  0  0  0  0
   -4.1271   -4.6201    6.2734 O   0  0  0  0  0  0  0  0  0  0  0  0
   -3.2511   -4.2575    8.3560 N   0  0  0  0  0  0  0  0  0  0  0  0
   -2.5442   -3.6060    8.8735 H   0  0  0  0  0  0  0  0  0  0  0  0
   -3.9190   -5.2388    9.1750 C   0  0  0  0  0  0  0  0  0  0  0  0
   -4.7635   -6.2167    8.5002 C   0  0  0  0  0  0  0  0  0  0  0  0
   -4.1712   -7.3142    8.1108 O   0  0  0  0  0  0  0  0  0  0  0  0
   -6.1228   -6.1998    8.1848 N   0  0  0  0  0  0  0  0  0  0  0  0
   -6.7387   -5.4039    8.3170 H   0  0  0  0  0  0  0  0  0  0  0  0
   -6.7753   -7.3861    7.5643 C   0  0  0  0  0  0  0  0  0  0  0  0
   -7.0772   -7.1934    6.1604 C   0  0  0  0  0  0  0  0  0  0  0  0
   -7.8487   -6.1069    5.6833 N   0  0  0  0  0  0  0  0  0  0  0  0
   -6.6601   -8.0172    5.2646 O   0  0  0  0  0  0  0  0  0  0  0  0
   -7.7800   -5.8068    4.7104 H   0  0  0  0  0  0  0  0  0  0  0  0
   -8.5036   -5.6026    6.3302 H   0  0  0  0  0  0  0  0  0  0  0  0
   -7.8677   -7.8184    8.4498 C   0  0  0  0  0  0  0  0  0  0  0  0
   -8.9000   -8.6951    7.9199 C   0  0  0  0  0  0  0  0  0  0  0  0
   -8.6974  -10.0105    7.4468 C   0  0  0  0  0  0  0  0  0  0  0  0
   -9.8488  -10.5162    7.0114 N   0  0  0  0  0  0  0  0  0  0  0  0
  -10.7897   -9.6037    7.1759 C   0  0  0  0  0  0  0  0  0  0  0  0
  -12.1386   -9.6436    6.8997 C   0  0  0  0  0  0  0  0  0  0  0  0
  -12.9651   -8.5797    7.1662 C   0  0  0  0  0  0  0  0  0  0  0  0
  -12.4525   -7.4097    7.7332 C   0  0  0  0  0  0  0  0  0  0  0  0
  -11.1116   -7.3988    7.9948 C   0  0  0  0  0  0  0  0  0  0  0  0
  -10.2469   -8.4544    7.7383 C   0  0  0  0  0  0  0  0  0  0  0  0
   -9.9647  -11.4948    6.6058 H   0  0  0  0  0  0  0  0  0  0  0  0
   -4.3385   -4.6915   10.4797 C   0  0  0  0  0  0  0  0  0  0  0  0
   -3.3289   -4.1565   11.4233 C   0  0  0  0  0  0  0  0  0  0  0  0
   -3.8136   -4.5514   12.8281 C   0  0  0  0  0  0  0  0  0  0  0  0
   -5.2269   -4.4391   12.9735 N   0  0  0  0  0  0  0  0  0  0  0  0
   -5.8155   -4.3322   12.1377 H   0  0  0  0  0  0  0  0  0  0  0  0
   -5.7824   -4.4752   14.2841 C   0  0  0  0  0  0  0  0  0  0  0  0
   -5.5642   -5.6030   15.1347 N   0  0  0  0  0  0  0  0  0  0  0  0
   -6.4825   -3.4959   14.7108 N   0  0  0  0  0  0  0  0  0  0  0  0
   -5.5164   -6.5578   14.7577 H   0  0  0  0  0  0  0  0  0  0  0  0
   -5.4571   -5.4160   16.1621 H   0  0  0  0  0  0  0  0  0  0  0  0
   -6.6449   -2.6753   14.0939 H   0  0  0  0  0  0  0  0  0  0  0  0
   -1.3036   -2.4501    7.0871 C   0  0  0  0  0  0  0  0  0  0  0  0
   -1.1999   -0.9825    7.1678 C   0  0  0  0  0  0  0  0  0  0  0  0
   -0.9601   -0.5108    8.5660 C   0  0  0  0  0  0  0  0  0  0  0  0
   -1.9997    0.0979    9.2910 N   0  0  0  0  0  0  0  0  0  0  0  0
   -2.1132    1.1621    9.1231 H   0  0  0  0  0  0  0  0  0  0  0  0
   -2.9237   -0.4269   10.2087 C   0  0  0  0  0  0  0  0  0  0  0  0
   -4.2548   -0.7981    9.9480 N   0  0  0  0  0  0  0  0  0  0  0  0
   -2.4948   -0.6022   11.4337 N   0  0  0  0  0  0  0  0  0  0  0  0
   -4.9676   -0.7172   10.7263 H   0  0  0  0  0  0  0  0  0  0  0  0
   -4.6454   -1.1551    9.0554 H   0  0  0  0  0  0  0  0  0  0  0  0
   -1.5349   -0.3681   11.7116 H   0  0  0  0  0  0  0  0  0  0  0  0
 21 22  1  0  0  0
 22 23  2  0  0  0
 23 24  1  0  0  0
 24 25  1  0  0  0
 24 26  2  0  0  0
 26 27  1  0  0  0
 27 28  1  0  0  0
 27 29  2  0  0  0
 29 20  1  0  0  0
 20 16  1  0  0  0
 16 17  1  0  0  0
 16 12  1  0  0  0
 12 13  2  0  0  0
 12 14  1  0  0  0
 14 11  1  0  0  0
 11 31  1  0  0  0
 31 32  1  0  0  0
 32 33  2  0  0  0
 33 34  1  0  0  0
 34 35  2  0  0  0
 35 36  1  0  0  0
 36 37  2  0  0  0
 11  7  1  0  0  0
  7  8  2  0  0  0
  7  9  1  0  0  0
  9  6  1  0  0  0
  6 38  1  0  0  0
 38 39  1  0  0  0
 39 40  2  0  0  0
 40 41  1  0  0  0
 41 42  2  0  0  0
 42 43  1  0  0  0
 43 44  2  0  0  0
  6  2  1  0  0  0
  2  3  2  0  0  0
  2  4  1  0  0  0
  4  1  1  0  0  0
  1 82  1  0  0  0
 82 83  1  0  0  0
 83 84  1  0  0  0
 84 85  1  0  0  0
 85 87  1  0  0  0
 87 88  1  0  0  0
 87 89  2  0  0  0
  1 45  1  0  0  0
 45 46  2  0  0  0
 45 47  1  0  0  0
 47 49  1  0  0  0
 49 71  1  0  0  0
 71 72  1  0  0  0
 72 73  1  0  0  0
 73 74  1  0  0  0
 74 76  1  0  0  0
 76 77  1  0  0  0
 76 78  2  0  0  0
 49 50  1  0  0  0
 50 51  2  0  0  0
 50 52  1  0  0  0
 52 54  1  0  0  0
 54 60  1  0  0  0
 60 61  1  0  0  0
 61 62  2  0  0  0
 62 63  1  0  0  0
 63 64  1  0  0  0
 64 65  2  0  0  0
 65 66  1  0  0  0
 66 67  2  0  0  0
 67 68  1  0  0  0
 68 69  2  0  0  0
 54 55  1  0  0  0
 55 56  1  0  0  0
 55 57  2  0  0  0
 29 22  1  0  0  0
 37 32  1  0  0  0
 44 39  1  0  0  0
 69 61  1  0  0  0
 69 64  1  0  0  0
 25 30  1  0  0  0
 17 18  1  0  0  0
 17 19  1  0  0  0
 14 15  1  0  0  0
  9 10  1  0  0  0
  4  5  1  0  0  0
 85 86  1  0  0  0
 88 90  1  0  0  0
 88 91  1  0  0  0
 89 92  1  0  0  0
 47 48  1  0  0  0
 74 75  1  0  0  0
 77 79  1  0  0  0
 77 80  1  0  0  0
 78 81  1  0  0  0
 52 53  1  0  0  0
 63 70  1  0  0  0
 56 58  1  0  0  0
 56 59  1  0  0  0
M  END
> <minimizedAffinity>
-8.36836

> <CNNscore>
0.1543265581

> <CNNaffinity>
7.0651483536

> <CNN_VS>
1.0903400183

> <CNNaffinity_variance>
0.8542329073

$$$$
[H]N=C(N([H])[H])N([H])C([H])([H])C([H])([H])C([H])([H])[C@@]([H])(C(=O)N([H])[C@]([H])(C(=O)N([H])[H])C([H])([H])c1c([H])n([H])c2c([H])c([H])c([H])c([H])c12)N([H])C(=O)[C@@]([H])(N([H])C(=O)[C@@]([H])(N([H])C(=O)[C@]([H])(N([H])C(=O)[C@@]([H])(N([H])[H])C([H])([H])c1c(C([H])([H])[H])c([H])c(O[H])c([H])c1C([H])([H])[H])C([H])([H])c1c([H])c([H])c([H])c([H])c1[H])C([H])([H])c1c([H])c([H])c([H])c([H])c1[H])C([H])([H])C([H])([H])C([H])([H])N([H])C(=N[H])N([H])[H]


 92 96  0  0  0  0  0  0  0  0999 V2000
   -3.0290   -3.4717    9.5633 C   0  0  0  0  0  0  0  0  0  0  0  0
   -1.3577   -2.3507    7.9685 C   0  0  0  0  0  0  0  0  0  0  0  0
   -0.8863   -3.4282    7.5962 O   0  0  0  0  0  0  0  0  0  0  0  0
   -2.4057   -2.4061    8.9087 N   0  0  0  0  0  0  0  0  0  0  0  0
   -2.7988   -1.4276    9.1836 H   0  0  0  0  0  0  0  0  0  0  0  0
   -0.8650   -1.0430    7.4954 C   0  0  0  0  0  0  0  0  0  0  0  0
   -3.0480    0.3629    7.2022 C   0  0  0  0  0  0  0  0  0  0  0  0
   -3.9339   -0.4828    6.9906 O   0  0  0  0  0  0  0  0  0  0  0  0
   -1.7232    0.0643    7.4330 N   0  0  0  0  0  0  0  0  0  0  0  0
   -1.1467    1.0049    7.6481 H   0  0  0  0  0  0  0  0  0  0  0  0
   -3.5308    1.7991    7.1831 C   0  0  0  0  0  0  0  0  0  0  0  0
   -3.2743    3.3165    9.1152 C   0  0  0  0  0  0  0  0  0  0  0  0
   -2.2280    3.7372    8.5221 O   0  0  0  0  0  0  0  0  0  0  0  0
   -3.9942    2.2877    8.4450 N   0  0  0  0  0  0  0  0  0  0  0  0
   -4.8419    1.9062    8.8783 H   0  0  0  0  0  0  0  0  0  0  0  0
   -3.5821    3.9565   10.3884 C   0  0  0  0  0  0  0  0  0  0  0  0
   -3.9442    5.3169   10.3666 N   0  0  0  0  0  0  0  0  0  0  0  0
   -3.8944    5.8095    9.4655 H   0  0  0  0  0  0  0  0  0  0  0  0
   -3.4684    5.8414   11.1359 H   0  0  0  0  0  0  0  0  0  0  0  0
   -4.4548    3.0336   11.1888 C   0  0  0  0  0  0  0  0  0  0  0  0
   -4.6197    4.5677   13.7344 C   0  0  0  0  0  0  0  0  0  0  0  0
   -3.9671    3.2336   13.6238 C   0  0  0  0  0  0  0  0  0  0  0  0
   -3.4168    2.6733   14.7930 C   0  0  0  0  0  0  0  0  0  0  0  0
   -2.8444    1.4174   14.7959 C   0  0  0  0  0  0  0  0  0  0  0  0
   -2.2975    0.8552   15.9401 O   0  0  0  0  0  0  0  0  0  0  0  0
   -2.8426    0.7447   13.5922 C   0  0  0  0  0  0  0  0  0  0  0  0
   -3.3593    1.2358   12.4322 C   0  0  0  0  0  0  0  0  0  0  0  0
   -3.3432    0.4551   11.1648 C   0  0  0  0  0  0  0  0  0  0  0  0
   -3.9420    2.5344   12.4577 C   0  0  0  0  0  0  0  0  0  0  0  0
   -1.8878   -0.0763   15.8748 H   0  0  0  0  0  0  0  0  0  0  0  0
   -4.7790    1.8052    6.2784 C   0  0  0  0  0  0  0  0  0  0  0  0
   -4.6887    2.8099    5.2116 C   0  0  0  0  0  0  0  0  0  0  0  0
   -4.6628    2.5395    3.8636 C   0  0  0  0  0  0  0  0  0  0  0  0
   -4.5634    3.5331    2.8983 C   0  0  0  0  0  0  0  0  0  0  0  0
   -4.4879    4.8518    3.2972 C   0  0  0  0  0  0  0  0  0  0  0  0
   -4.5104    5.1709    4.6322 C   0  0  0  0  0  0  0  0  0  0  0  0
   -4.6100    4.1540    5.5672 C   0  0  0  0  0  0  0  0  0  0  0  0
    0.4522   -0.7097    8.1205 C   0  0  0  0  0  0  0  0  0  0  0  0
    0.3680   -0.0056    9.4196 C   0  0  0  0  0  0  0  0  0  0  0  0
    0.2502    1.3625    9.4754 C   0  0  0  0  0  0  0  0  0  0  0  0
    0.1762    2.0267   10.6942 C   0  0  0  0  0  0  0  0  0  0  0  0
    0.2237    1.2751   11.8581 C   0  0  0  0  0  0  0  0  0  0  0  0
    0.3435   -0.1080   11.8254 C   0  0  0  0  0  0  0  0  0  0  0  0
    0.4147   -0.7365   10.6060 C   0  0  0  0  0  0  0  0  0  0  0  0
   -3.7003   -4.5606    8.8484 C   0  0  0  0  0  0  0  0  0  0  0  0
   -4.4749   -5.2876    9.5018 O   0  0  0  0  0  0  0  0  0  0  0  0
   -3.5121   -4.8116    7.4812 N   0  0  0  0  0  0  0  0  0  0  0  0
   -2.7840   -4.1340    7.0309 H   0  0  0  0  0  0  0  0  0  0  0  0
   -4.1097   -5.7760    6.5908 C   0  0  0  0  0  0  0  0  0  0  0  0
   -5.2622   -6.5217    7.0814 C   0  0  0  0  0  0  0  0  0  0  0  0
   -4.9966   -7.5850    7.7925 O   0  0  0  0  0  0  0  0  0  0  0  0
   -6.6326   -6.3057    6.9304 N   0  0  0  0  0  0  0  0  0  0  0  0
   -7.0451   -5.5911    6.3392 H   0  0  0  0  0  0  0  0  0  0  0  0
   -7.6216   -7.1782    7.6222 C   0  0  0  0  0  0  0  0  0  0  0  0
   -7.4389   -8.5842    7.3238 C   0  0  0  0  0  0  0  0  0  0  0  0
   -7.1896   -9.0653    6.0163 N   0  0  0  0  0  0  0  0  0  0  0  0
   -7.5036   -9.4800    8.2449 O   0  0  0  0  0  0  0  0  0  0  0  0
   -6.7513   -9.9753    5.8708 H   0  0  0  0  0  0  0  0  0  0  0  0
   -7.4594   -8.4872    5.1827 H   0  0  0  0  0  0  0  0  0  0  0  0
   -8.9587   -6.5997    7.4175 C   0  0  0  0  0  0  0  0  0  0  0  0
  -10.1216   -7.3191    7.9125 C   0  0  0  0  0  0  0  0  0  0  0  0
  -10.5296   -8.6061    7.4972 C   0  0  0  0  0  0  0  0  0  0  0  0
  -11.6460   -8.9530    8.1331 N   0  0  0  0  0  0  0  0  0  0  0  0
  -11.9867   -7.9642    8.9400 C   0  0  0  0  0  0  0  0  0  0  0  0
  -13.0431   -7.8418    9.8154 C   0  0  0  0  0  0  0  0  0  0  0  0
  -13.2145   -6.7229   10.5931 C   0  0  0  0  0  0  0  0  0  0  0  0
  -12.3082   -5.6618   10.5163 C   0  0  0  0  0  0  0  0  0  0  0  0
  -11.2717   -5.8110    9.6388 C   0  0  0  0  0  0  0  0  0  0  0  0
  -11.0678   -6.9264    8.8375 C   0  0  0  0  0  0  0  0  0  0  0  0
  -12.1566   -9.8785    7.9974 H   0  0  0  0  0  0  0  0  0  0  0  0
   -3.1101   -6.4548    5.7436 C   0  0  0  0  0  0  0  0  0  0  0  0
   -1.8555   -5.7609    5.3690 C   0  0  0  0  0  0  0  0  0  0  0  0
   -2.2321   -4.7902    4.2375 C   0  0  0  0  0  0  0  0  0  0  0  0
   -1.9278   -3.4341    4.5529 N   0  0  0  0  0  0  0  0  0  0  0  0
   -0.9602   -3.1710    4.7785 H   0  0  0  0  0  0  0  0  0  0  0  0
   -2.9845   -2.4795    4.5488 C   0  0  0  0  0  0  0  0  0  0  0  0
   -2.7719   -1.1629    4.0348 N   0  0  0  0  0  0  0  0  0  0  0  0
   -4.1345   -2.7945    5.0063 N   0  0  0  0  0  0  0  0  0  0  0  0
   -1.8742   -0.6779    4.1569 H   0  0  0  0  0  0  0  0  0  0  0  0
   -3.5725   -0.7099    3.5288 H   0  0  0  0  0  0  0  0  0  0  0  0
   -4.2917   -3.7505    5.3828 H   0  0  0  0  0  0  0  0  0  0  0  0
   -3.5530   -3.1244   10.9357 C   0  0  0  0  0  0  0  0  0  0  0  0
   -2.7263   -3.6050   12.0567 C   0  0  0  0  0  0  0  0  0  0  0  0
   -3.5523   -3.9833   13.2440 C   0  0  0  0  0  0  0  0  0  0  0  0
   -4.9187   -4.2745   13.0861 N   0  0  0  0  0  0  0  0  0  0  0  0
   -5.4424   -3.6449   12.3769 H   0  0  0  0  0  0  0  0  0  0  0  0
   -5.7394   -5.2392   13.6923 C   0  0  0  0  0  0  0  0  0  0  0  0
   -7.0373   -5.0462   14.1981 N   0  0  0  0  0  0  0  0  0  0  0  0
   -5.2483   -6.4499   13.7826 N   0  0  0  0  0  0  0  0  0  0  0  0
   -7.3591   -5.6390   15.0138 H   0  0  0  0  0  0  0  0  0  0  0  0
   -7.7495   -4.3703   13.8625 H   0  0  0  0  0  0  0  0  0  0  0  0
   -4.3130   -6.6842   13.4312 H   0  0  0  0  0  0  0  0  0  0  0  0
 21 22  1  0  0  0
 22 23  2  0  0  0
 23 24  1  0  0  0
 24 25  1  0  0  0
 24 26  2  0  0  0
 26 27  1  0  0  0
 27 28  1  0  0  0
 27 29  2  0  0  0
 29 20  1  0  0  0
 20 16  1  0  0  0
 16 17  1  0  0  0
 16 12  1  0  0  0
 12 13  2  0  0  0
 12 14  1  0  0  0
 14 11  1  0  0  0
 11 31  1  0  0  0
 31 32  1  0  0  0
 32 33  2  0  0  0
 33 34  1  0  0  0
 34 35  2  0  0  0
 35 36  1  0  0  0
 36 37  2  0  0  0
 11  7  1  0  0  0
  7  8  2  0  0  0
  7  9  1  0  0  0
  9  6  1  0  0  0
  6 38  1  0  0  0
 38 39  1  0  0  0
 39 40  2  0  0  0
 40 41  1  0  0  0
 41 42  2  0  0  0
 42 43  1  0  0  0
 43 44  2  0  0  0
  6  2  1  0  0  0
  2  3  2  0  0  0
  2  4  1  0  0  0
  4  1  1  0  0  0
  1 82  1  0  0  0
 82 83  1  0  0  0
 83 84  1  0  0  0
 84 85  1  0  0  0
 85 87  1  0  0  0
 87 88  1  0  0  0
 87 89  2  0  0  0
  1 45  1  0  0  0
 45 46  2  0  0  0
 45 47  1  0  0  0
 47 49  1  0  0  0
 49 71  1  0  0  0
 71 72  1  0  0  0
 72 73  1  0  0  0
 73 74  1  0  0  0
 74 76  1  0  0  0
 76 77  1  0  0  0
 76 78  2  0  0  0
 49 50  1  0  0  0
 50 51  2  0  0  0
 50 52  1  0  0  0
 52 54  1  0  0  0
 54 60  1  0  0  0
 60 61  1  0  0  0
 61 62  2  0  0  0
 62 63  1  0  0  0
 63 64  1  0  0  0
 64 65  2  0  0  0
 65 66  1  0  0  0
 66 67  2  0  0  0
 67 68  1  0  0  0
 68 69  2  0  0  0
 54 55  1  0  0  0
 55 56  1  0  0  0
 55 57  2  0  0  0
 29 22  1  0  0  0
 37 32  1  0  0  0
 44 39  1  0  0  0
 69 61  1  0  0  0
 69 64  1  0  0  0
 25 30  1  0  0  0
 17 18  1  0  0  0
 17 19  1  0  0  0
 14 15  1  0  0  0
  9 10  1  0  0  0
  4  5  1  0  0  0
 85 86  1  0  0  0
 88 90  1  0  0  0
 88 91  1  0  0  0
 89 92  1  0  0  0
 47 48  1  0  0  0
 74 75  1  0  0  0
 77 79  1  0  0  0
 77 80  1  0  0  0
 78 81  1  0  0  0
 52 53  1  0  0  0
 63 70  1  0  0  0
 56 58  1  0  0  0
 56 59  1  0  0  0
M  END
> <minimizedAffinity>
-6.72435

> <CNNscore>
0.1425518543

> <CNNaffinity>
7.3755655289

> <CNN_VS>
1.0514005423

> <CNNaffinity_variance>
0.9262914658

$$$$
[H]N=C(N([H])[H])N([H])C([H])([H])C([H])([H])C([H])([H])[C@@]([H])(C(=O)N([H])[C@]([H])(C(=O)N([H])[H])C([H])([H])c1c([H])n([H])c2c([H])c([H])c([H])c([H])c12)N([H])C(=O)[C@@]([H])(N([H])C(=O)[C@@]([H])(N([H])C(=O)[C@]([H])(N([H])C(=O)[C@@]([H])(N([H])[H])C([H])([H])c1c(C([H])([H])[H])c([H])c(O[H])c([H])c1C([H])([H])[H])C([H])([H])c1c([H])c([H])c([H])c([H])c1[H])C([H])([H])c1c([H])c([H])c([H])c([H])c1[H])C([H])([H])C([H])([H])C([H])([H])N([H])C(=N[H])N([H])[H]


 92 96  0  0  0  0  0  0  0  0999 V2000
   -2.3088   -4.9536    4.1123 C   0  0  0  0  0  0  0  0  0  0  0  0
   -3.0737   -2.5220    3.8034 C   0  0  0  0  0  0  0  0  0  0  0  0
   -4.2655   -2.8077    3.9434 O   0  0  0  0  0  0  0  0  0  0  0  0
   -2.1495   -3.5805    3.9078 N   0  0  0  0  0  0  0  0  0  0  0  0
   -1.1115   -3.2672    3.7993 H   0  0  0  0  0  0  0  0  0  0  0  0
   -2.5951   -1.1560    3.5179 C   0  0  0  0  0  0  0  0  0  0  0  0
   -4.3052    0.0343    1.9410 C   0  0  0  0  0  0  0  0  0  0  0  0
   -4.5098   -0.7873    1.0310 O   0  0  0  0  0  0  0  0  0  0  0  0
   -3.4702   -0.1825    3.0149 N   0  0  0  0  0  0  0  0  0  0  0  0
   -3.5068    0.6950    3.7163 H   0  0  0  0  0  0  0  0  0  0  0  0
   -5.0537    1.3429    1.7881 C   0  0  0  0  0  0  0  0  0  0  0  0
   -6.9339    2.2474    0.4659 C   0  0  0  0  0  0  0  0  0  0  0  0
   -7.3505    2.7298    1.5693 O   0  0  0  0  0  0  0  0  0  0  0  0
   -5.7231    1.5023    0.5341 N   0  0  0  0  0  0  0  0  0  0  0  0
   -5.3431    1.0855   -0.3224 H   0  0  0  0  0  0  0  0  0  0  0  0
   -7.7558    2.5364   -0.7031 C   0  0  0  0  0  0  0  0  0  0  0  0
   -7.0998    2.7198   -1.9353 N   0  0  0  0  0  0  0  0  0  0  0  0
   -6.0717    2.7211   -1.9330 H   0  0  0  0  0  0  0  0  0  0  0  0
   -7.4995    3.5360   -2.4522 H   0  0  0  0  0  0  0  0  0  0  0  0
   -8.9405    1.6144   -0.6944 C   0  0  0  0  0  0  0  0  0  0  0  0
   -7.8391   -0.7864   -2.0668 C   0  0  0  0  0  0  0  0  0  0  0  0
   -8.9235    0.0583   -2.6400 C   0  0  0  0  0  0  0  0  0  0  0  0
   -9.4570   -0.3166   -3.8885 C   0  0  0  0  0  0  0  0  0  0  0  0
  -10.5026    0.3736   -4.4675 C   0  0  0  0  0  0  0  0  0  0  0  0
  -11.0356    0.0156   -5.6972 O   0  0  0  0  0  0  0  0  0  0  0  0
  -10.9935    1.4476   -3.7557 C   0  0  0  0  0  0  0  0  0  0  0  0
  -10.5182    1.8552   -2.5467 C   0  0  0  0  0  0  0  0  0  0  0  0
  -11.1005    3.0145   -1.8166 C   0  0  0  0  0  0  0  0  0  0  0  0
   -9.4382    1.1261   -1.9735 C   0  0  0  0  0  0  0  0  0  0  0  0
  -11.8066    0.5683   -6.0712 H   0  0  0  0  0  0  0  0  0  0  0  0
   -3.9732    2.4425    1.7978 C   0  0  0  0  0  0  0  0  0  0  0  0
   -4.0410    3.2792    3.0023 C   0  0  0  0  0  0  0  0  0  0  0  0
   -5.0966    3.3233    3.8826 C   0  0  0  0  0  0  0  0  0  0  0  0
   -5.1098    4.1460    5.0015 C   0  0  0  0  0  0  0  0  0  0  0  0
   -4.0221    4.9574    5.2513 C   0  0  0  0  0  0  0  0  0  0  0  0
   -2.9446    4.9477    4.4008 C   0  0  0  0  0  0  0  0  0  0  0  0
   -2.9660    4.1148    3.2944 C   0  0  0  0  0  0  0  0  0  0  0  0
   -1.7509   -0.6397    4.6394 C   0  0  0  0  0  0  0  0  0  0  0  0
   -2.4495    0.2576    5.5867 C   0  0  0  0  0  0  0  0  0  0  0  0
   -3.7331   -0.0104    5.9980 C   0  0  0  0  0  0  0  0  0  0  0  0
   -4.3933    0.8334    6.8836 C   0  0  0  0  0  0  0  0  0  0  0  0
   -3.7252    1.9569    7.3453 C   0  0  0  0  0  0  0  0  0  0  0  0
   -2.4286    2.2479    6.9423 C   0  0  0  0  0  0  0  0  0  0  0  0
   -1.8019    1.3954    6.0661 C   0  0  0  0  0  0  0  0  0  0  0  0
   -2.5528   -5.5374    5.4341 C   0  0  0  0  0  0  0  0  0  0  0  0
   -1.7379   -6.3856    5.8488 O   0  0  0  0  0  0  0  0  0  0  0  0
   -3.6459   -5.1842    6.2391 N   0  0  0  0  0  0  0  0  0  0  0  0
   -4.3054   -4.4639    5.7510 H   0  0  0  0  0  0  0  0  0  0  0  0
   -4.0291   -5.5883    7.5694 C   0  0  0  0  0  0  0  0  0  0  0  0
   -5.2009   -6.4453    7.7013 C   0  0  0  0  0  0  0  0  0  0  0  0
   -4.9922   -7.6262    8.2198 O   0  0  0  0  0  0  0  0  0  0  0  0
   -6.5399   -6.2341    7.3695 N   0  0  0  0  0  0  0  0  0  0  0  0
   -6.8929   -5.4225    6.8726 H   0  0  0  0  0  0  0  0  0  0  0  0
   -7.5755   -7.2529    7.6977 C   0  0  0  0  0  0  0  0  0  0  0  0
   -7.2871   -8.5536    7.1282 C   0  0  0  0  0  0  0  0  0  0  0  0
   -6.8352   -8.7259    5.7980 N   0  0  0  0  0  0  0  0  0  0  0  0
   -7.4378   -9.6337    7.8105 O   0  0  0  0  0  0  0  0  0  0  0  0
   -6.3387   -9.5737    5.5223 H   0  0  0  0  0  0  0  0  0  0  0  0
   -7.0127   -7.9799    5.0813 H   0  0  0  0  0  0  0  0  0  0  0  0
   -8.8954   -6.6615    7.4287 C   0  0  0  0  0  0  0  0  0  0  0  0
  -10.0856   -7.3448    7.9100 C   0  0  0  0  0  0  0  0  0  0  0  0
  -10.5108   -8.6320    7.5132 C   0  0  0  0  0  0  0  0  0  0  0  0
  -11.6499   -8.9408    8.1281 N   0  0  0  0  0  0  0  0  0  0  0  0
  -11.9891   -7.9269    8.9040 C   0  0  0  0  0  0  0  0  0  0  0  0
  -13.0640   -7.7623    9.7494 C   0  0  0  0  0  0  0  0  0  0  0  0
  -13.2305   -6.6227   10.4974 C   0  0  0  0  0  0  0  0  0  0  0  0
  -12.2998   -5.5830   10.4200 C   0  0  0  0  0  0  0  0  0  0  0  0
  -11.2453   -5.7739    9.5727 C   0  0  0  0  0  0  0  0  0  0  0  0
  -11.0457   -6.9113    8.8017 C   0  0  0  0  0  0  0  0  0  0  0  0
  -12.1769   -9.8581    8.0001 H   0  0  0  0  0  0  0  0  0  0  0  0
   -3.7821   -4.5334    8.5712 C   0  0  0  0  0  0  0  0  0  0  0  0
   -3.3085   -4.8907    9.9291 C   0  0  0  0  0  0  0  0  0  0  0  0
   -4.4165   -4.4389   10.8947 C   0  0  0  0  0  0  0  0  0  0  0  0
   -4.1127   -4.7327   12.2558 N   0  0  0  0  0  0  0  0  0  0  0  0
   -3.2783   -4.3183   12.6897 H   0  0  0  0  0  0  0  0  0  0  0  0
   -4.9810   -5.6019   12.9758 C   0  0  0  0  0  0  0  0  0  0  0  0
   -4.4594   -6.4979   13.9597 N   0  0  0  0  0  0  0  0  0  0  0  0
   -6.2373   -5.5869   12.7465 N   0  0  0  0  0  0  0  0  0  0  0  0
   -3.5443   -6.9505   13.8415 H   0  0  0  0  0  0  0  0  0  0  0  0
   -5.0513   -6.6770   14.8080 H   0  0  0  0  0  0  0  0  0  0  0  0
   -6.6195   -4.9380   12.0301 H   0  0  0  0  0  0  0  0  0  0  0  0
   -1.5796   -5.8106    3.1061 C   0  0  0  0  0  0  0  0  0  0  0  0
   -0.5010   -5.1258    2.3719 C   0  0  0  0  0  0  0  0  0  0  0  0
   -0.6144   -5.3199    0.8939 C   0  0  0  0  0  0  0  0  0  0  0  0
   -0.8880   -4.2221    0.0593 N   0  0  0  0  0  0  0  0  0  0  0  0
   -0.0145   -3.7012   -0.3138 H   0  0  0  0  0  0  0  0  0  0  0  0
   -2.1013   -3.6669   -0.3781 C   0  0  0  0  0  0  0  0  0  0  0  0
   -3.2551   -3.4442    0.3944 N   0  0  0  0  0  0  0  0  0  0  0  0
   -2.1583   -3.3055   -1.6356 N   0  0  0  0  0  0  0  0  0  0  0  0
   -4.2008   -3.4876   -0.0788 H   0  0  0  0  0  0  0  0  0  0  0  0
   -3.3021   -3.2350    1.4097 H   0  0  0  0  0  0  0  0  0  0  0  0
   -1.3605   -3.4217   -2.2707 H   0  0  0  0  0  0  0  0  0  0  0  0
 21 22  1  0  0  0
 22 23  2  0  0  0
 23 24  1  0  0  0
 24 25  1  0  0  0
 24 26  2  0  0  0
 26 27  1  0  0  0
 27 28  1  0  0  0
 27 29  2  0  0  0
 29 20  1  0  0  0
 20 16  1  0  0  0
 16 17  1  0  0  0
 16 12  1  0  0  0
 12 13  2  0  0  0
 12 14  1  0  0  0
 14 11  1  0  0  0
 11 31  1  0  0  0
 31 32  1  0  0  0
 32 33  2  0  0  0
 33 34  1  0  0  0
 34 35  2  0  0  0
 35 36  1  0  0  0
 36 37  2  0  0  0
 11  7  1  0  0  0
  7  8  2  0  0  0
  7  9  1  0  0  0
  9  6  1  0  0  0
  6 38  1  0  0  0
 38 39  1  0  0  0
 39 40  2  0  0  0
 40 41  1  0  0  0
 41 42  2  0  0  0
 42 43  1  0  0  0
 43 44  2  0  0  0
  6  2  1  0  0  0
  2  3  2  0  0  0
  2  4  1  0  0  0
  4  1  1  0  0  0
  1 82  1  0  0  0
 82 83  1  0  0  0
 83 84  1  0  0  0
 84 85  1  0  0  0
 85 87  1  0  0  0
 87 88  1  0  0  0
 87 89  2  0  0  0
  1 45  1  0  0  0
 45 46  2  0  0  0
 45 47  1  0  0  0
 47 49  1  0  0  0
 49 71  1  0  0  0
 71 72  1  0  0  0
 72 73  1  0  0  0
 73 74  1  0  0  0
 74 76  1  0  0  0
 76 77  1  0  0  0
 76 78  2  0  0  0
 49 50  1  0  0  0
 50 51  2  0  0  0
 50 52  1  0  0  0
 52 54  1  0  0  0
 54 60  1  0  0  0
 60 61  1  0  0  0
 61 62  2  0  0  0
 62 63  1  0  0  0
 63 64  1  0  0  0
 64 65  2  0  0  0
 65 66  1  0  0  0
 66 67  2  0  0  0
 67 68  1  0  0  0
 68 69  2  0  0  0
 54 55  1  0  0  0
 55 56  1  0  0  0
 55 57  2  0  0  0
 29 22  1  0  0  0
 37 32  1  0  0  0
 44 39  1  0  0  0
 69 61  1  0  0  0
 69 64  1  0  0  0
 25 30  1  0  0  0
 17 18  1  0  0  0
 17 19  1  0  0  0
 14 15  1  0  0  0
  9 10  1  0  0  0
  4  5  1  0  0  0
 85 86  1  0  0  0
 88 90  1  0  0  0
 88 91  1  0  0  0
 89 92  1  0  0  0
 47 48  1  0  0  0
 74 75  1  0  0  0
 77 79  1  0  0  0
 77 80  1  0  0  0
 78 81  1  0  0  0
 52 53  1  0  0  0
 63 70  1  0  0  0
 56 58  1  0  0  0
 56 59  1  0  0  0
M  END
> <minimizedAffinity>
-7.50454

> <CNNscore>
0.1392039955

> <CNNaffinity>
7.2982378006

> <CNN_VS>
1.0159438848

> <CNNaffinity_variance>
0.8083694577

$$$$
[H]N=C(N([H])[H])N([H])C([H])([H])C([H])([H])C([H])([H])[C@@]([H])(C(=O)N([H])[C@]([H])(C(=O)N([H])[H])C([H])([H])c1c([H])n([H])c2c([H])c([H])c([H])c([H])c12)N([H])C(=O)[C@@]([H])(N([H])C(=O)[C@@]([H])(N([H])C(=O)[C@]([H])(N([H])C(=O)[C@@]([H])(N([H])[H])C([H])([H])c1c(C([H])([H])[H])c([H])c(O[H])c([H])c1C([H])([H])[H])C([H])([H])c1c([H])c([H])c([H])c([H])c1[H])C([H])([H])c1c([H])c([H])c([H])c([H])c1[H])C([H])([H])C([H])([H])C([H])([H])N([H])C(=N[H])N([H])[H]


 92 96  0  0  0  0  0  0  0  0999 V2000
   -2.7372   -4.9422    4.5665 C   0  0  0  0  0  0  0  0  0  0  0  0
   -3.4631   -2.7479    3.4478 C   0  0  0  0  0  0  0  0  0  0  0  0
   -4.6163   -3.1448    3.2625 O   0  0  0  0  0  0  0  0  0  0  0  0
   -2.5820   -3.6352    4.0972 N   0  0  0  0  0  0  0  0  0  0  0  0
   -1.5852   -3.2243    4.2552 H   0  0  0  0  0  0  0  0  0  0  0  0
   -2.9802   -1.4249    3.0086 C   0  0  0  0  0  0  0  0  0  0  0  0
   -4.7058    0.0179    1.6788 C   0  0  0  0  0  0  0  0  0  0  0  0
   -5.5333    0.3761    2.5344 O   0  0  0  0  0  0  0  0  0  0  0  0
   -3.5974   -0.7567    1.9414 N   0  0  0  0  0  0  0  0  0  0  0  0
   -2.9885   -0.8897    1.0061 H   0  0  0  0  0  0  0  0  0  0  0  0
   -5.0056    0.4976    0.2731 C   0  0  0  0  0  0  0  0  0  0  0  0
   -6.7205    0.2507   -1.4874 C   0  0  0  0  0  0  0  0  0  0  0  0
   -6.5429    1.4946   -1.6990 O   0  0  0  0  0  0  0  0  0  0  0  0
   -5.9306   -0.3195   -0.4497 N   0  0  0  0  0  0  0  0  0  0  0  0
   -6.0354   -1.3160   -0.2311 H   0  0  0  0  0  0  0  0  0  0  0  0
   -7.7012   -0.4046   -2.3443 C   0  0  0  0  0  0  0  0  0  0  0  0
   -7.2818   -1.5322   -3.0757 N   0  0  0  0  0  0  0  0  0  0  0  0
   -6.2867   -1.7867   -3.0311 H   0  0  0  0  0  0  0  0  0  0  0  0
   -7.6413   -1.4946   -4.0568 H   0  0  0  0  0  0  0  0  0  0  0  0
   -8.9917   -0.5271   -1.5871 C   0  0  0  0  0  0  0  0  0  0  0  0
   -9.2342    1.0417    0.9309 C   0  0  0  0  0  0  0  0  0  0  0  0
   -9.9882    1.3669   -0.3115 C   0  0  0  0  0  0  0  0  0  0  0  0
  -10.8450    2.4845   -0.2857 C   0  0  0  0  0  0  0  0  0  0  0  0
  -11.5381    2.8934   -1.4071 C   0  0  0  0  0  0  0  0  0  0  0  0
  -12.3862    3.9911   -1.3942 O   0  0  0  0  0  0  0  0  0  0  0  0
  -11.3439    2.1476   -2.5504 C   0  0  0  0  0  0  0  0  0  0  0  0
  -10.5293    1.0599   -2.6339 C   0  0  0  0  0  0  0  0  0  0  0  0
  -10.3465    0.3026   -3.9025 C   0  0  0  0  0  0  0  0  0  0  0  0
   -9.8279    0.6593   -1.4617 C   0  0  0  0  0  0  0  0  0  0  0  0
  -12.8709    4.2399   -2.2562 H   0  0  0  0  0  0  0  0  0  0  0  0
   -3.6791    0.3669   -0.5015 C   0  0  0  0  0  0  0  0  0  0  0  0
   -2.8220    1.5482   -0.3415 C   0  0  0  0  0  0  0  0  0  0  0  0
   -3.2662    2.8277   -0.1037 C   0  0  0  0  0  0  0  0  0  0  0  0
   -2.4067    3.9109    0.0266 C   0  0  0  0  0  0  0  0  0  0  0  0
   -1.0467    3.7061   -0.0844 C   0  0  0  0  0  0  0  0  0  0  0  0
   -0.5560    2.4462   -0.3214 C   0  0  0  0  0  0  0  0  0  0  0  0
   -1.4425    1.3894   -0.4461 C   0  0  0  0  0  0  0  0  0  0  0  0
   -2.7386   -0.5276    4.1806 C   0  0  0  0  0  0  0  0  0  0  0  0
   -1.9389    0.6829    3.8875 C   0  0  0  0  0  0  0  0  0  0  0  0
   -0.6114    0.5870    3.5453 C   0  0  0  0  0  0  0  0  0  0  0  0
    0.1432    1.7226    3.2746 C   0  0  0  0  0  0  0  0  0  0  0  0
   -0.4759    2.9602    3.3576 C   0  0  0  0  0  0  0  0  0  0  0  0
   -1.8156    3.0807    3.7025 C   0  0  0  0  0  0  0  0  0  0  0  0
   -2.5357    1.9406    3.9646 C   0  0  0  0  0  0  0  0  0  0  0  0
   -3.6703   -5.2959    5.6397 C   0  0  0  0  0  0  0  0  0  0  0  0
   -4.8489   -5.5479    5.3189 O   0  0  0  0  0  0  0  0  0  0  0  0
   -3.2965   -5.3643    6.9899 N   0  0  0  0  0  0  0  0  0  0  0  0
   -2.2526   -5.0852    7.1464 H   0  0  0  0  0  0  0  0  0  0  0  0
   -4.0312   -5.7428    8.1718 C   0  0  0  0  0  0  0  0  0  0  0  0
   -5.2558   -6.5114    7.9859 C   0  0  0  0  0  0  0  0  0  0  0  0
   -5.1514   -7.8038    8.1458 O   0  0  0  0  0  0  0  0  0  0  0  0
   -6.5536   -6.1140    7.6615 N   0  0  0  0  0  0  0  0  0  0  0  0
   -6.8240   -5.1695    7.4065 H   0  0  0  0  0  0  0  0  0  0  0  0
   -7.6657   -7.1040    7.6225 C   0  0  0  0  0  0  0  0  0  0  0  0
   -7.3960   -8.2202    6.7392 C   0  0  0  0  0  0  0  0  0  0  0  0
   -6.7741   -8.0673    5.4769 N   0  0  0  0  0  0  0  0  0  0  0  0
   -7.7210   -9.4232    7.0588 O   0  0  0  0  0  0  0  0  0  0  0  0
   -6.3074   -8.8556    5.0274 H   0  0  0  0  0  0  0  0  0  0  0  0
   -6.7929   -7.1374    4.9905 H   0  0  0  0  0  0  0  0  0  0  0  0
   -8.9242   -6.3657    7.4339 C   0  0  0  0  0  0  0  0  0  0  0  0
  -10.0731   -6.7090    8.2567 C   0  0  0  0  0  0  0  0  0  0  0  0
  -10.5264   -5.9814    9.3794 C   0  0  0  0  0  0  0  0  0  0  0  0
  -11.5849   -6.5868    9.9125 N   0  0  0  0  0  0  0  0  0  0  0  0
  -11.8465   -7.6671    9.1988 C   0  0  0  0  0  0  0  0  0  0  0  0
  -12.8399   -8.6123    9.3300 C   0  0  0  0  0  0  0  0  0  0  0  0
  -12.9556   -9.6683    8.4596 C   0  0  0  0  0  0  0  0  0  0  0  0
  -12.0551   -9.8150    7.4010 C   0  0  0  0  0  0  0  0  0  0  0  0
  -11.0803   -8.8635    7.2968 C   0  0  0  0  0  0  0  0  0  0  0  0
  -10.9329   -7.7842    8.1579 C   0  0  0  0  0  0  0  0  0  0  0  0
  -12.1142   -6.2368   10.7687 H   0  0  0  0  0  0  0  0  0  0  0  0
   -3.9716   -4.7117    9.2258 C   0  0  0  0  0  0  0  0  0  0  0  0
   -4.4469   -5.0174   10.5957 C   0  0  0  0  0  0  0  0  0  0  0  0
   -3.6703   -4.0763   11.5314 C   0  0  0  0  0  0  0  0  0  0  0  0
   -4.3039   -3.9149   12.7978 N   0  0  0  0  0  0  0  0  0  0  0  0
   -5.3293   -3.9480   12.8594 H   0  0  0  0  0  0  0  0  0  0  0  0
   -3.4884   -3.7074   13.9466 C   0  0  0  0  0  0  0  0  0  0  0  0
   -4.0052   -3.0234   15.0903 N   0  0  0  0  0  0  0  0  0  0  0  0
   -2.2843   -4.1328   13.9631 N   0  0  0  0  0  0  0  0  0  0  0  0
   -4.6657   -2.2420   14.9947 H   0  0  0  0  0  0  0  0  0  0  0  0
   -3.6801   -3.3509   16.0332 H   0  0  0  0  0  0  0  0  0  0  0  0
   -1.9048   -4.6286   13.1322 H   0  0  0  0  0  0  0  0  0  0  0  0
   -1.5001   -5.7951    4.4222 C   0  0  0  0  0  0  0  0  0  0  0  0
   -0.9506   -5.8671    3.0569 C   0  0  0  0  0  0  0  0  0  0  0  0
   -0.6287   -7.2700    2.6526 C   0  0  0  0  0  0  0  0  0  0  0  0
   -0.3485   -8.2378    3.6332 N   0  0  0  0  0  0  0  0  0  0  0  0
    0.5401   -8.0483    4.2232 H   0  0  0  0  0  0  0  0  0  0  0  0
   -1.0144   -9.4223    3.9867 C   0  0  0  0  0  0  0  0  0  0  0  0
   -1.6920   -9.6829    5.1911 N   0  0  0  0  0  0  0  0  0  0  0  0
   -1.0160  -10.3800    3.0934 N   0  0  0  0  0  0  0  0  0  0  0  0
   -1.7293  -10.6782    5.5492 H   0  0  0  0  0  0  0  0  0  0  0  0
   -2.1798   -8.9984    5.7996 H   0  0  0  0  0  0  0  0  0  0  0  0
   -0.5548  -10.2740    2.1827 H   0  0  0  0  0  0  0  0  0  0  0  0
 21 22  1  0  0  0
 22 23  2  0  0  0
 23 24  1  0  0  0
 24 25  1  0  0  0
 24 26  2  0  0  0
 26 27  1  0  0  0
 27 28  1  0  0  0
 27 29  2  0  0  0
 29 20  1  0  0  0
 20 16  1  0  0  0
 16 17  1  0  0  0
 16 12  1  0  0  0
 12 13  2  0  0  0
 12 14  1  0  0  0
 14 11  1  0  0  0
 11 31  1  0  0  0
 31 32  1  0  0  0
 32 33  2  0  0  0
 33 34  1  0  0  0
 34 35  2  0  0  0
 35 36  1  0  0  0
 36 37  2  0  0  0
 11  7  1  0  0  0
  7  8  2  0  0  0
  7  9  1  0  0  0
  9  6  1  0  0  0
  6 38  1  0  0  0
 38 39  1  0  0  0
 39 40  2  0  0  0
 40 41  1  0  0  0
 41 42  2  0  0  0
 42 43  1  0  0  0
 43 44  2  0  0  0
  6  2  1  0  0  0
  2  3  2  0  0  0
  2  4  1  0  0  0
  4  1  1  0  0  0
  1 82  1  0  0  0
 82 83  1  0  0  0
 83 84  1  0  0  0
 84 85  1  0  0  0
 85 87  1  0  0  0
 87 88  1  0  0  0
 87 89  2  0  0  0
  1 45  1  0  0  0
 45 46  2  0  0  0
 45 47  1  0  0  0
 47 49  1  0  0  0
 49 71  1  0  0  0
 71 72  1  0  0  0
 72 73  1  0  0  0
 73 74  1  0  0  0
 74 76  1  0  0  0
 76 77  1  0  0  0
 76 78  2  0  0  0
 49 50  1  0  0  0
 50 51  2  0  0  0
 50 52  1  0  0  0
 52 54  1  0  0  0
 54 60  1  0  0  0
 60 61  1  0  0  0
 61 62  2  0  0  0
 62 63  1  0  0  0
 63 64  1  0  0  0
 64 65  2  0  0  0
 65 66  1  0  0  0
 66 67  2  0  0  0
 67 68  1  0  0  0
 68 69  2  0  0  0
 54 55  1  0  0  0
 55 56  1  0  0  0
 55 57  2  0  0  0
 29 22  1  0  0  0
 37 32  1  0  0  0
 44 39  1  0  0  0
 69 61  1  0  0  0
 69 64  1  0  0  0
 25 30  1  0  0  0
 17 18  1  0  0  0
 17 19  1  0  0  0
 14 15  1  0  0  0
  9 10  1  0  0  0
  4  5  1  0  0  0
 85 86  1  0  0  0
 88 90  1  0  0  0
 88 91  1  0  0  0
 89 92  1  0  0  0
 47 48  1  0  0  0
 74 75  1  0  0  0
 77 79  1  0  0  0
 77 80  1  0  0  0
 78 81  1  0  0  0
 52 53  1  0  0  0
 63 70  1  0  0  0
 56 58  1  0  0  0
 56 59  1  0  0  0
M  END
> <minimizedAffinity>
-7.07389

> <CNNscore>
0.1311696917

> <CNNaffinity>
7.3892655373

> <CNN_VS>
0.9692476988

> <CNNaffinity_variance>
0.1498980820

$$$$
[H]N=C(N([H])[H])N([H])C([H])([H])C([H])([H])C([H])([H])[C@@]([H])(C(=O)N([H])[C@]([H])(C(=O)N([H])[H])C([H])([H])c1c([H])n([H])c2c([H])c([H])c([H])c([H])c12)N([H])C(=O)[C@@]([H])(N([H])C(=O)[C@@]([H])(N([H])C(=O)[C@]([H])(N([H])C(=O)[C@@]([H])(N([H])[H])C([H])([H])c1c(C([H])([H])[H])c([H])c(O[H])c([H])c1C([H])([H])[H])C([H])([H])c1c([H])c([H])c([H])c([H])c1[H])C([H])([H])c1c([H])c([H])c([H])c([H])c1[H])C([H])([H])C([H])([H])C([H])([H])N([H])C(=N[H])N([H])[H]


 92 96  0  0  0  0  0  0  0  0999 V2000
   -2.5612   -3.0543    2.0342 C   0  0  0  0  0  0  0  0  0  0  0  0
   -2.5663   -2.5409    4.5501 C   0  0  0  0  0  0  0  0  0  0  0  0
   -1.4147   -2.0988    4.5312 O   0  0  0  0  0  0  0  0  0  0  0  0
   -3.0991   -2.9797    3.3217 N   0  0  0  0  0  0  0  0  0  0  0  0
   -4.1258   -3.3376    3.3933 H   0  0  0  0  0  0  0  0  0  0  0  0
   -3.3756   -2.6437    5.7793 C   0  0  0  0  0  0  0  0  0  0  0  0
   -3.7362   -5.2277    5.9236 C   0  0  0  0  0  0  0  0  0  0  0  0
   -3.0107   -5.6913    5.0272 O   0  0  0  0  0  0  0  0  0  0  0  0
   -3.8477   -3.8876    6.2224 N   0  0  0  0  0  0  0  0  0  0  0  0
   -4.5254   -3.7440    7.1075 H   0  0  0  0  0  0  0  0  0  0  0  0
   -4.5271   -6.2658    6.6937 C   0  0  0  0  0  0  0  0  0  0  0  0
   -6.9288   -6.7342    7.0311 C   0  0  0  0  0  0  0  0  0  0  0  0
   -6.6667   -7.8952    6.5762 O   0  0  0  0  0  0  0  0  0  0  0  0
   -5.8272   -5.8363    7.1079 N   0  0  0  0  0  0  0  0  0  0  0  0
   -5.9799   -4.8857    7.4612 H   0  0  0  0  0  0  0  0  0  0  0  0
   -8.3167   -6.5008    7.4117 C   0  0  0  0  0  0  0  0  0  0  0  0
   -9.2058   -6.0658    6.4104 N   0  0  0  0  0  0  0  0  0  0  0  0
   -8.8146   -5.8575    5.4827 H   0  0  0  0  0  0  0  0  0  0  0  0
   -9.8213   -5.2992    6.7661 H   0  0  0  0  0  0  0  0  0  0  0  0
   -8.7728   -7.6389    8.2780 C   0  0  0  0  0  0  0  0  0  0  0  0
   -9.4858  -10.1217    6.7990 C   0  0  0  0  0  0  0  0  0  0  0  0
  -10.4961   -9.2185    7.4165 C   0  0  0  0  0  0  0  0  0  0  0  0
  -11.8536   -9.5758    7.3009 C   0  0  0  0  0  0  0  0  0  0  0  0
  -12.8532   -8.8292    7.8912 C   0  0  0  0  0  0  0  0  0  0  0  0
  -14.1937   -9.1693    7.7832 O   0  0  0  0  0  0  0  0  0  0  0  0
  -12.4478   -7.7173    8.5986 C   0  0  0  0  0  0  0  0  0  0  0  0
  -11.1523   -7.3244    8.7440 C   0  0  0  0  0  0  0  0  0  0  0  0
  -10.7734   -6.1214    9.5349 C   0  0  0  0  0  0  0  0  0  0  0  0
  -10.1419   -8.1119    8.1232 C   0  0  0  0  0  0  0  0  0  0  0  0
  -14.8836   -8.5745    8.2414 H   0  0  0  0  0  0  0  0  0  0  0  0
   -3.7513   -6.4883    8.0071 C   0  0  0  0  0  0  0  0  0  0  0  0
   -2.7785   -7.5828    7.9006 C   0  0  0  0  0  0  0  0  0  0  0  0
   -2.8491   -8.6267    7.0083 C   0  0  0  0  0  0  0  0  0  0  0  0
   -1.9036   -9.6429    6.9622 C   0  0  0  0  0  0  0  0  0  0  0  0
   -0.8428   -9.6137    7.8440 C   0  0  0  0  0  0  0  0  0  0  0  0
   -0.7296   -8.5914    8.7532 C   0  0  0  0  0  0  0  0  0  0  0  0
   -1.6914   -7.5949    8.7709 C   0  0  0  0  0  0  0  0  0  0  0  0
   -2.7748   -1.8347    6.8845 C   0  0  0  0  0  0  0  0  0  0  0  0
   -3.2123   -0.4216    6.9347 C   0  0  0  0  0  0  0  0  0  0  0  0
   -2.3957    0.5528    7.4568 C   0  0  0  0  0  0  0  0  0  0  0  0
   -2.8062    1.8797    7.5098 C   0  0  0  0  0  0  0  0  0  0  0  0
   -4.0635    2.2005    7.0219 C   0  0  0  0  0  0  0  0  0  0  0  0
   -4.9055    1.2322    6.4910 C   0  0  0  0  0  0  0  0  0  0  0  0
   -4.4724   -0.0709    6.4521 C   0  0  0  0  0  0  0  0  0  0  0  0
   -2.9834   -2.1710    0.9439 C   0  0  0  0  0  0  0  0  0  0  0  0
   -2.1350   -1.3843    0.4782 O   0  0  0  0  0  0  0  0  0  0  0  0
   -4.2805   -2.1770    0.4100 N   0  0  0  0  0  0  0  0  0  0  0  0
   -4.9385   -2.8792    0.9258 H   0  0  0  0  0  0  0  0  0  0  0  0
   -4.8729   -1.4447   -0.6821 C   0  0  0  0  0  0  0  0  0  0  0  0
   -5.3776   -0.1065   -0.4000 C   0  0  0  0  0  0  0  0  0  0  0  0
   -5.2284    0.7750   -1.3527 O   0  0  0  0  0  0  0  0  0  0  0  0
   -6.0080    0.4227    0.7268 N   0  0  0  0  0  0  0  0  0  0  0  0
   -6.1336   -0.0695    1.6056 H   0  0  0  0  0  0  0  0  0  0  0  0
   -6.5189    1.8217    0.7269 C   0  0  0  0  0  0  0  0  0  0  0  0
   -5.9882    2.6156    1.8165 C   0  0  0  0  0  0  0  0  0  0  0  0
   -4.7496    2.3323    2.4402 N   0  0  0  0  0  0  0  0  0  0  0  0
   -6.6297    3.6277    2.2844 O   0  0  0  0  0  0  0  0  0  0  0  0
   -4.2487    3.0562    2.9563 H   0  0  0  0  0  0  0  0  0  0  0  0
   -4.3380    1.3687    2.3789 H   0  0  0  0  0  0  0  0  0  0  0  0
   -7.9797    1.7715    0.5602 C   0  0  0  0  0  0  0  0  0  0  0  0
   -8.6170    2.7016   -0.3584 C   0  0  0  0  0  0  0  0  0  0  0  0
   -7.9448    3.6163   -1.1992 C   0  0  0  0  0  0  0  0  0  0  0  0
   -8.8308    4.3306   -1.8889 N   0  0  0  0  0  0  0  0  0  0  0  0
  -10.0420    3.9311   -1.5449 C   0  0  0  0  0  0  0  0  0  0  0  0
  -11.2820    4.3425   -1.9814 C   0  0  0  0  0  0  0  0  0  0  0  0
  -12.4413    3.7795   -1.5071 C   0  0  0  0  0  0  0  0  0  0  0  0
  -12.3940    2.7583   -0.5540 C   0  0  0  0  0  0  0  0  0  0  0  0
  -11.1509    2.3722   -0.1392 C   0  0  0  0  0  0  0  0  0  0  0  0
   -9.9591    2.9189   -0.5960 C   0  0  0  0  0  0  0  0  0  0  0  0
   -8.5789    5.0886   -2.5944 H   0  0  0  0  0  0  0  0  0  0  0  0
   -5.6118   -2.3206   -1.6119 C   0  0  0  0  0  0  0  0  0  0  0  0
   -5.0495   -2.6346   -2.9464 C   0  0  0  0  0  0  0  0  0  0  0  0
   -5.7408   -1.6772   -3.9313 C   0  0  0  0  0  0  0  0  0  0  0  0
   -7.1616   -1.7100   -3.8238 N   0  0  0  0  0  0  0  0  0  0  0  0
   -7.6413   -2.6130   -3.7204 H   0  0  0  0  0  0  0  0  0  0  0  0
   -7.8771   -0.4796   -3.8671 C   0  0  0  0  0  0  0  0  0  0  0  0
   -8.5418   -0.0677   -5.0636 N   0  0  0  0  0  0  0  0  0  0  0  0
   -7.9303    0.2677   -2.8328 N   0  0  0  0  0  0  0  0  0  0  0  0
   -8.1476   -0.2663   -5.9916 H   0  0  0  0  0  0  0  0  0  0  0  0
   -9.4491    0.4491   -4.9553 H   0  0  0  0  0  0  0  0  0  0  0  0
   -7.4462   -0.0279   -1.9618 H   0  0  0  0  0  0  0  0  0  0  0  0
   -2.0733   -4.4313    1.6539 C   0  0  0  0  0  0  0  0  0  0  0  0
   -0.6674   -4.4941    1.2175 C   0  0  0  0  0  0  0  0  0  0  0  0
   -0.1218   -5.8849    1.2737 C   0  0  0  0  0  0  0  0  0  0  0  0
    0.1353   -6.5881    0.0836 N   0  0  0  0  0  0  0  0  0  0  0  0
    0.0808   -5.9939   -0.8206 H   0  0  0  0  0  0  0  0  0  0  0  0
    0.4465   -7.9373   -0.1498 C   0  0  0  0  0  0  0  0  0  0  0  0
    1.0287   -8.8390    0.7588 N   0  0  0  0  0  0  0  0  0  0  0  0
    0.1494   -8.4084   -1.3351 N   0  0  0  0  0  0  0  0  0  0  0  0
    1.6361   -9.6198    0.3826 H   0  0  0  0  0  0  0  0  0  0  0  0
    0.9372   -8.8381    1.7924 H   0  0  0  0  0  0  0  0  0  0  0  0
   -0.2867   -7.8245   -2.0578 H   0  0  0  0  0  0  0  0  0  0  0  0
 21 22  1  0  0  0
 22 23  2  0  0  0
 23 24  1  0  0  0
 24 25  1  0  0  0
 24 26  2  0  0  0
 26 27  1  0  0  0
 27 28  1  0  0  0
 27 29  2  0  0  0
 29 20  1  0  0  0
 20 16  1  0  0  0
 16 17  1  0  0  0
 16 12  1  0  0  0
 12 13  2  0  0  0
 12 14  1  0  0  0
 14 11  1  0  0  0
 11 31  1  0  0  0
 31 32  1  0  0  0
 32 33  2  0  0  0
 33 34  1  0  0  0
 34 35  2  0  0  0
 35 36  1  0  0  0
 36 37  2  0  0  0
 11  7  1  0  0  0
  7  8  2  0  0  0
  7  9  1  0  0  0
  9  6  1  0  0  0
  6 38  1  0  0  0
 38 39  1  0  0  0
 39 40  2  0  0  0
 40 41  1  0  0  0
 41 42  2  0  0  0
 42 43  1  0  0  0
 43 44  2  0  0  0
  6  2  1  0  0  0
  2  3  2  0  0  0
  2  4  1  0  0  0
  4  1  1  0  0  0
  1 82  1  0  0  0
 82 83  1  0  0  0
 83 84  1  0  0  0
 84 85  1  0  0  0
 85 87  1  0  0  0
 87 88  1  0  0  0
 87 89  2  0  0  0
  1 45  1  0  0  0
 45 46  2  0  0  0
 45 47  1  0  0  0
 47 49  1  0  0  0
 49 71  1  0  0  0
 71 72  1  0  0  0
 72 73  1  0  0  0
 73 74  1  0  0  0
 74 76  1  0  0  0
 76 77  1  0  0  0
 76 78  2  0  0  0
 49 50  1  0  0  0
 50 51  2  0  0  0
 50 52  1  0  0  0
 52 54  1  0  0  0
 54 60  1  0  0  0
 60 61  1  0  0  0
 61 62  2  0  0  0
 62 63  1  0  0  0
 63 64  1  0  0  0
 64 65  2  0  0  0
 65 66  1  0  0  0
 66 67  2  0  0  0
 67 68  1  0  0  0
 68 69  2  0  0  0
 54 55  1  0  0  0
 55 56  1  0  0  0
 55 57  2  0  0  0
 29 22  1  0  0  0
 37 32  1  0  0  0
 44 39  1  0  0  0
 69 61  1  0  0  0
 69 64  1  0  0  0
 25 30  1  0  0  0
 17 18  1  0  0  0
 17 19  1  0  0  0
 14 15  1  0  0  0
  9 10  1  0  0  0
  4  5  1  0  0  0
 85 86  1  0  0  0
 88 90  1  0  0  0
 88 91  1  0  0  0
 89 92  1  0  0  0
 47 48  1  0  0  0
 74 75  1  0  0  0
 77 79  1  0  0  0
 77 80  1  0  0  0
 78 81  1  0  0  0
 52 53  1  0  0  0
 63 70  1  0  0  0
 56 58  1  0  0  0
 56 59  1  0  0  0
M  END
> <minimizedAffinity>
-7.87882

> <CNNscore>
0.1209142804

> <CNNaffinity>
7.0372076035

> <CNN_VS>
0.8508989215

> <CNNaffinity_variance>
0.6538993120

$$$$
