[H]/C(=C1/SC(=O)N(C([H])([H])C(=O)N([H])S(=O)(=O)N(C([H])([H])[H])C([H])([H])[H])C1=O)c1c([H])c([H])c2c(c([H])nn2C([H])([H])c2c([H])c([H])c(Cl)c([H])c2C(F)(F)F)c1[H]


 40 43  0  0  0  0  0  0  0  0999 V2000
  -13.0955   -8.8157    6.9790 C   0  0  0  0  0  0  0  0  0  0  0  0
  -13.0001  -10.1127    6.4712 C   0  0  0  0  0  0  0  0  0  0  0  0
  -11.7936  -10.7442    6.3110 C   0  0  0  0  0  0  0  0  0  0  0  0
  -10.6301  -10.0868    6.6591 C   0  0  0  0  0  0  0  0  0  0  0  0
   -9.3229  -10.4151    6.6275 N   0  0  0  0  0  0  0  0  0  0  0  0
   -8.5890   -9.4156    7.0796 N   0  0  0  0  0  0  0  0  0  0  0  0
   -9.3867   -8.4050    7.4204 C   0  0  0  0  0  0  0  0  0  0  0  0
  -10.6882   -8.8096    7.1617 C   0  0  0  0  0  0  0  0  0  0  0  0
  -11.9106   -8.1983    7.3132 C   0  0  0  0  0  0  0  0  0  0  0  0
  -17.3943   -7.8623    5.0695 N   0  0  0  0  0  0  0  0  0  0  0  0
  -16.6615   -8.4175    3.9891 C   0  0  0  0  0  0  0  0  0  0  0  0
  -16.8368   -8.3204    2.7565 O   0  0  0  0  0  0  0  0  0  0  0  0
  -15.3482   -9.3464    4.7832 S   0  0  0  0  0  0  0  0  0  0  0  0
  -15.3760   -8.3547    6.3053 C   0  0  0  0  0  0  0  0  0  0  0  0
  -14.4051   -8.1934    7.1483 C   0  0  0  0  0  0  0  0  0  0  0  0
  -16.7310   -7.8235    6.2922 C   0  0  0  0  0  0  0  0  0  0  0  0
  -17.2735   -7.3480    7.3572 O   0  0  0  0  0  0  0  0  0  0  0  0
  -18.7772   -7.3596    4.8517 C   0  0  0  0  0  0  0  0  0  0  0  0
  -19.9102   -5.1396    4.4897 N   0  0  0  0  0  0  0  0  0  0  0  0
  -18.7662   -5.8809    4.8462 C   0  0  0  0  0  0  0  0  0  0  0  0
  -17.7103   -5.2871    5.1675 O   0  0  0  0  0  0  0  0  0  0  0  0
  -20.7799   -5.6590    4.2249 H   0  0  0  0  0  0  0  0  0  0  0  0
  -19.9671   -3.4281    4.4617 S   0  0  0  0  0  0  0  0  0  0  0  0
  -18.5507   -2.8796    4.3060 O   0  0  0  0  0  0  0  0  0  0  0  0
  -20.8295   -2.9201    3.3227 O   0  0  0  0  0  0  0  0  0  0  0  0
  -21.4152   -1.5977    5.5493 C   0  0  0  0  0  0  0  0  0  0  0  0
  -20.6090   -2.7432    5.9071 N   0  0  0  0  0  0  0  0  0  0  0  0
  -19.4546   -2.2002    6.6396 C   0  0  0  0  0  0  0  0  0  0  0  0
   -8.8344  -11.6962    6.1623 C   0  0  0  0  0  0  0  0  0  0  0  0
   -8.5607  -11.7302    4.7102 C   0  0  0  0  0  0  0  0  0  0  0  0
   -8.3127  -10.5410    4.0525 C   0  0  0  0  0  0  0  0  0  0  0  0
   -8.0522  -10.4982    2.7173 C   0  0  0  0  0  0  0  0  0  0  0  0
   -8.0411  -11.6970    2.0185 C   0  0  0  0  0  0  0  0  0  0  0  0
   -7.7158  -11.7476    0.2981 Cl  0  0  0  0  0  0  0  0  0  0  0  0
   -8.2902  -12.8756    2.6866 C   0  0  0  0  0  0  0  0  0  0  0  0
   -8.5576  -12.9262    4.0545 C   0  0  0  0  0  0  0  0  0  0  0  0
   -8.8137  -14.2186    4.7095 C   0  0  0  0  0  0  0  0  0  0  0  0
   -9.4568  -14.1172    5.9164 F   0  0  0  0  0  0  0  0  0  0  0  0
   -9.6653  -14.9792    3.8958 F   0  0  0  0  0  0  0  0  0  0  0  0
   -7.6550  -14.9997    4.8009 F   0  0  0  0  0  0  0  0  0  0  0  0
 26 27  1  0  0  0
 27 28  1  0  0  0
 27 23  1  0  0  0
 23 24  2  0  0  0
 23 25  2  0  0  0
 23 19  1  0  0  0
 19 20  1  0  0  0
 20 21  2  0  0  0
 20 18  1  0  0  0
 18 10  1  0  0  0
 10 11  1  0  0  0
 11 12  2  0  0  0
 11 13  1  0  0  0
 13 14  1  0  0  0
 14 15  2  0  0  0
 15  1  1  0  0  0
  1  2  2  0  0  0
  2  3  1  0  0  0
  3  4  2  0  0  0
  4  5  1  0  0  0
  5 29  1  0  0  0
 29 30  1  0  0  0
 30 31  2  0  0  0
 31 32  1  0  0  0
 32 33  2  0  0  0
 33 34  1  0  0  0
 33 35  1  0  0  0
 35 36  2  0  0  0
 36 37  1  0  0  0
 37 38  1  0  0  0
 37 39  1  0  0  0
 37 40  1  0  0  0
  5  6  1  0  0  0
  6  7  2  0  0  0
  7  8  1  0  0  0
  8  9  2  0  0  0
 14 16  1  0  0  0
 16 17  2  0  0  0
 16 10  1  0  0  0
  9  1  1  0  0  0
  8  4  1  0  0  0
 36 30  1  0  0  0
 19 22  1  0  0  0
M  END
> <minimizedAffinity>
22.70250

> <CNNscore>
0.4954380691

> <CNNaffinity>
6.9187302589

> <CNN_VS>
3.4278023243

> <CNNaffinity_variance>
0.9393439293

$$$$
[H]/C(=C1/SC(=O)N(C([H])([H])C(=O)N([H])S(=O)(=O)N(C([H])([H])[H])C([H])([H])[H])C1=O)c1c([H])c([H])c2c(c([H])nn2C([H])([H])c2c([H])c([H])c(Cl)c([H])c2C(F)(F)F)c1[H]


 40 43  0  0  0  0  0  0  0  0999 V2000
   -5.2492   -6.6770    6.5579 C   0  0  0  0  0  0  0  0  0  0  0  0
   -5.2265   -6.5020    7.9428 C   0  0  0  0  0  0  0  0  0  0  0  0
   -4.3350   -5.6590    8.5549 C   0  0  0  0  0  0  0  0  0  0  0  0
   -3.4266   -4.9563    7.7881 C   0  0  0  0  0  0  0  0  0  0  0  0
   -2.4474   -4.0734    8.0695 N   0  0  0  0  0  0  0  0  0  0  0  0
   -1.8521   -3.6807    6.9589 N   0  0  0  0  0  0  0  0  0  0  0  0
   -2.4185   -4.2900    5.9188 C   0  0  0  0  0  0  0  0  0  0  0  0
   -3.4216   -5.1053    6.4224 C   0  0  0  0  0  0  0  0  0  0  0  0
   -4.3263   -5.9565    5.8325 C   0  0  0  0  0  0  0  0  0  0  0  0
   -8.6142  -10.0331    7.2276 N   0  0  0  0  0  0  0  0  0  0  0  0
   -8.0351   -9.8755    8.5130 C   0  0  0  0  0  0  0  0  0  0  0  0
   -8.0220  -10.6460    9.4957 O   0  0  0  0  0  0  0  0  0  0  0  0
   -7.2747   -8.2518    8.4539 S   0  0  0  0  0  0  0  0  0  0  0  0
   -7.0891   -8.2499    6.6466 C   0  0  0  0  0  0  0  0  0  0  0  0
   -6.2305   -7.5720    5.9519 C   0  0  0  0  0  0  0  0  0  0  0  0
   -8.1267   -9.1851    6.2378 C   0  0  0  0  0  0  0  0  0  0  0  0
   -8.5601   -9.2162    5.0270 O   0  0  0  0  0  0  0  0  0  0  0  0
   -9.6655  -11.0614    7.0048 C   0  0  0  0  0  0  0  0  0  0  0  0
   -8.8132  -13.0292    5.6840 N   0  0  0  0  0  0  0  0  0  0  0  0
   -9.4106  -11.7537    5.7232 C   0  0  0  0  0  0  0  0  0  0  0  0
   -9.7377  -11.1823    4.6568 O   0  0  0  0  0  0  0  0  0  0  0  0
   -8.5489  -13.4854    6.5886 H   0  0  0  0  0  0  0  0  0  0  0  0
   -8.4896  -13.8866    4.2372 S   0  0  0  0  0  0  0  0  0  0  0  0
   -9.7510  -14.6255    3.7966 O   0  0  0  0  0  0  0  0  0  0  0  0
   -8.0413  -12.9545    3.1283 O   0  0  0  0  0  0  0  0  0  0  0  0
   -7.2305  -15.8863    3.2143 C   0  0  0  0  0  0  0  0  0  0  0  0
   -7.2528  -15.0744    4.4103 N   0  0  0  0  0  0  0  0  0  0  0  0
   -7.7056  -15.9693    5.4866 C   0  0  0  0  0  0  0  0  0  0  0  0
   -2.1294   -3.6382    9.4134 C   0  0  0  0  0  0  0  0  0  0  0  0
   -1.9005   -4.7540   10.3552 C   0  0  0  0  0  0  0  0  0  0  0  0
   -1.3457   -5.9250    9.8762 C   0  0  0  0  0  0  0  0  0  0  0  0
   -1.1064   -6.9917   10.6869 C   0  0  0  0  0  0  0  0  0  0  0  0
   -1.4379   -6.8753   12.0292 C   0  0  0  0  0  0  0  0  0  0  0  0
   -1.1686   -8.1914   13.1534 Cl  0  0  0  0  0  0  0  0  0  0  0  0
   -1.9907   -5.7021   12.4936 C   0  0  0  0  0  0  0  0  0  0  0  0
   -2.2384   -4.6055   11.6682 C   0  0  0  0  0  0  0  0  0  0  0  0
   -2.8294   -3.3793   12.2270 C   0  0  0  0  0  0  0  0  0  0  0  0
   -3.7506   -2.7781   11.4081 F   0  0  0  0  0  0  0  0  0  0  0  0
   -3.5278   -3.7049   13.3983 F   0  0  0  0  0  0  0  0  0  0  0  0
   -1.8517   -2.4762   12.6623 F   0  0  0  0  0  0  0  0  0  0  0  0
 26 27  1  0  0  0
 27 28  1  0  0  0
 27 23  1  0  0  0
 23 24  2  0  0  0
 23 25  2  0  0  0
 23 19  1  0  0  0
 19 20  1  0  0  0
 20 21  2  0  0  0
 20 18  1  0  0  0
 18 10  1  0  0  0
 10 11  1  0  0  0
 11 12  2  0  0  0
 11 13  1  0  0  0
 13 14  1  0  0  0
 14 15  2  0  0  0
 15  1  1  0  0  0
  1  2  2  0  0  0
  2  3  1  0  0  0
  3  4  2  0  0  0
  4  5  1  0  0  0
  5 29  1  0  0  0
 29 30  1  0  0  0
 30 31  2  0  0  0
 31 32  1  0  0  0
 32 33  2  0  0  0
 33 34  1  0  0  0
 33 35  1  0  0  0
 35 36  2  0  0  0
 36 37  1  0  0  0
 37 38  1  0  0  0
 37 39  1  0  0  0
 37 40  1  0  0  0
  5  6  1  0  0  0
  6  7  2  0  0  0
  7  8  1  0  0  0
  8  9  2  0  0  0
 14 16  1  0  0  0
 16 17  2  0  0  0
 16 10  1  0  0  0
  9  1  1  0  0  0
  8  4  1  0  0  0
 36 30  1  0  0  0
 19 22  1  0  0  0
M  END
> <minimizedAffinity>
10.95136

> <CNNscore>
0.4881633222

> <CNNaffinity>
6.3333773613

> <CNN_VS>
3.0917224884

> <CNNaffinity_variance>
1.0858732462

$$$$
[H]/C(=C1/SC(=O)N(C([H])([H])C(=O)N([H])S(=O)(=O)N(C([H])([H])[H])C([H])([H])[H])C1=O)c1c([H])c([H])c2c(c([H])nn2C([H])([H])c2c([H])c([H])c(Cl)c([H])c2C(F)(F)F)c1[H]


 40 43  0  0  0  0  0  0  0  0999 V2000
  -13.0073   -8.9003    6.7667 C   0  0  0  0  0  0  0  0  0  0  0  0
  -12.7704  -10.1587    6.2104 C   0  0  0  0  0  0  0  0  0  0  0  0
  -11.5184  -10.7171    6.1814 C   0  0  0  0  0  0  0  0  0  0  0  0
  -10.4511  -10.0226    6.7158 C   0  0  0  0  0  0  0  0  0  0  0  0
   -9.1341  -10.2811    6.8432 N   0  0  0  0  0  0  0  0  0  0  0  0
   -8.5256   -9.2736    7.4404 N   0  0  0  0  0  0  0  0  0  0  0  0
   -9.4189   -8.3269    7.7225 C   0  0  0  0  0  0  0  0  0  0  0  0
  -10.6492   -8.7817    7.2710 C   0  0  0  0  0  0  0  0  0  0  0  0
  -11.9146   -8.2437    7.2882 C   0  0  0  0  0  0  0  0  0  0  0  0
  -17.3244   -8.7142    4.6780 N   0  0  0  0  0  0  0  0  0  0  0  0
  -16.5312   -9.4348    3.7484 C   0  0  0  0  0  0  0  0  0  0  0  0
  -16.6880   -9.6225    2.5238 O   0  0  0  0  0  0  0  0  0  0  0  0
  -15.1701  -10.0660    4.7318 S   0  0  0  0  0  0  0  0  0  0  0  0
  -15.3011   -8.7711    5.9995 C   0  0  0  0  0  0  0  0  0  0  0  0
  -14.3620   -8.3568    6.7905 C   0  0  0  0  0  0  0  0  0  0  0  0
  -16.6907   -8.3596    5.8650 C   0  0  0  0  0  0  0  0  0  0  0  0
  -17.2880   -7.7055    6.7978 O   0  0  0  0  0  0  0  0  0  0  0  0
  -18.7355   -8.3771    4.3499 C   0  0  0  0  0  0  0  0  0  0  0  0
  -17.9446   -6.0001    4.0904 N   0  0  0  0  0  0  0  0  0  0  0  0
  -18.9362   -6.9186    4.4885 C   0  0  0  0  0  0  0  0  0  0  0  0
  -20.0157   -6.5043    4.9718 O   0  0  0  0  0  0  0  0  0  0  0  0
  -17.0513   -6.3713    3.6897 H   0  0  0  0  0  0  0  0  0  0  0  0
  -18.1106   -4.3006    4.2226 S   0  0  0  0  0  0  0  0  0  0  0  0
  -17.0478   -3.7635    5.1783 O   0  0  0  0  0  0  0  0  0  0  0  0
  -17.9621   -3.6220    2.8748 O   0  0  0  0  0  0  0  0  0  0  0  0
  -20.2696   -2.9372    3.8901 C   0  0  0  0  0  0  0  0  0  0  0  0
  -19.6384   -3.8116    4.8530 N   0  0  0  0  0  0  0  0  0  0  0  0
  -19.3380   -2.9647    6.0178 C   0  0  0  0  0  0  0  0  0  0  0  0
   -8.5146  -11.5060    6.3825 C   0  0  0  0  0  0  0  0  0  0  0  0
   -8.4427  -11.6121    4.9100 C   0  0  0  0  0  0  0  0  0  0  0  0
   -8.1860  -10.4721    4.1732 C   0  0  0  0  0  0  0  0  0  0  0  0
   -8.1049  -10.4968    2.8148 C   0  0  0  0  0  0  0  0  0  0  0  0
   -8.2891  -11.7141    2.1747 C   0  0  0  0  0  0  0  0  0  0  0  0
   -8.2037  -11.8501    0.4304 Cl  0  0  0  0  0  0  0  0  0  0  0  0
   -8.5445  -12.8431    2.9215 C   0  0  0  0  0  0  0  0  0  0  0  0
   -8.6288  -12.8244    4.3135 C   0  0  0  0  0  0  0  0  0  0  0  0
   -8.9024  -14.0666    5.0533 C   0  0  0  0  0  0  0  0  0  0  0  0
   -9.4179  -13.8688    6.3086 F   0  0  0  0  0  0  0  0  0  0  0  0
   -9.8757  -14.8018    4.3619 F   0  0  0  0  0  0  0  0  0  0  0  0
   -7.7927  -14.9204    5.0746 F   0  0  0  0  0  0  0  0  0  0  0  0
 26 27  1  0  0  0
 27 28  1  0  0  0
 27 23  1  0  0  0
 23 24  2  0  0  0
 23 25  2  0  0  0
 23 19  1  0  0  0
 19 20  1  0  0  0
 20 21  2  0  0  0
 20 18  1  0  0  0
 18 10  1  0  0  0
 10 11  1  0  0  0
 11 12  2  0  0  0
 11 13  1  0  0  0
 13 14  1  0  0  0
 14 15  2  0  0  0
 15  1  1  0  0  0
  1  2  2  0  0  0
  2  3  1  0  0  0
  3  4  2  0  0  0
  4  5  1  0  0  0
  5 29  1  0  0  0
 29 30  1  0  0  0
 30 31  2  0  0  0
 31 32  1  0  0  0
 32 33  2  0  0  0
 33 34  1  0  0  0
 33 35  1  0  0  0
 35 36  2  0  0  0
 36 37  1  0  0  0
 37 38  1  0  0  0
 37 39  1  0  0  0
 37 40  1  0  0  0
  5  6  1  0  0  0
  6  7  2  0  0  0
  7  8  1  0  0  0
  8  9  2  0  0  0
 14 16  1  0  0  0
 16 17  2  0  0  0
 16 10  1  0  0  0
  9  1  1  0  0  0
  8  4  1  0  0  0
 36 30  1  0  0  0
 19 22  1  0  0  0
M  END
> <minimizedAffinity>
27.17163

> <CNNscore>
0.4784684479

> <CNNaffinity>
6.9105958939

> <CNN_VS>
3.3065021038

> <CNNaffinity_variance>
1.2182735205

$$$$
[H]/C(=C1/SC(=O)N(C([H])([H])C(=O)N([H])S(=O)(=O)N(C([H])([H])[H])C([H])([H])[H])C1=O)c1c([H])c([H])c2c(c([H])nn2C([H])([H])c2c([H])c([H])c(Cl)c([H])c2C(F)(F)F)c1[H]


 40 43  0  0  0  0  0  0  0  0999 V2000
  -12.7506   -6.8683    8.2971 C   0  0  0  0  0  0  0  0  0  0  0  0
  -11.8398   -7.7021    7.6457 C   0  0  0  0  0  0  0  0  0  0  0  0
  -10.5368   -7.8178    8.0569 C   0  0  0  0  0  0  0  0  0  0  0  0
  -10.1006   -7.0920    9.1477 C   0  0  0  0  0  0  0  0  0  0  0  0
   -8.9198   -6.9824    9.7889 N   0  0  0  0  0  0  0  0  0  0  0  0
   -9.0236   -6.1380   10.7980 N   0  0  0  0  0  0  0  0  0  0  0  0
  -10.2690   -5.6690   10.8509 C   0  0  0  0  0  0  0  0  0  0  0  0
  -10.9709   -6.2619    9.8116 C   0  0  0  0  0  0  0  0  0  0  0  0
  -12.2728   -6.1637    9.3797 C   0  0  0  0  0  0  0  0  0  0  0  0
  -15.8848   -4.9089    5.2356 N   0  0  0  0  0  0  0  0  0  0  0  0
  -14.6967   -4.1628    5.0249 C   0  0  0  0  0  0  0  0  0  0  0  0
  -14.5302   -3.0253    4.5373 O   0  0  0  0  0  0  0  0  0  0  0  0
  -13.3934   -5.2350    5.6331 S   0  0  0  0  0  0  0  0  0  0  0  0
  -14.4821   -6.1520    6.7622 C   0  0  0  0  0  0  0  0  0  0  0  0
  -14.1325   -6.7938    7.8323 C   0  0  0  0  0  0  0  0  0  0  0  0
  -15.7860   -5.9571    6.1455 C   0  0  0  0  0  0  0  0  0  0  0  0
  -16.7827   -6.7175    6.4337 O   0  0  0  0  0  0  0  0  0  0  0  0
  -17.1317   -4.5451    4.5108 C   0  0  0  0  0  0  0  0  0  0  0  0
  -17.3579   -7.0369    4.2229 N   0  0  0  0  0  0  0  0  0  0  0  0
  -17.6385   -5.7282    3.7826 C   0  0  0  0  0  0  0  0  0  0  0  0
  -18.3310   -5.5486    2.7536 O   0  0  0  0  0  0  0  0  0  0  0  0
  -16.7770   -7.1604    5.0852 H   0  0  0  0  0  0  0  0  0  0  0  0
  -17.9120   -8.4495    3.4287 S   0  0  0  0  0  0  0  0  0  0  0  0
  -18.8307   -9.2278    4.3677 O   0  0  0  0  0  0  0  0  0  0  0  0
  -18.6649   -8.1118    2.1566 O   0  0  0  0  0  0  0  0  0  0  0  0
  -16.5984  -10.6064    3.9312 C   0  0  0  0  0  0  0  0  0  0  0  0
  -16.6402   -9.5213    2.9769 N   0  0  0  0  0  0  0  0  0  0  0  0
  -15.3922   -8.7691    3.1794 C   0  0  0  0  0  0  0  0  0  0  0  0
   -7.7307   -7.7104    9.3984 C   0  0  0  0  0  0  0  0  0  0  0  0
   -7.5146   -7.7448    7.9366 C   0  0  0  0  0  0  0  0  0  0  0  0
   -7.2621   -6.5593    7.2740 C   0  0  0  0  0  0  0  0  0  0  0  0
   -7.0527   -6.5171    5.9298 C   0  0  0  0  0  0  0  0  0  0  0  0
   -7.0994   -7.7126    5.2269 C   0  0  0  0  0  0  0  0  0  0  0  0
   -6.8427   -7.7637    3.4949 Cl  0  0  0  0  0  0  0  0  0  0  0  0
   -7.3525   -8.8875    5.9000 C   0  0  0  0  0  0  0  0  0  0  0  0
   -7.5677   -8.9374    7.2771 C   0  0  0  0  0  0  0  0  0  0  0  0
   -7.8311  -10.2259    7.9370 C   0  0  0  0  0  0  0  0  0  0  0  0
   -8.1129  -10.1226    9.2751 F   0  0  0  0  0  0  0  0  0  0  0  0
   -8.9690  -10.8074    7.3600 F   0  0  0  0  0  0  0  0  0  0  0  0
   -6.8176  -11.1599    7.6889 F   0  0  0  0  0  0  0  0  0  0  0  0
 26 27  1  0  0  0
 27 28  1  0  0  0
 27 23  1  0  0  0
 23 24  2  0  0  0
 23 25  2  0  0  0
 23 19  1  0  0  0
 19 20  1  0  0  0
 20 21  2  0  0  0
 20 18  1  0  0  0
 18 10  1  0  0  0
 10 11  1  0  0  0
 11 12  2  0  0  0
 11 13  1  0  0  0
 13 14  1  0  0  0
 14 15  2  0  0  0
 15  1  1  0  0  0
  1  2  2  0  0  0
  2  3  1  0  0  0
  3  4  2  0  0  0
  4  5  1  0  0  0
  5 29  1  0  0  0
 29 30  1  0  0  0
 30 31  2  0  0  0
 31 32  1  0  0  0
 32 33  2  0  0  0
 33 34  1  0  0  0
 33 35  1  0  0  0
 35 36  2  0  0  0
 36 37  1  0  0  0
 37 38  1  0  0  0
 37 39  1  0  0  0
 37 40  1  0  0  0
  5  6  1  0  0  0
  6  7  2  0  0  0
  7  8  1  0  0  0
  8  9  2  0  0  0
 14 16  1  0  0  0
 16 17  2  0  0  0
 16 10  1  0  0  0
  9  1  1  0  0  0
  8  4  1  0  0  0
 36 30  1  0  0  0
 19 22  1  0  0  0
M  END
> <minimizedAffinity>
11.59872

> <CNNscore>
0.4177639484

> <CNNaffinity>
7.2067346573

> <CNN_VS>
3.0107138157

> <CNNaffinity_variance>
1.0318052769

$$$$
[H]/C(=C1/SC(=O)N(C([H])([H])C(=O)N([H])S(=O)(=O)N(C([H])([H])[H])C([H])([H])[H])C1=O)c1c([H])c([H])c2c(c([H])nn2C([H])([H])c2c([H])c([H])c(Cl)c([H])c2C(F)(F)F)c1[H]


 40 43  0  0  0  0  0  0  0  0999 V2000
  -11.2817   -7.5002    7.9766 C   0  0  0  0  0  0  0  0  0  0  0  0
  -10.7401   -7.9266    6.7625 C   0  0  0  0  0  0  0  0  0  0  0  0
   -9.3907   -8.0952    6.5873 C   0  0  0  0  0  0  0  0  0  0  0  0
   -8.5310   -7.8382    7.6370 C   0  0  0  0  0  0  0  0  0  0  0  0
   -7.1932   -7.9035    7.7902 N   0  0  0  0  0  0  0  0  0  0  0  0
   -6.8549   -7.5480    9.0154 N   0  0  0  0  0  0  0  0  0  0  0  0
   -7.9538   -7.2396    9.7017 C   0  0  0  0  0  0  0  0  0  0  0  0
   -9.0307   -7.4170    8.8454 C   0  0  0  0  0  0  0  0  0  0  0  0
  -10.3881   -7.2561    8.9958 C   0  0  0  0  0  0  0  0  0  0  0  0
  -15.3540   -5.6829    6.2021 N   0  0  0  0  0  0  0  0  0  0  0  0
  -14.3441   -5.0951    5.3976 C   0  0  0  0  0  0  0  0  0  0  0  0
  -14.3640   -4.0586    4.7014 O   0  0  0  0  0  0  0  0  0  0  0  0
  -12.9406   -6.1968    5.5835 S   0  0  0  0  0  0  0  0  0  0  0  0
  -13.4768   -6.8352    7.1978 C   0  0  0  0  0  0  0  0  0  0  0  0
  -12.7272   -7.3539    8.1189 C   0  0  0  0  0  0  0  0  0  0  0  0
  -14.9122   -6.5992    7.1517 C   0  0  0  0  0  0  0  0  0  0  0  0
  -15.7165   -7.2093    7.9490 O   0  0  0  0  0  0  0  0  0  0  0  0
  -16.7783   -5.3009    6.0074 C   0  0  0  0  0  0  0  0  0  0  0  0
  -16.8165   -7.5138    4.8052 N   0  0  0  0  0  0  0  0  0  0  0  0
  -17.4337   -6.2873    5.1218 C   0  0  0  0  0  0  0  0  0  0  0  0
  -18.5619   -6.0138    4.6495 O   0  0  0  0  0  0  0  0  0  0  0  0
  -15.8738   -7.7187    5.2122 H   0  0  0  0  0  0  0  0  0  0  0  0
  -17.5178   -8.6997    3.7878 S   0  0  0  0  0  0  0  0  0  0  0  0
  -18.3783   -9.6397    4.6286 O   0  0  0  0  0  0  0  0  0  0  0  0
  -18.3739   -8.0679    2.7074 O   0  0  0  0  0  0  0  0  0  0  0  0
  -16.2420  -10.9343    3.6921 C   0  0  0  0  0  0  0  0  0  0  0  0
  -16.3532   -9.6807    2.9805 N   0  0  0  0  0  0  0  0  0  0  0  0
  -15.0606   -9.0040    3.1686 C   0  0  0  0  0  0  0  0  0  0  0  0
   -6.2900   -8.3166    6.7365 C   0  0  0  0  0  0  0  0  0  0  0  0
   -5.5394   -7.1963    6.1313 C   0  0  0  0  0  0  0  0  0  0  0  0
   -6.2360   -6.2319    5.4293 C   0  0  0  0  0  0  0  0  0  0  0  0
   -5.6097   -5.1729    4.8474 C   0  0  0  0  0  0  0  0  0  0  0  0
   -4.2312   -5.0816    4.9769 C   0  0  0  0  0  0  0  0  0  0  0  0
   -3.3332   -3.7568    4.2650 Cl  0  0  0  0  0  0  0  0  0  0  0  0
   -3.5488   -6.0503    5.6794 C   0  0  0  0  0  0  0  0  0  0  0  0
   -4.1847   -7.1378    6.2781 C   0  0  0  0  0  0  0  0  0  0  0  0
   -3.3981   -8.1379    7.0171 C   0  0  0  0  0  0  0  0  0  0  0  0
   -2.0672   -7.8287    7.1340 F   0  0  0  0  0  0  0  0  0  0  0  0
   -3.8803   -8.2139    8.3315 F   0  0  0  0  0  0  0  0  0  0  0  0
   -3.5903   -9.4315    6.5165 F   0  0  0  0  0  0  0  0  0  0  0  0
 26 27  1  0  0  0
 27 28  1  0  0  0
 27 23  1  0  0  0
 23 24  2  0  0  0
 23 25  2  0  0  0
 23 19  1  0  0  0
 19 20  1  0  0  0
 20 21  2  0  0  0
 20 18  1  0  0  0
 18 10  1  0  0  0
 10 11  1  0  0  0
 11 12  2  0  0  0
 11 13  1  0  0  0
 13 14  1  0  0  0
 14 15  2  0  0  0
 15  1  1  0  0  0
  1  2  2  0  0  0
  2  3  1  0  0  0
  3  4  2  0  0  0
  4  5  1  0  0  0
  5 29  1  0  0  0
 29 30  1  0  0  0
 30 31  2  0  0  0
 31 32  1  0  0  0
 32 33  2  0  0  0
 33 34  1  0  0  0
 33 35  1  0  0  0
 35 36  2  0  0  0
 36 37  1  0  0  0
 37 38  1  0  0  0
 37 39  1  0  0  0
 37 40  1  0  0  0
  5  6  1  0  0  0
  6  7  2  0  0  0
  7  8  1  0  0  0
  8  9  2  0  0  0
 14 16  1  0  0  0
 16 17  2  0  0  0
 16 10  1  0  0  0
  9  1  1  0  0  0
  8  4  1  0  0  0
 36 30  1  0  0  0
 19 22  1  0  0  0
M  END
> <minimizedAffinity>
6.78709

> <CNNscore>
0.4007282555

> <CNNaffinity>
7.0256385803

> <CNN_VS>
2.8153719902

> <CNNaffinity_variance>
1.6216545105

$$$$
[H]/C(=C1/SC(=O)N(C([H])([H])C(=O)N([H])S(=O)(=O)N(C([H])([H])[H])C([H])([H])[H])C1=O)c1c([H])c([H])c2c(c([H])nn2C([H])([H])c2c([H])c([H])c(Cl)c([H])c2C(F)(F)F)c1[H]


 40 43  0  0  0  0  0  0  0  0999 V2000
   -6.8232   -8.4376    7.1126 C   0  0  0  0  0  0  0  0  0  0  0  0
   -7.6185   -9.5651    6.8994 C   0  0  0  0  0  0  0  0  0  0  0  0
   -8.9534   -9.5834    7.2123 C   0  0  0  0  0  0  0  0  0  0  0  0
   -9.5402   -8.4577    7.7559 C   0  0  0  0  0  0  0  0  0  0  0  0
  -10.7896   -8.1557    8.1624 N   0  0  0  0  0  0  0  0  0  0  0  0
  -10.8363   -6.9174    8.6167 N   0  0  0  0  0  0  0  0  0  0  0  0
   -9.6257   -6.3701    8.5234 C   0  0  0  0  0  0  0  0  0  0  0  0
   -8.7863   -7.3311    7.9790 C   0  0  0  0  0  0  0  0  0  0  0  0
   -7.4497   -7.3380    7.6560 C   0  0  0  0  0  0  0  0  0  0  0  0
   -2.9932   -5.9608    5.6189 N   0  0  0  0  0  0  0  0  0  0  0  0
   -4.0587   -5.0303    5.5121 C   0  0  0  0  0  0  0  0  0  0  0  0
   -4.1622   -3.9926    4.8251 O   0  0  0  0  0  0  0  0  0  0  0  0
   -5.3118   -5.6709    6.6246 S   0  0  0  0  0  0  0  0  0  0  0  0
   -4.7209   -7.3862    6.5281 C   0  0  0  0  0  0  0  0  0  0  0  0
   -5.4106   -8.4616    6.7452 C   0  0  0  0  0  0  0  0  0  0  0  0
   -3.3271   -7.2023    6.1515 C   0  0  0  0  0  0  0  0  0  0  0  0
   -2.4624   -8.1420    6.3071 O   0  0  0  0  0  0  0  0  0  0  0  0
   -1.6271   -5.5845    5.1667 C   0  0  0  0  0  0  0  0  0  0  0  0
   -1.7813   -4.0843    3.1495 N   0  0  0  0  0  0  0  0  0  0  0  0
   -1.6362   -5.3719    3.7033 C   0  0  0  0  0  0  0  0  0  0  0  0
   -1.5114   -6.3666    2.9513 O   0  0  0  0  0  0  0  0  0  0  0  0
   -1.8841   -3.2695    3.7990 H   0  0  0  0  0  0  0  0  0  0  0  0
   -1.8006   -3.7667    1.4667 S   0  0  0  0  0  0  0  0  0  0  0  0
   -1.0599   -2.4601    1.1922 O   0  0  0  0  0  0  0  0  0  0  0  0
   -1.1467   -4.8880    0.6828 O   0  0  0  0  0  0  0  0  0  0  0  0
   -3.2794   -3.1005   -0.5332 C   0  0  0  0  0  0  0  0  0  0  0  0
   -3.3896   -3.5812    0.8258 N   0  0  0  0  0  0  0  0  0  0  0  0
   -4.0015   -2.4801    1.5856 C   0  0  0  0  0  0  0  0  0  0  0  0
  -11.8978   -9.0846    8.0882 C   0  0  0  0  0  0  0  0  0  0  0  0
  -13.1314   -8.4870    7.5353 C   0  0  0  0  0  0  0  0  0  0  0  0
  -13.3424   -8.5407    6.1712 C   0  0  0  0  0  0  0  0  0  0  0  0
  -14.4560   -8.0121    5.5943 C   0  0  0  0  0  0  0  0  0  0  0  0
  -15.3916   -7.4070    6.4213 C   0  0  0  0  0  0  0  0  0  0  0  0
  -16.8574   -6.6978    5.7756 Cl  0  0  0  0  0  0  0  0  0  0  0  0
  -15.1686   -7.3602    7.7799 C   0  0  0  0  0  0  0  0  0  0  0  0
  -14.0297   -7.9001    8.3771 C   0  0  0  0  0  0  0  0  0  0  0  0
  -13.8520   -7.8191    9.8355 C   0  0  0  0  0  0  0  0  0  0  0  0
  -15.0133   -7.9647   10.5502 F   0  0  0  0  0  0  0  0  0  0  0  0
  -13.0239   -8.8715   10.2511 F   0  0  0  0  0  0  0  0  0  0  0  0
  -13.1470   -6.6705   10.2157 F   0  0  0  0  0  0  0  0  0  0  0  0
 26 27  1  0  0  0
 27 28  1  0  0  0
 27 23  1  0  0  0
 23 24  2  0  0  0
 23 25  2  0  0  0
 23 19  1  0  0  0
 19 20  1  0  0  0
 20 21  2  0  0  0
 20 18  1  0  0  0
 18 10  1  0  0  0
 10 11  1  0  0  0
 11 12  2  0  0  0
 11 13  1  0  0  0
 13 14  1  0  0  0
 14 15  2  0  0  0
 15  1  1  0  0  0
  1  2  2  0  0  0
  2  3  1  0  0  0
  3  4  2  0  0  0
  4  5  1  0  0  0
  5 29  1  0  0  0
 29 30  1  0  0  0
 30 31  2  0  0  0
 31 32  1  0  0  0
 32 33  2  0  0  0
 33 34  1  0  0  0
 33 35  1  0  0  0
 35 36  2  0  0  0
 36 37  1  0  0  0
 37 38  1  0  0  0
 37 39  1  0  0  0
 37 40  1  0  0  0
  5  6  1  0  0  0
  6  7  2  0  0  0
  7  8  1  0  0  0
  8  9  2  0  0  0
 14 16  1  0  0  0
 16 17  2  0  0  0
 16 10  1  0  0  0
  9  1  1  0  0  0
  8  4  1  0  0  0
 36 30  1  0  0  0
 19 22  1  0  0  0
M  END
> <minimizedAffinity>
-8.48728

> <CNNscore>
0.3785847425

> <CNNaffinity>
6.8881177902

> <CNN_VS>
2.6077363491

> <CNNaffinity_variance>
0.1128538400

$$$$
[H]/C(=C1/SC(=O)N(C([H])([H])C(=O)N([H])S(=O)(=O)N(C([H])([H])[H])C([H])([H])[H])C1=O)c1c([H])c([H])c2c(c([H])nn2C([H])([H])c2c([H])c([H])c(Cl)c([H])c2C(F)(F)F)c1[H]


 40 43  0  0  0  0  0  0  0  0999 V2000
  -12.7455   -8.5730    5.5076 C   0  0  0  0  0  0  0  0  0  0  0  0
  -13.7253   -9.1733    4.7147 C   0  0  0  0  0  0  0  0  0  0  0  0
  -14.7307   -8.4487    4.1279 C   0  0  0  0  0  0  0  0  0  0  0  0
  -14.7860   -7.0823    4.3201 C   0  0  0  0  0  0  0  0  0  0  0  0
  -15.6178   -6.1093    3.8969 N   0  0  0  0  0  0  0  0  0  0  0  0
  -15.2302   -4.9390    4.3681 N   0  0  0  0  0  0  0  0  0  0  0  0
  -14.1377   -5.1055    5.1114 C   0  0  0  0  0  0  0  0  0  0  0  0
  -13.8375   -6.4598    5.0947 C   0  0  0  0  0  0  0  0  0  0  0  0
  -12.8391   -7.2087    5.6719 C   0  0  0  0  0  0  0  0  0  0  0  0
   -8.5863   -8.6719    7.9006 N   0  0  0  0  0  0  0  0  0  0  0  0
   -8.7735   -7.2966    7.6071 C   0  0  0  0  0  0  0  0  0  0  0  0
   -7.9483   -6.3611    7.5489 O   0  0  0  0  0  0  0  0  0  0  0  0
  -10.5373   -7.1478    7.3160 S   0  0  0  0  0  0  0  0  0  0  0  0
  -10.7481   -8.8887    6.8410 C   0  0  0  0  0  0  0  0  0  0  0  0
  -11.6844   -9.3853    6.0953 C   0  0  0  0  0  0  0  0  0  0  0  0
   -9.6163   -9.5194    7.5039 C   0  0  0  0  0  0  0  0  0  0  0  0
   -9.5819  -10.7894    7.7058 O   0  0  0  0  0  0  0  0  0  0  0  0
   -7.3447   -9.1262    8.5821 C   0  0  0  0  0  0  0  0  0  0  0  0
   -6.1973   -7.6842    6.8653 N   0  0  0  0  0  0  0  0  0  0  0  0
   -6.2075   -8.2928    8.1361 C   0  0  0  0  0  0  0  0  0  0  0  0
   -5.2386   -8.1327    8.9148 O   0  0  0  0  0  0  0  0  0  0  0  0
   -7.0185   -7.8335    6.2331 H   0  0  0  0  0  0  0  0  0  0  0  0
   -4.9149   -6.7083    6.2856 S   0  0  0  0  0  0  0  0  0  0  0  0
   -3.7225   -7.5969    5.9394 O   0  0  0  0  0  0  0  0  0  0  0  0
   -5.3278   -5.9219    5.0566 O   0  0  0  0  0  0  0  0  0  0  0  0
   -3.3428   -6.1851    8.2566 C   0  0  0  0  0  0  0  0  0  0  0  0
   -4.3578   -5.5571    7.4409 N   0  0  0  0  0  0  0  0  0  0  0  0
   -5.4942   -5.3135    8.3428 C   0  0  0  0  0  0  0  0  0  0  0  0
  -16.7602   -6.3542    3.0417 C   0  0  0  0  0  0  0  0  0  0  0  0
  -17.9766   -5.6266    3.4611 C   0  0  0  0  0  0  0  0  0  0  0  0
  -18.2130   -4.3701    2.9380 C   0  0  0  0  0  0  0  0  0  0  0  0
  -19.3128   -3.6444    3.2788 C   0  0  0  0  0  0  0  0  0  0  0  0
  -20.2075   -4.2044    4.1796 C   0  0  0  0  0  0  0  0  0  0  0  0
  -21.6526   -3.3508    4.6810 Cl  0  0  0  0  0  0  0  0  0  0  0  0
  -19.9595   -5.4581    4.6937 C   0  0  0  0  0  0  0  0  0  0  0  0
  -18.8346   -6.2068    4.3484 C   0  0  0  0  0  0  0  0  0  0  0  0
  -18.6286   -7.5419    4.9317 C   0  0  0  0  0  0  0  0  0  0  0  0
  -19.7880   -8.1844    5.2831 F   0  0  0  0  0  0  0  0  0  0  0  0
  -18.0204   -8.3666    3.9748 F   0  0  0  0  0  0  0  0  0  0  0  0
  -17.7065   -7.5180    5.9853 F   0  0  0  0  0  0  0  0  0  0  0  0
 26 27  1  0  0  0
 27 28  1  0  0  0
 27 23  1  0  0  0
 23 24  2  0  0  0
 23 25  2  0  0  0
 23 19  1  0  0  0
 19 20  1  0  0  0
 20 21  2  0  0  0
 20 18  1  0  0  0
 18 10  1  0  0  0
 10 11  1  0  0  0
 11 12  2  0  0  0
 11 13  1  0  0  0
 13 14  1  0  0  0
 14 15  2  0  0  0
 15  1  1  0  0  0
  1  2  2  0  0  0
  2  3  1  0  0  0
  3  4  2  0  0  0
  4  5  1  0  0  0
  5 29  1  0  0  0
 29 30  1  0  0  0
 30 31  2  0  0  0
 31 32  1  0  0  0
 32 33  2  0  0  0
 33 34  1  0  0  0
 33 35  1  0  0  0
 35 36  2  0  0  0
 36 37  1  0  0  0
 37 38  1  0  0  0
 37 39  1  0  0  0
 37 40  1  0  0  0
  5  6  1  0  0  0
  6  7  2  0  0  0
  7  8  1  0  0  0
  8  9  2  0  0  0
 14 16  1  0  0  0
 16 17  2  0  0  0
 16 10  1  0  0  0
  9  1  1  0  0  0
  8  4  1  0  0  0
 36 30  1  0  0  0
 19 22  1  0  0  0
M  END
> <minimizedAffinity>
11.59615

> <CNNscore>
0.3780110478

> <CNNaffinity>
6.7941451073

> <CNN_VS>
2.5682618618

> <CNNaffinity_variance>
0.6444021463

$$$$
[H]/C(=C1/SC(=O)N(C([H])([H])C(=O)N([H])S(=O)(=O)N(C([H])([H])[H])C([H])([H])[H])C1=O)c1c([H])c([H])c2c(c([H])nn2C([H])([H])c2c([H])c([H])c(Cl)c([H])c2C(F)(F)F)c1[H]


 40 43  0  0  0  0  0  0  0  0999 V2000
   -7.3377   -7.1527    6.4226 C   0  0  0  0  0  0  0  0  0  0  0  0
   -8.3461   -6.4544    7.0894 C   0  0  0  0  0  0  0  0  0  0  0  0
   -9.4556   -7.0834    7.5931 C   0  0  0  0  0  0  0  0  0  0  0  0
   -9.5907   -8.4494    7.4420 C   0  0  0  0  0  0  0  0  0  0  0  0
  -10.5295   -9.3445    7.8091 N   0  0  0  0  0  0  0  0  0  0  0  0
  -10.1828  -10.5571    7.4199 N   0  0  0  0  0  0  0  0  0  0  0  0
   -9.0118  -10.4968    6.7883 C   0  0  0  0  0  0  0  0  0  0  0  0
   -8.6169   -9.1669    6.7907 C   0  0  0  0  0  0  0  0  0  0  0  0
   -7.5135   -8.5128    6.2951 C   0  0  0  0  0  0  0  0  0  0  0  0
   -3.2715   -4.8246    7.4618 N   0  0  0  0  0  0  0  0  0  0  0  0
   -3.8801   -5.0211    8.7280 C   0  0  0  0  0  0  0  0  0  0  0  0
   -3.7150   -4.4175    9.8087 O   0  0  0  0  0  0  0  0  0  0  0  0
   -5.0069   -6.3917    8.4636 S   0  0  0  0  0  0  0  0  0  0  0  0
   -5.1753   -6.0921    6.6795 C   0  0  0  0  0  0  0  0  0  0  0  0
   -6.1666   -6.4402    5.9209 C   0  0  0  0  0  0  0  0  0  0  0  0
   -3.9412   -5.3823    6.3770 C   0  0  0  0  0  0  0  0  0  0  0  0
   -3.5048   -5.2833    5.1709 O   0  0  0  0  0  0  0  0  0  0  0  0
   -2.0029   -4.0551    7.3561 C   0  0  0  0  0  0  0  0  0  0  0  0
   -3.4608   -2.2319    6.4105 N   0  0  0  0  0  0  0  0  0  0  0  0
   -2.3130   -2.6277    7.1257 C   0  0  0  0  0  0  0  0  0  0  0  0
   -1.5299   -1.7620    7.5818 O   0  0  0  0  0  0  0  0  0  0  0  0
   -4.0992   -2.9742    6.0395 H   0  0  0  0  0  0  0  0  0  0  0  0
   -3.8796   -0.5991    6.1075 S   0  0  0  0  0  0  0  0  0  0  0  0
   -5.2102   -0.5508    5.3602 O   0  0  0  0  0  0  0  0  0  0  0  0
   -3.9990    0.1915    7.3959 O   0  0  0  0  0  0  0  0  0  0  0  0
   -2.1784    1.3223    5.8973 C   0  0  0  0  0  0  0  0  0  0  0  0
   -2.7291    0.2295    5.1276 N   0  0  0  0  0  0  0  0  0  0  0  0
   -3.5037    0.8589    4.0468 C   0  0  0  0  0  0  0  0  0  0  0  0
  -11.7314   -8.9868    8.5330 C   0  0  0  0  0  0  0  0  0  0  0  0
  -12.7531   -8.3304    7.6904 C   0  0  0  0  0  0  0  0  0  0  0  0
  -13.1217   -8.9320    6.5028 C   0  0  0  0  0  0  0  0  0  0  0  0
  -14.0563   -8.3844    5.6788 C   0  0  0  0  0  0  0  0  0  0  0  0
  -14.6414   -7.1868    6.0648 C   0  0  0  0  0  0  0  0  0  0  0  0
  -15.8544   -6.4024    5.0740 Cl  0  0  0  0  0  0  0  0  0  0  0  0
  -14.2645   -6.5975    7.2515 C   0  0  0  0  0  0  0  0  0  0  0  0
  -13.3075   -7.1536    8.1002 C   0  0  0  0  0  0  0  0  0  0  0  0
  -12.9506   -6.4748    9.3559 C   0  0  0  0  0  0  0  0  0  0  0  0
  -11.6757   -5.9699    9.3769 F   0  0  0  0  0  0  0  0  0  0  0  0
  -13.7932   -5.3676    9.5290 F   0  0  0  0  0  0  0  0  0  0  0  0
  -13.2135   -7.2719   10.4769 F   0  0  0  0  0  0  0  0  0  0  0  0
 26 27  1  0  0  0
 27 28  1  0  0  0
 27 23  1  0  0  0
 23 24  2  0  0  0
 23 25  2  0  0  0
 23 19  1  0  0  0
 19 20  1  0  0  0
 20 21  2  0  0  0
 20 18  1  0  0  0
 18 10  1  0  0  0
 10 11  1  0  0  0
 11 12  2  0  0  0
 11 13  1  0  0  0
 13 14  1  0  0  0
 14 15  2  0  0  0
 15  1  1  0  0  0
  1  2  2  0  0  0
  2  3  1  0  0  0
  3  4  2  0  0  0
  4  5  1  0  0  0
  5 29  1  0  0  0
 29 30  1  0  0  0
 30 31  2  0  0  0
 31 32  1  0  0  0
 32 33  2  0  0  0
 33 34  1  0  0  0
 33 35  1  0  0  0
 35 36  2  0  0  0
 36 37  1  0  0  0
 37 38  1  0  0  0
 37 39  1  0  0  0
 37 40  1  0  0  0
  5  6  1  0  0  0
  6  7  2  0  0  0
  7  8  1  0  0  0
  8  9  2  0  0  0
 14 16  1  0  0  0
 16 17  2  0  0  0
 16 10  1  0  0  0
  9  1  1  0  0  0
  8  4  1  0  0  0
 36 30  1  0  0  0
 19 22  1  0  0  0
M  END
> <minimizedAffinity>
-8.80226

> <CNNscore>
0.3769167960

> <CNNaffinity>
7.0867204666

> <CNN_VS>
2.6711039543

> <CNNaffinity_variance>
0.1619872302

$$$$
[H]/C(=C1/SC(=O)N(C([H])([H])C(=O)N([H])S(=O)(=O)N(C([H])([H])[H])C([H])([H])[H])C1=O)c1c([H])c([H])c2c(c([H])nn2C([H])([H])c2c([H])c([H])c(Cl)c([H])c2C(F)(F)F)c1[H]


 40 43  0  0  0  0  0  0  0  0999 V2000
  -14.3438   -8.1023    8.1119 C   0  0  0  0  0  0  0  0  0  0  0  0
  -14.3284   -8.6480    6.8270 C   0  0  0  0  0  0  0  0  0  0  0  0
  -15.3538   -8.4471    5.9391 C   0  0  0  0  0  0  0  0  0  0  0  0
  -16.4406   -7.6831    6.3164 C   0  0  0  0  0  0  0  0  0  0  0  0
  -17.5788   -7.3045    5.7011 N   0  0  0  0  0  0  0  0  0  0  0  0
  -18.3095   -6.5590    6.5088 N   0  0  0  0  0  0  0  0  0  0  0  0
  -17.6776   -6.4252    7.6735 C   0  0  0  0  0  0  0  0  0  0  0  0
  -16.4877   -7.1314    7.5736 C   0  0  0  0  0  0  0  0  0  0  0  0
  -15.4464   -7.3474    8.4454 C   0  0  0  0  0  0  0  0  0  0  0  0
   -9.8465   -6.9542    9.3329 N   0  0  0  0  0  0  0  0  0  0  0  0
  -10.0475   -6.2702    8.1064 C   0  0  0  0  0  0  0  0  0  0  0  0
   -9.2219   -5.8349    7.2768 O   0  0  0  0  0  0  0  0  0  0  0  0
  -11.8312   -6.1419    7.9647 S   0  0  0  0  0  0  0  0  0  0  0  0
  -12.1596   -7.5831    9.0212 C   0  0  0  0  0  0  0  0  0  0  0  0
  -13.2189   -8.3295    9.0141 C   0  0  0  0  0  0  0  0  0  0  0  0
  -10.9480   -7.6476    9.8250 C   0  0  0  0  0  0  0  0  0  0  0  0
  -10.9103   -8.3115   10.9262 O   0  0  0  0  0  0  0  0  0  0  0  0
   -8.5195   -6.9076   10.0033 C   0  0  0  0  0  0  0  0  0  0  0  0
   -7.7464   -7.7015    7.7415 N   0  0  0  0  0  0  0  0  0  0  0  0
   -7.4563   -7.1452    9.0032 C   0  0  0  0  0  0  0  0  0  0  0  0
   -6.2767   -6.8407    9.2971 O   0  0  0  0  0  0  0  0  0  0  0  0
   -8.7397   -7.9476    7.5202 H   0  0  0  0  0  0  0  0  0  0  0  0
   -6.5657   -8.0032    6.5381 S   0  0  0  0  0  0  0  0  0  0  0  0
   -5.2773   -8.4795    7.2047 O   0  0  0  0  0  0  0  0  0  0  0  0
   -7.0364   -9.0523    5.5496 O   0  0  0  0  0  0  0  0  0  0  0  0
   -6.1247   -6.9767    4.2181 C   0  0  0  0  0  0  0  0  0  0  0  0
   -6.1602   -6.6054    5.6149 N   0  0  0  0  0  0  0  0  0  0  0  0
   -4.7709   -6.2793    5.9721 C   0  0  0  0  0  0  0  0  0  0  0  0
  -17.9125   -7.6786    4.3427 C   0  0  0  0  0  0  0  0  0  0  0  0
  -17.3250   -8.9694    3.9261 C   0  0  0  0  0  0  0  0  0  0  0  0
  -17.9609  -10.1390    4.2950 C   0  0  0  0  0  0  0  0  0  0  0  0
  -17.4768  -11.3620    3.9452 C   0  0  0  0  0  0  0  0  0  0  0  0
  -16.3094  -11.4091    3.1965 C   0  0  0  0  0  0  0  0  0  0  0  0
  -15.6068  -12.9337    2.6964 Cl  0  0  0  0  0  0  0  0  0  0  0  0
  -15.6854  -10.2352    2.8356 C   0  0  0  0  0  0  0  0  0  0  0  0
  -16.1764   -8.9790    3.1908 C   0  0  0  0  0  0  0  0  0  0  0  0
  -15.4633   -7.7621    2.7717 C   0  0  0  0  0  0  0  0  0  0  0  0
  -14.3671   -7.9990    1.9826 F   0  0  0  0  0  0  0  0  0  0  0  0
  -16.3236   -6.9783    1.9897 F   0  0  0  0  0  0  0  0  0  0  0  0
  -15.1538   -6.9344    3.8580 F   0  0  0  0  0  0  0  0  0  0  0  0
 26 27  1  0  0  0
 27 28  1  0  0  0
 27 23  1  0  0  0
 23 24  2  0  0  0
 23 25  2  0  0  0
 23 19  1  0  0  0
 19 20  1  0  0  0
 20 21  2  0  0  0
 20 18  1  0  0  0
 18 10  1  0  0  0
 10 11  1  0  0  0
 11 12  2  0  0  0
 11 13  1  0  0  0
 13 14  1  0  0  0
 14 15  2  0  0  0
 15  1  1  0  0  0
  1  2  2  0  0  0
  2  3  1  0  0  0
  3  4  2  0  0  0
  4  5  1  0  0  0
  5 29  1  0  0  0
 29 30  1  0  0  0
 30 31  2  0  0  0
 31 32  1  0  0  0
 32 33  2  0  0  0
 33 34  1  0  0  0
 33 35  1  0  0  0
 35 36  2  0  0  0
 36 37  1  0  0  0
 37 38  1  0  0  0
 37 39  1  0  0  0
 37 40  1  0  0  0
  5  6  1  0  0  0
  6  7  2  0  0  0
  7  8  1  0  0  0
  8  9  2  0  0  0
 14 16  1  0  0  0
 16 17  2  0  0  0
 16 10  1  0  0  0
  9  1  1  0  0  0
  8  4  1  0  0  0
 36 30  1  0  0  0
 19 22  1  0  0  0
M  END
> <minimizedAffinity>
26.13022

> <CNNscore>
0.3493307531

> <CNNaffinity>
6.7410507202

> <CNN_VS>
2.3548562527

> <CNNaffinity_variance>
1.1282737255

$$$$
[H]Oc1c([H])c([H])c2c(c1[H])OC([H])([H])c1c-2nc2c([H])c([H])c(O[H])c([H])c2c1C([H])=C([H])[H]


 24 27  0  0  0  0  0  0  0  0999 V2000
   -8.1689  -14.1656   -0.2554 O   0  0  0  0  0  0  0  0  0  0  0  0
   -8.0819  -13.2274    0.7808 C   0  0  0  0  0  0  0  0  0  0  0  0
   -8.7209  -13.4515    1.9814 C   0  0  0  0  0  0  0  0  0  0  0  0
   -8.6552  -12.5475    3.0204 C   0  0  0  0  0  0  0  0  0  0  0  0
   -7.9423  -11.3794    2.8914 C   0  0  0  0  0  0  0  0  0  0  0  0
   -7.2935  -11.1369    1.6968 C   0  0  0  0  0  0  0  0  0  0  0  0
   -6.5681   -9.9882    1.5358 O   0  0  0  0  0  0  0  0  0  0  0  0
   -6.6241   -8.8444    2.3738 C   0  0  0  0  0  0  0  0  0  0  0  0
   -7.1773   -9.1763    3.7285 C   0  0  0  0  0  0  0  0  0  0  0  0
   -7.0804   -8.3239    4.8054 C   0  0  0  0  0  0  0  0  0  0  0  0
   -7.6693   -8.6628    6.0415 C   0  0  0  0  0  0  0  0  0  0  0  0
   -7.5933   -7.8151    7.1391 C   0  0  0  0  0  0  0  0  0  0  0  0
   -8.1672   -8.1168    8.3654 C   0  0  0  0  0  0  0  0  0  0  0  0
   -8.0660   -7.2314    9.4491 O   0  0  0  0  0  0  0  0  0  0  0  0
   -8.8347   -9.3146    8.4691 C   0  0  0  0  0  0  0  0  0  0  0  0
   -8.9186  -10.1651    7.3875 C   0  0  0  0  0  0  0  0  0  0  0  0
   -8.3399   -9.8520    6.1643 C   0  0  0  0  0  0  0  0  0  0  0  0
   -8.4250  -10.6747    5.1094 N   0  0  0  0  0  0  0  0  0  0  0  0
   -7.8676  -10.3661    3.9220 C   0  0  0  0  0  0  0  0  0  0  0  0
   -7.3694  -12.0516    0.6657 C   0  0  0  0  0  0  0  0  0  0  0  0
   -7.7254  -14.0469   -1.1377 H   0  0  0  0  0  0  0  0  0  0  0  0
   -7.2619   -7.3391   10.0754 H   0  0  0  0  0  0  0  0  0  0  0  0
   -6.3825   -7.0676    4.7447 C   0  0  0  0  0  0  0  0  0  0  0  0
   -6.2774   -6.1332    5.6467 C   0  0  0  0  0  0  0  0  0  0  0  0
  1  2  1  0  0  0
  2  3  2  0  0  0
  3  4  1  0  0  0
  4  5  2  0  0  0
  5  6  1  0  0  0
  6  7  1  0  0  0
  7  8  1  0  0  0
  8  9  1  0  0  0
  9 10  2  0  0  0
 10 23  1  0  0  0
 23 24  2  0  0  0
 10 11  1  0  0  0
 11 12  2  0  0  0
 12 13  1  0  0  0
 13 14  1  0  0  0
 13 15  2  0  0  0
 15 16  1  0  0  0
 16 17  2  0  0  0
 17 18  1  0  0  0
 18 19  2  0  0  0
  6 20  2  0  0  0
 20  2  1  0  0  0
  5 19  1  0  0  0
 19  9  1  0  0  0
 17 11  1  0  0  0
  1 21  1  0  0  0
 14 22  1  0  0  0
M  END
> <minimizedAffinity>
15.38625

> <CNNscore>
0.6093940735

> <CNNaffinity>
5.5071921349

> <CNN_VS>
3.3560502529

> <CNNaffinity_variance>
1.0600904226

$$$$
[H]Oc1c([H])c([H])c2c(c1[H])OC([H])([H])c1c-2nc2c([H])c([H])c(O[H])c([H])c2c1C([H])=C([H])[H]


 24 27  0  0  0  0  0  0  0  0999 V2000
  -21.6848   -1.0498    5.5059 O   0  0  0  0  0  0  0  0  0  0  0  0
  -20.8257   -2.1384    5.3104 C   0  0  0  0  0  0  0  0  0  0  0  0
  -21.0638   -3.0431    4.2979 C   0  0  0  0  0  0  0  0  0  0  0  0
  -20.2377   -4.1252    4.0800 C   0  0  0  0  0  0  0  0  0  0  0  0
  -19.1368   -4.3401    4.8745 C   0  0  0  0  0  0  0  0  0  0  0  0
  -18.8799   -3.4441    5.8933 C   0  0  0  0  0  0  0  0  0  0  0  0
  -17.7886   -3.6223    6.6990 O   0  0  0  0  0  0  0  0  0  0  0  0
  -17.0113   -4.8054    6.7974 C   0  0  0  0  0  0  0  0  0  0  0  0
  -17.1814   -5.6823    5.5917 C   0  0  0  0  0  0  0  0  0  0  0  0
  -16.3424   -6.7368    5.3093 C   0  0  0  0  0  0  0  0  0  0  0  0
  -16.5835   -7.5639    4.1924 C   0  0  0  0  0  0  0  0  0  0  0  0
  -15.7570   -8.6391    3.8928 C   0  0  0  0  0  0  0  0  0  0  0  0
  -15.9712   -9.4743    2.8061 C   0  0  0  0  0  0  0  0  0  0  0  0
  -15.1106  -10.5498    2.5393 O   0  0  0  0  0  0  0  0  0  0  0  0
  -17.0576   -9.2014    2.0084 C   0  0  0  0  0  0  0  0  0  0  0  0
  -17.8866   -8.1379    2.2946 C   0  0  0  0  0  0  0  0  0  0  0  0
  -17.6621   -7.3086    3.3859 C   0  0  0  0  0  0  0  0  0  0  0  0
  -18.4701   -6.2773    3.6697 N   0  0  0  0  0  0  0  0  0  0  0  0
  -18.2534   -5.4775    4.7324 C   0  0  0  0  0  0  0  0  0  0  0  0
  -19.7170   -2.3659    6.0992 C   0  0  0  0  0  0  0  0  0  0  0  0
  -21.5532   -0.3725    6.2223 H   0  0  0  0  0  0  0  0  0  0  0  0
  -14.3043  -10.3721    1.9319 H   0  0  0  0  0  0  0  0  0  0  0  0
  -15.1891   -7.0511    6.1094 C   0  0  0  0  0  0  0  0  0  0  0  0
  -14.2711   -6.2597    6.5874 C   0  0  0  0  0  0  0  0  0  0  0  0
  1  2  1  0  0  0
  2  3  2  0  0  0
  3  4  1  0  0  0
  4  5  2  0  0  0
  5  6  1  0  0  0
  6  7  1  0  0  0
  7  8  1  0  0  0
  8  9  1  0  0  0
  9 10  2  0  0  0
 10 23  1  0  0  0
 23 24  2  0  0  0
 10 11  1  0  0  0
 11 12  2  0  0  0
 12 13  1  0  0  0
 13 14  1  0  0  0
 13 15  2  0  0  0
 15 16  1  0  0  0
 16 17  2  0  0  0
 17 18  1  0  0  0
 18 19  2  0  0  0
  6 20  2  0  0  0
 20  2  1  0  0  0
  5 19  1  0  0  0
 19  9  1  0  0  0
 17 11  1  0  0  0
  1 21  1  0  0  0
 14 22  1  0  0  0
M  END
> <minimizedAffinity>
24.10387

> <CNNscore>
0.5252588987

> <CNNaffinity>
6.1039972305

> <CNN_VS>
3.2061789036

> <CNNaffinity_variance>
1.1883621216

$$$$
[H]Oc1c([H])c([H])c2c(c1[H])OC([H])([H])c1c-2nc2c([H])c([H])c(O[H])c([H])c2c1C([H])=C([H])[H]


 24 27  0  0  0  0  0  0  0  0999 V2000
   -2.7489   -1.5044    1.5333 O   0  0  0  0  0  0  0  0  0  0  0  0
   -2.7639   -1.8477    2.8910 C   0  0  0  0  0  0  0  0  0  0  0  0
   -3.6567   -2.7850    3.3646 C   0  0  0  0  0  0  0  0  0  0  0  0
   -3.6971   -3.1441    4.6952 C   0  0  0  0  0  0  0  0  0  0  0  0
   -2.8386   -2.5724    5.6037 C   0  0  0  0  0  0  0  0  0  0  0  0
   -1.9353   -1.6322    5.1488 C   0  0  0  0  0  0  0  0  0  0  0  0
   -1.0603   -1.0482    6.0235 O   0  0  0  0  0  0  0  0  0  0  0  0
   -1.1493   -1.0862    7.4393 C   0  0  0  0  0  0  0  0  0  0  0  0
   -2.0030   -2.2266    7.9106 C   0  0  0  0  0  0  0  0  0  0  0  0
   -2.0271   -2.6517    9.2199 C   0  0  0  0  0  0  0  0  0  0  0  0
   -2.8922   -3.6920    9.6188 C   0  0  0  0  0  0  0  0  0  0  0  0
   -2.9411   -4.1314   10.9355 C   0  0  0  0  0  0  0  0  0  0  0  0
   -3.7853   -5.1470   11.3600 C   0  0  0  0  0  0  0  0  0  0  0  0
   -3.8025   -5.5607   12.7005 O   0  0  0  0  0  0  0  0  0  0  0  0
   -4.5980   -5.7253   10.4135 C   0  0  0  0  0  0  0  0  0  0  0  0
   -4.5603   -5.2985    9.1032 C   0  0  0  0  0  0  0  0  0  0  0  0
   -3.7108   -4.2803    8.6900 C   0  0  0  0  0  0  0  0  0  0  0  0
   -3.6763   -3.8594    7.4177 N   0  0  0  0  0  0  0  0  0  0  0  0
   -2.8554   -2.8674    7.0204 C   0  0  0  0  0  0  0  0  0  0  0  0
   -1.9077   -1.2828    3.8136 C   0  0  0  0  0  0  0  0  0  0  0  0
   -2.1237   -0.8345    1.1467 H   0  0  0  0  0  0  0  0  0  0  0  0
   -3.1619   -6.3132   12.9725 H   0  0  0  0  0  0  0  0  0  0  0  0
   -1.1865   -2.0833   10.2395 C   0  0  0  0  0  0  0  0  0  0  0  0
   -1.4217   -1.0899   11.0491 C   0  0  0  0  0  0  0  0  0  0  0  0
  1  2  1  0  0  0
  2  3  2  0  0  0
  3  4  1  0  0  0
  4  5  2  0  0  0
  5  6  1  0  0  0
  6  7  1  0  0  0
  7  8  1  0  0  0
  8  9  1  0  0  0
  9 10  2  0  0  0
 10 23  1  0  0  0
 23 24  2  0  0  0
 10 11  1  0  0  0
 11 12  2  0  0  0
 12 13  1  0  0  0
 13 14  1  0  0  0
 13 15  2  0  0  0
 15 16  1  0  0  0
 16 17  2  0  0  0
 17 18  1  0  0  0
 18 19  2  0  0  0
  6 20  2  0  0  0
 20  2  1  0  0  0
  5 19  1  0  0  0
 19  9  1  0  0  0
 17 11  1  0  0  0
  1 21  1  0  0  0
 14 22  1  0  0  0
M  END
> <minimizedAffinity>
-2.21548

> <CNNscore>
0.4993160963

> <CNNaffinity>
4.7619442940

> <CNN_VS>
2.3777153492

> <CNNaffinity_variance>
0.6933985353

$$$$
[H]Oc1c([H])c([H])c2c(c1[H])OC([H])([H])c1c-2nc2c([H])c([H])c(O[H])c([H])c2c1C([H])=C([H])[H]


 24 27  0  0  0  0  0  0  0  0999 V2000
  -14.3225   -4.5454   12.1163 O   0  0  0  0  0  0  0  0  0  0  0  0
  -13.5002   -5.2684   11.2429 C   0  0  0  0  0  0  0  0  0  0  0  0
  -13.8507   -6.5412   10.8465 C   0  0  0  0  0  0  0  0  0  0  0  0
  -13.0627   -7.2789    9.9887 C   0  0  0  0  0  0  0  0  0  0  0  0
  -11.8880   -6.7634    9.4950 C   0  0  0  0  0  0  0  0  0  0  0  0
  -11.5199   -5.4891    9.8789 C   0  0  0  0  0  0  0  0  0  0  0  0
  -10.3611   -4.9410    9.4011 O   0  0  0  0  0  0  0  0  0  0  0  0
   -9.3131   -5.6449    8.7529 C   0  0  0  0  0  0  0  0  0  0  0  0
   -9.7873   -6.9546    8.1950 C   0  0  0  0  0  0  0  0  0  0  0  0
   -9.0547   -7.6923    7.2924 C   0  0  0  0  0  0  0  0  0  0  0  0
   -9.5232   -8.9452    6.8446 C   0  0  0  0  0  0  0  0  0  0  0  0
   -8.7974   -9.7118    5.9419 C   0  0  0  0  0  0  0  0  0  0  0  0
   -9.2278  -10.9499    5.4879 C   0  0  0  0  0  0  0  0  0  0  0  0
   -8.4632  -11.6916    4.5749 O   0  0  0  0  0  0  0  0  0  0  0  0
  -10.4294  -11.4130    5.9703 C   0  0  0  0  0  0  0  0  0  0  0  0
  -11.1597  -10.6629    6.8671 C   0  0  0  0  0  0  0  0  0  0  0  0
  -10.7182   -9.4244    7.3147 C   0  0  0  0  0  0  0  0  0  0  0  0
  -11.4237   -8.6956    8.1913 N   0  0  0  0  0  0  0  0  0  0  0  0
  -10.9905   -7.4968    8.6285 C   0  0  0  0  0  0  0  0  0  0  0  0
  -12.3193   -4.7634   10.7391 C   0  0  0  0  0  0  0  0  0  0  0  0
  -14.1107   -3.6254   12.4293 H   0  0  0  0  0  0  0  0  0  0  0  0
   -8.6376  -11.5386    3.5765 H   0  0  0  0  0  0  0  0  0  0  0  0
   -7.7996   -7.2413    6.7536 C   0  0  0  0  0  0  0  0  0  0  0  0
   -6.5884   -7.4524    7.1852 C   0  0  0  0  0  0  0  0  0  0  0  0
  1  2  1  0  0  0
  2  3  2  0  0  0
  3  4  1  0  0  0
  4  5  2  0  0  0
  5  6  1  0  0  0
  6  7  1  0  0  0
  7  8  1  0  0  0
  8  9  1  0  0  0
  9 10  2  0  0  0
 10 23  1  0  0  0
 23 24  2  0  0  0
 10 11  1  0  0  0
 11 12  2  0  0  0
 12 13  1  0  0  0
 13 14  1  0  0  0
 13 15  2  0  0  0
 15 16  1  0  0  0
 16 17  2  0  0  0
 17 18  1  0  0  0
 18 19  2  0  0  0
  6 20  2  0  0  0
 20  2  1  0  0  0
  5 19  1  0  0  0
 19  9  1  0  0  0
 17 11  1  0  0  0
  1 21  1  0  0  0
 14 22  1  0  0  0
M  END
> <minimizedAffinity>
7.38320

> <CNNscore>
0.4787026048

> <CNNaffinity>
5.7969264984

> <CNN_VS>
2.7750039101

> <CNNaffinity_variance>
1.1436626911

$$$$
[H]Oc1c([H])c([H])c2c(c1[H])OC([H])([H])c1c-2nc2c([H])c([H])c(O[H])c([H])c2c1C([H])=C([H])[H]


 24 27  0  0  0  0  0  0  0  0999 V2000
  -16.6706   -9.2775    3.8172 O   0  0  0  0  0  0  0  0  0  0  0  0
  -15.9610   -8.6084    4.8224 C   0  0  0  0  0  0  0  0  0  0  0  0
  -16.0877   -7.2446    4.9772 C   0  0  0  0  0  0  0  0  0  0  0  0
  -15.4024   -6.5567    5.9560 C   0  0  0  0  0  0  0  0  0  0  0  0
  -14.5604   -7.2159    6.8196 C   0  0  0  0  0  0  0  0  0  0  0  0
  -14.4209   -8.5828    6.6820 C   0  0  0  0  0  0  0  0  0  0  0  0
  -13.5974   -9.2728    7.5290 O   0  0  0  0  0  0  0  0  0  0  0  0
  -12.6218   -8.7037    8.3881 C   0  0  0  0  0  0  0  0  0  0  0  0
  -12.8980   -7.2535    8.6566 C   0  0  0  0  0  0  0  0  0  0  0  0
  -12.2764   -6.5472    9.6618 C   0  0  0  0  0  0  0  0  0  0  0  0
  -12.5317   -5.1705    9.8325 C   0  0  0  0  0  0  0  0  0  0  0  0
  -11.9095   -4.4349   10.8330 C   0  0  0  0  0  0  0  0  0  0  0  0
  -12.1345   -3.0793   11.0223 C   0  0  0  0  0  0  0  0  0  0  0  0
  -11.4847   -2.3740   12.0464 O   0  0  0  0  0  0  0  0  0  0  0  0
  -13.0171   -2.4633   10.1664 C   0  0  0  0  0  0  0  0  0  0  0  0
  -13.6412   -3.1811    9.1686 C   0  0  0  0  0  0  0  0  0  0  0  0
  -13.4077   -4.5384    8.9887 C   0  0  0  0  0  0  0  0  0  0  0  0
  -14.0088   -5.2375    8.0155 N   0  0  0  0  0  0  0  0  0  0  0  0
  -13.7762   -6.5531    7.8394 C   0  0  0  0  0  0  0  0  0  0  0  0
  -15.1134   -9.2572    5.6964 C   0  0  0  0  0  0  0  0  0  0  0  0
  -16.6108  -10.2590    3.6680 H   0  0  0  0  0  0  0  0  0  0  0  0
  -11.9492   -2.3284   12.9589 H   0  0  0  0  0  0  0  0  0  0  0  0
  -11.3557   -7.1534   10.5859 C   0  0  0  0  0  0  0  0  0  0  0  0
  -10.5686   -6.5927   11.4599 C   0  0  0  0  0  0  0  0  0  0  0  0
  1  2  1  0  0  0
  2  3  2  0  0  0
  3  4  1  0  0  0
  4  5  2  0  0  0
  5  6  1  0  0  0
  6  7  1  0  0  0
  7  8  1  0  0  0
  8  9  1  0  0  0
  9 10  2  0  0  0
 10 23  1  0  0  0
 23 24  2  0  0  0
 10 11  1  0  0  0
 11 12  2  0  0  0
 12 13  1  0  0  0
 13 14  1  0  0  0
 13 15  2  0  0  0
 15 16  1  0  0  0
 16 17  2  0  0  0
 17 18  1  0  0  0
 18 19  2  0  0  0
  6 20  2  0  0  0
 20  2  1  0  0  0
  5 19  1  0  0  0
 19  9  1  0  0  0
 17 11  1  0  0  0
  1 21  1  0  0  0
 14 22  1  0  0  0
M  END
> <minimizedAffinity>
18.31793

> <CNNscore>
0.4677926600

> <CNNaffinity>
5.9798569679

> <CNN_VS>
2.7973332405

> <CNNaffinity_variance>
1.4172117710

$$$$
[H]Oc1c([H])c([H])c2c(c1[H])OC([H])([H])c1c-2nc2c([H])c([H])c(O[H])c([H])c2c1C([H])=C([H])[H]


 24 27  0  0  0  0  0  0  0  0999 V2000
   -3.9910   -1.4222    2.0154 O   0  0  0  0  0  0  0  0  0  0  0  0
   -3.7073   -2.3847    2.9924 C   0  0  0  0  0  0  0  0  0  0  0  0
   -3.3664   -3.6698    2.6286 C   0  0  0  0  0  0  0  0  0  0  0  0
   -3.0823   -4.6402    3.5659 C   0  0  0  0  0  0  0  0  0  0  0  0
   -3.1302   -4.3547    4.9096 C   0  0  0  0  0  0  0  0  0  0  0  0
   -3.4681   -3.0724    5.2947 C   0  0  0  0  0  0  0  0  0  0  0  0
   -3.5181   -2.7504    6.6235 O   0  0  0  0  0  0  0  0  0  0  0  0
   -3.5341   -3.6715    7.7028 C   0  0  0  0  0  0  0  0  0  0  0  0
   -2.9993   -5.0128    7.2949 C   0  0  0  0  0  0  0  0  0  0  0  0
   -2.6500   -5.9867    8.2032 C   0  0  0  0  0  0  0  0  0  0  0  0
   -2.2067   -7.2509    7.7620 C   0  0  0  0  0  0  0  0  0  0  0  0
   -1.8581   -8.2523    8.6592 C   0  0  0  0  0  0  0  0  0  0  0  0
   -1.4250   -9.5072    8.2568 C   0  0  0  0  0  0  0  0  0  0  0  0
   -1.0821  -10.4903    9.1973 O   0  0  0  0  0  0  0  0  0  0  0  0
   -1.3477   -9.7413    6.9040 C   0  0  0  0  0  0  0  0  0  0  0  0
   -1.6912   -8.7567    6.0024 C   0  0  0  0  0  0  0  0  0  0  0  0
   -2.1238   -7.5038    6.4174 C   0  0  0  0  0  0  0  0  0  0  0  0
   -2.4641   -6.5466    5.5427 N   0  0  0  0  0  0  0  0  0  0  0  0
   -2.8890   -5.3336    5.9478 C   0  0  0  0  0  0  0  0  0  0  0  0
   -3.7506   -2.1121    4.3441 C   0  0  0  0  0  0  0  0  0  0  0  0
   -4.2411   -0.4838    2.2303 H   0  0  0  0  0  0  0  0  0  0  0  0
   -0.1075  -10.5251    9.5124 H   0  0  0  0  0  0  0  0  0  0  0  0
   -2.7047   -5.7812    9.6259 C   0  0  0  0  0  0  0  0  0  0  0  0
   -1.8172   -5.2560   10.4223 C   0  0  0  0  0  0  0  0  0  0  0  0
  1  2  1  0  0  0
  2  3  2  0  0  0
  3  4  1  0  0  0
  4  5  2  0  0  0
  5  6  1  0  0  0
  6  7  1  0  0  0
  7  8  1  0  0  0
  8  9  1  0  0  0
  9 10  2  0  0  0
 10 23  1  0  0  0
 23 24  2  0  0  0
 10 11  1  0  0  0
 11 12  2  0  0  0
 12 13  1  0  0  0
 13 14  1  0  0  0
 13 15  2  0  0  0
 15 16  1  0  0  0
 16 17  2  0  0  0
 17 18  1  0  0  0
 18 19  2  0  0  0
  6 20  2  0  0  0
 20  2  1  0  0  0
  5 19  1  0  0  0
 19  9  1  0  0  0
 17 11  1  0  0  0
  1 21  1  0  0  0
 14 22  1  0  0  0
M  END
> <minimizedAffinity>
-2.91922

> <CNNscore>
0.4606278241

> <CNNaffinity>
4.7807264328

> <CNN_VS>
2.2021355629

> <CNNaffinity_variance>
0.8698921204

$$$$
[H]Oc1c([H])c([H])c2c(c1[H])OC([H])([H])c1c-2nc2c([H])c([H])c(O[H])c([H])c2c1C([H])=C([H])[H]


 24 27  0  0  0  0  0  0  0  0999 V2000
  -13.1358   -5.4243   10.3728 O   0  0  0  0  0  0  0  0  0  0  0  0
  -11.9148   -5.7475    9.7676 C   0  0  0  0  0  0  0  0  0  0  0  0
  -10.7317   -5.2546   10.2749 C   0  0  0  0  0  0  0  0  0  0  0  0
   -9.5138   -5.5536    9.7019 C   0  0  0  0  0  0  0  0  0  0  0  0
   -9.4386   -6.3621    8.5929 C   0  0  0  0  0  0  0  0  0  0  0  0
  -10.6126   -6.8674    8.0703 C   0  0  0  0  0  0  0  0  0  0  0  0
  -10.5751   -7.6819    6.9717 O   0  0  0  0  0  0  0  0  0  0  0  0
   -9.4655   -7.8594    6.1051 C   0  0  0  0  0  0  0  0  0  0  0  0
   -8.1779   -7.4604    6.7641 C   0  0  0  0  0  0  0  0  0  0  0  0
   -6.9426   -7.7896    6.2532 C   0  0  0  0  0  0  0  0  0  0  0  0
   -5.7641   -7.3388    6.8836 C   0  0  0  0  0  0  0  0  0  0  0  0
   -4.5070   -7.6499    6.3815 C   0  0  0  0  0  0  0  0  0  0  0  0
   -3.3303   -7.2163    6.9746 C   0  0  0  0  0  0  0  0  0  0  0  0
   -2.0804   -7.5543    6.4342 O   0  0  0  0  0  0  0  0  0  0  0  0
   -3.4446   -6.4460    8.1079 C   0  0  0  0  0  0  0  0  0  0  0  0
   -4.6859   -6.1291    8.6167 C   0  0  0  0  0  0  0  0  0  0  0  0
   -5.8574   -6.5689    8.0139 C   0  0  0  0  0  0  0  0  0  0  0  0
   -7.0659   -6.2572    8.5033 N   0  0  0  0  0  0  0  0  0  0  0  0
   -8.2011   -6.6804    7.9134 C   0  0  0  0  0  0  0  0  0  0  0  0
  -11.8243   -6.5583    8.6551 C   0  0  0  0  0  0  0  0  0  0  0  0
  -14.0133   -5.7559   10.0424 H   0  0  0  0  0  0  0  0  0  0  0  0
   -1.6398   -8.4190    6.7638 H   0  0  0  0  0  0  0  0  0  0  0  0
   -6.7766   -8.6018    5.0776 C   0  0  0  0  0  0  0  0  0  0  0  0
   -5.8235   -9.4370    4.7748 C   0  0  0  0  0  0  0  0  0  0  0  0
  1  2  1  0  0  0
  2  3  2  0  0  0
  3  4  1  0  0  0
  4  5  2  0  0  0
  5  6  1  0  0  0
  6  7  1  0  0  0
  7  8  1  0  0  0
  8  9  1  0  0  0
  9 10  2  0  0  0
 10 23  1  0  0  0
 23 24  2  0  0  0
 10 11  1  0  0  0
 11 12  2  0  0  0
 12 13  1  0  0  0
 13 14  1  0  0  0
 13 15  2  0  0  0
 15 16  1  0  0  0
 16 17  2  0  0  0
 17 18  1  0  0  0
 18 19  2  0  0  0
  6 20  2  0  0  0
 20  2  1  0  0  0
  5 19  1  0  0  0
 19  9  1  0  0  0
 17 11  1  0  0  0
  1 21  1  0  0  0
 14 22  1  0  0  0
M  END
> <minimizedAffinity>
4.17556

> <CNNscore>
0.4139710665

> <CNNaffinity>
5.1956720352

> <CNN_VS>
2.1508579254

> <CNNaffinity_variance>
0.8803462982

$$$$
[H]Oc1c([H])c([H])c2c(c1[H])OC([H])([H])c1c-2nc2c([H])c([H])c(O[H])c([H])c2c1C([H])=C([H])[H]


 24 27  0  0  0  0  0  0  0  0999 V2000
   -3.2615   -6.8623    6.3207 O   0  0  0  0  0  0  0  0  0  0  0  0
   -4.5990   -7.0427    6.6950 C   0  0  0  0  0  0  0  0  0  0  0  0
   -5.1999   -6.1734    7.5801 C   0  0  0  0  0  0  0  0  0  0  0  0
   -6.5141   -6.3240    7.9689 C   0  0  0  0  0  0  0  0  0  0  0  0
   -7.2770   -7.3581    7.4812 C   0  0  0  0  0  0  0  0  0  0  0  0
   -6.6939   -8.2391    6.5920 C   0  0  0  0  0  0  0  0  0  0  0  0
   -7.4256   -9.2756    6.0802 O   0  0  0  0  0  0  0  0  0  0  0  0
   -8.6728   -9.7377    6.5749 C   0  0  0  0  0  0  0  0  0  0  0  0
   -9.3636   -8.6921    7.4001 C   0  0  0  0  0  0  0  0  0  0  0  0
  -10.6897   -8.7787    7.7600 C   0  0  0  0  0  0  0  0  0  0  0  0
  -11.2729   -7.7949    8.5856 C   0  0  0  0  0  0  0  0  0  0  0  0
  -12.6058   -7.8659    8.9698 C   0  0  0  0  0  0  0  0  0  0  0  0
  -13.2062   -6.9183    9.7857 C   0  0  0  0  0  0  0  0  0  0  0  0
  -14.5568   -7.0281   10.1495 O   0  0  0  0  0  0  0  0  0  0  0  0
  -12.4227   -5.8742   10.2181 C   0  0  0  0  0  0  0  0  0  0  0  0
  -11.0982   -5.7917    9.8451 C   0  0  0  0  0  0  0  0  0  0  0  0
  -10.5078   -6.7470    9.0277 C   0  0  0  0  0  0  0  0  0  0  0  0
   -9.2185   -6.6722    8.6683 N   0  0  0  0  0  0  0  0  0  0  0  0
   -8.6465   -7.6034    7.8798 C   0  0  0  0  0  0  0  0  0  0  0  0
   -5.3767   -8.0752    6.2130 C   0  0  0  0  0  0  0  0  0  0  0  0
   -2.7866   -7.4633    5.6863 H   0  0  0  0  0  0  0  0  0  0  0  0
  -15.2497   -6.5836    9.5388 H   0  0  0  0  0  0  0  0  0  0  0  0
  -11.5482   -9.8464    7.3215 C   0  0  0  0  0  0  0  0  0  0  0  0
  -12.4440   -9.8545    6.3755 C   0  0  0  0  0  0  0  0  0  0  0  0
  1  2  1  0  0  0
  2  3  2  0  0  0
  3  4  1  0  0  0
  4  5  2  0  0  0
  5  6  1  0  0  0
  6  7  1  0  0  0
  7  8  1  0  0  0
  8  9  1  0  0  0
  9 10  2  0  0  0
 10 23  1  0  0  0
 23 24  2  0  0  0
 10 11  1  0  0  0
 11 12  2  0  0  0
 12 13  1  0  0  0
 13 14  1  0  0  0
 13 15  2  0  0  0
 15 16  1  0  0  0
 16 17  2  0  0  0
 17 18  1  0  0  0
 18 19  2  0  0  0
  6 20  2  0  0  0
 20  2  1  0  0  0
  5 19  1  0  0  0
 19  9  1  0  0  0
 17 11  1  0  0  0
  1 21  1  0  0  0
 14 22  1  0  0  0
M  END
> <minimizedAffinity>
-7.66727

> <CNNscore>
0.3869406283

> <CNNaffinity>
5.8436698914

> <CNN_VS>
2.2611532211

> <CNNaffinity_variance>
0.0258995853

$$$$
[H]Oc1c([H])c([H])c2c(c1[H])OC([H])([H])c1c-2nc2c([H])c([H])c(O[H])c([H])c2c1C([H])=C([H])[H]


 24 27  0  0  0  0  0  0  0  0999 V2000
  -15.3117   -9.0126    7.6329 O   0  0  0  0  0  0  0  0  0  0  0  0
  -13.9265   -8.8060    7.6324 C   0  0  0  0  0  0  0  0  0  0  0  0
  -13.1290   -9.4208    6.6911 C   0  0  0  0  0  0  0  0  0  0  0  0
  -11.7626   -9.2384    6.6642 C   0  0  0  0  0  0  0  0  0  0  0  0
  -11.1435   -8.4283    7.5861 C   0  0  0  0  0  0  0  0  0  0  0  0
  -11.9252   -7.8019    8.5365 C   0  0  0  0  0  0  0  0  0  0  0  0
  -11.3440   -6.9821    9.4649 O   0  0  0  0  0  0  0  0  0  0  0  0
   -9.9572   -6.9062    9.7557 C   0  0  0  0  0  0  0  0  0  0  0  0
   -9.1241   -7.4400    8.6277 C   0  0  0  0  0  0  0  0  0  0  0  0
   -7.7665   -7.2300    8.5357 C   0  0  0  0  0  0  0  0  0  0  0  0
   -7.0232   -7.8040    7.4834 C   0  0  0  0  0  0  0  0  0  0  0  0
   -5.6515   -7.6144    7.3751 C   0  0  0  0  0  0  0  0  0  0  0  0
   -4.8921   -8.1706    6.3562 C   0  0  0  0  0  0  0  0  0  0  0  0
   -3.5079   -7.9530    6.2840 O   0  0  0  0  0  0  0  0  0  0  0  0
   -5.5535   -8.9390    5.4272 C   0  0  0  0  0  0  0  0  0  0  0  0
   -6.9145   -9.1362    5.5230 C   0  0  0  0  0  0  0  0  0  0  0  0
   -7.6644   -8.5741    6.5481 C   0  0  0  0  0  0  0  0  0  0  0  0
   -8.9871   -8.7691    6.6468 N   0  0  0  0  0  0  0  0  0  0  0  0
   -9.7116   -8.2274    7.6456 C   0  0  0  0  0  0  0  0  0  0  0  0
  -13.2920   -7.9951    8.5506 C   0  0  0  0  0  0  0  0  0  0  0  0
  -15.9261   -8.5908    8.2916 H   0  0  0  0  0  0  0  0  0  0  0  0
   -3.1832   -7.1407    5.7499 H   0  0  0  0  0  0  0  0  0  0  0  0
   -7.0369   -6.4245    9.4781 C   0  0  0  0  0  0  0  0  0  0  0  0
   -6.2759   -6.7931   10.4694 C   0  0  0  0  0  0  0  0  0  0  0  0
  1  2  1  0  0  0
  2  3  2  0  0  0
  3  4  1  0  0  0
  4  5  2  0  0  0
  5  6  1  0  0  0
  6  7  1  0  0  0
  7  8  1  0  0  0
  8  9  1  0  0  0
  9 10  2  0  0  0
 10 23  1  0  0  0
 23 24  2  0  0  0
 10 11  1  0  0  0
 11 12  2  0  0  0
 12 13  1  0  0  0
 13 14  1  0  0  0
 13 15  2  0  0  0
 15 16  1  0  0  0
 16 17  2  0  0  0
 17 18  1  0  0  0
 18 19  2  0  0  0
  6 20  2  0  0  0
 20  2  1  0  0  0
  5 19  1  0  0  0
 19  9  1  0  0  0
 17 11  1  0  0  0
  1 21  1  0  0  0
 14 22  1  0  0  0
M  END
> <minimizedAffinity>
-1.67037

> <CNNscore>
0.3554079533

> <CNNaffinity>
5.6843271255

> <CNN_VS>
2.0202550888

> <CNNaffinity_variance>
0.5484374166

$$$$
[H]Oc1c([H])c([H])c(-c2nc3c([H])c([H])c(O[H])c([H])c3c(C([H])([H])C([H])([H])[H])c2[H])c([H])c1[H]


 22 24  0  0  0  0  0  0  0  0999 V2000
  -12.2700   -6.9556    9.3922 C   0  0  0  0  0  0  0  0  0  0  0  0
  -10.9273   -7.0201    9.0292 C   0  0  0  0  0  0  0  0  0  0  0  0
  -10.4838   -7.6383    7.8851 C   0  0  0  0  0  0  0  0  0  0  0  0
  -11.4226   -8.2063    7.0870 N   0  0  0  0  0  0  0  0  0  0  0  0
  -12.7311   -8.1853    7.3689 C   0  0  0  0  0  0  0  0  0  0  0  0
  -13.6351   -8.7928    6.4970 C   0  0  0  0  0  0  0  0  0  0  0  0
  -14.9759   -8.7556    6.8132 C   0  0  0  0  0  0  0  0  0  0  0  0
  -15.3970   -8.1287    7.9682 C   0  0  0  0  0  0  0  0  0  0  0  0
  -16.7649   -8.1323    8.2198 O   0  0  0  0  0  0  0  0  0  0  0  0
  -14.5106   -7.5274    8.8326 C   0  0  0  0  0  0  0  0  0  0  0  0
  -13.1692   -7.5525    8.5371 C   0  0  0  0  0  0  0  0  0  0  0  0
  -17.1067   -7.6823    9.0554 H   0  0  0  0  0  0  0  0  0  0  0  0
   -9.0693   -7.6941    7.5234 C   0  0  0  0  0  0  0  0  0  0  0  0
   -8.3854   -6.5950    7.0823 C   0  0  0  0  0  0  0  0  0  0  0  0
   -7.0355   -6.7220    6.7544 C   0  0  0  0  0  0  0  0  0  0  0  0
   -6.3736   -7.9315    6.8652 C   0  0  0  0  0  0  0  0  0  0  0  0
   -5.0401   -8.0462    6.5390 O   0  0  0  0  0  0  0  0  0  0  0  0
   -7.0835   -9.0271    7.3124 C   0  0  0  0  0  0  0  0  0  0  0  0
   -8.4031   -8.9092    7.6343 C   0  0  0  0  0  0  0  0  0  0  0  0
   -4.5732   -8.9360    6.6257 H   0  0  0  0  0  0  0  0  0  0  0  0
  -12.7855   -4.7739   10.4201 C   0  0  0  0  0  0  0  0  0  0  0  0
  -12.7084   -6.2801   10.6346 C   0  0  0  0  0  0  0  0  0  0  0  0
 21 22  1  0  0  0
 22  1  1  0  0  0
  1  2  2  0  0  0
  2  3  1  0  0  0
  3  4  2  0  0  0
  4  5  1  0  0  0
  5  6  2  0  0  0
  6  7  1  0  0  0
  7  8  2  0  0  0
  8  9  1  0  0  0
  8 10  1  0  0  0
 10 11  2  0  0  0
  3 13  1  0  0  0
 13 14  2  0  0  0
 14 15  1  0  0  0
 15 16  2  0  0  0
 16 17  1  0  0  0
 16 18  1  0  0  0
 18 19  2  0  0  0
 11  1  1  0  0  0
 19 13  1  0  0  0
 11  5  1  0  0  0
  9 12  1  0  0  0
 17 20  1  0  0  0
M  END
> <minimizedAffinity>
-9.45045

> <CNNscore>
0.5160368681

> <CNNaffinity>
5.9772720337

> <CNN_VS>
3.0844926834

> <CNNaffinity_variance>
0.0316280909

$$$$
[H]Oc1c([H])c([H])c(-c2nc3c([H])c([H])c(O[H])c([H])c3c(C([H])([H])C([H])([H])[H])c2[H])c([H])c1[H]


 22 24  0  0  0  0  0  0  0  0999 V2000
   -3.9352   -8.6005    6.7210 C   0  0  0  0  0  0  0  0  0  0  0  0
   -3.7162   -7.2271    6.6527 C   0  0  0  0  0  0  0  0  0  0  0  0
   -2.6886   -6.5934    7.3084 C   0  0  0  0  0  0  0  0  0  0  0  0
   -1.8605   -7.3685    8.0529 N   0  0  0  0  0  0  0  0  0  0  0  0
   -2.0068   -8.6943    8.1671 C   0  0  0  0  0  0  0  0  0  0  0  0
   -1.1130   -9.4226    8.9527 C   0  0  0  0  0  0  0  0  0  0  0  0
   -1.2886  -10.7858    9.0518 C   0  0  0  0  0  0  0  0  0  0  0  0
   -2.3284  -11.3997    8.3837 C   0  0  0  0  0  0  0  0  0  0  0  0
   -2.4413  -12.7780    8.5321 O   0  0  0  0  0  0  0  0  0  0  0  0
   -3.2137  -10.6872    7.6071 C   0  0  0  0  0  0  0  0  0  0  0  0
   -3.0575   -9.3270    7.4941 C   0  0  0  0  0  0  0  0  0  0  0  0
   -3.1903  -13.2583    8.0569 H   0  0  0  0  0  0  0  0  0  0  0  0
   -2.4772   -5.1501    7.2227 C   0  0  0  0  0  0  0  0  0  0  0  0
   -3.3389   -4.3253    6.5536 C   0  0  0  0  0  0  0  0  0  0  0  0
   -3.0740   -2.9564    6.5127 C   0  0  0  0  0  0  0  0  0  0  0  0
   -1.9623   -2.4146    7.1322 C   0  0  0  0  0  0  0  0  0  0  0  0
   -1.7099   -1.0611    7.0860 O   0  0  0  0  0  0  0  0  0  0  0  0
   -1.1067   -3.2657    7.8015 C   0  0  0  0  0  0  0  0  0  0  0  0
   -1.3602   -4.6046    7.8449 C   0  0  0  0  0  0  0  0  0  0  0  0
   -0.8944   -0.6831    7.5434 H   0  0  0  0  0  0  0  0  0  0  0  0
   -6.3603   -8.5134    6.2810 C   0  0  0  0  0  0  0  0  0  0  0  0
   -5.0551   -9.2465    5.9995 C   0  0  0  0  0  0  0  0  0  0  0  0
 21 22  1  0  0  0
 22  1  1  0  0  0
  1  2  2  0  0  0
  2  3  1  0  0  0
  3  4  2  0  0  0
  4  5  1  0  0  0
  5  6  2  0  0  0
  6  7  1  0  0  0
  7  8  2  0  0  0
  8  9  1  0  0  0
  8 10  1  0  0  0
 10 11  2  0  0  0
  3 13  1  0  0  0
 13 14  2  0  0  0
 14 15  1  0  0  0
 15 16  2  0  0  0
 16 17  1  0  0  0
 16 18  1  0  0  0
 18 19  2  0  0  0
 11  1  1  0  0  0
 19 13  1  0  0  0
 11  5  1  0  0  0
  9 12  1  0  0  0
 17 20  1  0  0  0
M  END
> <minimizedAffinity>
2.19441

> <CNNscore>
0.5008699298

> <CNNaffinity>
4.5890431404

> <CNN_VS>
2.2985136509

> <CNNaffinity_variance>
1.2897100449

$$$$
[H]Oc1c([H])c([H])c(-c2nc3c([H])c([H])c(O[H])c([H])c3c(C([H])([H])C([H])([H])[H])c2[H])c([H])c1[H]


 22 24  0  0  0  0  0  0  0  0999 V2000
  -11.1318   -8.8598    7.7044 C   0  0  0  0  0  0  0  0  0  0  0  0
   -9.8270   -8.5954    7.2963 C   0  0  0  0  0  0  0  0  0  0  0  0
   -9.0925   -7.5308    7.7599 C   0  0  0  0  0  0  0  0  0  0  0  0
   -9.6929   -6.7120    8.6598 N   0  0  0  0  0  0  0  0  0  0  0  0
  -10.9432   -6.9011    9.0995 C   0  0  0  0  0  0  0  0  0  0  0  0
  -11.4908   -6.0136   10.0264 C   0  0  0  0  0  0  0  0  0  0  0  0
  -12.7800   -6.2333   10.4608 C   0  0  0  0  0  0  0  0  0  0  0  0
  -13.4979   -7.3096    9.9805 C   0  0  0  0  0  0  0  0  0  0  0  0
  -14.7921   -7.4657   10.4651 O   0  0  0  0  0  0  0  0  0  0  0  0
  -12.9637   -8.1888    9.0661 C   0  0  0  0  0  0  0  0  0  0  0  0
  -11.6800   -7.9890    8.6193 C   0  0  0  0  0  0  0  0  0  0  0  0
  -15.3445   -8.2425   10.1348 H   0  0  0  0  0  0  0  0  0  0  0  0
   -7.7241   -7.2721    7.3179 C   0  0  0  0  0  0  0  0  0  0  0  0
   -7.4387   -6.8017    6.0658 C   0  0  0  0  0  0  0  0  0  0  0  0
   -6.1082   -6.5776    5.7119 C   0  0  0  0  0  0  0  0  0  0  0  0
   -5.0725   -6.8193    6.5964 C   0  0  0  0  0  0  0  0  0  0  0  0
   -3.7618   -6.5944    6.2370 O   0  0  0  0  0  0  0  0  0  0  0  0
   -5.3839   -7.2937    7.8543 C   0  0  0  0  0  0  0  0  0  0  0  0
   -6.6825   -7.5148    8.2060 C   0  0  0  0  0  0  0  0  0  0  0  0
   -3.0190   -6.7762    6.8947 H   0  0  0  0  0  0  0  0  0  0  0  0
  -12.8025   -9.5827    6.0405 C   0  0  0  0  0  0  0  0  0  0  0  0
  -11.8910  -10.0180    7.1808 C   0  0  0  0  0  0  0  0  0  0  0  0
 21 22  1  0  0  0
 22  1  1  0  0  0
  1  2  2  0  0  0
  2  3  1  0  0  0
  3  4  2  0  0  0
  4  5  1  0  0  0
  5  6  2  0  0  0
  6  7  1  0  0  0
  7  8  2  0  0  0
  8  9  1  0  0  0
  8 10  1  0  0  0
 10 11  2  0  0  0
  3 13  1  0  0  0
 13 14  2  0  0  0
 14 15  1  0  0  0
 15 16  2  0  0  0
 16 17  1  0  0  0
 16 18  1  0  0  0
 18 19  2  0  0  0
 11  1  1  0  0  0
 19 13  1  0  0  0
 11  5  1  0  0  0
  9 12  1  0  0  0
 17 20  1  0  0  0
M  END
> <minimizedAffinity>
-8.21644

> <CNNscore>
0.4904449284

> <CNNaffinity>
5.6849169731

> <CNN_VS>
2.7881386280

> <CNNaffinity_variance>
0.0181484092

$$$$
[H]Oc1c([H])c([H])c(-c2nc3c([H])c([H])c(O[H])c([H])c3c(C([H])([H])C([H])([H])[H])c2[H])c([H])c1[H]


 22 24  0  0  0  0  0  0  0  0999 V2000
  -14.3916   -9.1508    5.4686 C   0  0  0  0  0  0  0  0  0  0  0  0
  -14.3675   -7.7598    5.4133 C   0  0  0  0  0  0  0  0  0  0  0  0
  -15.0118   -7.0320    4.4422 C   0  0  0  0  0  0  0  0  0  0  0  0
  -15.6987   -7.7290    3.5024 N   0  0  0  0  0  0  0  0  0  0  0  0
  -15.7681   -9.0658    3.4895 C   0  0  0  0  0  0  0  0  0  0  0  0
  -16.4952   -9.7100    2.4881 C   0  0  0  0  0  0  0  0  0  0  0  0
  -16.5487  -11.0869    2.5002 C   0  0  0  0  0  0  0  0  0  0  0  0
  -15.8931  -11.7959    3.4860 C   0  0  0  0  0  0  0  0  0  0  0  0
  -15.9928  -13.1822    3.4320 O   0  0  0  0  0  0  0  0  0  0  0  0
  -15.1741  -11.1669    4.4768 C   0  0  0  0  0  0  0  0  0  0  0  0
  -15.1073   -9.7947    4.4841 C   0  0  0  0  0  0  0  0  0  0  0  0
  -15.5257  -13.7310    4.1379 H   0  0  0  0  0  0  0  0  0  0  0  0
  -14.9732   -5.5719    4.4032 C   0  0  0  0  0  0  0  0  0  0  0  0
  -13.7998   -4.8716    4.4594 C   0  0  0  0  0  0  0  0  0  0  0  0
  -13.8385   -3.4778    4.4174 C   0  0  0  0  0  0  0  0  0  0  0  0
  -15.0338   -2.7887    4.3201 C   0  0  0  0  0  0  0  0  0  0  0  0
  -15.0611   -1.4120    4.2792 O   0  0  0  0  0  0  0  0  0  0  0  0
  -16.2054   -3.5159    4.2649 C   0  0  0  0  0  0  0  0  0  0  0  0
  -16.1740   -4.8783    4.3056 C   0  0  0  0  0  0  0  0  0  0  0  0
  -15.9419   -0.9257    4.2082 H   0  0  0  0  0  0  0  0  0  0  0  0
  -12.2063   -9.5279    6.5477 C   0  0  0  0  0  0  0  0  0  0  0  0
  -13.6835   -9.8995    6.5317 C   0  0  0  0  0  0  0  0  0  0  0  0
 21 22  1  0  0  0
 22  1  1  0  0  0
  1  2  2  0  0  0
  2  3  1  0  0  0
  3  4  2  0  0  0
  4  5  1  0  0  0
  5  6  2  0  0  0
  6  7  1  0  0  0
  7  8  2  0  0  0
  8  9  1  0  0  0
  8 10  1  0  0  0
 10 11  2  0  0  0
  3 13  1  0  0  0
 13 14  2  0  0  0
 14 15  1  0  0  0
 15 16  2  0  0  0
 16 17  1  0  0  0
 16 18  1  0  0  0
 18 19  2  0  0  0
 11  1  1  0  0  0
 19 13  1  0  0  0
 11  5  1  0  0  0
  9 12  1  0  0  0
 17 20  1  0  0  0
M  END
> <minimizedAffinity>
18.42758

> <CNNscore>
0.4161964357

> <CNNaffinity>
5.8186092377

> <CNN_VS>
2.4216845036

> <CNNaffinity_variance>
2.3994798660

$$$$
[H]Oc1c([H])c([H])c(-c2nc3c([H])c([H])c(O[H])c([H])c3c(C([H])([H])C([H])([H])[H])c2[H])c([H])c1[H]


 22 24  0  0  0  0  0  0  0  0999 V2000
  -10.1118   -6.7799    8.1743 C   0  0  0  0  0  0  0  0  0  0  0  0
   -9.0836   -6.6316    9.1014 C   0  0  0  0  0  0  0  0  0  0  0  0
   -9.3003   -6.4543   10.4466 C   0  0  0  0  0  0  0  0  0  0  0  0
  -10.5905   -6.4263   10.8654 N   0  0  0  0  0  0  0  0  0  0  0  0
  -11.6316   -6.5619   10.0347 C   0  0  0  0  0  0  0  0  0  0  0  0
  -12.9303   -6.5217   10.5429 C   0  0  0  0  0  0  0  0  0  0  0  0
  -13.9822   -6.6639    9.6641 C   0  0  0  0  0  0  0  0  0  0  0  0
  -13.7392   -6.8408    8.3173 C   0  0  0  0  0  0  0  0  0  0  0  0
  -14.8510   -6.9767    7.4928 O   0  0  0  0  0  0  0  0  0  0  0  0
  -12.4606   -6.8814    7.8093 C   0  0  0  0  0  0  0  0  0  0  0  0
  -11.3968   -6.7417    8.6674 C   0  0  0  0  0  0  0  0  0  0  0  0
  -14.7089   -7.1079    6.5027 H   0  0  0  0  0  0  0  0  0  0  0  0
   -8.2058   -6.3006   11.4023 C   0  0  0  0  0  0  0  0  0  0  0  0
   -6.9297   -6.7039   11.1207 C   0  0  0  0  0  0  0  0  0  0  0  0
   -5.9341   -6.5261   12.0815 C   0  0  0  0  0  0  0  0  0  0  0  0
   -6.2069   -5.9522   13.3100 C   0  0  0  0  0  0  0  0  0  0  0  0
   -5.2164   -5.7809   14.2520 O   0  0  0  0  0  0  0  0  0  0  0  0
   -7.5016   -5.5528   13.5724 C   0  0  0  0  0  0  0  0  0  0  0  0
   -8.4789   -5.7240   12.6374 C   0  0  0  0  0  0  0  0  0  0  0  0
   -5.4332   -5.3606   15.1428 H   0  0  0  0  0  0  0  0  0  0  0  0
   -8.4054   -6.5626    6.4070 C   0  0  0  0  0  0  0  0  0  0  0  0
   -9.8372   -6.9687    6.7317 C   0  0  0  0  0  0  0  0  0  0  0  0
 21 22  1  0  0  0
 22  1  1  0  0  0
  1  2  2  0  0  0
  2  3  1  0  0  0
  3  4  2  0  0  0
  4  5  1  0  0  0
  5  6  2  0  0  0
  6  7  1  0  0  0
  7  8  2  0  0  0
  8  9  1  0  0  0
  8 10  1  0  0  0
 10 11  2  0  0  0
  3 13  1  0  0  0
 13 14  2  0  0  0
 14 15  1  0  0  0
 15 16  2  0  0  0
 16 17  1  0  0  0
 16 18  1  0  0  0
 18 19  2  0  0  0
 11  1  1  0  0  0
 19 13  1  0  0  0
 11  5  1  0  0  0
  9 12  1  0  0  0
 17 20  1  0  0  0
M  END
> <minimizedAffinity>
10.13544

> <CNNscore>
0.4036521316

> <CNNaffinity>
4.9312276840

> <CNN_VS>
1.9905005693

> <CNNaffinity_variance>
0.4607954621

$$$$
[H]Oc1c([H])c([H])c(-c2nc3c([H])c([H])c(O[H])c([H])c3c(C([H])([H])C([H])([H])[H])c2[H])c([H])c1[H]


 22 24  0  0  0  0  0  0  0  0999 V2000
   -6.5008   -7.8271    8.5442 C   0  0  0  0  0  0  0  0  0  0  0  0
   -5.4781   -6.9856    8.1144 C   0  0  0  0  0  0  0  0  0  0  0  0
   -5.0973   -6.8716    6.7992 C   0  0  0  0  0  0  0  0  0  0  0  0
   -5.7682   -7.6283    5.8946 N   0  0  0  0  0  0  0  0  0  0  0  0
   -6.7619   -8.4598    6.2311 C   0  0  0  0  0  0  0  0  0  0  0  0
   -7.4035   -9.2053    5.2416 C   0  0  0  0  0  0  0  0  0  0  0  0
   -8.4227  -10.0531    5.6177 C   0  0  0  0  0  0  0  0  0  0  0  0
   -8.7871  -10.1505    6.9451 C   0  0  0  0  0  0  0  0  0  0  0  0
   -9.8238  -11.0270    7.2474 O   0  0  0  0  0  0  0  0  0  0  0  0
   -8.1584   -9.4180    7.9263 C   0  0  0  0  0  0  0  0  0  0  0  0
   -7.1396   -8.5664    7.5740 C   0  0  0  0  0  0  0  0  0  0  0  0
  -10.1155  -11.1220    8.2084 H   0  0  0  0  0  0  0  0  0  0  0  0
   -4.0207   -5.9817    6.3702 C   0  0  0  0  0  0  0  0  0  0  0  0
   -2.8327   -5.8973    7.0425 C   0  0  0  0  0  0  0  0  0  0  0  0
   -1.8491   -5.0254    6.5756 C   0  0  0  0  0  0  0  0  0  0  0  0
   -2.0468   -4.2457    5.4503 C   0  0  0  0  0  0  0  0  0  0  0  0
   -1.0688   -3.3878    4.9973 O   0  0  0  0  0  0  0  0  0  0  0  0
   -3.2531   -4.3472    4.7878 C   0  0  0  0  0  0  0  0  0  0  0  0
   -4.2184   -5.1976    5.2394 C   0  0  0  0  0  0  0  0  0  0  0  0
   -1.2299   -2.8265    4.1749 H   0  0  0  0  0  0  0  0  0  0  0  0
   -6.2251   -6.8043   10.7713 C   0  0  0  0  0  0  0  0  0  0  0  0
   -6.8815   -7.9224    9.9717 C   0  0  0  0  0  0  0  0  0  0  0  0
 21 22  1  0  0  0
 22  1  1  0  0  0
  1  2  2  0  0  0
  2  3  1  0  0  0
  3  4  2  0  0  0
  4  5  1  0  0  0
  5  6  2  0  0  0
  6  7  1  0  0  0
  7  8  2  0  0  0
  8  9  1  0  0  0
  8 10  1  0  0  0
 10 11  2  0  0  0
  3 13  1  0  0  0
 13 14  2  0  0  0
 14 15  1  0  0  0
 15 16  2  0  0  0
 16 17  1  0  0  0
 16 18  1  0  0  0
 18 19  2  0  0  0
 11  1  1  0  0  0
 19 13  1  0  0  0
 11  5  1  0  0  0
  9 12  1  0  0  0
 17 20  1  0  0  0
M  END
> <minimizedAffinity>
-0.75768

> <CNNscore>
0.3581300080

> <CNNaffinity>
4.5225992203

> <CNN_VS>
1.6196784973

> <CNNaffinity_variance>
0.6321757436

$$$$
[H]Oc1c([H])c([H])c(-c2nc3c([H])c([H])c(O[H])c([H])c3c(C([H])([H])C([H])([H])[H])c2[H])c([H])c1[H]


 22 24  0  0  0  0  0  0  0  0999 V2000
   -4.6005   -6.9054    6.9685 C   0  0  0  0  0  0  0  0  0  0  0  0
   -4.5487   -5.9051    7.9356 C   0  0  0  0  0  0  0  0  0  0  0  0
   -3.4042   -5.5774    8.6216 C   0  0  0  0  0  0  0  0  0  0  0  0
   -2.2826   -6.2795    8.3219 N   0  0  0  0  0  0  0  0  0  0  0  0
   -2.2540   -7.2546    7.4051 C   0  0  0  0  0  0  0  0  0  0  0  0
   -1.0601   -7.9312    7.1536 C   0  0  0  0  0  0  0  0  0  0  0  0
   -1.0609   -8.9304    6.2046 C   0  0  0  0  0  0  0  0  0  0  0  0
   -2.2231   -9.2414    5.5287 C   0  0  0  0  0  0  0  0  0  0  0  0
   -2.1457  -10.2611    4.5860 O   0  0  0  0  0  0  0  0  0  0  0  0
   -3.4043   -8.5779    5.7718 C   0  0  0  0  0  0  0  0  0  0  0  0
   -3.4265   -7.5782    6.7139 C   0  0  0  0  0  0  0  0  0  0  0  0
   -2.9771  -10.5136    4.0736 H   0  0  0  0  0  0  0  0  0  0  0  0
   -3.3725   -4.5234    9.6331 C   0  0  0  0  0  0  0  0  0  0  0  0
   -4.2510   -4.4914   10.6808 C   0  0  0  0  0  0  0  0  0  0  0  0
   -4.1622   -3.4542   11.6094 C   0  0  0  0  0  0  0  0  0  0  0  0
   -3.2080   -2.4594   11.4957 C   0  0  0  0  0  0  0  0  0  0  0  0
   -3.1287   -1.4395   12.4184 O   0  0  0  0  0  0  0  0  0  0  0  0
   -2.3320   -2.5120   10.4306 C   0  0  0  0  0  0  0  0  0  0  0  0
   -2.4139   -3.5231    9.5197 C   0  0  0  0  0  0  0  0  0  0  0  0
   -2.4265   -0.7222   12.3199 H   0  0  0  0  0  0  0  0  0  0  0  0
   -7.0394   -6.5426    6.9175 C   0  0  0  0  0  0  0  0  0  0  0  0
   -5.8543   -7.2294    6.2509 C   0  0  0  0  0  0  0  0  0  0  0  0
 21 22  1  0  0  0
 22  1  1  0  0  0
  1  2  2  0  0  0
  2  3  1  0  0  0
  3  4  2  0  0  0
  4  5  1  0  0  0
  5  6  2  0  0  0
  6  7  1  0  0  0
  7  8  2  0  0  0
  8  9  1  0  0  0
  8 10  1  0  0  0
 10 11  2  0  0  0
  3 13  1  0  0  0
 13 14  2  0  0  0
 14 15  1  0  0  0
 15 16  2  0  0  0
 16 17  1  0  0  0
 16 18  1  0  0  0
 18 19  2  0  0  0
 11  1  1  0  0  0
 19 13  1  0  0  0
 11  5  1  0  0  0
  9 12  1  0  0  0
 17 20  1  0  0  0
M  END
> <minimizedAffinity>
-2.61759

> <CNNscore>
0.3524354398

> <CNNaffinity>
4.2866683006

> <CNN_VS>
1.5107737780

> <CNNaffinity_variance>
0.2084412128

$$$$
[H]Oc1c([H])c([H])c(-c2nc3c([H])c([H])c(O[H])c([H])c3c(C([H])([H])C([H])([H])[H])c2[H])c([H])c1[H]


 22 24  0  0  0  0  0  0  0  0999 V2000
   -7.3816   -8.5324    6.7321 C   0  0  0  0  0  0  0  0  0  0  0  0
   -6.1963   -7.9297    7.1451 C   0  0  0  0  0  0  0  0  0  0  0  0
   -6.1313   -7.0163    8.1695 C   0  0  0  0  0  0  0  0  0  0  0  0
   -7.2953   -6.7041    8.7927 N   0  0  0  0  0  0  0  0  0  0  0  0
   -8.4733   -7.2414    8.4525 C   0  0  0  0  0  0  0  0  0  0  0  0
   -9.6274   -6.8684    9.1422 C   0  0  0  0  0  0  0  0  0  0  0  0
  -10.8257   -7.4378    8.7698 C   0  0  0  0  0  0  0  0  0  0  0  0
  -10.8656   -8.3529    7.7377 C   0  0  0  0  0  0  0  0  0  0  0  0
  -12.1110   -8.8841    7.4193 O   0  0  0  0  0  0  0  0  0  0  0  0
   -9.7310   -8.7253    7.0532 C   0  0  0  0  0  0  0  0  0  0  0  0
   -8.5254   -8.1702    7.4076 C   0  0  0  0  0  0  0  0  0  0  0  0
  -12.1756   -9.5563    6.6699 H   0  0  0  0  0  0  0  0  0  0  0  0
   -4.8760   -6.3957    8.5866 C   0  0  0  0  0  0  0  0  0  0  0  0
   -4.8064   -5.5289    9.6421 C   0  0  0  0  0  0  0  0  0  0  0  0
   -3.5732   -4.9737    9.9842 C   0  0  0  0  0  0  0  0  0  0  0  0
   -2.4212   -5.2792    9.2822 C   0  0  0  0  0  0  0  0  0  0  0  0
   -1.2082   -4.7256    9.6284 O   0  0  0  0  0  0  0  0  0  0  0  0
   -2.5152   -6.1563    8.2210 C   0  0  0  0  0  0  0  0  0  0  0  0
   -3.7176   -6.7020    7.8817 C   0  0  0  0  0  0  0  0  0  0  0  0
   -0.3781   -4.9595    9.1054 H   0  0  0  0  0  0  0  0  0  0  0  0
   -6.6036   -8.9965    4.4383 C   0  0  0  0  0  0  0  0  0  0  0  0
   -7.4104   -9.5126    5.6228 C   0  0  0  0  0  0  0  0  0  0  0  0
 21 22  1  0  0  0
 22  1  1  0  0  0
  1  2  2  0  0  0
  2  3  1  0  0  0
  3  4  2  0  0  0
  4  5  1  0  0  0
  5  6  2  0  0  0
  6  7  1  0  0  0
  7  8  2  0  0  0
  8  9  1  0  0  0
  8 10  1  0  0  0
 10 11  2  0  0  0
  3 13  1  0  0  0
 13 14  2  0  0  0
 14 15  1  0  0  0
 15 16  2  0  0  0
 16 17  1  0  0  0
 16 18  1  0  0  0
 18 19  2  0  0  0
 11  1  1  0  0  0
 19 13  1  0  0  0
 11  5  1  0  0  0
  9 12  1  0  0  0
 17 20  1  0  0  0
M  END
> <minimizedAffinity>
-2.94539

> <CNNscore>
0.3418970108

> <CNNaffinity>
4.6968364716

> <CNN_VS>
1.6058343649

> <CNNaffinity_variance>
0.3675619960

$$$$
[H]Oc1c([H])c([H])c(-c2nc3c([H])c([H])c(O[H])c([H])c3c(C([H])([H])C([H])([H])[H])c2[H])c([H])c1[H]


 22 24  0  0  0  0  0  0  0  0999 V2000
   -6.2976   -8.1771    6.4263 C   0  0  0  0  0  0  0  0  0  0  0  0
   -7.6481   -8.2515    6.7572 C   0  0  0  0  0  0  0  0  0  0  0  0
   -8.1933   -7.6207    7.8492 C   0  0  0  0  0  0  0  0  0  0  0  0
   -7.3509   -6.8955    8.6273 N   0  0  0  0  0  0  0  0  0  0  0  0
   -6.0418   -6.7769    8.3738 C   0  0  0  0  0  0  0  0  0  0  0  0
   -5.2405   -6.0126    9.2225 C   0  0  0  0  0  0  0  0  0  0  0  0
   -3.8965   -5.9088    8.9367 C   0  0  0  0  0  0  0  0  0  0  0  0
   -3.3721   -6.5517    7.8340 C   0  0  0  0  0  0  0  0  0  0  0  0
   -2.0076   -6.4004    7.6108 O   0  0  0  0  0  0  0  0  0  0  0  0
   -4.1568   -7.3073    6.9927 C   0  0  0  0  0  0  0  0  0  0  0  0
   -5.4996   -7.4245    7.2586 C   0  0  0  0  0  0  0  0  0  0  0  0
   -1.5920   -6.8570    6.8130 H   0  0  0  0  0  0  0  0  0  0  0  0
   -9.6140   -7.7123    8.1778 C   0  0  0  0  0  0  0  0  0  0  0  0
  -10.3904   -8.7623    7.7712 C   0  0  0  0  0  0  0  0  0  0  0  0
  -11.7404   -8.7839    8.1217 C   0  0  0  0  0  0  0  0  0  0  0  0
  -12.3111   -7.7700    8.8698 C   0  0  0  0  0  0  0  0  0  0  0  0
  -13.6454   -7.8010    9.2109 O   0  0  0  0  0  0  0  0  0  0  0  0
  -11.5088   -6.7207    9.2692 C   0  0  0  0  0  0  0  0  0  0  0  0
  -10.1886   -6.6939    8.9296 C   0  0  0  0  0  0  0  0  0  0  0  0
  -14.0451   -7.0531    9.7569 H   0  0  0  0  0  0  0  0  0  0  0  0
   -6.8430   -9.1060    4.2078 C   0  0  0  0  0  0  0  0  0  0  0  0
   -5.7478   -8.8722    5.2404 C   0  0  0  0  0  0  0  0  0  0  0  0
 21 22  1  0  0  0
 22  1  1  0  0  0
  1  2  2  0  0  0
  2  3  1  0  0  0
  3  4  2  0  0  0
  4  5  1  0  0  0
  5  6  2  0  0  0
  6  7  1  0  0  0
  7  8  2  0  0  0
  8  9  1  0  0  0
  8 10  1  0  0  0
 10 11  2  0  0  0
  3 13  1  0  0  0
 13 14  2  0  0  0
 14 15  1  0  0  0
 15 16  2  0  0  0
 16 17  1  0  0  0
 16 18  1  0  0  0
 18 19  2  0  0  0
 11  1  1  0  0  0
 19 13  1  0  0  0
 11  5  1  0  0  0
  9 12  1  0  0  0
 17 20  1  0  0  0
M  END
> <minimizedAffinity>
-4.79257

> <CNNscore>
0.3051105738

> <CNNaffinity>
5.0142183304

> <CNN_VS>
1.5298910141

> <CNNaffinity_variance>
0.2029838264

$$$$
[H]O[C@]1([H])C([H])([H])N(C([H])([H])[H])C([H])([H])C([H])([H])[C@@]1([H])N1C(=O)S/C(=C(/[H])c2c([H])c([H])c3c(c([H])nn3C([H])([H])c3c([H])c([H])c(Cl)c([H])c3C(F)(F)F)c2[H])C1=O


 38 42  0  0  0  0  0  0  0  0999 V2000
   -7.3763   -7.1983    6.7661 C   0  0  0  0  0  0  0  0  0  0  0  0
   -8.5295   -6.5675    7.1912 C   0  0  0  0  0  0  0  0  0  0  0  0
   -9.6374   -7.3144    7.4840 C   0  0  0  0  0  0  0  0  0  0  0  0
   -9.7068   -8.6958    7.3890 C   0  0  0  0  0  0  0  0  0  0  0  0
  -10.6480   -9.5942    7.5815 N   0  0  0  0  0  0  0  0  0  0  0  0
  -10.1018  -10.7840    7.2764 N   0  0  0  0  0  0  0  0  0  0  0  0
   -8.8358  -10.6415    6.9003 C   0  0  0  0  0  0  0  0  0  0  0  0
   -8.5241   -9.3007    6.9548 C   0  0  0  0  0  0  0  0  0  0  0  0
   -7.3914   -8.5654    6.6538 C   0  0  0  0  0  0  0  0  0  0  0  0
   -3.6473   -4.6029    8.4042 N   0  0  0  0  0  0  0  0  0  0  0  0
   -4.3949   -4.8964    9.5688 C   0  0  0  0  0  0  0  0  0  0  0  0
   -4.4410   -4.3758   10.6989 O   0  0  0  0  0  0  0  0  0  0  0  0
   -5.4210   -6.3282    9.1442 S   0  0  0  0  0  0  0  0  0  0  0  0
   -5.3434   -5.9826    7.3665 C   0  0  0  0  0  0  0  0  0  0  0  0
   -6.2000   -6.3893    6.4723 C   0  0  0  0  0  0  0  0  0  0  0  0
   -4.1414   -5.1737    7.2271 C   0  0  0  0  0  0  0  0  0  0  0  0
   -3.6192   -5.0338    6.0570 O   0  0  0  0  0  0  0  0  0  0  0  0
   -1.0734   -0.2830    9.9269 C   0  0  0  0  0  0  0  0  0  0  0  0
   -2.0871   -1.3053    9.8953 N   0  0  0  0  0  0  0  0  0  0  0  0
   -1.7984   -2.4920   10.5707 C   0  0  0  0  0  0  0  0  0  0  0  0
   -1.8007   -3.7532    9.7844 C   0  0  0  0  0  0  0  0  0  0  0  0
   -2.4481   -3.7222    8.4671 C   0  0  0  0  0  0  0  0  0  0  0  0
   -2.6737   -2.3985    7.8325 C   0  0  0  0  0  0  0  0  0  0  0  0
   -1.4871   -2.0508    7.1274 O   0  0  0  0  0  0  0  0  0  0  0  0
   -2.9326   -1.3090    8.7832 C   0  0  0  0  0  0  0  0  0  0  0  0
   -0.7143   -2.4949    7.5638 H   0  0  0  0  0  0  0  0  0  0  0  0
  -11.9777   -9.4765    8.0913 C   0  0  0  0  0  0  0  0  0  0  0  0
  -12.8949   -8.5263    7.4970 C   0  0  0  0  0  0  0  0  0  0  0  0
  -13.4300   -8.8918    6.2196 C   0  0  0  0  0  0  0  0  0  0  0  0
  -14.3142   -8.1338    5.5253 C   0  0  0  0  0  0  0  0  0  0  0  0
  -14.7488   -6.9414    6.0359 C   0  0  0  0  0  0  0  0  0  0  0  0
  -15.8978   -5.9216    5.1704 Cl  0  0  0  0  0  0  0  0  0  0  0  0
  -14.2525   -6.5700    7.2535 C   0  0  0  0  0  0  0  0  0  0  0  0
  -13.3289   -7.3492    7.9915 C   0  0  0  0  0  0  0  0  0  0  0  0
  -12.8770   -6.8329    9.2928 C   0  0  0  0  0  0  0  0  0  0  0  0
  -11.7154   -6.1224    9.2747 F   0  0  0  0  0  0  0  0  0  0  0  0
  -13.0987   -7.6568   10.3616 F   0  0  0  0  0  0  0  0  0  0  0  0
  -13.8162   -5.7600    9.5983 F   0  0  0  0  0  0  0  0  0  0  0  0
 18 19  1  0  0  0
 19 20  1  0  0  0
 20 21  1  0  0  0
 21 22  1  0  0  0
 22 23  1  0  0  0
 23 24  1  0  0  0
 23 25  1  0  0  0
 22 10  1  0  0  0
 10 11  1  0  0  0
 11 12  2  0  0  0
 11 13  1  0  0  0
 13 14  1  0  0  0
 14 15  2  0  0  0
 15  1  1  0  0  0
  1  2  2  0  0  0
  2  3  1  0  0  0
  3  4  2  0  0  0
  4  5  1  0  0  0
  5 27  1  0  0  0
 27 28  1  0  0  0
 28 29  2  0  0  0
 29 30  1  0  0  0
 30 31  2  0  0  0
 31 32  1  0  0  0
 31 33  1  0  0  0
 33 34  2  0  0  0
 34 35  1  0  0  0
 35 36  1  0  0  0
 35 37  1  0  0  0
 35 38  1  0  0  0
  5  6  1  0  0  0
  6  7  2  0  0  0
  7  8  1  0  0  0
  8  9  2  0  0  0
 14 16  1  0  0  0
 16 17  2  0  0  0
 25 19  1  0  0  0
 16 10  1  0  0  0
  9  1  1  0  0  0
  8  4  1  0  0  0
 34 28  1  0  0  0
 24 26  1  0  0  0
M  END
> <minimizedAffinity>
-8.86786

> <CNNscore>
0.5042865872

> <CNNaffinity>
7.0294370651

> <CNN_VS>
3.5448508263

> <CNNaffinity_variance>
0.2735061049

$$$$
[H]O[C@]1([H])C([H])([H])N(C([H])([H])[H])C([H])([H])C([H])([H])[C@@]1([H])N1C(=O)S/C(=C(/[H])c2c([H])c([H])c3c(c([H])nn3C([H])([H])c3c([H])c([H])c(Cl)c([H])c3C(F)(F)F)c2[H])C1=O


 38 42  0  0  0  0  0  0  0  0999 V2000
  -12.0677   -5.7228   10.0148 C   0  0  0  0  0  0  0  0  0  0  0  0
  -10.7514   -6.0927    9.8175 C   0  0  0  0  0  0  0  0  0  0  0  0
   -9.8894   -6.1081   10.8794 C   0  0  0  0  0  0  0  0  0  0  0  0
  -10.2323   -5.7743   12.1805 C   0  0  0  0  0  0  0  0  0  0  0  0
   -9.5810   -5.6880   13.3200 N   0  0  0  0  0  0  0  0  0  0  0  0
  -10.4717   -5.2619   14.2322 N   0  0  0  0  0  0  0  0  0  0  0  0
  -11.6668   -5.0844   13.6803 C   0  0  0  0  0  0  0  0  0  0  0  0
  -11.5699   -5.4036   12.3437 C   0  0  0  0  0  0  0  0  0  0  0  0
  -12.4597   -5.3816   11.2844 C   0  0  0  0  0  0  0  0  0  0  0  0
  -14.7286   -8.2491    6.8743 N   0  0  0  0  0  0  0  0  0  0  0  0
  -14.0053   -9.2388    7.5804 C   0  0  0  0  0  0  0  0  0  0  0  0
  -13.7159  -10.4218    7.3219 O   0  0  0  0  0  0  0  0  0  0  0  0
  -13.4802   -8.4524    9.1261 S   0  0  0  0  0  0  0  0  0  0  0  0
  -13.6007   -6.7815    8.4336 C   0  0  0  0  0  0  0  0  0  0  0  0
  -12.9772   -5.7259    8.8758 C   0  0  0  0  0  0  0  0  0  0  0  0
  -14.5218   -6.9390    7.3177 C   0  0  0  0  0  0  0  0  0  0  0  0
  -15.0756   -5.8884    6.8165 O   0  0  0  0  0  0  0  0  0  0  0  0
  -17.7896   -7.1126    2.7580 C   0  0  0  0  0  0  0  0  0  0  0  0
  -16.8091   -6.9321    3.7972 N   0  0  0  0  0  0  0  0  0  0  0  0
  -15.5201   -7.3936    3.5263 C   0  0  0  0  0  0  0  0  0  0  0  0
  -14.9495   -8.4233    4.4335 C   0  0  0  0  0  0  0  0  0  0  0  0
  -15.6094   -8.6154    5.7308 C   0  0  0  0  0  0  0  0  0  0  0  0
  -16.9965   -8.1087    5.8888 C   0  0  0  0  0  0  0  0  0  0  0  0
  -17.8810   -9.1210    5.4210 O   0  0  0  0  0  0  0  0  0  0  0  0
  -17.2906   -6.8995    5.1082 C   0  0  0  0  0  0  0  0  0  0  0  0
  -17.4093   -9.6682    4.7406 H   0  0  0  0  0  0  0  0  0  0  0  0
   -8.2390   -6.0315   13.6706 C   0  0  0  0  0  0  0  0  0  0  0  0
   -7.3127   -4.9940   14.0746 C   0  0  0  0  0  0  0  0  0  0  0  0
   -7.8875   -3.8818   14.7705 C   0  0  0  0  0  0  0  0  0  0  0  0
   -7.1708   -2.8298   15.2374 C   0  0  0  0  0  0  0  0  0  0  0  0
   -5.8156   -2.7851   15.0558 C   0  0  0  0  0  0  0  0  0  0  0  0
   -4.8414   -1.4386   15.6452 Cl  0  0  0  0  0  0  0  0  0  0  0  0
   -5.2433   -3.8346   14.3942 C   0  0  0  0  0  0  0  0  0  0  0  0
   -5.9767   -4.9404   13.9002 C   0  0  0  0  0  0  0  0  0  0  0  0
   -5.2346   -6.0056   13.2082 C   0  0  0  0  0  0  0  0  0  0  0  0
   -5.6341   -6.2710   11.9337 F   0  0  0  0  0  0  0  0  0  0  0  0
   -4.8616   -7.0650   13.9884 F   0  0  0  0  0  0  0  0  0  0  0  0
   -3.9288   -5.4151   12.9381 F   0  0  0  0  0  0  0  0  0  0  0  0
 18 19  1  0  0  0
 19 20  1  0  0  0
 20 21  1  0  0  0
 21 22  1  0  0  0
 22 23  1  0  0  0
 23 24  1  0  0  0
 23 25  1  0  0  0
 22 10  1  0  0  0
 10 11  1  0  0  0
 11 12  2  0  0  0
 11 13  1  0  0  0
 13 14  1  0  0  0
 14 15  2  0  0  0
 15  1  1  0  0  0
  1  2  2  0  0  0
  2  3  1  0  0  0
  3  4  2  0  0  0
  4  5  1  0  0  0
  5 27  1  0  0  0
 27 28  1  0  0  0
 28 29  2  0  0  0
 29 30  1  0  0  0
 30 31  2  0  0  0
 31 32  1  0  0  0
 31 33  1  0  0  0
 33 34  2  0  0  0
 34 35  1  0  0  0
 35 36  1  0  0  0
 35 37  1  0  0  0
 35 38  1  0  0  0
  5  6  1  0  0  0
  6  7  2  0  0  0
  7  8  1  0  0  0
  8  9  2  0  0  0
 14 16  1  0  0  0
 16 17  2  0  0  0
 25 19  1  0  0  0
 16 10  1  0  0  0
  9  1  1  0  0  0
  8  4  1  0  0  0
 34 28  1  0  0  0
 24 26  1  0  0  0
M  END
> <minimizedAffinity>
2.38524

> <CNNscore>
0.4238432944

> <CNNaffinity>
6.7241430283

> <CNN_VS>
2.8499829769

> <CNNaffinity_variance>
0.5796843767

$$$$
[H]O[C@]1([H])C([H])([H])N(C([H])([H])[H])C([H])([H])C([H])([H])[C@@]1([H])N1C(=O)S/C(=C(/[H])c2c([H])c([H])c3c(c([H])nn3C([H])([H])c3c([H])c([H])c(Cl)c([H])c3C(F)(F)F)c2[H])C1=O


 38 42  0  0  0  0  0  0  0  0999 V2000
   -6.1619   -6.8833    6.9835 C   0  0  0  0  0  0  0  0  0  0  0  0
   -7.4106   -6.3866    6.6637 C   0  0  0  0  0  0  0  0  0  0  0  0
   -8.5071   -7.1965    6.7764 C   0  0  0  0  0  0  0  0  0  0  0  0
   -8.4743   -8.5168    7.1982 C   0  0  0  0  0  0  0  0  0  0  0  0
   -9.3714   -9.4670    7.3473 N   0  0  0  0  0  0  0  0  0  0  0  0
   -8.7004  -10.5591    7.7521 N   0  0  0  0  0  0  0  0  0  0  0  0
   -7.4013  -10.3037    7.8603 C   0  0  0  0  0  0  0  0  0  0  0  0
   -7.1961   -8.9869    7.5116 C   0  0  0  0  0  0  0  0  0  0  0  0
   -6.0732   -8.1855    7.4059 C   0  0  0  0  0  0  0  0  0  0  0  0
   -3.0654   -3.8587    9.1257 N   0  0  0  0  0  0  0  0  0  0  0  0
   -4.0308   -4.1217   10.1259 C   0  0  0  0  0  0  0  0  0  0  0  0
   -4.3593   -3.5192   11.1647 O   0  0  0  0  0  0  0  0  0  0  0  0
   -4.8414   -5.6647    9.6306 S   0  0  0  0  0  0  0  0  0  0  0  0
   -4.3961   -5.4555    7.8859 C   0  0  0  0  0  0  0  0  0  0  0  0
   -5.0055   -6.0030    6.8723 C   0  0  0  0  0  0  0  0  0  0  0  0
   -3.2489   -4.5608    7.9303 C   0  0  0  0  0  0  0  0  0  0  0  0
   -2.4915   -4.4700    6.8912 O   0  0  0  0  0  0  0  0  0  0  0  0
   -1.0603    0.5239   11.2181 C   0  0  0  0  0  0  0  0  0  0  0  0
   -1.9591   -0.5834   11.0177 N   0  0  0  0  0  0  0  0  0  0  0  0
   -1.5974   -1.7957   11.6070 C   0  0  0  0  0  0  0  0  0  0  0  0
   -1.4157   -2.9708   10.7153 C   0  0  0  0  0  0  0  0  0  0  0  0
   -1.9703   -2.8771    9.3592 C   0  0  0  0  0  0  0  0  0  0  0  0
   -2.2862   -1.5268    8.8274 C   0  0  0  0  0  0  0  0  0  0  0  0
   -1.0958   -1.0014    8.2506 O   0  0  0  0  0  0  0  0  0  0  0  0
   -2.7208   -0.5625    9.8468 C   0  0  0  0  0  0  0  0  0  0  0  0
   -0.3134   -1.4088    8.7054 H   0  0  0  0  0  0  0  0  0  0  0  0
  -10.7953   -9.4505    7.2282 C   0  0  0  0  0  0  0  0  0  0  0  0
  -11.5701   -8.4920    7.9887 C   0  0  0  0  0  0  0  0  0  0  0  0
  -10.8141   -7.5269    8.7294 C   0  0  0  0  0  0  0  0  0  0  0  0
  -11.3710   -6.5459    9.4818 C   0  0  0  0  0  0  0  0  0  0  0  0
  -12.7317   -6.4330    9.5683 C   0  0  0  0  0  0  0  0  0  0  0  0
  -13.5017   -5.1741   10.5334 Cl  0  0  0  0  0  0  0  0  0  0  0  0
  -13.4753   -7.3425    8.8708 C   0  0  0  0  0  0  0  0  0  0  0  0
  -12.9101   -8.3727    8.0808 C   0  0  0  0  0  0  0  0  0  0  0  0
  -13.8269   -9.2835    7.3779 C   0  0  0  0  0  0  0  0  0  0  0  0
  -14.1835  -10.4057    8.0619 F   0  0  0  0  0  0  0  0  0  0  0  0
  -13.6210   -9.4016    6.0311 F   0  0  0  0  0  0  0  0  0  0  0  0
  -15.1037   -8.5787    7.3802 F   0  0  0  0  0  0  0  0  0  0  0  0
 18 19  1  0  0  0
 19 20  1  0  0  0
 20 21  1  0  0  0
 21 22  1  0  0  0
 22 23  1  0  0  0
 23 24  1  0  0  0
 23 25  1  0  0  0
 22 10  1  0  0  0
 10 11  1  0  0  0
 11 12  2  0  0  0
 11 13  1  0  0  0
 13 14  1  0  0  0
 14 15  2  0  0  0
 15  1  1  0  0  0
  1  2  2  0  0  0
  2  3  1  0  0  0
  3  4  2  0  0  0
  4  5  1  0  0  0
  5 27  1  0  0  0
 27 28  1  0  0  0
 28 29  2  0  0  0
 29 30  1  0  0  0
 30 31  2  0  0  0
 31 32  1  0  0  0
 31 33  1  0  0  0
 33 34  2  0  0  0
 34 35  1  0  0  0
 35 36  1  0  0  0
 35 37  1  0  0  0
 35 38  1  0  0  0
  5  6  1  0  0  0
  6  7  2  0  0  0
  7  8  1  0  0  0
  8  9  2  0  0  0
 14 16  1  0  0  0
 16 17  2  0  0  0
 25 19  1  0  0  0
 16 10  1  0  0  0
  9  1  1  0  0  0
  8  4  1  0  0  0
 34 28  1  0  0  0
 24 26  1  0  0  0
M  END
> <minimizedAffinity>
-8.79283

> <CNNscore>
0.3942449093

> <CNNaffinity>
6.5075898170

> <CNN_VS>
2.5655841827

> <CNNaffinity_variance>
0.0986809134

$$$$
[H]O[C@]1([H])C([H])([H])N(C([H])([H])[H])C([H])([H])C([H])([H])[C@@]1([H])N1C(=O)S/C(=C(/[H])c2c([H])c([H])c3c(c([H])nn3C([H])([H])c3c([H])c([H])c(Cl)c([H])c3C(F)(F)F)c2[H])C1=O


 38 42  0  0  0  0  0  0  0  0999 V2000
  -10.3026   -8.0700    8.2467 C   0  0  0  0  0  0  0  0  0  0  0  0
  -11.0433   -6.9118    8.1109 C   0  0  0  0  0  0  0  0  0  0  0  0
  -12.3940   -6.9952    7.9123 C   0  0  0  0  0  0  0  0  0  0  0  0
  -13.1095   -8.1801    7.8333 C   0  0  0  0  0  0  0  0  0  0  0  0
  -14.3694   -8.4921    7.6209 N   0  0  0  0  0  0  0  0  0  0  0  0
  -14.4297   -9.8350    7.6155 N   0  0  0  0  0  0  0  0  0  0  0  0
  -13.2291  -10.3638    7.8240 C   0  0  0  0  0  0  0  0  0  0  0  0
  -12.3294   -9.3312    7.9731 C   0  0  0  0  0  0  0  0  0  0  0  0
  -10.9620   -9.2708    8.1754 C   0  0  0  0  0  0  0  0  0  0  0  0
   -5.9843   -6.5812    6.6780 N   0  0  0  0  0  0  0  0  0  0  0  0
   -6.8457   -6.3407    5.5818 C   0  0  0  0  0  0  0  0  0  0  0  0
   -6.6416   -6.1801    4.3641 O   0  0  0  0  0  0  0  0  0  0  0  0
   -8.5188   -6.2901    6.2755 S   0  0  0  0  0  0  0  0  0  0  0  0
   -8.0533   -7.2673    7.7295 C   0  0  0  0  0  0  0  0  0  0  0  0
   -8.8666   -7.9637    8.4727 C   0  0  0  0  0  0  0  0  0  0  0  0
   -6.6138   -7.0744    7.8252 C   0  0  0  0  0  0  0  0  0  0  0  0
   -6.0206   -7.3642    8.9323 O   0  0  0  0  0  0  0  0  0  0  0  0
   -1.1263   -6.2138    8.6452 C   0  0  0  0  0  0  0  0  0  0  0  0
   -2.5218   -6.5591    8.5599 N   0  0  0  0  0  0  0  0  0  0  0  0
   -2.8359   -7.7169    7.8466 C   0  0  0  0  0  0  0  0  0  0  0  0
   -3.7409   -7.5830    6.6752 C   0  0  0  0  0  0  0  0  0  0  0  0
   -4.5187   -6.3427    6.5656 C   0  0  0  0  0  0  0  0  0  0  0  0
   -4.0666   -5.1651    7.3498 C   0  0  0  0  0  0  0  0  0  0  0  0
   -3.0877   -4.4816    6.5749 O   0  0  0  0  0  0  0  0  0  0  0  0
   -3.4303   -5.5003    8.6306 C   0  0  0  0  0  0  0  0  0  0  0  0
   -2.6434   -5.1340    5.9734 H   0  0  0  0  0  0  0  0  0  0  0  0
  -15.5376   -7.6784    7.4980 C   0  0  0  0  0  0  0  0  0  0  0  0
  -16.1449   -7.4826    6.1979 C   0  0  0  0  0  0  0  0  0  0  0  0
  -17.2165   -8.3746    5.8698 C   0  0  0  0  0  0  0  0  0  0  0  0
  -17.9107   -8.3267    4.7062 C   0  0  0  0  0  0  0  0  0  0  0  0
  -17.6043   -7.3875    3.7597 C   0  0  0  0  0  0  0  0  0  0  0  0
  -18.4788   -7.2859    2.2320 Cl  0  0  0  0  0  0  0  0  0  0  0  0
  -16.5852   -6.5248    4.0490 C   0  0  0  0  0  0  0  0  0  0  0  0
  -15.8502   -6.5611    5.2586 C   0  0  0  0  0  0  0  0  0  0  0  0
  -14.7787   -5.5702    5.4437 C   0  0  0  0  0  0  0  0  0  0  0  0
  -13.7601   -5.6269    4.5417 F   0  0  0  0  0  0  0  0  0  0  0  0
  -14.4591   -5.2850    6.7425 F   0  0  0  0  0  0  0  0  0  0  0  0
  -15.3876   -4.3058    5.0470 F   0  0  0  0  0  0  0  0  0  0  0  0
 18 19  1  0  0  0
 19 20  1  0  0  0
 20 21  1  0  0  0
 21 22  1  0  0  0
 22 23  1  0  0  0
 23 24  1  0  0  0
 23 25  1  0  0  0
 22 10  1  0  0  0
 10 11  1  0  0  0
 11 12  2  0  0  0
 11 13  1  0  0  0
 13 14  1  0  0  0
 14 15  2  0  0  0
 15  1  1  0  0  0
  1  2  2  0  0  0
  2  3  1  0  0  0
  3  4  2  0  0  0
  4  5  1  0  0  0
  5 27  1  0  0  0
 27 28  1  0  0  0
 28 29  2  0  0  0
 29 30  1  0  0  0
 30 31  2  0  0  0
 31 32  1  0  0  0
 31 33  1  0  0  0
 33 34  2  0  0  0
 34 35  1  0  0  0
 35 36  1  0  0  0
 35 37  1  0  0  0
 35 38  1  0  0  0
  5  6  1  0  0  0
  6  7  2  0  0  0
  7  8  1  0  0  0
  8  9  2  0  0  0
 14 16  1  0  0  0
 16 17  2  0  0  0
 25 19  1  0  0  0
 16 10  1  0  0  0
  9  1  1  0  0  0
  8  4  1  0  0  0
 34 28  1  0  0  0
 24 26  1  0  0  0
M  END
> <minimizedAffinity>
-7.51210

> <CNNscore>
0.3709810376

> <CNNaffinity>
7.1908950806

> <CNN_VS>
2.6676857471

> <CNNaffinity_variance>
0.3388070762

$$$$
[H]O[C@]1([H])C([H])([H])N(C([H])([H])[H])C([H])([H])C([H])([H])[C@@]1([H])N1C(=O)S/C(=C(/[H])c2c([H])c([H])c3c(c([H])nn3C([H])([H])c3c([H])c([H])c(Cl)c([H])c3C(F)(F)F)c2[H])C1=O


 38 42  0  0  0  0  0  0  0  0999 V2000
   -7.6113   -7.3176    7.7751 C   0  0  0  0  0  0  0  0  0  0  0  0
   -8.7877   -6.7691    8.2479 C   0  0  0  0  0  0  0  0  0  0  0  0
   -9.9495   -7.4854    8.1571 C   0  0  0  0  0  0  0  0  0  0  0  0
  -10.0535   -8.7568    7.6143 C   0  0  0  0  0  0  0  0  0  0  0  0
  -11.0422   -9.5971    7.3990 N   0  0  0  0  0  0  0  0  0  0  0  0
  -10.5022  -10.6669    6.7901 N   0  0  0  0  0  0  0  0  0  0  0  0
   -9.1937  -10.5079    6.6255 C   0  0  0  0  0  0  0  0  0  0  0  0
   -8.8457   -9.2802    7.1445 C   0  0  0  0  0  0  0  0  0  0  0  0
   -7.6587   -8.5741    7.2268 C   0  0  0  0  0  0  0  0  0  0  0  0
   -4.3105   -5.2350   10.6199 N   0  0  0  0  0  0  0  0  0  0  0  0
   -5.3183   -5.6550   11.5195 C   0  0  0  0  0  0  0  0  0  0  0  0
   -5.6164   -5.3098   12.6780 O   0  0  0  0  0  0  0  0  0  0  0  0
   -6.2503   -6.9400   10.6458 S   0  0  0  0  0  0  0  0  0  0  0  0
   -5.7478   -6.3344    9.0128 C   0  0  0  0  0  0  0  0  0  0  0  0
   -6.3794   -6.5474    7.8928 C   0  0  0  0  0  0  0  0  0  0  0  0
   -4.5273   -5.5893    9.2846 C   0  0  0  0  0  0  0  0  0  0  0  0
   -3.7410   -5.3062    8.3033 O   0  0  0  0  0  0  0  0  0  0  0  0
   -1.0879   -3.4108   14.3472 C   0  0  0  0  0  0  0  0  0  0  0  0
   -2.0864   -4.2341   13.7156 N   0  0  0  0  0  0  0  0  0  0  0  0
   -1.6200   -5.2875   12.9278 C   0  0  0  0  0  0  0  0  0  0  0  0
   -2.0159   -5.3076   11.4954 C   0  0  0  0  0  0  0  0  0  0  0  0
   -3.1386   -4.4496   11.0968 C   0  0  0  0  0  0  0  0  0  0  0  0
   -3.5227   -3.3383   12.0042 C   0  0  0  0  0  0  0  0  0  0  0  0
   -2.7054   -2.2181   11.6836 O   0  0  0  0  0  0  0  0  0  0  0  0
   -3.3087   -3.6209   13.4298 C   0  0  0  0  0  0  0  0  0  0  0  0
   -1.8500   -2.5454   11.3014 H   0  0  0  0  0  0  0  0  0  0  0  0
  -12.4224   -9.5475    7.7660 C   0  0  0  0  0  0  0  0  0  0  0  0
  -13.2531   -8.4579    7.2968 C   0  0  0  0  0  0  0  0  0  0  0  0
  -13.5764   -8.4767    5.9016 C   0  0  0  0  0  0  0  0  0  0  0  0
  -14.3554   -7.5485    5.2934 C   0  0  0  0  0  0  0  0  0  0  0  0
  -14.8858   -6.5147    6.0155 C   0  0  0  0  0  0  0  0  0  0  0  0
  -15.9047   -5.2842    5.2691 Cl  0  0  0  0  0  0  0  0  0  0  0  0
  -14.5917   -6.4744    7.3491 C   0  0  0  0  0  0  0  0  0  0  0  0
  -13.7801   -7.4349    7.9998 C   0  0  0  0  0  0  0  0  0  0  0  0
  -13.5455   -7.2746    9.4432 C   0  0  0  0  0  0  0  0  0  0  0  0
  -12.2588   -7.4459    9.8546 F   0  0  0  0  0  0  0  0  0  0  0  0
  -14.5385   -7.7466   10.2565 F   0  0  0  0  0  0  0  0  0  0  0  0
  -13.6876   -5.8413    9.6722 F   0  0  0  0  0  0  0  0  0  0  0  0
 18 19  1  0  0  0
 19 20  1  0  0  0
 20 21  1  0  0  0
 21 22  1  0  0  0
 22 23  1  0  0  0
 23 24  1  0  0  0
 23 25  1  0  0  0
 22 10  1  0  0  0
 10 11  1  0  0  0
 11 12  2  0  0  0
 11 13  1  0  0  0
 13 14  1  0  0  0
 14 15  2  0  0  0
 15  1  1  0  0  0
  1  2  2  0  0  0
  2  3  1  0  0  0
  3  4  2  0  0  0
  4  5  1  0  0  0
  5 27  1  0  0  0
 27 28  1  0  0  0
 28 29  2  0  0  0
 29 30  1  0  0  0
 30 31  2  0  0  0
 31 32  1  0  0  0
 31 33  1  0  0  0
 33 34  2  0  0  0
 34 35  1  0  0  0
 35 36  1  0  0  0
 35 37  1  0  0  0
 35 38  1  0  0  0
  5  6  1  0  0  0
  6  7  2  0  0  0
  7  8  1  0  0  0
  8  9  2  0  0  0
 14 16  1  0  0  0
 16 17  2  0  0  0
 25 19  1  0  0  0
 16 10  1  0  0  0
  9  1  1  0  0  0
  8  4  1  0  0  0
 34 28  1  0  0  0
 24 26  1  0  0  0
M  END
> <minimizedAffinity>
-6.99011

> <CNNscore>
0.3555503190

> <CNNaffinity>
6.7323760986

> <CNN_VS>
2.3936984539

> <CNNaffinity_variance>
0.1268576533

$$$$
[H]O[C@]1([H])C([H])([H])N(C([H])([H])[H])C([H])([H])C([H])([H])[C@@]1([H])N1C(=O)S/C(=C(/[H])c2c([H])c([H])c3c(c([H])nn3C([H])([H])c3c([H])c([H])c(Cl)c([H])c3C(F)(F)F)c2[H])C1=O


 38 42  0  0  0  0  0  0  0  0999 V2000
  -13.2701   -8.2732    7.8974 C   0  0  0  0  0  0  0  0  0  0  0  0
  -14.3580   -7.4333    7.7574 C   0  0  0  0  0  0  0  0  0  0  0  0
  -15.0043   -7.3627    6.5540 C   0  0  0  0  0  0  0  0  0  0  0  0
  -14.6520   -8.0849    5.4242 C   0  0  0  0  0  0  0  0  0  0  0  0
  -15.0954   -8.1503    4.1877 N   0  0  0  0  0  0  0  0  0  0  0  0
  -14.2948   -9.0181    3.5452 N   0  0  0  0  0  0  0  0  0  0  0  0
  -13.3625   -9.4961    4.3618 C   0  0  0  0  0  0  0  0  0  0  0  0
  -13.5472   -8.9224    5.6006 C   0  0  0  0  0  0  0  0  0  0  0  0
  -12.8787   -9.0104    6.8088 C   0  0  0  0  0  0  0  0  0  0  0  0
  -11.9865   -6.0807   12.0048 N   0  0  0  0  0  0  0  0  0  0  0  0
  -12.5356   -5.0391   11.2206 C   0  0  0  0  0  0  0  0  0  0  0  0
  -12.4251   -3.7996   11.2623 O   0  0  0  0  0  0  0  0  0  0  0  0
  -13.5642   -5.8558    9.9723 S   0  0  0  0  0  0  0  0  0  0  0  0
  -12.6569   -7.4196   10.1034 C   0  0  0  0  0  0  0  0  0  0  0  0
  -12.6015   -8.3480    9.1904 C   0  0  0  0  0  0  0  0  0  0  0  0
  -12.0443   -7.3506   11.4219 C   0  0  0  0  0  0  0  0  0  0  0  0
  -11.6013   -8.4356   11.9585 O   0  0  0  0  0  0  0  0  0  0  0  0
   -9.7618   -2.9250   15.5682 C   0  0  0  0  0  0  0  0  0  0  0  0
  -10.5020   -3.3251   14.3994 N   0  0  0  0  0  0  0  0  0  0  0  0
  -11.8417   -3.6641   14.5946 C   0  0  0  0  0  0  0  0  0  0  0  0
  -12.2715   -5.0336   14.2091 C   0  0  0  0  0  0  0  0  0  0  0  0
  -11.3749   -5.7973   13.3326 C   0  0  0  0  0  0  0  0  0  0  0  0
   -9.9595   -5.3587   13.2312 C   0  0  0  0  0  0  0  0  0  0  0  0
   -9.2423   -5.9671   14.2995 O   0  0  0  0  0  0  0  0  0  0  0  0
   -9.7652   -3.9088   13.3660 C   0  0  0  0  0  0  0  0  0  0  0  0
   -9.8697   -6.1383   15.0491 H   0  0  0  0  0  0  0  0  0  0  0  0
  -16.2295   -7.5521    3.5567 C   0  0  0  0  0  0  0  0  0  0  0  0
  -17.5408   -7.6858    4.1567 C   0  0  0  0  0  0  0  0  0  0  0  0
  -18.0126   -9.0270    4.3309 C   0  0  0  0  0  0  0  0  0  0  0  0
  -19.2070   -9.3416    4.8903 C   0  0  0  0  0  0  0  0  0  0  0  0
  -20.0440   -8.3522    5.3286 C   0  0  0  0  0  0  0  0  0  0  0  0
  -21.6063   -8.7120    6.0628 Cl  0  0  0  0  0  0  0  0  0  0  0  0
  -19.6166   -7.0638    5.1732 C   0  0  0  0  0  0  0  0  0  0  0  0
  -18.3730   -6.7179    4.5912 C   0  0  0  0  0  0  0  0  0  0  0  0
  -18.0343   -5.2901    4.4875 C   0  0  0  0  0  0  0  0  0  0  0  0
  -18.6519   -4.4705    5.3826 F   0  0  0  0  0  0  0  0  0  0  0  0
  -17.8555   -4.8188    3.2162 F   0  0  0  0  0  0  0  0  0  0  0  0
  -16.6657   -5.2095    4.9845 F   0  0  0  0  0  0  0  0  0  0  0  0
 18 19  1  0  0  0
 19 20  1  0  0  0
 20 21  1  0  0  0
 21 22  1  0  0  0
 22 23  1  0  0  0
 23 24  1  0  0  0
 23 25  1  0  0  0
 22 10  1  0  0  0
 10 11  1  0  0  0
 11 12  2  0  0  0
 11 13  1  0  0  0
 13 14  1  0  0  0
 14 15  2  0  0  0
 15  1  1  0  0  0
  1  2  2  0  0  0
  2  3  1  0  0  0
  3  4  2  0  0  0
  4  5  1  0  0  0
  5 27  1  0  0  0
 27 28  1  0  0  0
 28 29  2  0  0  0
 29 30  1  0  0  0
 30 31  2  0  0  0
 31 32  1  0  0  0
 31 33  1  0  0  0
 33 34  2  0  0  0
 34 35  1  0  0  0
 35 36  1  0  0  0
 35 37  1  0  0  0
 35 38  1  0  0  0
  5  6  1  0  0  0
  6  7  2  0  0  0
  7  8  1  0  0  0
  8  9  2  0  0  0
 14 16  1  0  0  0
 16 17  2  0  0  0
 25 19  1  0  0  0
 16 10  1  0  0  0
  9  1  1  0  0  0
  8  4  1  0  0  0
 34 28  1  0  0  0
 24 26  1  0  0  0
M  END
> <minimizedAffinity>
23.46725

> <CNNscore>
0.3462678194

> <CNNaffinity>
6.6708655357

> <CNN_VS>
2.3099060059

> <CNNaffinity_variance>
0.6320528984

$$$$
[H]O[C@]1([H])C([H])([H])N(C([H])([H])[H])C([H])([H])C([H])([H])[C@@]1([H])N1C(=O)S/C(=C(/[H])c2c([H])c([H])c3c(c([H])nn3C([H])([H])c3c([H])c([H])c(Cl)c([H])c3C(F)(F)F)c2[H])C1=O


 38 42  0  0  0  0  0  0  0  0999 V2000
  -11.0697   -8.3092    7.3260 C   0  0  0  0  0  0  0  0  0  0  0  0
  -11.5146   -8.9151    6.1669 C   0  0  0  0  0  0  0  0  0  0  0  0
  -12.8443   -8.8682    5.8496 C   0  0  0  0  0  0  0  0  0  0  0  0
  -13.8177   -8.2444    6.6146 C   0  0  0  0  0  0  0  0  0  0  0  0
  -15.1225   -8.1054    6.5246 N   0  0  0  0  0  0  0  0  0  0  0  0
  -15.5055   -7.4234    7.6179 N   0  0  0  0  0  0  0  0  0  0  0  0
  -14.4607   -7.1330    8.3851 C   0  0  0  0  0  0  0  0  0  0  0  0
  -13.3335   -7.6439    7.7800 C   0  0  0  0  0  0  0  0  0  0  0  0
  -11.9928   -7.6781    8.1205 C   0  0  0  0  0  0  0  0  0  0  0  0
   -6.5961   -6.7262    6.4282 N   0  0  0  0  0  0  0  0  0  0  0  0
   -7.3739   -6.1509    5.3960 C   0  0  0  0  0  0  0  0  0  0  0  0
   -7.0855   -5.6856    4.2777 O   0  0  0  0  0  0  0  0  0  0  0  0
   -9.0836   -6.1833    5.9950 S   0  0  0  0  0  0  0  0  0  0  0  0
   -8.7574   -7.5381    7.1542 C   0  0  0  0  0  0  0  0  0  0  0  0
   -9.6476   -8.3554    7.6422 C   0  0  0  0  0  0  0  0  0  0  0  0
   -7.3195   -7.4666    7.3685 C   0  0  0  0  0  0  0  0  0  0  0  0
   -6.8120   -8.0758    8.3848 O   0  0  0  0  0  0  0  0  0  0  0  0
   -1.9418   -6.5237    8.8575 C   0  0  0  0  0  0  0  0  0  0  0  0
   -3.3370   -6.8081    8.6425 N   0  0  0  0  0  0  0  0  0  0  0  0
   -3.6346   -7.9698    7.9285 C   0  0  0  0  0  0  0  0  0  0  0  0
   -4.4133   -7.8278    6.6706 C   0  0  0  0  0  0  0  0  0  0  0  0
   -5.1168   -6.5572    6.4559 C   0  0  0  0  0  0  0  0  0  0  0  0
   -4.6881   -5.3799    7.2535 C   0  0  0  0  0  0  0  0  0  0  0  0
   -3.6067   -4.7629    6.5637 O   0  0  0  0  0  0  0  0  0  0  0  0
   -4.1967   -5.7079    8.5985 C   0  0  0  0  0  0  0  0  0  0  0  0
   -3.1373   -5.4511    6.0244 H   0  0  0  0  0  0  0  0  0  0  0  0
  -16.0438   -8.4708    5.4953 C   0  0  0  0  0  0  0  0  0  0  0  0
  -16.8338   -7.4488    4.8404 C   0  0  0  0  0  0  0  0  0  0  0  0
  -16.0932   -6.4334    4.1533 C   0  0  0  0  0  0  0  0  0  0  0  0
  -16.6655   -5.4105    3.4718 C   0  0  0  0  0  0  0  0  0  0  0  0
  -18.0278   -5.3013    3.4099 C   0  0  0  0  0  0  0  0  0  0  0  0
  -18.8177   -3.9893    2.5359 Cl  0  0  0  0  0  0  0  0  0  0  0  0
  -18.7570   -6.2579    4.0579 C   0  0  0  0  0  0  0  0  0  0  0  0
  -18.1755   -7.3322    4.7740 C   0  0  0  0  0  0  0  0  0  0  0  0
  -19.0778   -8.2954    5.4238 C   0  0  0  0  0  0  0  0  0  0  0  0
  -20.3165   -8.4103    4.8698 F   0  0  0  0  0  0  0  0  0  0  0  0
  -18.9852   -8.3612    6.7866 F   0  0  0  0  0  0  0  0  0  0  0  0
  -18.5278   -9.5982    5.0673 F   0  0  0  0  0  0  0  0  0  0  0  0
 18 19  1  0  0  0
 19 20  1  0  0  0
 20 21  1  0  0  0
 21 22  1  0  0  0
 22 23  1  0  0  0
 23 24  1  0  0  0
 23 25  1  0  0  0
 22 10  1  0  0  0
 10 11  1  0  0  0
 11 12  2  0  0  0
 11 13  1  0  0  0
 13 14  1  0  0  0
 14 15  2  0  0  0
 15  1  1  0  0  0
  1  2  2  0  0  0
  2  3  1  0  0  0
  3  4  2  0  0  0
  4  5  1  0  0  0
  5 27  1  0  0  0
 27 28  1  0  0  0
 28 29  2  0  0  0
 29 30  1  0  0  0
 30 31  2  0  0  0
 31 32  1  0  0  0
 31 33  1  0  0  0
 33 34  2  0  0  0
 34 35  1  0  0  0
 35 36  1  0  0  0
 35 37  1  0  0  0
 35 38  1  0  0  0
  5  6  1  0  0  0
  6  7  2  0  0  0
  7  8  1  0  0  0
  8  9  2  0  0  0
 14 16  1  0  0  0
 16 17  2  0  0  0
 25 19  1  0  0  0
 16 10  1  0  0  0
  9  1  1  0  0  0
  8  4  1  0  0  0
 34 28  1  0  0  0
 24 26  1  0  0  0
M  END
> <minimizedAffinity>
1.03296

> <CNNscore>
0.3406766355

> <CNNaffinity>
6.9335656166

> <CNN_VS>
2.3621037006

> <CNNaffinity_variance>
0.6952832937

$$$$
[H]O[C@]1([H])C([H])([H])N(C([H])([H])[H])C([H])([H])C([H])([H])[C@@]1([H])N1C(=O)S/C(=C(/[H])c2c([H])c([H])c3c(c([H])nn3C([H])([H])c3c([H])c([H])c(Cl)c([H])c3C(F)(F)F)c2[H])C1=O


 38 42  0  0  0  0  0  0  0  0999 V2000
   -8.1990   -7.8164    8.4177 C   0  0  0  0  0  0  0  0  0  0  0  0
   -9.4367   -7.3061    8.7588 C   0  0  0  0  0  0  0  0  0  0  0  0
  -10.5692   -7.9461    8.3359 C   0  0  0  0  0  0  0  0  0  0  0  0
  -10.5846   -9.1014    7.5696 C   0  0  0  0  0  0  0  0  0  0  0  0
  -11.5254   -9.8497    7.0359 N   0  0  0  0  0  0  0  0  0  0  0  0
  -10.8936  -10.8229    6.3571 N   0  0  0  0  0  0  0  0  0  0  0  0
   -9.5756  -10.6945    6.4619 C   0  0  0  0  0  0  0  0  0  0  0  0
   -9.3165   -9.5887    7.2415 C   0  0  0  0  0  0  0  0  0  0  0  0
   -8.1577   -8.9584    7.6589 C   0  0  0  0  0  0  0  0  0  0  0  0
   -4.1230   -5.4498    7.3640 N   0  0  0  0  0  0  0  0  0  0  0  0
   -4.5885   -5.9016    6.1068 C   0  0  0  0  0  0  0  0  0  0  0  0
   -4.0275   -6.0761    5.0091 O   0  0  0  0  0  0  0  0  0  0  0  0
   -6.3540   -6.2416    6.3316 S   0  0  0  0  0  0  0  0  0  0  0  0
   -6.1853   -6.4640    8.1227 C   0  0  0  0  0  0  0  0  0  0  0  0
   -7.0020   -7.1309    8.8887 C   0  0  0  0  0  0  0  0  0  0  0  0
   -4.9622   -5.7431    8.4435 C   0  0  0  0  0  0  0  0  0  0  0  0
   -4.7309   -5.4282    9.6718 O   0  0  0  0  0  0  0  0  0  0  0  0
   -1.0616   -1.4845    8.9482 C   0  0  0  0  0  0  0  0  0  0  0  0
   -2.2074   -2.3535    8.8724 N   0  0  0  0  0  0  0  0  0  0  0  0
   -2.1376   -3.5435    9.5983 C   0  0  0  0  0  0  0  0  0  0  0  0
   -2.2690   -4.8198    8.8481 C   0  0  0  0  0  0  0  0  0  0  0  0
   -2.8165   -4.7460    7.4878 C   0  0  0  0  0  0  0  0  0  0  0  0
   -2.8070   -3.4279    6.8034 C   0  0  0  0  0  0  0  0  0  0  0  0
   -1.5386   -3.2778    6.1751 O   0  0  0  0  0  0  0  0  0  0  0  0
   -2.9691   -2.2785    7.7037 C   0  0  0  0  0  0  0  0  0  0  0  0
   -0.8683   -3.8104    6.6769 H   0  0  0  0  0  0  0  0  0  0  0  0
  -12.9491   -9.8040    7.1505 C   0  0  0  0  0  0  0  0  0  0  0  0
  -13.6807   -8.6867    6.5902 C   0  0  0  0  0  0  0  0  0  0  0  0
  -13.9263   -8.7466    5.1804 C   0  0  0  0  0  0  0  0  0  0  0  0
  -14.6091   -7.7996    4.4910 C   0  0  0  0  0  0  0  0  0  0  0  0
  -15.1113   -6.7042    5.1388 C   0  0  0  0  0  0  0  0  0  0  0  0
  -16.0059   -5.4470    4.2854 Cl  0  0  0  0  0  0  0  0  0  0  0  0
  -14.8898   -6.6237    6.4846 C   0  0  0  0  0  0  0  0  0  0  0  0
  -14.1791   -7.6033    7.2196 C   0  0  0  0  0  0  0  0  0  0  0  0
  -14.0153   -7.3946    8.6666 C   0  0  0  0  0  0  0  0  0  0  0  0
  -13.7957   -6.1084    9.0562 F   0  0  0  0  0  0  0  0  0  0  0  0
  -13.3402   -8.3813    9.3305 F   0  0  0  0  0  0  0  0  0  0  0  0
  -15.3541   -7.5906    9.2105 F   0  0  0  0  0  0  0  0  0  0  0  0
 18 19  1  0  0  0
 19 20  1  0  0  0
 20 21  1  0  0  0
 21 22  1  0  0  0
 22 23  1  0  0  0
 23 24  1  0  0  0
 23 25  1  0  0  0
 22 10  1  0  0  0
 10 11  1  0  0  0
 11 12  2  0  0  0
 11 13  1  0  0  0
 13 14  1  0  0  0
 14 15  2  0  0  0
 15  1  1  0  0  0
  1  2  2  0  0  0
  2  3  1  0  0  0
  3  4  2  0  0  0
  4  5  1  0  0  0
  5 27  1  0  0  0
 27 28  1  0  0  0
 28 29  2  0  0  0
 29 30  1  0  0  0
 30 31  2  0  0  0
 31 32  1  0  0  0
 31 33  1  0  0  0
 33 34  2  0  0  0
 34 35  1  0  0  0
 35 36  1  0  0  0
 35 37  1  0  0  0
 35 38  1  0  0  0
  5  6  1  0  0  0
  6  7  2  0  0  0
  7  8  1  0  0  0
  8  9  2  0  0  0
 14 16  1  0  0  0
 16 17  2  0  0  0
 25 19  1  0  0  0
 16 10  1  0  0  0
  9  1  1  0  0  0
  8  4  1  0  0  0
 34 28  1  0  0  0
 24 26  1  0  0  0
M  END
> <minimizedAffinity>
-8.47320

> <CNNscore>
0.3296086192

> <CNNaffinity>
6.8429384232

> <CNN_VS>
2.2554914951

> <CNNaffinity_variance>
0.1752788126

$$$$
[H]O[C@]1([H])C([H])([H])N(C([H])([H])[H])C([H])([H])C([H])([H])[C@@]1([H])N1C(=O)S/C(=C(/[H])c2c([H])c([H])c3c(c([H])nn3C([H])([H])c3c([H])c([H])c(Cl)c([H])c3C(F)(F)F)c2[H])C1=O


 38 42  0  0  0  0  0  0  0  0999 V2000
   -5.3423   -7.4101    6.4519 C   0  0  0  0  0  0  0  0  0  0  0  0
   -6.4877   -6.9383    5.8404 C   0  0  0  0  0  0  0  0  0  0  0  0
   -7.6867   -7.5448    6.0960 C   0  0  0  0  0  0  0  0  0  0  0  0
   -7.8596   -8.6278    6.9441 C   0  0  0  0  0  0  0  0  0  0  0  0
   -8.8827   -9.3715    7.3046 N   0  0  0  0  0  0  0  0  0  0  0  0
   -8.3933  -10.3108    8.1323 N   0  0  0  0  0  0  0  0  0  0  0  0
   -7.0834  -10.1623    8.2953 C   0  0  0  0  0  0  0  0  0  0  0  0
   -6.6811   -9.0800    7.5440 C   0  0  0  0  0  0  0  0  0  0  0  0
   -5.4575   -8.4815    7.3008 C   0  0  0  0  0  0  0  0  0  0  0  0
   -2.9992   -3.5912    4.6488 N   0  0  0  0  0  0  0  0  0  0  0  0
   -4.3462   -3.3702    4.2771 C   0  0  0  0  0  0  0  0  0  0  0  0
   -4.8773   -2.6654    3.3988 O   0  0  0  0  0  0  0  0  0  0  0  0
   -5.3378   -4.3882    5.4011 S   0  0  0  0  0  0  0  0  0  0  0  0
   -3.9641   -5.5182    5.7501 C   0  0  0  0  0  0  0  0  0  0  0  0
   -4.0748   -6.7434    6.1805 C   0  0  0  0  0  0  0  0  0  0  0  0
   -2.7828   -4.7299    5.4312 C   0  0  0  0  0  0  0  0  0  0  0  0
   -1.6374   -5.1197    5.8757 O   0  0  0  0  0  0  0  0  0  0  0  0
   -1.0693    1.1423    3.4344 C   0  0  0  0  0  0  0  0  0  0  0  0
   -1.9510    0.1511    3.9948 N   0  0  0  0  0  0  0  0  0  0  0  0
   -1.5755   -0.3957    5.2228 C   0  0  0  0  0  0  0  0  0  0  0  0
   -1.3718   -1.8663    5.2915 C   0  0  0  0  0  0  0  0  0  0  0  0
   -1.9195   -2.6722    4.1934 C   0  0  0  0  0  0  0  0  0  0  0  0
   -2.2515   -1.9821    2.9208 C   0  0  0  0  0  0  0  0  0  0  0  0
   -1.0652   -1.9314    2.1359 O   0  0  0  0  0  0  0  0  0  0  0  0
   -2.7059   -0.5950    3.0865 C   0  0  0  0  0  0  0  0  0  0  0  0
   -0.2799   -1.9407    2.7426 H   0  0  0  0  0  0  0  0  0  0  0  0
  -10.2794   -9.2587    7.0241 C   0  0  0  0  0  0  0  0  0  0  0  0
  -11.0929   -8.3305    7.7818 C   0  0  0  0  0  0  0  0  0  0  0  0
  -10.3767   -7.3432    8.5327 C   0  0  0  0  0  0  0  0  0  0  0  0
  -10.9731   -6.3851    9.2842 C   0  0  0  0  0  0  0  0  0  0  0  0
  -12.3375   -6.3192    9.3596 C   0  0  0  0  0  0  0  0  0  0  0  0
  -13.1583   -5.0916   10.3231 Cl  0  0  0  0  0  0  0  0  0  0  0  0
  -13.0437   -7.2507    8.6522 C   0  0  0  0  0  0  0  0  0  0  0  0
  -12.4369   -8.2576    7.8630 C   0  0  0  0  0  0  0  0  0  0  0  0
  -13.3161   -9.1963    7.1487 C   0  0  0  0  0  0  0  0  0  0  0  0
  -13.5386  -10.3866    7.7715 F   0  0  0  0  0  0  0  0  0  0  0  0
  -13.1810   -9.2092    5.7879 F   0  0  0  0  0  0  0  0  0  0  0  0
  -14.6438   -8.6049    7.2679 F   0  0  0  0  0  0  0  0  0  0  0  0
 18 19  1  0  0  0
 19 20  1  0  0  0
 20 21  1  0  0  0
 21 22  1  0  0  0
 22 23  1  0  0  0
 23 24  1  0  0  0
 23 25  1  0  0  0
 22 10  1  0  0  0
 10 11  1  0  0  0
 11 12  2  0  0  0
 11 13  1  0  0  0
 13 14  1  0  0  0
 14 15  2  0  0  0
 15  1  1  0  0  0
  1  2  2  0  0  0
  2  3  1  0  0  0
  3  4  2  0  0  0
  4  5  1  0  0  0
  5 27  1  0  0  0
 27 28  1  0  0  0
 28 29  2  0  0  0
 29 30  1  0  0  0
 30 31  2  0  0  0
 31 32  1  0  0  0
 31 33  1  0  0  0
 33 34  2  0  0  0
 34 35  1  0  0  0
 35 36  1  0  0  0
 35 37  1  0  0  0
 35 38  1  0  0  0
  5  6  1  0  0  0
  6  7  2  0  0  0
  7  8  1  0  0  0
  8  9  2  0  0  0
 14 16  1  0  0  0
 16 17  2  0  0  0
 25 19  1  0  0  0
 16 10  1  0  0  0
  9  1  1  0  0  0
  8  4  1  0  0  0
 34 28  1  0  0  0
 24 26  1  0  0  0
M  END
> <minimizedAffinity>
-6.43489

> <CNNscore>
0.3024527431

> <CNNaffinity>
6.3177614212

> <CNN_VS>
1.9108242989

> <CNNaffinity_variance>
0.1229475513

$$$$
[H]/C(=C1/SC(=O)N(C([H])([H])C([H])([H])N2C([H])([H])C([H])([H])OC([H])([H])C2([H])[H])C1=O)c1c([H])c([H])c2c(c([H])nn2C([H])([H])c2c([H])c([H])c(OC([H])([H])[H])c([H])c2C(F)(F)F)c1[H]


 38 42  0  0  0  0  0  0  0  0999 V2000
  -10.9533   -9.5099    7.3940 N   0  0  0  0  0  0  0  0  0  0  0  0
  -10.3551  -10.6433    6.9527 N   0  0  0  0  0  0  0  0  0  0  0  0
   -9.0936  -10.4100    6.6911 C   0  0  0  0  0  0  0  0  0  0  0  0
   -8.8500   -9.0827    6.9645 C   0  0  0  0  0  0  0  0  0  0  0  0
   -7.7153   -8.3054    6.8249 C   0  0  0  0  0  0  0  0  0  0  0  0
   -7.7195   -6.9376    7.1179 C   0  0  0  0  0  0  0  0  0  0  0  0
   -8.9186   -6.4465    7.5479 C   0  0  0  0  0  0  0  0  0  0  0  0
  -10.0565   -7.1998    7.6959 C   0  0  0  0  0  0  0  0  0  0  0  0
  -10.0429   -8.5591    7.4012 C   0  0  0  0  0  0  0  0  0  0  0  0
   -6.5264   -6.1450    6.9134 C   0  0  0  0  0  0  0  0  0  0  0  0
   -5.2954   -6.5314    7.0132 C   0  0  0  0  0  0  0  0  0  0  0  0
   -4.7161   -8.1542    7.4291 S   0  0  0  0  0  0  0  0  0  0  0  0
   -2.9754   -7.6671    7.6493 C   0  0  0  0  0  0  0  0  0  0  0  0
   -2.1259   -8.4681    8.1415 O   0  0  0  0  0  0  0  0  0  0  0  0
   -2.8952   -6.3581    7.1817 N   0  0  0  0  0  0  0  0  0  0  0  0
   -4.1144   -5.7297    6.8341 C   0  0  0  0  0  0  0  0  0  0  0  0
   -4.1832   -4.5150    6.3827 O   0  0  0  0  0  0  0  0  0  0  0  0
   -1.5961   -5.6200    7.0845 C   0  0  0  0  0  0  0  0  0  0  0  0
   -1.2668   -4.9064    8.3414 C   0  0  0  0  0  0  0  0  0  0  0  0
   -2.3325   -4.5694    9.2182 N   0  0  0  0  0  0  0  0  0  0  0  0
   -2.5472   -3.1558    9.2109 C   0  0  0  0  0  0  0  0  0  0  0  0
   -1.7360   -2.3480   10.1493 C   0  0  0  0  0  0  0  0  0  0  0  0
   -1.6823   -2.8663   11.4478 O   0  0  0  0  0  0  0  0  0  0  0  0
   -1.0610   -4.1191   11.3052 C   0  0  0  0  0  0  0  0  0  0  0  0
   -2.0362   -4.9929   10.5841 C   0  0  0  0  0  0  0  0  0  0  0  0
  -12.3249   -9.4925    7.8050 C   0  0  0  0  0  0  0  0  0  0  0  0
  -15.0997   -7.3124    5.4740 C   0  0  0  0  0  0  0  0  0  0  0  0
  -14.4542   -8.4457    5.0217 C   0  0  0  0  0  0  0  0  0  0  0  0
  -13.5860   -9.1132    5.8101 C   0  0  0  0  0  0  0  0  0  0  0  0
  -13.3097   -8.6613    7.1445 C   0  0  0  0  0  0  0  0  0  0  0  0
  -13.9362   -7.5486    7.6100 C   0  0  0  0  0  0  0  0  0  0  0  0
  -14.8334   -6.8891    6.7434 C   0  0  0  0  0  0  0  0  0  0  0  0
  -13.7906   -6.9912    8.9756 C   0  0  0  0  0  0  0  0  0  0  0  0
  -13.8184   -5.6493    9.0797 F   0  0  0  0  0  0  0  0  0  0  0  0
  -14.7275   -7.5994    9.8442 F   0  0  0  0  0  0  0  0  0  0  0  0
  -12.5708   -7.4104    9.4868 F   0  0  0  0  0  0  0  0  0  0  0  0
  -16.7961   -5.6180    5.0600 C   0  0  0  0  0  0  0  0  0  0  0  0
  -15.9775   -6.6743    4.6112 O   0  0  0  0  0  0  0  0  0  0  0  0
 37 38  1  0  0  0
 38 27  1  0  0  0
 27 28  2  0  0  0
 28 29  1  0  0  0
 29 30  2  0  0  0
 30 26  1  0  0  0
 26  1  1  0  0  0
  1  2  1  0  0  0
  2  3  2  0  0  0
  3  4  1  0  0  0
  4  5  2  0  0  0
  5  6  1  0  0  0
  6 10  1  0  0  0
 10 11  2  0  0  0
 11 12  1  0  0  0
 12 13  1  0  0  0
 13 14  2  0  0  0
 13 15  1  0  0  0
 15 18  1  0  0  0
 18 19  1  0  0  0
 19 20  1  0  0  0
 20 21  1  0  0  0
 21 22  1  0  0  0
 22 23  1  0  0  0
 23 24  1  0  0  0
 24 25  1  0  0  0
 15 16  1  0  0  0
 16 17  2  0  0  0
  6  7  2  0  0  0
  7  8  1  0  0  0
  8  9  2  0  0  0
 30 31  1  0  0  0
 31 32  2  0  0  0
 31 33  1  0  0  0
 33 34  1  0  0  0
 33 35  1  0  0  0
 33 36  1  0  0  0
 32 27  1  0  0  0
  9  1  1  0  0  0
  9  4  1  0  0  0
 16 11  1  0  0  0
 25 20  1  0  0  0
M  END
> <minimizedAffinity>
-8.00876

> <CNNscore>
0.4327455759

> <CNNaffinity>
7.1222076416

> <CNN_VS>
3.0821037292

> <CNNaffinity_variance>
0.0951465964

$$$$
[H]/C(=C1/SC(=O)N(C([H])([H])C([H])([H])N2C([H])([H])C([H])([H])OC([H])([H])C2([H])[H])C1=O)c1c([H])c([H])c2c(c([H])nn2C([H])([H])c2c([H])c([H])c(OC([H])([H])[H])c([H])c2C(F)(F)F)c1[H]


 38 42  0  0  0  0  0  0  0  0999 V2000
  -10.5040   -9.3505    7.7024 N   0  0  0  0  0  0  0  0  0  0  0  0
  -10.0168  -10.5674    7.3577 N   0  0  0  0  0  0  0  0  0  0  0  0
   -8.7979  -10.4462    6.8952 C   0  0  0  0  0  0  0  0  0  0  0  0
   -8.4694   -9.1095    6.9321 C   0  0  0  0  0  0  0  0  0  0  0  0
   -7.3387   -8.4260    6.5253 C   0  0  0  0  0  0  0  0  0  0  0  0
   -7.2511   -7.0324    6.6091 C   0  0  0  0  0  0  0  0  0  0  0  0
   -8.3577   -6.4175    7.1200 C   0  0  0  0  0  0  0  0  0  0  0  0
   -9.4896   -7.0759    7.5319 C   0  0  0  0  0  0  0  0  0  0  0  0
   -9.5678   -8.4619    7.4440 C   0  0  0  0  0  0  0  0  0  0  0  0
   -6.0713   -6.3464    6.1284 C   0  0  0  0  0  0  0  0  0  0  0  0
   -5.0727   -5.9102    6.8263 C   0  0  0  0  0  0  0  0  0  0  0  0
   -4.8628   -6.0323    8.5822 S   0  0  0  0  0  0  0  0  0  0  0  0
   -3.4336   -4.9071    8.6659 C   0  0  0  0  0  0  0  0  0  0  0  0
   -2.9822   -4.4994    9.7776 O   0  0  0  0  0  0  0  0  0  0  0  0
   -3.0623   -4.6810    7.3432 N   0  0  0  0  0  0  0  0  0  0  0  0
   -3.9154   -5.2051    6.3434 C   0  0  0  0  0  0  0  0  0  0  0  0
   -3.6867   -5.0700    5.0731 O   0  0  0  0  0  0  0  0  0  0  0  0
   -1.8464   -3.8879    6.9764 C   0  0  0  0  0  0  0  0  0  0  0  0
   -2.1182   -2.4308    6.9569 C   0  0  0  0  0  0  0  0  0  0  0  0
   -2.5207   -1.8418    5.7284 N   0  0  0  0  0  0  0  0  0  0  0  0
   -1.7868   -0.6368    5.4969 C   0  0  0  0  0  0  0  0  0  0  0  0
   -2.3338    0.6068    6.0846 C   0  0  0  0  0  0  0  0  0  0  0  0
   -3.7070    0.7781    5.8788 O   0  0  0  0  0  0  0  0  0  0  0  0
   -4.3040   -0.3113    6.5364 C   0  0  0  0  0  0  0  0  0  0  0  0
   -3.9469   -1.5279    5.7446 C   0  0  0  0  0  0  0  0  0  0  0  0
  -11.8013   -9.1966    8.2887 C   0  0  0  0  0  0  0  0  0  0  0  0
  -14.6828   -6.9214    6.1894 C   0  0  0  0  0  0  0  0  0  0  0  0
  -14.1472   -8.0985    5.7065 C   0  0  0  0  0  0  0  0  0  0  0  0
  -13.2387   -8.7944    6.4216 C   0  0  0  0  0  0  0  0  0  0  0  0
  -12.8038   -8.3279    7.7079 C   0  0  0  0  0  0  0  0  0  0  0  0
  -13.3203   -7.1722    8.2027 C   0  0  0  0  0  0  0  0  0  0  0  0
  -14.2660   -6.4844    7.4129 C   0  0  0  0  0  0  0  0  0  0  0  0
  -13.0066   -6.5925    9.5301 C   0  0  0  0  0  0  0  0  0  0  0  0
  -11.7013   -6.4532    9.8284 F   0  0  0  0  0  0  0  0  0  0  0  0
  -13.7113   -5.3775    9.7016 F   0  0  0  0  0  0  0  0  0  0  0  0
  -13.5573   -7.4144   10.5029 F   0  0  0  0  0  0  0  0  0  0  0  0
  -15.2980   -5.0182    4.8040 C   0  0  0  0  0  0  0  0  0  0  0  0
  -15.6099   -6.2561    5.4021 O   0  0  0  0  0  0  0  0  0  0  0  0
 37 38  1  0  0  0
 38 27  1  0  0  0
 27 28  2  0  0  0
 28 29  1  0  0  0
 29 30  2  0  0  0
 30 26  1  0  0  0
 26  1  1  0  0  0
  1  2  1  0  0  0
  2  3  2  0  0  0
  3  4  1  0  0  0
  4  5  2  0  0  0
  5  6  1  0  0  0
  6 10  1  0  0  0
 10 11  2  0  0  0
 11 12  1  0  0  0
 12 13  1  0  0  0
 13 14  2  0  0  0
 13 15  1  0  0  0
 15 18  1  0  0  0
 18 19  1  0  0  0
 19 20  1  0  0  0
 20 21  1  0  0  0
 21 22  1  0  0  0
 22 23  1  0  0  0
 23 24  1  0  0  0
 24 25  1  0  0  0
 15 16  1  0  0  0
 16 17  2  0  0  0
  6  7  2  0  0  0
  7  8  1  0  0  0
  8  9  2  0  0  0
 30 31  1  0  0  0
 31 32  2  0  0  0
 31 33  1  0  0  0
 33 34  1  0  0  0
 33 35  1  0  0  0
 33 36  1  0  0  0
 32 27  1  0  0  0
  9  1  1  0  0  0
  9  4  1  0  0  0
 16 11  1  0  0  0
 25 20  1  0  0  0
M  END
> <minimizedAffinity>
-8.80364

> <CNNscore>
0.3975380957

> <CNNaffinity>
6.9756927490

> <CNN_VS>
2.7731037140

> <CNNaffinity_variance>
0.0828105062

$$$$
[H]/C(=C1/SC(=O)N(C([H])([H])C([H])([H])N2C([H])([H])C([H])([H])OC([H])([H])C2([H])[H])C1=O)c1c([H])c([H])c2c(c([H])nn2C([H])([H])c2c([H])c([H])c(OC([H])([H])[H])c([H])c2C(F)(F)F)c1[H]


 38 42  0  0  0  0  0  0  0  0999 V2000
  -13.9719   -8.5276    7.4035 N   0  0  0  0  0  0  0  0  0  0  0  0
  -13.8067   -9.7453    6.8317 N   0  0  0  0  0  0  0  0  0  0  0  0
  -12.5516  -10.1096    6.9109 C   0  0  0  0  0  0  0  0  0  0  0  0
  -11.8651   -9.1024    7.5514 C   0  0  0  0  0  0  0  0  0  0  0  0
  -10.5252   -8.9473    7.8544 C   0  0  0  0  0  0  0  0  0  0  0  0
  -10.0392   -7.7895    8.4708 C   0  0  0  0  0  0  0  0  0  0  0  0
  -10.9857   -6.8444    8.7442 C   0  0  0  0  0  0  0  0  0  0  0  0
  -12.3208   -6.9781    8.4545 C   0  0  0  0  0  0  0  0  0  0  0  0
  -12.7947   -8.1328    7.8406 C   0  0  0  0  0  0  0  0  0  0  0  0
   -8.6232   -7.6409    8.7286 C   0  0  0  0  0  0  0  0  0  0  0  0
   -7.7308   -7.1146    7.9532 C   0  0  0  0  0  0  0  0  0  0  0  0
   -7.9912   -6.4182    6.3441 S   0  0  0  0  0  0  0  0  0  0  0  0
   -6.2242   -6.2678    5.9308 C   0  0  0  0  0  0  0  0  0  0  0  0
   -5.8465   -5.9650    4.7598 O   0  0  0  0  0  0  0  0  0  0  0  0
   -5.5426   -6.5441    7.1130 N   0  0  0  0  0  0  0  0  0  0  0  0
   -6.3197   -6.9948    8.2063 C   0  0  0  0  0  0  0  0  0  0  0  0
   -5.8131   -7.2847    9.3653 O   0  0  0  0  0  0  0  0  0  0  0  0
   -4.0552   -6.4175    7.2289 C   0  0  0  0  0  0  0  0  0  0  0  0
   -3.6536   -5.1367    7.8579 C   0  0  0  0  0  0  0  0  0  0  0  0
   -3.0662   -5.1815    9.1506 N   0  0  0  0  0  0  0  0  0  0  0  0
   -3.8265   -4.3865   10.0641 C   0  0  0  0  0  0  0  0  0  0  0  0
   -3.4926   -2.9464   10.1408 C   0  0  0  0  0  0  0  0  0  0  0  0
   -2.1213   -2.6834   10.2280 O   0  0  0  0  0  0  0  0  0  0  0  0
   -1.5851   -3.1896    9.0314 C   0  0  0  0  0  0  0  0  0  0  0  0
   -1.6958   -4.6780    9.1171 C   0  0  0  0  0  0  0  0  0  0  0  0
  -15.2604   -7.9109    7.5043 C   0  0  0  0  0  0  0  0  0  0  0  0
  -17.7550   -7.3148    4.1417 C   0  0  0  0  0  0  0  0  0  0  0  0
  -17.9447   -8.3315    5.0560 C   0  0  0  0  0  0  0  0  0  0  0  0
  -17.1270   -8.4713    6.1204 C   0  0  0  0  0  0  0  0  0  0  0  0
  -16.0348   -7.5636    6.3311 C   0  0  0  0  0  0  0  0  0  0  0  0
  -15.8318   -6.5544    5.4437 C   0  0  0  0  0  0  0  0  0  0  0  0
  -16.7160   -6.4551    4.3485 C   0  0  0  0  0  0  0  0  0  0  0  0
  -14.7811   -5.5149    5.5539 C   0  0  0  0  0  0  0  0  0  0  0  0
  -14.2479   -5.3308    6.7762 F   0  0  0  0  0  0  0  0  0  0  0  0
  -13.7805   -5.7392    4.5789 F   0  0  0  0  0  0  0  0  0  0  0  0
  -15.3302   -4.3011    5.1663 F   0  0  0  0  0  0  0  0  0  0  0  0
  -18.1677   -6.9046    1.7792 C   0  0  0  0  0  0  0  0  0  0  0  0
  -18.6307   -7.2303    3.0702 O   0  0  0  0  0  0  0  0  0  0  0  0
 37 38  1  0  0  0
 38 27  1  0  0  0
 27 28  2  0  0  0
 28 29  1  0  0  0
 29 30  2  0  0  0
 30 26  1  0  0  0
 26  1  1  0  0  0
  1  2  1  0  0  0
  2  3  2  0  0  0
  3  4  1  0  0  0
  4  5  2  0  0  0
  5  6  1  0  0  0
  6 10  1  0  0  0
 10 11  2  0  0  0
 11 12  1  0  0  0
 12 13  1  0  0  0
 13 14  2  0  0  0
 13 15  1  0  0  0
 15 18  1  0  0  0
 18 19  1  0  0  0
 19 20  1  0  0  0
 20 21  1  0  0  0
 21 22  1  0  0  0
 22 23  1  0  0  0
 23 24  1  0  0  0
 24 25  1  0  0  0
 15 16  1  0  0  0
 16 17  2  0  0  0
  6  7  2  0  0  0
  7  8  1  0  0  0
  8  9  2  0  0  0
 30 31  1  0  0  0
 31 32  2  0  0  0
 31 33  1  0  0  0
 33 34  1  0  0  0
 33 35  1  0  0  0
 33 36  1  0  0  0
 32 27  1  0  0  0
  9  1  1  0  0  0
  9  4  1  0  0  0
 16 11  1  0  0  0
 25 20  1  0  0  0
M  END
> <minimizedAffinity>
-5.37553

> <CNNscore>
0.3889916539

> <CNNaffinity>
7.1156096458

> <CNN_VS>
2.7679128647

> <CNNaffinity_variance>
0.2850321531

$$$$
[H]/C(=C1/SC(=O)N(C([H])([H])C([H])([H])N2C([H])([H])C([H])([H])OC([H])([H])C2([H])[H])C1=O)c1c([H])c([H])c2c(c([H])nn2C([H])([H])c2c([H])c([H])c(OC([H])([H])[H])c([H])c2C(F)(F)F)c1[H]


 38 42  0  0  0  0  0  0  0  0999 V2000
  -11.4651   -9.8199    7.1759 N   0  0  0  0  0  0  0  0  0  0  0  0
  -10.8316  -10.8431    6.5522 N   0  0  0  0  0  0  0  0  0  0  0  0
   -9.5361  -10.6583    6.5938 C   0  0  0  0  0  0  0  0  0  0  0  0
   -9.3051   -9.4767    7.2621 C   0  0  0  0  0  0  0  0  0  0  0  0
   -8.1390   -8.7908    7.5467 C   0  0  0  0  0  0  0  0  0  0  0  0
   -8.1534   -7.5543    8.2006 C   0  0  0  0  0  0  0  0  0  0  0  0
   -9.3957   -7.0933    8.5292 C   0  0  0  0  0  0  0  0  0  0  0  0
  -10.5658   -7.7582    8.2586 C   0  0  0  0  0  0  0  0  0  0  0  0
  -10.5416   -8.9869    7.6072 C   0  0  0  0  0  0  0  0  0  0  0  0
   -6.9170   -6.8414    8.4384 C   0  0  0  0  0  0  0  0  0  0  0  0
   -5.7769   -7.0218    7.8534 C   0  0  0  0  0  0  0  0  0  0  0  0
   -5.4033   -8.2000    6.5828 S   0  0  0  0  0  0  0  0  0  0  0  0
   -3.5997   -7.9571    6.6443 C   0  0  0  0  0  0  0  0  0  0  0  0
   -2.8111   -8.7257    6.0173 O   0  0  0  0  0  0  0  0  0  0  0  0
   -3.4032   -6.8461    7.4603 N   0  0  0  0  0  0  0  0  0  0  0  0
   -4.5450   -6.3263    8.1147 C   0  0  0  0  0  0  0  0  0  0  0  0
   -4.5042   -5.2941    8.9002 O   0  0  0  0  0  0  0  0  0  0  0  0
   -2.0507   -6.2427    7.6806 C   0  0  0  0  0  0  0  0  0  0  0  0
   -1.7383   -5.1973    6.6772 C   0  0  0  0  0  0  0  0  0  0  0  0
   -2.7107   -4.9144    5.6809 N   0  0  0  0  0  0  0  0  0  0  0  0
   -2.1874   -5.2129    4.3841 C   0  0  0  0  0  0  0  0  0  0  0  0
   -1.4196   -4.1439    3.7068 C   0  0  0  0  0  0  0  0  0  0  0  0
   -2.0320   -2.8868    3.7515 O   0  0  0  0  0  0  0  0  0  0  0  0
   -2.0988   -2.5721    5.1198 C   0  0  0  0  0  0  0  0  0  0  0  0
   -3.0998   -3.5073    5.7183 C   0  0  0  0  0  0  0  0  0  0  0  0
  -12.8890   -9.7941    7.3250 C   0  0  0  0  0  0  0  0  0  0  0  0
  -15.1495   -7.0556    5.0278 C   0  0  0  0  0  0  0  0  0  0  0  0
  -14.5603   -8.1856    4.4972 C   0  0  0  0  0  0  0  0  0  0  0  0
  -13.8589   -9.0354    5.2762 C   0  0  0  0  0  0  0  0  0  0  0  0
  -13.7062   -8.7864    6.6818 C   0  0  0  0  0  0  0  0  0  0  0  0
  -14.2801   -7.6804    7.2246 C   0  0  0  0  0  0  0  0  0  0  0  0
  -15.0015   -6.8255    6.3645 C   0  0  0  0  0  0  0  0  0  0  0  0
  -14.2509   -7.3172    8.6612 C   0  0  0  0  0  0  0  0  0  0  0  0
  -13.9351   -6.0405    8.9489 F   0  0  0  0  0  0  0  0  0  0  0  0
  -15.4638   -7.7043    9.2786 F   0  0  0  0  0  0  0  0  0  0  0  0
  -13.3089   -8.1176    9.2914 F   0  0  0  0  0  0  0  0  0  0  0  0
  -16.6248   -5.1544    4.6688 C   0  0  0  0  0  0  0  0  0  0  0  0
  -15.8541   -6.2245    4.1706 O   0  0  0  0  0  0  0  0  0  0  0  0
 37 38  1  0  0  0
 38 27  1  0  0  0
 27 28  2  0  0  0
 28 29  1  0  0  0
 29 30  2  0  0  0
 30 26  1  0  0  0
 26  1  1  0  0  0
  1  2  1  0  0  0
  2  3  2  0  0  0
  3  4  1  0  0  0
  4  5  2  0  0  0
  5  6  1  0  0  0
  6 10  1  0  0  0
 10 11  2  0  0  0
 11 12  1  0  0  0
 12 13  1  0  0  0
 13 14  2  0  0  0
 13 15  1  0  0  0
 15 18  1  0  0  0
 18 19  1  0  0  0
 19 20  1  0  0  0
 20 21  1  0  0  0
 21 22  1  0  0  0
 22 23  1  0  0  0
 23 24  1  0  0  0
 24 25  1  0  0  0
 15 16  1  0  0  0
 16 17  2  0  0  0
  6  7  2  0  0  0
  7  8  1  0  0  0
  8  9  2  0  0  0
 30 31  1  0  0  0
 31 32  2  0  0  0
 31 33  1  0  0  0
 33 34  1  0  0  0
 33 35  1  0  0  0
 33 36  1  0  0  0
 32 27  1  0  0  0
  9  1  1  0  0  0
  9  4  1  0  0  0
 16 11  1  0  0  0
 25 20  1  0  0  0
M  END
> <minimizedAffinity>
-8.59718

> <CNNscore>
0.3884095252

> <CNNaffinity>
7.0585899353

> <CNN_VS>
2.7416236401

> <CNNaffinity_variance>
0.0465440378

$$$$
[H]/C(=C1/SC(=O)N(C([H])([H])C([H])([H])N2C([H])([H])C([H])([H])OC([H])([H])C2([H])[H])C1=O)c1c([H])c([H])c2c(c([H])nn2C([H])([H])c2c([H])c([H])c(OC([H])([H])[H])c([H])c2C(F)(F)F)c1[H]


 38 42  0  0  0  0  0  0  0  0999 V2000
  -10.7697   -8.1282    7.8898 N   0  0  0  0  0  0  0  0  0  0  0  0
  -10.9709   -6.8643    8.3362 N   0  0  0  0  0  0  0  0  0  0  0  0
   -9.8866   -6.1513    8.1630 C   0  0  0  0  0  0  0  0  0  0  0  0
   -8.9386   -6.9676    7.5877 C   0  0  0  0  0  0  0  0  0  0  0  0
   -7.6202   -6.7451    7.2367 C   0  0  0  0  0  0  0  0  0  0  0  0
   -6.8172   -7.7618    6.7091 C   0  0  0  0  0  0  0  0  0  0  0  0
   -7.4378   -8.9700    6.5713 C   0  0  0  0  0  0  0  0  0  0  0  0
   -8.7455   -9.2128    6.9109 C   0  0  0  0  0  0  0  0  0  0  0  0
   -9.5360   -8.1957    7.4357 C   0  0  0  0  0  0  0  0  0  0  0  0
   -5.4274   -7.5056    6.3987 C   0  0  0  0  0  0  0  0  0  0  0  0
   -4.5824   -6.8037    7.0827 C   0  0  0  0  0  0  0  0  0  0  0  0
   -4.8883   -5.9524    8.6071 S   0  0  0  0  0  0  0  0  0  0  0  0
   -3.3175   -5.0313    8.6109 C   0  0  0  0  0  0  0  0  0  0  0  0
   -3.1027   -4.1016    9.4448 O   0  0  0  0  0  0  0  0  0  0  0  0
   -2.5613   -5.5844    7.5809 N   0  0  0  0  0  0  0  0  0  0  0  0
   -3.2087   -6.5319    6.7531 C   0  0  0  0  0  0  0  0  0  0  0  0
   -2.6208   -7.1259    5.7603 O   0  0  0  0  0  0  0  0  0  0  0  0
   -1.1441   -5.1780    7.3198 C   0  0  0  0  0  0  0  0  0  0  0  0
   -1.0603   -3.9862    6.4424 C   0  0  0  0  0  0  0  0  0  0  0  0
   -2.2082   -3.1571    6.3287 N   0  0  0  0  0  0  0  0  0  0  0  0
   -2.7531   -3.2497    5.0100 C   0  0  0  0  0  0  0  0  0  0  0  0
   -2.1943   -2.3382    3.9863 C   0  0  0  0  0  0  0  0  0  0  0  0
   -2.0682   -1.0116    4.4126 O   0  0  0  0  0  0  0  0  0  0  0  0
   -1.1613   -1.0673    5.4850 C   0  0  0  0  0  0  0  0  0  0  0  0
   -1.8719   -1.7625    6.6015 C   0  0  0  0  0  0  0  0  0  0  0  0
  -11.8126   -9.1093    7.9092 C   0  0  0  0  0  0  0  0  0  0  0  0
  -15.5600   -8.3755    6.0913 C   0  0  0  0  0  0  0  0  0  0  0  0
  -14.5149   -9.0064    5.4468 C   0  0  0  0  0  0  0  0  0  0  0  0
  -13.3419   -9.2282    6.0760 C   0  0  0  0  0  0  0  0  0  0  0  0
  -13.1490   -8.8129    7.4367 C   0  0  0  0  0  0  0  0  0  0  0  0
  -14.1660   -8.1919    8.0902 C   0  0  0  0  0  0  0  0  0  0  0  0
  -15.3703   -7.9846    7.3847 C   0  0  0  0  0  0  0  0  0  0  0  0
  -14.1332   -7.7515    9.5049 C   0  0  0  0  0  0  0  0  0  0  0  0
  -13.8198   -6.4604    9.7222 F   0  0  0  0  0  0  0  0  0  0  0  0
  -15.3432   -8.1074   10.1462 F   0  0  0  0  0  0  0  0  0  0  0  0
  -13.1872   -8.5144   10.1743 F   0  0  0  0  0  0  0  0  0  0  0  0
  -17.1851   -6.8783    5.0728 C   0  0  0  0  0  0  0  0  0  0  0  0
  -16.7367   -8.1777    5.3854 O   0  0  0  0  0  0  0  0  0  0  0  0
 37 38  1  0  0  0
 38 27  1  0  0  0
 27 28  2  0  0  0
 28 29  1  0  0  0
 29 30  2  0  0  0
 30 26  1  0  0  0
 26  1  1  0  0  0
  1  2  1  0  0  0
  2  3  2  0  0  0
  3  4  1  0  0  0
  4  5  2  0  0  0
  5  6  1  0  0  0
  6 10  1  0  0  0
 10 11  2  0  0  0
 11 12  1  0  0  0
 12 13  1  0  0  0
 13 14  2  0  0  0
 13 15  1  0  0  0
 15 18  1  0  0  0
 18 19  1  0  0  0
 19 20  1  0  0  0
 20 21  1  0  0  0
 21 22  1  0  0  0
 22 23  1  0  0  0
 23 24  1  0  0  0
 24 25  1  0  0  0
 15 16  1  0  0  0
 16 17  2  0  0  0
  6  7  2  0  0  0
  7  8  1  0  0  0
  8  9  2  0  0  0
 30 31  1  0  0  0
 31 32  2  0  0  0
 31 33  1  0  0  0
 33 34  1  0  0  0
 33 35  1  0  0  0
 33 36  1  0  0  0
 32 27  1  0  0  0
  9  1  1  0  0  0
  9  4  1  0  0  0
 16 11  1  0  0  0
 25 20  1  0  0  0
M  END
> <minimizedAffinity>
-8.16234

> <CNNscore>
0.3740510643

> <CNNaffinity>
6.8879966736

> <CNN_VS>
2.5764625072

> <CNNaffinity_variance>
0.2075597942

$$$$
[H]/C(=C1/SC(=O)N(C([H])([H])C([H])([H])N2C([H])([H])C([H])([H])OC([H])([H])C2([H])[H])C1=O)c1c([H])c([H])c2c(c([H])nn2C([H])([H])c2c([H])c([H])c(OC([H])([H])[H])c([H])c2C(F)(F)F)c1[H]


 38 42  0  0  0  0  0  0  0  0999 V2000
   -7.9391   -7.6240    9.3221 N   0  0  0  0  0  0  0  0  0  0  0  0
   -8.1038   -6.8385   10.4144 N   0  0  0  0  0  0  0  0  0  0  0  0
   -9.3124   -6.3350   10.4245 C   0  0  0  0  0  0  0  0  0  0  0  0
   -9.9661   -6.7983    9.3047 C   0  0  0  0  0  0  0  0  0  0  0  0
  -11.2307   -6.5481    8.8054 C   0  0  0  0  0  0  0  0  0  0  0  0
  -11.6658   -7.0971    7.5945 C   0  0  0  0  0  0  0  0  0  0  0  0
  -10.7510   -7.8885    6.9617 C   0  0  0  0  0  0  0  0  0  0  0  0
   -9.4916   -8.1522    7.4399 C   0  0  0  0  0  0  0  0  0  0  0  0
   -9.0675   -7.6010    8.6445 C   0  0  0  0  0  0  0  0  0  0  0  0
  -12.9783   -6.7742    7.0781 C   0  0  0  0  0  0  0  0  0  0  0  0
  -14.1248   -7.1505    7.5454 C   0  0  0  0  0  0  0  0  0  0  0  0
  -14.4163   -8.1734    8.9633 S   0  0  0  0  0  0  0  0  0  0  0  0
  -16.1916   -8.4180    8.6403 C   0  0  0  0  0  0  0  0  0  0  0  0
  -16.8708   -9.2576    9.3032 O   0  0  0  0  0  0  0  0  0  0  0  0
  -16.5053   -7.5361    7.6095 N   0  0  0  0  0  0  0  0  0  0  0  0
  -15.4250   -6.8466    7.0099 C   0  0  0  0  0  0  0  0  0  0  0  0
  -15.5762   -5.9948    6.0426 O   0  0  0  0  0  0  0  0  0  0  0  0
  -17.9063   -7.3449    7.1171 C   0  0  0  0  0  0  0  0  0  0  0  0
  -18.2797   -8.3539    6.0974 C   0  0  0  0  0  0  0  0  0  0  0  0
  -18.4117   -7.9256    4.7494 N   0  0  0  0  0  0  0  0  0  0  0  0
  -18.0527   -8.9853    3.8591 C   0  0  0  0  0  0  0  0  0  0  0  0
  -16.6203   -9.1115    3.5077 C   0  0  0  0  0  0  0  0  0  0  0  0
  -16.0102   -7.9015    3.1599 O   0  0  0  0  0  0  0  0  0  0  0  0
  -16.1044   -7.1100    4.3177 C   0  0  0  0  0  0  0  0  0  0  0  0
  -17.5521   -6.7756    4.4823 C   0  0  0  0  0  0  0  0  0  0  0  0
   -6.7242   -8.3451    9.0887 C   0  0  0  0  0  0  0  0  0  0  0  0
   -3.4073   -6.5438    7.1810 C   0  0  0  0  0  0  0  0  0  0  0  0
   -3.5450   -6.6184    8.5525 C   0  0  0  0  0  0  0  0  0  0  0  0
   -4.6178   -7.2155    9.1125 C   0  0  0  0  0  0  0  0  0  0  0  0
   -5.6476   -7.7911    8.2944 C   0  0  0  0  0  0  0  0  0  0  0  0
   -5.5304   -7.7302    6.9417 C   0  0  0  0  0  0  0  0  0  0  0  0
   -4.3890   -7.0938    6.4094 C   0  0  0  0  0  0  0  0  0  0  0  0
   -6.4834   -8.3195    5.9716 C   0  0  0  0  0  0  0  0  0  0  0  0
   -7.5688   -7.5803    5.6754 F   0  0  0  0  0  0  0  0  0  0  0  0
   -5.7926   -8.7196    4.8033 F   0  0  0  0  0  0  0  0  0  0  0  0
   -6.9431   -9.5211    6.4912 F   0  0  0  0  0  0  0  0  0  0  0  0
   -1.2469   -5.4789    7.5250 C   0  0  0  0  0  0  0  0  0  0  0  0
   -2.2814   -5.9148    6.6724 O   0  0  0  0  0  0  0  0  0  0  0  0
 37 38  1  0  0  0
 38 27  1  0  0  0
 27 28  2  0  0  0
 28 29  1  0  0  0
 29 30  2  0  0  0
 30 26  1  0  0  0
 26  1  1  0  0  0
  1  2  1  0  0  0
  2  3  2  0  0  0
  3  4  1  0  0  0
  4  5  2  0  0  0
  5  6  1  0  0  0
  6 10  1  0  0  0
 10 11  2  0  0  0
 11 12  1  0  0  0
 12 13  1  0  0  0
 13 14  2  0  0  0
 13 15  1  0  0  0
 15 18  1  0  0  0
 18 19  1  0  0  0
 19 20  1  0  0  0
 20 21  1  0  0  0
 21 22  1  0  0  0
 22 23  1  0  0  0
 23 24  1  0  0  0
 24 25  1  0  0  0
 15 16  1  0  0  0
 16 17  2  0  0  0
  6  7  2  0  0  0
  7  8  1  0  0  0
  8  9  2  0  0  0
 30 31  1  0  0  0
 31 32  2  0  0  0
 31 33  1  0  0  0
 33 34  1  0  0  0
 33 35  1  0  0  0
 33 36  1  0  0  0
 32 27  1  0  0  0
  9  1  1  0  0  0
  9  4  1  0  0  0
 16 11  1  0  0  0
 25 20  1  0  0  0
M  END
> <minimizedAffinity>
4.28645

> <CNNscore>
0.3451817036

> <CNNaffinity>
6.7179222107

> <CNN_VS>
2.3189039230

> <CNNaffinity_variance>
0.9331344366

$$$$
[H]/C(=C1/SC(=O)N(C([H])([H])C([H])([H])N2C([H])([H])C([H])([H])OC([H])([H])C2([H])[H])C1=O)c1c([H])c([H])c2c(c([H])nn2C([H])([H])c2c([H])c([H])c(OC([H])([H])[H])c([H])c2C(F)(F)F)c1[H]


 38 42  0  0  0  0  0  0  0  0999 V2000
  -14.8568   -7.7676    5.7516 N   0  0  0  0  0  0  0  0  0  0  0  0
  -15.2011   -6.7213    6.5415 N   0  0  0  0  0  0  0  0  0  0  0  0
  -14.2106   -6.4222    7.3438 C   0  0  0  0  0  0  0  0  0  0  0  0
  -13.1814   -7.2979    7.0794 C   0  0  0  0  0  0  0  0  0  0  0  0
  -11.9357   -7.4586    7.6571 C   0  0  0  0  0  0  0  0  0  0  0  0
  -11.0629   -8.4746    7.2537 C   0  0  0  0  0  0  0  0  0  0  0  0
  -11.5381   -9.2773    6.2570 C   0  0  0  0  0  0  0  0  0  0  0  0
  -12.7698   -9.1347    5.6678 C   0  0  0  0  0  0  0  0  0  0  0  0
  -13.6313   -8.1219    6.0762 C   0  0  0  0  0  0  0  0  0  0  0  0
   -9.7867   -8.6436    7.9143 C   0  0  0  0  0  0  0  0  0  0  0  0
   -8.6845   -8.0089    7.6760 C   0  0  0  0  0  0  0  0  0  0  0  0
   -8.4230   -6.7404    6.4658 S   0  0  0  0  0  0  0  0  0  0  0  0
   -6.6096   -6.7140    6.6295 C   0  0  0  0  0  0  0  0  0  0  0  0
   -5.8858   -6.0627    5.8186 O   0  0  0  0  0  0  0  0  0  0  0  0
   -6.3266   -7.5028    7.7414 N   0  0  0  0  0  0  0  0  0  0  0  0
   -7.4125   -8.2019    8.3197 C   0  0  0  0  0  0  0  0  0  0  0  0
   -7.2898   -8.9687    9.3594 O   0  0  0  0  0  0  0  0  0  0  0  0
   -4.9403   -7.6506    8.2873 C   0  0  0  0  0  0  0  0  0  0  0  0
   -4.2488   -6.3451    8.4092 C   0  0  0  0  0  0  0  0  0  0  0  0
   -2.8314   -6.3276    8.3152 N   0  0  0  0  0  0  0  0  0  0  0  0
   -2.3872   -5.0639    7.8150 C   0  0  0  0  0  0  0  0  0  0  0  0
   -2.3239   -4.9077    6.3444 C   0  0  0  0  0  0  0  0  0  0  0  0
   -1.7149   -5.9799    5.6833 O   0  0  0  0  0  0  0  0  0  0  0  0
   -2.5355   -7.0852    5.9671 C   0  0  0  0  0  0  0  0  0  0  0  0
   -2.3561   -7.3802    7.4215 C   0  0  0  0  0  0  0  0  0  0  0  0
  -15.7371   -8.2698    4.7399 C   0  0  0  0  0  0  0  0  0  0  0  0
  -19.8731   -8.8882    5.3705 C   0  0  0  0  0  0  0  0  0  0  0  0
  -18.9176   -9.8579    5.5996 C   0  0  0  0  0  0  0  0  0  0  0  0
  -17.6078   -9.6061    5.3945 C   0  0  0  0  0  0  0  0  0  0  0  0
  -17.1716   -8.3190    4.9314 C   0  0  0  0  0  0  0  0  0  0  0  0
  -18.0961   -7.3496    4.7017 C   0  0  0  0  0  0  0  0  0  0  0  0
  -19.4516   -7.6670    4.9316 C   0  0  0  0  0  0  0  0  0  0  0  0
  -17.7956   -5.9638    4.2708 C   0  0  0  0  0  0  0  0  0  0  0  0
  -16.8816   -5.8269    3.2918 F   0  0  0  0  0  0  0  0  0  0  0  0
  -18.9983   -5.2876    3.9570 F   0  0  0  0  0  0  0  0  0  0  0  0
  -17.3187   -5.2624    5.3688 F   0  0  0  0  0  0  0  0  0  0  0  0
  -21.5481  -10.2892    6.4435 C   0  0  0  0  0  0  0  0  0  0  0  0
  -21.2008   -9.2148    5.5996 O   0  0  0  0  0  0  0  0  0  0  0  0
 37 38  1  0  0  0
 38 27  1  0  0  0
 27 28  2  0  0  0
 28 29  1  0  0  0
 29 30  2  0  0  0
 30 26  1  0  0  0
 26  1  1  0  0  0
  1  2  1  0  0  0
  2  3  2  0  0  0
  3  4  1  0  0  0
  4  5  2  0  0  0
  5  6  1  0  0  0
  6 10  1  0  0  0
 10 11  2  0  0  0
 11 12  1  0  0  0
 12 13  1  0  0  0
 13 14  2  0  0  0
 13 15  1  0  0  0
 15 18  1  0  0  0
 18 19  1  0  0  0
 19 20  1  0  0  0
 20 21  1  0  0  0
 21 22  1  0  0  0
 22 23  1  0  0  0
 23 24  1  0  0  0
 24 25  1  0  0  0
 15 16  1  0  0  0
 16 17  2  0  0  0
  6  7  2  0  0  0
  7  8  1  0  0  0
  8  9  2  0  0  0
 30 31  1  0  0  0
 31 32  2  0  0  0
 31 33  1  0  0  0
 33 34  1  0  0  0
 33 35  1  0  0  0
 33 36  1  0  0  0
 32 27  1  0  0  0
  9  1  1  0  0  0
  9  4  1  0  0  0
 16 11  1  0  0  0
 25 20  1  0  0  0
M  END
> <minimizedAffinity>
-1.06299

> <CNNscore>
0.3325546682

> <CNNaffinity>
6.8245110512

> <CNN_VS>
2.2695229053

> <CNNaffinity_variance>
0.6248656511

$$$$
[H]/C(=C1/SC(=O)N(C([H])([H])C([H])([H])N2C([H])([H])C([H])([H])OC([H])([H])C2([H])[H])C1=O)c1c([H])c([H])c2c(c([H])nn2C([H])([H])c2c([H])c([H])c(OC([H])([H])[H])c([H])c2C(F)(F)F)c1[H]


 38 42  0  0  0  0  0  0  0  0999 V2000
   -4.3110   -6.0941    7.7304 N   0  0  0  0  0  0  0  0  0  0  0  0
   -4.1896   -5.7512    6.4247 N   0  0  0  0  0  0  0  0  0  0  0  0
   -5.2523   -6.1327    5.7619 C   0  0  0  0  0  0  0  0  0  0  0  0
   -6.1010   -6.7488    6.6541 C   0  0  0  0  0  0  0  0  0  0  0  0
   -7.3247   -7.3692    6.4851 C   0  0  0  0  0  0  0  0  0  0  0  0
   -7.9889   -7.9889    7.5490 C   0  0  0  0  0  0  0  0  0  0  0  0
   -7.3370   -7.9268    8.7468 C   0  0  0  0  0  0  0  0  0  0  0  0
   -6.1233   -7.3145    8.9378 C   0  0  0  0  0  0  0  0  0  0  0  0
   -5.4699   -6.7017    7.8738 C   0  0  0  0  0  0  0  0  0  0  0  0
   -9.2451   -8.6712    7.3253 C   0  0  0  0  0  0  0  0  0  0  0  0
  -10.4239   -8.3005    7.7091 C   0  0  0  0  0  0  0  0  0  0  0  0
  -10.8391   -6.8391    8.6223 S   0  0  0  0  0  0  0  0  0  0  0  0
  -12.5581   -7.3309    8.9669 C   0  0  0  0  0  0  0  0  0  0  0  0
  -13.2797   -6.6753    9.7764 O   0  0  0  0  0  0  0  0  0  0  0  0
  -12.7829   -8.4625    8.1875 N   0  0  0  0  0  0  0  0  0  0  0  0
  -11.6651   -8.9987    7.5054 C   0  0  0  0  0  0  0  0  0  0  0  0
  -11.7346  -10.0471    6.7438 O   0  0  0  0  0  0  0  0  0  0  0  0
  -14.1254   -9.1192    8.0965 C   0  0  0  0  0  0  0  0  0  0  0  0
  -15.0243   -8.4179    7.1492 C   0  0  0  0  0  0  0  0  0  0  0  0
  -14.4491   -7.8342    5.9888 N   0  0  0  0  0  0  0  0  0  0  0  0
  -14.9603   -6.5126    5.7980 C   0  0  0  0  0  0  0  0  0  0  0  0
  -16.2238   -6.3839    5.0376 C   0  0  0  0  0  0  0  0  0  0  0  0
  -16.2592   -7.1379    3.8597 O   0  0  0  0  0  0  0  0  0  0  0  0
  -16.1446   -8.4719    4.2876 C   0  0  0  0  0  0  0  0  0  0  0  0
  -14.7500   -8.6305    4.8021 C   0  0  0  0  0  0  0  0  0  0  0  0
   -3.3120   -5.7485    8.6963 C   0  0  0  0  0  0  0  0  0  0  0  0
   -2.7683   -1.7074    9.8193 C   0  0  0  0  0  0  0  0  0  0  0  0
   -2.5760   -2.1696    8.5328 C   0  0  0  0  0  0  0  0  0  0  0  0
   -2.7751   -3.4678    8.2229 C   0  0  0  0  0  0  0  0  0  0  0  0
   -3.1938   -4.4059    9.2259 C   0  0  0  0  0  0  0  0  0  0  0  0
   -3.3907   -3.9710   10.4984 C   0  0  0  0  0  0  0  0  0  0  0  0
   -3.1672   -2.6040   10.7673 C   0  0  0  0  0  0  0  0  0  0  0  0
   -3.8673   -4.8070   11.6256 C   0  0  0  0  0  0  0  0  0  0  0  0
   -5.0660   -5.3988   11.4660 F   0  0  0  0  0  0  0  0  0  0  0  0
   -2.8690   -5.7437   11.9837 F   0  0  0  0  0  0  0  0  0  0  0  0
   -3.9613   -4.0026   12.7522 F   0  0  0  0  0  0  0  0  0  0  0  0
   -3.2208    0.3049   11.1099 C   0  0  0  0  0  0  0  0  0  0  0  0
   -2.5439   -0.3623   10.0688 O   0  0  0  0  0  0  0  0  0  0  0  0
 37 38  1  0  0  0
 38 27  1  0  0  0
 27 28  2  0  0  0
 28 29  1  0  0  0
 29 30  2  0  0  0
 30 26  1  0  0  0
 26  1  1  0  0  0
  1  2  1  0  0  0
  2  3  2  0  0  0
  3  4  1  0  0  0
  4  5  2  0  0  0
  5  6  1  0  0  0
  6 10  1  0  0  0
 10 11  2  0  0  0
 11 12  1  0  0  0
 12 13  1  0  0  0
 13 14  2  0  0  0
 13 15  1  0  0  0
 15 18  1  0  0  0
 18 19  1  0  0  0
 19 20  1  0  0  0
 20 21  1  0  0  0
 21 22  1  0  0  0
 22 23  1  0  0  0
 23 24  1  0  0  0
 24 25  1  0  0  0
 15 16  1  0  0  0
 16 17  2  0  0  0
  6  7  2  0  0  0
  7  8  1  0  0  0
  8  9  2  0  0  0
 30 31  1  0  0  0
 31 32  2  0  0  0
 31 33  1  0  0  0
 33 34  1  0  0  0
 33 35  1  0  0  0
 33 36  1  0  0  0
 32 27  1  0  0  0
  9  1  1  0  0  0
  9  4  1  0  0  0
 16 11  1  0  0  0
 25 20  1  0  0  0
M  END
> <minimizedAffinity>
-8.05595

> <CNNscore>
0.2930005193

> <CNNaffinity>
6.6912736893

> <CNN_VS>
1.9605466127

> <CNNaffinity_variance>
0.0105151627

$$$$
[H]/C(=C1/SC(=O)N(C([H])([H])C([H])([H])N2C([H])([H])C([H])([H])OC([H])([H])C2([H])[H])C1=O)c1c([H])c([H])c2c(c([H])nn2C([H])([H])c2c([H])c([H])c(OC([H])([H])[H])c([H])c2C(F)(F)F)c1[H]


 38 42  0  0  0  0  0  0  0  0999 V2000
  -13.9004   -8.4943    7.7004 N   0  0  0  0  0  0  0  0  0  0  0  0
  -13.6668   -9.7276    7.1889 N   0  0  0  0  0  0  0  0  0  0  0  0
  -12.3901  -10.0082    7.2644 C   0  0  0  0  0  0  0  0  0  0  0  0
  -11.7595   -8.9280    7.8401 C   0  0  0  0  0  0  0  0  0  0  0  0
  -10.4278   -8.6740    8.1108 C   0  0  0  0  0  0  0  0  0  0  0  0
  -10.0071   -7.4574    8.6582 C   0  0  0  0  0  0  0  0  0  0  0  0
  -11.0074   -6.5602    8.8996 C   0  0  0  0  0  0  0  0  0  0  0  0
  -12.3354   -6.7919    8.6409 C   0  0  0  0  0  0  0  0  0  0  0  0
  -12.7443   -8.0045    8.0956 C   0  0  0  0  0  0  0  0  0  0  0  0
   -8.5998   -7.2074    8.8829 C   0  0  0  0  0  0  0  0  0  0  0  0
   -7.6191   -7.4275    8.0677 C   0  0  0  0  0  0  0  0  0  0  0  0
   -7.7217   -8.1001    6.4309 S   0  0  0  0  0  0  0  0  0  0  0  0
   -5.9283   -8.3429    6.2292 C   0  0  0  0  0  0  0  0  0  0  0  0
   -5.4590   -8.9890    5.2453 O   0  0  0  0  0  0  0  0  0  0  0  0
   -5.3429   -7.6994    7.3163 N   0  0  0  0  0  0  0  0  0  0  0  0
   -6.2192   -7.2008    8.3091 C   0  0  0  0  0  0  0  0  0  0  0  0
   -5.8078   -6.5787    9.3711 O   0  0  0  0  0  0  0  0  0  0  0  0
   -3.8589   -7.5691    7.4665 C   0  0  0  0  0  0  0  0  0  0  0  0
   -3.3714   -6.2372    7.0354 C   0  0  0  0  0  0  0  0  0  0  0  0
   -3.3967   -5.9324    5.6481 N   0  0  0  0  0  0  0  0  0  0  0  0
   -2.0715   -5.6754    5.1768 C   0  0  0  0  0  0  0  0  0  0  0  0
   -1.5693   -4.2890    5.3059 C   0  0  0  0  0  0  0  0  0  0  0  0
   -2.4777   -3.3123    4.8836 O   0  0  0  0  0  0  0  0  0  0  0  0
   -3.5800   -3.4560    5.7438 C   0  0  0  0  0  0  0  0  0  0  0  0
   -4.2241   -4.7574    5.3886 C   0  0  0  0  0  0  0  0  0  0  0  0
  -15.2236   -7.9549    7.7923 C   0  0  0  0  0  0  0  0  0  0  0  0
  -17.7572   -7.3050    4.4688 C   0  0  0  0  0  0  0  0  0  0  0  0
  -18.0623   -8.1746    5.4966 C   0  0  0  0  0  0  0  0  0  0  0  0
  -17.2249   -8.3371    6.5422 C   0  0  0  0  0  0  0  0  0  0  0  0
  -15.9904   -7.6075    6.6140 C   0  0  0  0  0  0  0  0  0  0  0  0
  -15.6719   -6.7446    5.6134 C   0  0  0  0  0  0  0  0  0  0  0  0
  -16.5831   -6.6140    4.5440 C   0  0  0  0  0  0  0  0  0  0  0  0
  -14.4621   -5.8895    5.5721 C   0  0  0  0  0  0  0  0  0  0  0  0
  -13.2885   -6.5224    5.3868 F   0  0  0  0  0  0  0  0  0  0  0  0
  -14.6439   -4.8466    4.6332 F   0  0  0  0  0  0  0  0  0  0  0  0
  -14.3690   -5.2120    6.7793 F   0  0  0  0  0  0  0  0  0  0  0  0
  -18.2185   -7.0906    2.0895 C   0  0  0  0  0  0  0  0  0  0  0  0
  -18.6612   -7.1878    3.4243 O   0  0  0  0  0  0  0  0  0  0  0  0
 37 38  1  0  0  0
 38 27  1  0  0  0
 27 28  2  0  0  0
 28 29  1  0  0  0
 29 30  2  0  0  0
 30 26  1  0  0  0
 26  1  1  0  0  0
  1  2  1  0  0  0
  2  3  2  0  0  0
  3  4  1  0  0  0
  4  5  2  0  0  0
  5  6  1  0  0  0
  6 10  1  0  0  0
 10 11  2  0  0  0
 11 12  1  0  0  0
 12 13  1  0  0  0
 13 14  2  0  0  0
 13 15  1  0  0  0
 15 18  1  0  0  0
 18 19  1  0  0  0
 19 20  1  0  0  0
 20 21  1  0  0  0
 21 22  1  0  0  0
 22 23  1  0  0  0
 23 24  1  0  0  0
 24 25  1  0  0  0
 15 16  1  0  0  0
 16 17  2  0  0  0
  6  7  2  0  0  0
  7  8  1  0  0  0
  8  9  2  0  0  0
 30 31  1  0  0  0
 31 32  2  0  0  0
 31 33  1  0  0  0
 33 34  1  0  0  0
 33 35  1  0  0  0
 33 36  1  0  0  0
 32 27  1  0  0  0
  9  1  1  0  0  0
  9  4  1  0  0  0
 16 11  1  0  0  0
 25 20  1  0  0  0
M  END
> <minimizedAffinity>
-5.44539

> <CNNscore>
0.2913795412

> <CNNaffinity>
6.9675703049

> <CNN_VS>
2.0302073956

> <CNNaffinity_variance>
0.2171180248

$$$$
[H]/C(=C1/SC(=O)N([C@@]2([H])C([H])([H])C([H])([H])N(C([H])([H])[H])C([H])([H])[C@@]2([H])F)C1=O)c1c([H])c([H])c2c(c([H])nn2C([H])([H])c2c([H])c([H])c(Cl)c([H])c2C(F)(F)F)c1[H]


 37 41  0  0  0  0  0  0  0  0999 V2000
   -8.5989   -7.8536    8.2228 C   0  0  0  0  0  0  0  0  0  0  0  0
   -9.8475   -7.3368    8.4801 C   0  0  0  0  0  0  0  0  0  0  0  0
  -10.9869   -8.0170    8.1452 C   0  0  0  0  0  0  0  0  0  0  0  0
  -10.9588   -9.2405    7.5383 C   0  0  0  0  0  0  0  0  0  0  0  0
  -11.9233  -10.0544    7.1565 N   0  0  0  0  0  0  0  0  0  0  0  0
  -11.2856  -11.1538    6.6249 N   0  0  0  0  0  0  0  0  0  0  0  0
   -9.9639  -10.9917    6.6915 C   0  0  0  0  0  0  0  0  0  0  0  0
   -9.6951   -9.7772    7.2695 C   0  0  0  0  0  0  0  0  0  0  0  0
   -8.5645   -9.0834    7.6112 C   0  0  0  0  0  0  0  0  0  0  0  0
   -4.9452   -5.3337    6.4907 N   0  0  0  0  0  0  0  0  0  0  0  0
   -5.7768   -5.5862    5.3742 C   0  0  0  0  0  0  0  0  0  0  0  0
   -5.7523   -5.0749    4.2251 O   0  0  0  0  0  0  0  0  0  0  0  0
   -6.9477   -6.8306    5.8860 S   0  0  0  0  0  0  0  0  0  0  0  0
   -6.6399   -6.6025    7.6634 C   0  0  0  0  0  0  0  0  0  0  0  0
   -7.4221   -7.0896    8.6338 C   0  0  0  0  0  0  0  0  0  0  0  0
   -5.3995   -5.8694    7.7125 C   0  0  0  0  0  0  0  0  0  0  0  0
   -4.7952   -5.7520    8.8597 O   0  0  0  0  0  0  0  0  0  0  0  0
   -1.0614   -3.1217    5.9590 C   0  0  0  0  0  0  0  0  0  0  0  0
   -1.0611   -4.0267    7.0708 N   0  0  0  0  0  0  0  0  0  0  0  0
   -2.0730   -3.6897    8.0493 C   0  0  0  0  0  0  0  0  0  0  0  0
   -3.4760   -3.7070    7.5134 C   0  0  0  0  0  0  0  0  0  0  0  0
   -3.7050   -4.5769    6.3577 C   0  0  0  0  0  0  0  0  0  0  0  0
   -2.6320   -5.5583    5.9857 C   0  0  0  0  0  0  0  0  0  0  0  0
   -3.0318   -6.8709    6.1433 F   0  0  0  0  0  0  0  0  0  0  0  0
   -1.3242   -5.3808    6.6715 C   0  0  0  0  0  0  0  0  0  0  0  0
  -13.3662  -10.0697    7.1220 C   0  0  0  0  0  0  0  0  0  0  0  0
  -14.0203   -8.8448    6.7050 C   0  0  0  0  0  0  0  0  0  0  0  0
  -14.1173   -8.6597    5.3020 C   0  0  0  0  0  0  0  0  0  0  0  0
  -14.6216   -7.5171    4.7449 C   0  0  0  0  0  0  0  0  0  0  0  0
  -15.0591   -6.4927    5.5447 C   0  0  0  0  0  0  0  0  0  0  0  0
  -15.6994   -5.0335    4.8536 Cl  0  0  0  0  0  0  0  0  0  0  0  0
  -14.9721   -6.6617    6.8882 C   0  0  0  0  0  0  0  0  0  0  0  0
  -14.4537   -7.8407    7.4760 C   0  0  0  0  0  0  0  0  0  0  0  0
  -14.5020   -7.9092    8.9388 C   0  0  0  0  0  0  0  0  0  0  0  0
  -14.1955   -6.6232    9.4829 F   0  0  0  0  0  0  0  0  0  0  0  0
  -15.7611   -8.1769    9.4291 F   0  0  0  0  0  0  0  0  0  0  0  0
  -13.5158   -8.6738    9.5180 F   0  0  0  0  0  0  0  0  0  0  0  0
 18 19  1  0  0  0
 19 20  1  0  0  0
 20 21  1  0  0  0
 21 22  1  0  0  0
 22 23  1  0  0  0
 23 24  1  0  0  0
 23 25  1  0  0  0
 22 10  1  0  0  0
 10 11  1  0  0  0
 11 12  2  0  0  0
 11 13  1  0  0  0
 13 14  1  0  0  0
 14 15  2  0  0  0
 15  1  1  0  0  0
  1  2  2  0  0  0
  2  3  1  0  0  0
  3  4  2  0  0  0
  4  5  1  0  0  0
  5 26  1  0  0  0
 26 27  1  0  0  0
 27 28  2  0  0  0
 28 29  1  0  0  0
 29 30  2  0  0  0
 30 31  1  0  0  0
 30 32  1  0  0  0
 32 33  2  0  0  0
 33 34  1  0  0  0
 34 35  1  0  0  0
 34 36  1  0  0  0
 34 37  1  0  0  0
  5  6  1  0  0  0
  6  7  2  0  0  0
  7  8  1  0  0  0
  8  9  2  0  0  0
 14 16  1  0  0  0
 16 17  2  0  0  0
 25 19  1  0  0  0
 16 10  1  0  0  0
  9  1  1  0  0  0
  8  4  1  0  0  0
 33 27  1  0  0  0
M  END
> <minimizedAffinity>
-6.99125

> <CNNscore>
0.4315708280

> <CNNaffinity>
7.2947196960

> <CNN_VS>
3.1481881142

> <CNNaffinity_variance>
0.3940498233

$$$$
[H]/C(=C1/SC(=O)N([C@@]2([H])C([H])([H])C([H])([H])N(C([H])([H])[H])C([H])([H])[C@@]2([H])F)C1=O)c1c([H])c([H])c2c(c([H])nn2C([H])([H])c2c([H])c([H])c(Cl)c([H])c2C(F)(F)F)c1[H]


 37 41  0  0  0  0  0  0  0  0999 V2000
   -8.2522   -6.7168    8.0513 C   0  0  0  0  0  0  0  0  0  0  0  0
   -8.4924   -7.6785    7.0975 C   0  0  0  0  0  0  0  0  0  0  0  0
   -9.7348   -8.2282    6.9320 C   0  0  0  0  0  0  0  0  0  0  0  0
  -10.8061   -7.8624    7.6964 C   0  0  0  0  0  0  0  0  0  0  0  0
  -12.0665   -8.2496    7.6857 N   0  0  0  0  0  0  0  0  0  0  0  0
  -12.6840   -7.5137    8.6732 N   0  0  0  0  0  0  0  0  0  0  0  0
  -11.8014   -6.7038    9.2587 C   0  0  0  0  0  0  0  0  0  0  0  0
  -10.5754   -6.8860    8.6714 C   0  0  0  0  0  0  0  0  0  0  0  0
   -9.3258   -6.3459    8.8241 C   0  0  0  0  0  0  0  0  0  0  0  0
   -4.8762   -5.5741   11.2130 N   0  0  0  0  0  0  0  0  0  0  0  0
   -5.8451   -6.2894   11.9555 C   0  0  0  0  0  0  0  0  0  0  0  0
   -5.7708   -6.7705   13.1155 O   0  0  0  0  0  0  0  0  0  0  0  0
   -7.2905   -6.4106   10.9175 S   0  0  0  0  0  0  0  0  0  0  0  0
   -6.4103   -5.9805    9.3859 C   0  0  0  0  0  0  0  0  0  0  0  0
   -6.9092   -6.1484    8.1555 C   0  0  0  0  0  0  0  0  0  0  0  0
   -5.1691   -5.4081    9.8445 C   0  0  0  0  0  0  0  0  0  0  0  0
   -4.4162   -4.7901    8.9807 O   0  0  0  0  0  0  0  0  0  0  0  0
   -1.0600   -4.0340   13.0364 C   0  0  0  0  0  0  0  0  0  0  0  0
   -1.5355   -5.2470   13.6346 N   0  0  0  0  0  0  0  0  0  0  0  0
   -2.8499   -5.0884   14.2197 C   0  0  0  0  0  0  0  0  0  0  0  0
   -3.9123   -4.6756   13.2414 C   0  0  0  0  0  0  0  0  0  0  0  0
   -3.6714   -5.0481   11.8456 C   0  0  0  0  0  0  0  0  0  0  0  0
   -2.5645   -6.0184   11.5521 C   0  0  0  0  0  0  0  0  0  0  0  0
   -3.0260   -7.2145   11.0384 F   0  0  0  0  0  0  0  0  0  0  0  0
   -1.6462   -6.3170   12.6833 C   0  0  0  0  0  0  0  0  0  0  0  0
  -12.8924   -9.2017    6.9826 C   0  0  0  0  0  0  0  0  0  0  0  0
  -14.0886   -8.6825    6.3486 C   0  0  0  0  0  0  0  0  0  0  0  0
  -15.1459   -9.6160    6.1984 C   0  0  0  0  0  0  0  0  0  0  0  0
  -16.3051   -9.3132    5.5389 C   0  0  0  0  0  0  0  0  0  0  0  0
  -16.4840   -8.0689    4.9911 C   0  0  0  0  0  0  0  0  0  0  0  0
  -17.9487   -7.6687    4.1476 Cl  0  0  0  0  0  0  0  0  0  0  0  0
  -15.4787   -7.1686    5.1317 C   0  0  0  0  0  0  0  0  0  0  0  0
  -14.2753   -7.4703    5.8138 C   0  0  0  0  0  0  0  0  0  0  0  0
  -13.3190   -6.3693    5.9558 C   0  0  0  0  0  0  0  0  0  0  0  0
  -13.7947   -5.2331    5.2305 F   0  0  0  0  0  0  0  0  0  0  0  0
  -13.2110   -5.9066    7.2487 F   0  0  0  0  0  0  0  0  0  0  0  0
  -12.1033   -6.5726    5.3446 F   0  0  0  0  0  0  0  0  0  0  0  0
 18 19  1  0  0  0
 19 20  1  0  0  0
 20 21  1  0  0  0
 21 22  1  0  0  0
 22 23  1  0  0  0
 23 24  1  0  0  0
 23 25  1  0  0  0
 22 10  1  0  0  0
 10 11  1  0  0  0
 11 12  2  0  0  0
 11 13  1  0  0  0
 13 14  1  0  0  0
 14 15  2  0  0  0
 15  1  1  0  0  0
  1  2  2  0  0  0
  2  3  1  0  0  0
  3  4  2  0  0  0
  4  5  1  0  0  0
  5 26  1  0  0  0
 26 27  1  0  0  0
 27 28  2  0  0  0
 28 29  1  0  0  0
 29 30  2  0  0  0
 30 31  1  0  0  0
 30 32  1  0  0  0
 32 33  2  0  0  0
 33 34  1  0  0  0
 34 35  1  0  0  0
 34 36  1  0  0  0
 34 37  1  0  0  0
  5  6  1  0  0  0
  6  7  2  0  0  0
  7  8  1  0  0  0
  8  9  2  0  0  0
 14 16  1  0  0  0
 16 17  2  0  0  0
 25 19  1  0  0  0
 16 10  1  0  0  0
  9  1  1  0  0  0
  8  4  1  0  0  0
 33 27  1  0  0  0
M  END
> <minimizedAffinity>
9.41918

> <CNNscore>
0.3718101084

> <CNNaffinity>
6.4048871994

> <CNN_VS>
2.3814017773

> <CNNaffinity_variance>
1.2809005976

$$$$
[H]/C(=C1/SC(=O)N([C@@]2([H])C([H])([H])C([H])([H])N(C([H])([H])[H])C([H])([H])[C@@]2([H])F)C1=O)c1c([H])c([H])c2c(c([H])nn2C([H])([H])c2c([H])c([H])c(Cl)c([H])c2C(F)(F)F)c1[H]


 37 41  0  0  0  0  0  0  0  0999 V2000
   -6.9579   -6.6291    6.5836 C   0  0  0  0  0  0  0  0  0  0  0  0
   -6.1667   -7.3098    5.6876 C   0  0  0  0  0  0  0  0  0  0  0  0
   -4.8740   -7.6463    5.9854 C   0  0  0  0  0  0  0  0  0  0  0  0
   -4.2906   -7.3300    7.1793 C   0  0  0  0  0  0  0  0  0  0  0  0
   -3.0876   -7.5730    7.6613 N   0  0  0  0  0  0  0  0  0  0  0  0
   -3.0840   -7.0303    8.9275 N   0  0  0  0  0  0  0  0  0  0  0  0
   -4.2673   -6.4746    9.1897 C   0  0  0  0  0  0  0  0  0  0  0  0
   -5.0838   -6.6362    8.0995 C   0  0  0  0  0  0  0  0  0  0  0  0
   -6.3759   -6.3070    7.7857 C   0  0  0  0  0  0  0  0  0  0  0  0
  -11.4691   -7.7643    7.6134 N   0  0  0  0  0  0  0  0  0  0  0  0
  -10.6949   -8.4017    8.6115 C   0  0  0  0  0  0  0  0  0  0  0  0
  -11.0609   -8.9357    9.6901 O   0  0  0  0  0  0  0  0  0  0  0  0
   -8.9993   -8.3253    8.0630 S   0  0  0  0  0  0  0  0  0  0  0  0
   -9.3025   -7.0314    6.8223 C   0  0  0  0  0  0  0  0  0  0  0  0
   -8.3401   -6.3272    6.2149 C   0  0  0  0  0  0  0  0  0  0  0  0
  -10.7350   -7.0313    6.6596 C   0  0  0  0  0  0  0  0  0  0  0  0
  -11.2444   -6.3658    5.6632 O   0  0  0  0  0  0  0  0  0  0  0  0
  -15.9663   -7.9503    7.5965 C   0  0  0  0  0  0  0  0  0  0  0  0
  -15.3751   -8.4184    8.8158 N   0  0  0  0  0  0  0  0  0  0  0  0
  -14.5036   -9.5536    8.5993 C   0  0  0  0  0  0  0  0  0  0  0  0
  -13.3546   -9.2781    7.6718 C   0  0  0  0  0  0  0  0  0  0  0  0
  -12.9231   -7.8809    7.5908 C   0  0  0  0  0  0  0  0  0  0  0  0
  -13.4549   -6.9149    8.6091 C   0  0  0  0  0  0  0  0  0  0  0  0
  -12.4690   -6.4188    9.4395 F   0  0  0  0  0  0  0  0  0  0  0  0
  -14.5731   -7.4126    9.4541 C   0  0  0  0  0  0  0  0  0  0  0  0
   -1.8560   -8.1829    7.2203 C   0  0  0  0  0  0  0  0  0  0  0  0
   -1.7751   -9.6275    7.3141 C   0  0  0  0  0  0  0  0  0  0  0  0
   -1.6178  -10.1393    8.6276 C   0  0  0  0  0  0  0  0  0  0  0  0
   -1.4327  -11.4706    8.8800 C   0  0  0  0  0  0  0  0  0  0  0  0
   -1.3934  -12.3712    7.8467 C   0  0  0  0  0  0  0  0  0  0  0  0
   -1.1561  -14.0650    8.1494 Cl  0  0  0  0  0  0  0  0  0  0  0  0
   -1.5451  -11.8910    6.5868 C   0  0  0  0  0  0  0  0  0  0  0  0
   -1.7391  -10.5154    6.3137 C   0  0  0  0  0  0  0  0  0  0  0  0
   -1.9712  -10.1610    4.9111 C   0  0  0  0  0  0  0  0  0  0  0  0
   -1.2484  -11.0626    4.0696 F   0  0  0  0  0  0  0  0  0  0  0  0
   -3.2805  -10.3293    4.5174 F   0  0  0  0  0  0  0  0  0  0  0  0
   -1.4328   -8.9573    4.5188 F   0  0  0  0  0  0  0  0  0  0  0  0
 18 19  1  0  0  0
 19 20  1  0  0  0
 20 21  1  0  0  0
 21 22  1  0  0  0
 22 23  1  0  0  0
 23 24  1  0  0  0
 23 25  1  0  0  0
 22 10  1  0  0  0
 10 11  1  0  0  0
 11 12  2  0  0  0
 11 13  1  0  0  0
 13 14  1  0  0  0
 14 15  2  0  0  0
 15  1  1  0  0  0
  1  2  2  0  0  0
  2  3  1  0  0  0
  3  4  2  0  0  0
  4  5  1  0  0  0
  5 26  1  0  0  0
 26 27  1  0  0  0
 27 28  2  0  0  0
 28 29  1  0  0  0
 29 30  2  0  0  0
 30 31  1  0  0  0
 30 32  1  0  0  0
 32 33  2  0  0  0
 33 34  1  0  0  0
 34 35  1  0  0  0
 34 36  1  0  0  0
 34 37  1  0  0  0
  5  6  1  0  0  0
  6  7  2  0  0  0
  7  8  1  0  0  0
  8  9  2  0  0  0
 14 16  1  0  0  0
 16 17  2  0  0  0
 25 19  1  0  0  0
 16 10  1  0  0  0
  9  1  1  0  0  0
  8  4  1  0  0  0
 33 27  1  0  0  0
M  END
> <minimizedAffinity>
2.82773

> <CNNscore>
0.3589397967

> <CNNaffinity>
6.5717949867

> <CNN_VS>
2.3588788509

> <CNNaffinity_variance>
0.9965541959

$$$$
[H]/C(=C1/SC(=O)N([C@@]2([H])C([H])([H])C([H])([H])N(C([H])([H])[H])C([H])([H])[C@@]2([H])F)C1=O)c1c([H])c([H])c2c(c([H])nn2C([H])([H])c2c([H])c([H])c(Cl)c([H])c2C(F)(F)F)c1[H]


 37 41  0  0  0  0  0  0  0  0999 V2000
  -10.0758   -7.7225    8.3741 C   0  0  0  0  0  0  0  0  0  0  0  0
  -11.0901   -6.8415    8.6694 C   0  0  0  0  0  0  0  0  0  0  0  0
  -12.3770   -7.0689    8.2628 C   0  0  0  0  0  0  0  0  0  0  0  0
  -12.7342   -8.1737    7.5433 C   0  0  0  0  0  0  0  0  0  0  0  0
  -13.8990   -8.5811    7.0788 N   0  0  0  0  0  0  0  0  0  0  0  0
  -13.6435   -9.7803    6.4507 N   0  0  0  0  0  0  0  0  0  0  0  0
  -12.3468  -10.0769    6.5426 C   0  0  0  0  0  0  0  0  0  0  0  0
  -11.7118   -9.0775    7.2348 C   0  0  0  0  0  0  0  0  0  0  0  0
  -10.4289   -8.8350    7.6494 C   0  0  0  0  0  0  0  0  0  0  0  0
   -5.7108   -6.4970    6.9095 N   0  0  0  0  0  0  0  0  0  0  0  0
   -6.5288   -6.3764    5.7613 C   0  0  0  0  0  0  0  0  0  0  0  0
   -6.2815   -5.8307    4.6553 O   0  0  0  0  0  0  0  0  0  0  0  0
   -8.0741   -7.1760    6.1542 S   0  0  0  0  0  0  0  0  0  0  0  0
   -7.7857   -7.1832    7.9493 C   0  0  0  0  0  0  0  0  0  0  0  0
   -8.7287   -7.4356    8.8647 C   0  0  0  0  0  0  0  0  0  0  0  0
   -6.3734   -6.9234    8.0779 C   0  0  0  0  0  0  0  0  0  0  0  0
   -5.8163   -7.0949    9.2421 O   0  0  0  0  0  0  0  0  0  0  0  0
   -1.2825   -5.7359    6.6450 C   0  0  0  0  0  0  0  0  0  0  0  0
   -1.6702   -6.4819    7.8062 N   0  0  0  0  0  0  0  0  0  0  0  0
   -2.5836   -5.7418    8.6507 C   0  0  0  0  0  0  0  0  0  0  0  0
   -3.8661   -5.3504    7.9738 C   0  0  0  0  0  0  0  0  0  0  0  0
   -4.2828   -6.2030    6.8583 C   0  0  0  0  0  0  0  0  0  0  0  0
   -3.5740   -7.5116    6.6633 C   0  0  0  0  0  0  0  0  0  0  0  0
   -4.4002   -8.6004    6.8617 F   0  0  0  0  0  0  0  0  0  0  0  0
   -2.3390   -7.7071    7.4688 C   0  0  0  0  0  0  0  0  0  0  0  0
  -15.2621   -8.1090    7.0318 C   0  0  0  0  0  0  0  0  0  0  0  0
  -15.5846   -7.1541    5.9895 C   0  0  0  0  0  0  0  0  0  0  0  0
  -14.7250   -6.0282    5.9152 C   0  0  0  0  0  0  0  0  0  0  0  0
  -14.9454   -4.9915    5.0510 C   0  0  0  0  0  0  0  0  0  0  0  0
  -16.0288   -5.0104    4.2106 C   0  0  0  0  0  0  0  0  0  0  0  0
  -16.3252   -3.7006    3.1090 Cl  0  0  0  0  0  0  0  0  0  0  0  0
  -16.8555   -6.0844    4.2731 C   0  0  0  0  0  0  0  0  0  0  0  0
  -16.6363   -7.1642    5.1623 C   0  0  0  0  0  0  0  0  0  0  0  0
  -17.5678   -8.2900    5.0546 C   0  0  0  0  0  0  0  0  0  0  0  0
  -18.6493   -7.9283    4.1925 F   0  0  0  0  0  0  0  0  0  0  0  0
  -17.0182   -9.3933    4.4397 F   0  0  0  0  0  0  0  0  0  0  0  0
  -18.2513   -8.5917    6.2098 F   0  0  0  0  0  0  0  0  0  0  0  0
 18 19  1  0  0  0
 19 20  1  0  0  0
 20 21  1  0  0  0
 21 22  1  0  0  0
 22 23  1  0  0  0
 23 24  1  0  0  0
 23 25  1  0  0  0
 22 10  1  0  0  0
 10 11  1  0  0  0
 11 12  2  0  0  0
 11 13  1  0  0  0
 13 14  1  0  0  0
 14 15  2  0  0  0
 15  1  1  0  0  0
  1  2  2  0  0  0
  2  3  1  0  0  0
  3  4  2  0  0  0
  4  5  1  0  0  0
  5 26  1  0  0  0
 26 27  1  0  0  0
 27 28  2  0  0  0
 28 29  1  0  0  0
 29 30  2  0  0  0
 30 31  1  0  0  0
 30 32  1  0  0  0
 32 33  2  0  0  0
 33 34  1  0  0  0
 34 35  1  0  0  0
 34 36  1  0  0  0
 34 37  1  0  0  0
  5  6  1  0  0  0
  6  7  2  0  0  0
  7  8  1  0  0  0
  8  9  2  0  0  0
 14 16  1  0  0  0
 16 17  2  0  0  0
 25 19  1  0  0  0
 16 10  1  0  0  0
  9  1  1  0  0  0
  8  4  1  0  0  0
 33 27  1  0  0  0
M  END
> <minimizedAffinity>
-8.38878

> <CNNscore>
0.3565754592

> <CNNaffinity>
7.1791639328

> <CNN_VS>
2.5599136353

> <CNNaffinity_variance>
0.1564817727

$$$$
[H]/C(=C1/SC(=O)N([C@@]2([H])C([H])([H])C([H])([H])N(C([H])([H])[H])C([H])([H])[C@@]2([H])F)C1=O)c1c([H])c([H])c2c(c([H])nn2C([H])([H])c2c([H])c([H])c(Cl)c([H])c2C(F)(F)F)c1[H]


 37 41  0  0  0  0  0  0  0  0999 V2000
   -9.5464   -9.0431    7.1882 C   0  0  0  0  0  0  0  0  0  0  0  0
   -9.6297   -8.0365    8.1221 C   0  0  0  0  0  0  0  0  0  0  0  0
  -10.7930   -7.7788    8.7953 C   0  0  0  0  0  0  0  0  0  0  0  0
  -11.9363   -8.4962    8.5848 C   0  0  0  0  0  0  0  0  0  0  0  0
  -13.1339   -8.4214    9.1313 N   0  0  0  0  0  0  0  0  0  0  0  0
  -13.8720   -9.4194    8.5337 N   0  0  0  0  0  0  0  0  0  0  0  0
  -13.1216  -10.0739    7.6470 C   0  0  0  0  0  0  0  0  0  0  0  0
  -11.8659   -9.5222    7.6363 C   0  0  0  0  0  0  0  0  0  0  0  0
  -10.6937   -9.7672    6.9713 C   0  0  0  0  0  0  0  0  0  0  0  0
   -5.2662   -7.0935    6.4275 N   0  0  0  0  0  0  0  0  0  0  0  0
   -5.8887   -6.2493    7.3769 C   0  0  0  0  0  0  0  0  0  0  0  0
   -5.3909   -5.3376    8.0865 O   0  0  0  0  0  0  0  0  0  0  0  0
   -7.6112   -6.7111    7.4129 S   0  0  0  0  0  0  0  0  0  0  0  0
   -7.3548   -8.3066    6.5796 C   0  0  0  0  0  0  0  0  0  0  0  0
   -8.2653   -9.2860    6.5270 C   0  0  0  0  0  0  0  0  0  0  0  0
   -6.0395   -8.1917    6.0006 C   0  0  0  0  0  0  0  0  0  0  0  0
   -5.6610   -9.0931    5.1408 O   0  0  0  0  0  0  0  0  0  0  0  0
   -1.0617   -6.4073    4.9745 C   0  0  0  0  0  0  0  0  0  0  0  0
   -1.3343   -5.8130    6.2502 N   0  0  0  0  0  0  0  0  0  0  0  0
   -2.3991   -4.8350    6.1806 C   0  0  0  0  0  0  0  0  0  0  0  0
   -3.7113   -5.3883    5.7029 C   0  0  0  0  0  0  0  0  0  0  0  0
   -3.9207   -6.8191    5.9346 C   0  0  0  0  0  0  0  0  0  0  0  0
   -2.9671   -7.5366    6.8449 C   0  0  0  0  0  0  0  0  0  0  0  0
   -3.5736   -7.9959    7.9976 F   0  0  0  0  0  0  0  0  0  0  0  0
   -1.7433   -6.7827    7.2272 C   0  0  0  0  0  0  0  0  0  0  0  0
  -13.8262   -7.5996   10.0949 C   0  0  0  0  0  0  0  0  0  0  0  0
  -13.0033   -6.8809   11.0481 C   0  0  0  0  0  0  0  0  0  0  0  0
  -12.7299   -7.5756   12.2542 C   0  0  0  0  0  0  0  0  0  0  0  0
  -12.0480   -7.0041   13.2928 C   0  0  0  0  0  0  0  0  0  0  0  0
  -11.5973   -5.7126   13.1965 C   0  0  0  0  0  0  0  0  0  0  0  0
  -10.7324   -4.9704   14.5072 Cl  0  0  0  0  0  0  0  0  0  0  0  0
  -11.8523   -5.0408   12.0455 C   0  0  0  0  0  0  0  0  0  0  0  0
  -12.5555   -5.6228   10.9632 C   0  0  0  0  0  0  0  0  0  0  0  0
  -12.6796   -4.8016    9.7563 C   0  0  0  0  0  0  0  0  0  0  0  0
  -11.6923   -5.2064    8.8050 F   0  0  0  0  0  0  0  0  0  0  0  0
  -13.8697   -4.9920    9.0892 F   0  0  0  0  0  0  0  0  0  0  0  0
  -12.3501   -3.4757    9.9187 F   0  0  0  0  0  0  0  0  0  0  0  0
 18 19  1  0  0  0
 19 20  1  0  0  0
 20 21  1  0  0  0
 21 22  1  0  0  0
 22 23  1  0  0  0
 23 24  1  0  0  0
 23 25  1  0  0  0
 22 10  1  0  0  0
 10 11  1  0  0  0
 11 12  2  0  0  0
 11 13  1  0  0  0
 13 14  1  0  0  0
 14 15  2  0  0  0
 15  1  1  0  0  0
  1  2  2  0  0  0
  2  3  1  0  0  0
  3  4  2  0  0  0
  4  5  1  0  0  0
  5 26  1  0  0  0
 26 27  1  0  0  0
 27 28  2  0  0  0
 28 29  1  0  0  0
 29 30  2  0  0  0
 30 31  1  0  0  0
 30 32  1  0  0  0
 32 33  2  0  0  0
 33 34  1  0  0  0
 34 35  1  0  0  0
 34 36  1  0  0  0
 34 37  1  0  0  0
  5  6  1  0  0  0
  6  7  2  0  0  0
  7  8  1  0  0  0
  8  9  2  0  0  0
 14 16  1  0  0  0
 16 17  2  0  0  0
 25 19  1  0  0  0
 16 10  1  0  0  0
  9  1  1  0  0  0
  8  4  1  0  0  0
 33 27  1  0  0  0
M  END
> <minimizedAffinity>
1.71181

> <CNNscore>
0.3336106837

> <CNNaffinity>
6.7274017334

> <CNN_VS>
2.2443330288

> <CNNaffinity_variance>
0.1594064683

$$$$
[H]/C(=C1/SC(=O)N([C@@]2([H])C([H])([H])C([H])([H])N(C([H])([H])[H])C([H])([H])[C@@]2([H])F)C1=O)c1c([H])c([H])c2c(c([H])nn2C([H])([H])c2c([H])c([H])c(Cl)c([H])c2C(F)(F)F)c1[H]


 37 41  0  0  0  0  0  0  0  0999 V2000
  -10.3302   -7.6130    8.5194 C   0  0  0  0  0  0  0  0  0  0  0  0
  -11.2869   -6.6947    8.8847 C   0  0  0  0  0  0  0  0  0  0  0  0
  -12.5999   -6.8495    8.5312 C   0  0  0  0  0  0  0  0  0  0  0  0
  -13.0413   -7.9146    7.7986 C   0  0  0  0  0  0  0  0  0  0  0  0
  -14.2437   -8.2532    7.3765 N   0  0  0  0  0  0  0  0  0  0  0  0
  -14.0741   -9.4439    6.7047 N   0  0  0  0  0  0  0  0  0  0  0  0
  -12.7903   -9.8033    6.7291 C   0  0  0  0  0  0  0  0  0  0  0  0
  -12.0781   -8.8556    7.4190 C   0  0  0  0  0  0  0  0  0  0  0  0
  -10.7680   -8.6858    7.7811 C   0  0  0  0  0  0  0  0  0  0  0  0
   -5.9632   -6.6410    6.8808 N   0  0  0  0  0  0  0  0  0  0  0  0
   -6.8175   -6.4737    5.7655 C   0  0  0  0  0  0  0  0  0  0  0  0
   -6.5832   -5.9433    4.6492 O   0  0  0  0  0  0  0  0  0  0  0  0
   -8.3896   -7.1829    6.2210 S   0  0  0  0  0  0  0  0  0  0  0  0
   -8.0314   -7.2065    8.0033 C   0  0  0  0  0  0  0  0  0  0  0  0
   -8.9505   -7.4040    8.9558 C   0  0  0  0  0  0  0  0  0  0  0  0
   -6.6025   -7.0284    8.0755 C   0  0  0  0  0  0  0  0  0  0  0  0
   -6.0106   -7.2314    9.2172 O   0  0  0  0  0  0  0  0  0  0  0  0
   -1.5119   -6.1376    6.4422 C   0  0  0  0  0  0  0  0  0  0  0  0
   -1.8974   -6.8436    7.6289 N   0  0  0  0  0  0  0  0  0  0  0  0
   -2.7353   -6.0405    8.4939 C   0  0  0  0  0  0  0  0  0  0  0  0
   -4.0181   -5.5864    7.8580 C   0  0  0  0  0  0  0  0  0  0  0  0
   -4.5237   -6.4297    6.7727 C   0  0  0  0  0  0  0  0  0  0  0  0
   -3.8977   -7.7793    6.5735 C   0  0  0  0  0  0  0  0  0  0  0  0
   -4.7761   -8.8163    6.8198 F   0  0  0  0  0  0  0  0  0  0  0  0
   -2.6465   -8.0333    7.3364 C   0  0  0  0  0  0  0  0  0  0  0  0
  -15.5833   -7.7167    7.4047 C   0  0  0  0  0  0  0  0  0  0  0  0
  -16.2203   -7.4888    6.1224 C   0  0  0  0  0  0  0  0  0  0  0  0
  -17.3319   -8.3246    5.8434 C   0  0  0  0  0  0  0  0  0  0  0  0
  -17.9852   -8.3016    4.6422 C   0  0  0  0  0  0  0  0  0  0  0  0
  -17.5758   -7.4496    3.6488 C   0  0  0  0  0  0  0  0  0  0  0  0
  -18.3923   -7.4098    2.1163 Cl  0  0  0  0  0  0  0  0  0  0  0  0
  -16.5145   -6.6447    3.9073 C   0  0  0  0  0  0  0  0  0  0  0  0
  -15.8318   -6.6585    5.1476 C   0  0  0  0  0  0  0  0  0  0  0  0
  -14.7591   -5.6732    5.3063 C   0  0  0  0  0  0  0  0  0  0  0  0
  -13.4955   -6.3157    5.1211 F   0  0  0  0  0  0  0  0  0  0  0  0
  -14.7710   -4.6956    4.3359 F   0  0  0  0  0  0  0  0  0  0  0  0
  -14.6094   -5.1767    6.5806 F   0  0  0  0  0  0  0  0  0  0  0  0
 18 19  1  0  0  0
 19 20  1  0  0  0
 20 21  1  0  0  0
 21 22  1  0  0  0
 22 23  1  0  0  0
 23 24  1  0  0  0
 23 25  1  0  0  0
 22 10  1  0  0  0
 10 11  1  0  0  0
 11 12  2  0  0  0
 11 13  1  0  0  0
 13 14  1  0  0  0
 14 15  2  0  0  0
 15  1  1  0  0  0
  1  2  2  0  0  0
  2  3  1  0  0  0
  3  4  2  0  0  0
  4  5  1  0  0  0
  5 26  1  0  0  0
 26 27  1  0  0  0
 27 28  2  0  0  0
 28 29  1  0  0  0
 29 30  2  0  0  0
 30 31  1  0  0  0
 30 32  1  0  0  0
 32 33  2  0  0  0
 33 34  1  0  0  0
 34 35  1  0  0  0
 34 36  1  0  0  0
 34 37  1  0  0  0
  5  6  1  0  0  0
  6  7  2  0  0  0
  7  8  1  0  0  0
  8  9  2  0  0  0
 14 16  1  0  0  0
 16 17  2  0  0  0
 25 19  1  0  0  0
 16 10  1  0  0  0
  9  1  1  0  0  0
  8  4  1  0  0  0
 33 27  1  0  0  0
M  END
> <minimizedAffinity>
-7.50603

> <CNNscore>
0.3233424723

> <CNNaffinity>
7.2227783203

> <CNN_VS>
2.3354310989

> <CNNaffinity_variance>
0.1868241280

$$$$
[H]/C(=C1/SC(=O)N([C@@]2([H])C([H])([H])C([H])([H])N(C([H])([H])[H])C([H])([H])[C@@]2([H])F)C1=O)c1c([H])c([H])c2c(c([H])nn2C([H])([H])c2c([H])c([H])c(Cl)c([H])c2C(F)(F)F)c1[H]


 37 41  0  0  0  0  0  0  0  0999 V2000
   -7.4906   -7.5984    7.4406 C   0  0  0  0  0  0  0  0  0  0  0  0
   -8.5796   -6.9924    8.0228 C   0  0  0  0  0  0  0  0  0  0  0  0
   -9.8004   -7.6090    8.0727 C   0  0  0  0  0  0  0  0  0  0  0  0
  -10.0152   -8.8533    7.5516 C   0  0  0  0  0  0  0  0  0  0  0  0
  -11.0898   -9.6163    7.5129 N   0  0  0  0  0  0  0  0  0  0  0  0
  -10.6943  -10.7737    6.8789 N   0  0  0  0  0  0  0  0  0  0  0  0
   -9.4052  -10.6955    6.5477 C   0  0  0  0  0  0  0  0  0  0  0  0
   -8.9161   -9.4805    6.9551 C   0  0  0  0  0  0  0  0  0  0  0  0
   -7.7010   -8.8496    6.9135 C   0  0  0  0  0  0  0  0  0  0  0  0
   -4.4024   -5.4159   10.3389 N   0  0  0  0  0  0  0  0  0  0  0  0
   -5.3484   -6.0194   11.2007 C   0  0  0  0  0  0  0  0  0  0  0  0
   -5.2992   -6.1981   12.4449 O   0  0  0  0  0  0  0  0  0  0  0  0
   -6.7187   -6.5224   10.1756 S   0  0  0  0  0  0  0  0  0  0  0  0
   -5.7934   -6.3925    8.6159 C   0  0  0  0  0  0  0  0  0  0  0  0
   -6.2073   -6.8978    7.4479 C   0  0  0  0  0  0  0  0  0  0  0  0
   -4.6315   -5.6124    8.9623 C   0  0  0  0  0  0  0  0  0  0  0  0
   -3.8856   -5.1525    7.9994 O   0  0  0  0  0  0  0  0  0  0  0  0
   -1.0646   -2.8971   12.0046 C   0  0  0  0  0  0  0  0  0  0  0  0
   -1.2479   -2.7482   10.5906 N   0  0  0  0  0  0  0  0  0  0  0  0
   -1.0621   -3.9964    9.8815 C   0  0  0  0  0  0  0  0  0  0  0  0
   -2.0064   -5.0871   10.2997 C   0  0  0  0  0  0  0  0  0  0  0  0
   -3.2826   -4.6422   10.8640 C   0  0  0  0  0  0  0  0  0  0  0  0
   -3.6507   -3.1934   10.7283 C   0  0  0  0  0  0  0  0  0  0  0  0
   -4.7597   -2.9975    9.9288 F   0  0  0  0  0  0  0  0  0  0  0  0
   -2.5673   -2.2898   10.2571 C   0  0  0  0  0  0  0  0  0  0  0  0
  -12.4775   -9.5391    7.9021 C   0  0  0  0  0  0  0  0  0  0  0  0
  -13.2556   -8.4591    7.3272 C   0  0  0  0  0  0  0  0  0  0  0  0
  -13.6615   -8.6569    5.9825 C   0  0  0  0  0  0  0  0  0  0  0  0
  -14.3204   -7.6969    5.2653 C   0  0  0  0  0  0  0  0  0  0  0  0
  -14.6156   -6.4866    5.8384 C   0  0  0  0  0  0  0  0  0  0  0  0
  -15.4491   -5.2551    4.9407 Cl  0  0  0  0  0  0  0  0  0  0  0  0
  -14.2331   -6.2891    7.1251 C   0  0  0  0  0  0  0  0  0  0  0  0
  -13.5522   -7.2762    7.8778 C   0  0  0  0  0  0  0  0  0  0  0  0
  -13.2799   -6.9472    9.2793 C   0  0  0  0  0  0  0  0  0  0  0  0
  -13.8291   -5.6618    9.5788 F   0  0  0  0  0  0  0  0  0  0  0  0
  -13.9154   -7.7862   10.1680 F   0  0  0  0  0  0  0  0  0  0  0  0
  -11.9542   -6.7354    9.5799 F   0  0  0  0  0  0  0  0  0  0  0  0
 18 19  1  0  0  0
 19 20  1  0  0  0
 20 21  1  0  0  0
 21 22  1  0  0  0
 22 23  1  0  0  0
 23 24  1  0  0  0
 23 25  1  0  0  0
 22 10  1  0  0  0
 10 11  1  0  0  0
 11 12  2  0  0  0
 11 13  1  0  0  0
 13 14  1  0  0  0
 14 15  2  0  0  0
 15  1  1  0  0  0
  1  2  2  0  0  0
  2  3  1  0  0  0
  3  4  2  0  0  0
  4  5  1  0  0  0
  5 26  1  0  0  0
 26 27  1  0  0  0
 27 28  2  0  0  0
 28 29  1  0  0  0
 29 30  2  0  0  0
 30 31  1  0  0  0
 30 32  1  0  0  0
 32 33  2  0  0  0
 33 34  1  0  0  0
 34 35  1  0  0  0
 34 36  1  0  0  0
 34 37  1  0  0  0
  5  6  1  0  0  0
  6  7  2  0  0  0
  7  8  1  0  0  0
  8  9  2  0  0  0
 14 16  1  0  0  0
 16 17  2  0  0  0
 25 19  1  0  0  0
 16 10  1  0  0  0
  9  1  1  0  0  0
  8  4  1  0  0  0
 33 27  1  0  0  0
M  END
> <minimizedAffinity>
-5.67794

> <CNNscore>
0.3198842406

> <CNNaffinity>
6.9819173813

> <CNN_VS>
2.2334053516

> <CNNaffinity_variance>
0.1187886447

$$$$
[H]/C(=C1/SC(=O)N([C@@]2([H])C([H])([H])C([H])([H])N(C([H])([H])[H])C([H])([H])[C@@]2([H])F)C1=O)c1c([H])c([H])c2c(c([H])nn2C([H])([H])c2c([H])c([H])c(Cl)c([H])c2C(F)(F)F)c1[H]


 37 41  0  0  0  0  0  0  0  0999 V2000
  -11.3929   -8.2350    7.4824 C   0  0  0  0  0  0  0  0  0  0  0  0
  -11.7182   -8.6596    8.7497 C   0  0  0  0  0  0  0  0  0  0  0  0
  -11.0528   -8.1969    9.8526 C   0  0  0  0  0  0  0  0  0  0  0  0
  -10.0318   -7.2935    9.7675 C   0  0  0  0  0  0  0  0  0  0  0  0
   -9.2876   -6.7188   10.6918 N   0  0  0  0  0  0  0  0  0  0  0  0
   -8.4357   -5.8803   10.0068 N   0  0  0  0  0  0  0  0  0  0  0  0
   -8.6729   -5.9588    8.6971 C   0  0  0  0  0  0  0  0  0  0  0  0
   -9.6897   -6.8543    8.4840 C   0  0  0  0  0  0  0  0  0  0  0  0
  -10.3657   -7.3273    7.3905 C   0  0  0  0  0  0  0  0  0  0  0  0
  -15.3860   -7.4842    4.9940 N   0  0  0  0  0  0  0  0  0  0  0  0
  -15.2788   -6.3690    5.8580 C   0  0  0  0  0  0  0  0  0  0  0  0
  -15.9070   -5.2793    5.8413 O   0  0  0  0  0  0  0  0  0  0  0  0
  -14.0260   -6.7782    7.0600 S   0  0  0  0  0  0  0  0  0  0  0  0
  -13.3381   -8.1567    6.0945 C   0  0  0  0  0  0  0  0  0  0  0  0
  -12.1635   -8.7451    6.3494 C   0  0  0  0  0  0  0  0  0  0  0  0
  -14.3554   -8.4382    5.1125 C   0  0  0  0  0  0  0  0  0  0  0  0
  -14.2550   -9.5321    4.4137 O   0  0  0  0  0  0  0  0  0  0  0  0
  -18.7223   -7.8108    1.9903 C   0  0  0  0  0  0  0  0  0  0  0  0
  -18.8331   -6.6707    2.8523 N   0  0  0  0  0  0  0  0  0  0  0  0
  -18.9401   -7.0481    4.2457 C   0  0  0  0  0  0  0  0  0  0  0  0
  -17.7681   -7.8334    4.7613 C   0  0  0  0  0  0  0  0  0  0  0  0
  -16.4999   -7.6175    4.0613 C   0  0  0  0  0  0  0  0  0  0  0  0
  -16.4069   -6.4667    3.1022 C   0  0  0  0  0  0  0  0  0  0  0  0
  -15.5141   -5.4978    3.5167 F   0  0  0  0  0  0  0  0  0  0  0  0
  -17.6927   -5.8031    2.7580 C   0  0  0  0  0  0  0  0  0  0  0  0
   -9.1252   -6.7683   12.1251 C   0  0  0  0  0  0  0  0  0  0  0  0
   -9.6506   -5.6466   12.8787 C   0  0  0  0  0  0  0  0  0  0  0  0
   -8.7545   -5.0795   13.8208 C   0  0  0  0  0  0  0  0  0  0  0  0
   -9.1239   -4.0777   14.6753 C   0  0  0  0  0  0  0  0  0  0  0  0
  -10.4012   -3.5797   14.6456 C   0  0  0  0  0  0  0  0  0  0  0  0
  -10.8879   -2.3096   15.7258 Cl  0  0  0  0  0  0  0  0  0  0  0  0
  -11.2649   -4.1146   13.7462 C   0  0  0  0  0  0  0  0  0  0  0  0
  -10.8931   -5.1505   12.8556 C   0  0  0  0  0  0  0  0  0  0  0  0
  -11.9103   -5.5663   11.8865 C   0  0  0  0  0  0  0  0  0  0  0  0
  -13.1654   -4.9784   12.2366 F   0  0  0  0  0  0  0  0  0  0  0  0
  -11.6745   -5.0935   10.6143 F   0  0  0  0  0  0  0  0  0  0  0  0
  -12.2349   -6.9027   11.9215 F   0  0  0  0  0  0  0  0  0  0  0  0
 18 19  1  0  0  0
 19 20  1  0  0  0
 20 21  1  0  0  0
 21 22  1  0  0  0
 22 23  1  0  0  0
 23 24  1  0  0  0
 23 25  1  0  0  0
 22 10  1  0  0  0
 10 11  1  0  0  0
 11 12  2  0  0  0
 11 13  1  0  0  0
 13 14  1  0  0  0
 14 15  2  0  0  0
 15  1  1  0  0  0
  1  2  2  0  0  0
  2  3  1  0  0  0
  3  4  2  0  0  0
  4  5  1  0  0  0
  5 26  1  0  0  0
 26 27  1  0  0  0
 27 28  2  0  0  0
 28 29  1  0  0  0
 29 30  2  0  0  0
 30 31  1  0  0  0
 30 32  1  0  0  0
 32 33  2  0  0  0
 33 34  1  0  0  0
 34 35  1  0  0  0
 34 36  1  0  0  0
 34 37  1  0  0  0
  5  6  1  0  0  0
  6  7  2  0  0  0
  7  8  1  0  0  0
  8  9  2  0  0  0
 14 16  1  0  0  0
 16 17  2  0  0  0
 25 19  1  0  0  0
 16 10  1  0  0  0
  9  1  1  0  0  0
  8  4  1  0  0  0
 33 27  1  0  0  0
M  END
> <minimizedAffinity>
25.21281

> <CNNscore>
0.3064241707

> <CNNaffinity>
6.6953253746

> <CNN_VS>
2.0516095161

> <CNNaffinity_variance>
0.7643442154

$$$$
[H]/C(=C1/SC(=O)N([C@@]2([H])C([H])([H])C([H])([H])N(C([H])([H])[H])C([H])([H])[C@@]2([H])F)C1=O)c1c([H])c([H])c2c(c([H])nn2C([H])([H])c2c([H])c([H])c(Cl)c([H])c2C(F)(F)F)c1[H]


 37 41  0  0  0  0  0  0  0  0999 V2000
   -8.6462   -7.0156    6.2682 C   0  0  0  0  0  0  0  0  0  0  0  0
   -9.3298   -8.2008    6.1265 C   0  0  0  0  0  0  0  0  0  0  0  0
  -10.2896   -8.5855    7.0231 C   0  0  0  0  0  0  0  0  0  0  0  0
  -10.6269   -7.8258    8.1071 C   0  0  0  0  0  0  0  0  0  0  0  0
  -11.5187   -8.0038    9.0618 N   0  0  0  0  0  0  0  0  0  0  0  0
  -11.4199   -6.8905    9.8673 N   0  0  0  0  0  0  0  0  0  0  0  0
  -10.4833   -6.0671    9.3956 C   0  0  0  0  0  0  0  0  0  0  0  0
   -9.9381   -6.6182    8.2640 C   0  0  0  0  0  0  0  0  0  0  0  0
   -8.9803   -6.2479    7.3575 C   0  0  0  0  0  0  0  0  0  0  0  0
   -4.6792   -4.4545    5.6329 N   0  0  0  0  0  0  0  0  0  0  0  0
   -4.9124   -4.4269    7.0281 C   0  0  0  0  0  0  0  0  0  0  0  0
   -4.1528   -4.0571    7.9601 O   0  0  0  0  0  0  0  0  0  0  0  0
   -6.5685   -5.0411    7.2770 S   0  0  0  0  0  0  0  0  0  0  0  0
   -6.7024   -5.7826    5.6223 C   0  0  0  0  0  0  0  0  0  0  0  0
   -7.6546   -6.6494    5.2581 C   0  0  0  0  0  0  0  0  0  0  0  0
   -5.6262   -5.1762    4.8789 C   0  0  0  0  0  0  0  0  0  0  0  0
   -5.6009   -5.3342    3.5868 O   0  0  0  0  0  0  0  0  0  0  0  0
   -1.0685   -2.4984    3.7900 C   0  0  0  0  0  0  0  0  0  0  0  0
   -1.0599   -2.4887    5.2236 N   0  0  0  0  0  0  0  0  0  0  0  0
   -2.1933   -1.7744    5.7715 C   0  0  0  0  0  0  0  0  0  0  0  0
   -3.5267   -2.3433    5.3783 C   0  0  0  0  0  0  0  0  0  0  0  0
   -3.5360   -3.7683    5.0407 C   0  0  0  0  0  0  0  0  0  0  0  0
   -2.3189   -4.5826    5.3702 C   0  0  0  0  0  0  0  0  0  0  0  0
   -2.5651   -5.5458    6.3289 F   0  0  0  0  0  0  0  0  0  0  0  0
   -1.1136   -3.8124    5.7779 C   0  0  0  0  0  0  0  0  0  0  0  0
  -12.4726   -9.0079    9.4679 C   0  0  0  0  0  0  0  0  0  0  0  0
  -13.8403   -8.8240    9.0232 C   0  0  0  0  0  0  0  0  0  0  0  0
  -14.7419   -8.3654   10.0176 C   0  0  0  0  0  0  0  0  0  0  0  0
  -16.0830   -8.2297    9.7870 C   0  0  0  0  0  0  0  0  0  0  0  0
  -16.6081   -8.5396    8.5588 C   0  0  0  0  0  0  0  0  0  0  0  0
  -18.3095   -8.3759    8.2499 Cl  0  0  0  0  0  0  0  0  0  0  0  0
  -15.7529   -8.9771    7.6005 C   0  0  0  0  0  0  0  0  0  0  0  0
  -14.3627   -9.1197    7.8273 C   0  0  0  0  0  0  0  0  0  0  0  0
  -13.5569   -9.5221    6.6717 C   0  0  0  0  0  0  0  0  0  0  0  0
  -14.0586  -10.7556    6.1517 F   0  0  0  0  0  0  0  0  0  0  0  0
  -13.6623   -8.6546    5.6069 F   0  0  0  0  0  0  0  0  0  0  0  0
  -12.2595   -9.8757    6.9623 F   0  0  0  0  0  0  0  0  0  0  0  0
 18 19  1  0  0  0
 19 20  1  0  0  0
 20 21  1  0  0  0
 21 22  1  0  0  0
 22 23  1  0  0  0
 23 24  1  0  0  0
 23 25  1  0  0  0
 22 10  1  0  0  0
 10 11  1  0  0  0
 11 12  2  0  0  0
 11 13  1  0  0  0
 13 14  1  0  0  0
 14 15  2  0  0  0
 15  1  1  0  0  0
  1  2  2  0  0  0
  2  3  1  0  0  0
  3  4  2  0  0  0
  4  5  1  0  0  0
  5 26  1  0  0  0
 26 27  1  0  0  0
 27 28  2  0  0  0
 28 29  1  0  0  0
 29 30  2  0  0  0
 30 31  1  0  0  0
 30 32  1  0  0  0
 32 33  2  0  0  0
 33 34  1  0  0  0
 34 35  1  0  0  0
 34 36  1  0  0  0
 34 37  1  0  0  0
  5  6  1  0  0  0
  6  7  2  0  0  0
  7  8  1  0  0  0
  8  9  2  0  0  0
 14 16  1  0  0  0
 16 17  2  0  0  0
 25 19  1  0  0  0
 16 10  1  0  0  0
  9  1  1  0  0  0
  8  4  1  0  0  0
 33 27  1  0  0  0
M  END
> <minimizedAffinity>
10.56942

> <CNNscore>
0.3024590313

> <CNNaffinity>
6.3056488037

> <CNN_VS>
1.9072004557

> <CNNaffinity_variance>
1.0667265654

$$$$
[H]OC(=O)C([H])([H])N1C(=O)S/C(=C(/[H])c2c([H])c([H])c3c(c([H])nn3C([H])([H])c3c([H])c([H])c(Cl)c([H])c3C(F)(F)F)c2[H])C1=O


 34 37  0  0  0  0  0  0  0  0999 V2000
  -11.6000   -5.7755   11.3995 C   0  0  0  0  0  0  0  0  0  0  0  0
  -11.2394   -5.2872   10.1588 C   0  0  0  0  0  0  0  0  0  0  0  0
  -11.8766   -5.6723    9.0027 C   0  0  0  0  0  0  0  0  0  0  0  0
  -12.9170   -6.5780    9.0563 C   0  0  0  0  0  0  0  0  0  0  0  0
  -13.7188   -7.1183    8.0683 N   0  0  0  0  0  0  0  0  0  0  0  0
  -14.5340   -7.9029    8.7192 N   0  0  0  0  0  0  0  0  0  0  0  0
  -14.3470   -7.9333   10.0249 C   0  0  0  0  0  0  0  0  0  0  0  0
  -13.2978   -7.0778   10.2693 C   0  0  0  0  0  0  0  0  0  0  0  0
  -12.6379   -6.6727   11.4175 C   0  0  0  0  0  0  0  0  0  0  0  0
   -7.4348   -5.6329   13.7824 N   0  0  0  0  0  0  0  0  0  0  0  0
   -7.0571   -6.3200   12.6146 C   0  0  0  0  0  0  0  0  0  0  0  0
   -5.9857   -6.9253   12.3439 O   0  0  0  0  0  0  0  0  0  0  0  0
   -8.4417   -6.1855   11.4965 S   0  0  0  0  0  0  0  0  0  0  0  0
   -9.6004   -5.5554   12.7098 C   0  0  0  0  0  0  0  0  0  0  0  0
  -10.9223   -5.4099   12.6042 C   0  0  0  0  0  0  0  0  0  0  0  0
   -8.7713   -5.2177   13.8606 C   0  0  0  0  0  0  0  0  0  0  0  0
   -9.2755   -4.5757   14.8681 O   0  0  0  0  0  0  0  0  0  0  0  0
   -6.4290   -5.3814   14.8538 C   0  0  0  0  0  0  0  0  0  0  0  0
   -5.4068   -4.1405   12.9513 O   0  0  0  0  0  0  0  0  0  0  0  0
   -5.2212   -4.8047   14.1723 C   0  0  0  0  0  0  0  0  0  0  0  0
   -4.0825   -4.9026   14.6608 O   0  0  0  0  0  0  0  0  0  0  0  0
   -6.0942   -4.4601   12.2600 H   0  0  0  0  0  0  0  0  0  0  0  0
  -13.6051   -6.8334    6.6635 C   0  0  0  0  0  0  0  0  0  0  0  0
  -14.7635   -6.9790    5.8137 C   0  0  0  0  0  0  0  0  0  0  0  0
  -15.4541   -8.1976    5.9107 C   0  0  0  0  0  0  0  0  0  0  0  0
  -16.5874   -8.4995    5.1973 C   0  0  0  0  0  0  0  0  0  0  0  0
  -17.0921   -7.5704    4.3329 C   0  0  0  0  0  0  0  0  0  0  0  0
  -18.5359   -7.8776    3.3861 Cl  0  0  0  0  0  0  0  0  0  0  0  0
  -16.4486   -6.3885    4.2167 C   0  0  0  0  0  0  0  0  0  0  0  0
  -15.2801   -6.0600    4.9428 C   0  0  0  0  0  0  0  0  0  0  0  0
  -14.6418   -4.7633    4.7360 C   0  0  0  0  0  0  0  0  0  0  0  0
  -13.4526   -4.8500    4.0069 F   0  0  0  0  0  0  0  0  0  0  0  0
  -15.4817   -4.1292    3.7284 F   0  0  0  0  0  0  0  0  0  0  0  0
  -14.6671   -3.8557    5.7259 F   0  0  0  0  0  0  0  0  0  0  0  0
 19 20  1  0  0  0
 20 21  2  0  0  0
 20 18  1  0  0  0
 18 10  1  0  0  0
 10 11  1  0  0  0
 11 12  2  0  0  0
 11 13  1  0  0  0
 13 14  1  0  0  0
 14 15  2  0  0  0
 15  1  1  0  0  0
  1  2  2  0  0  0
  2  3  1  0  0  0
  3  4  2  0  0  0
  4  5  1  0  0  0
  5 23  1  0  0  0
 23 24  1  0  0  0
 24 25  2  0  0  0
 25 26  1  0  0  0
 26 27  2  0  0  0
 27 28  1  0  0  0
 27 29  1  0  0  0
 29 30  2  0  0  0
 30 31  1  0  0  0
 31 32  1  0  0  0
 31 33  1  0  0  0
 31 34  1  0  0  0
  5  6  1  0  0  0
  6  7  2  0  0  0
  7  8  1  0  0  0
  8  9  2  0  0  0
 14 16  1  0  0  0
 16 17  2  0  0  0
 16 10  1  0  0  0
  9  1  1  0  0  0
  8  4  1  0  0  0
 30 24  1  0  0  0
 19 22  1  0  0  0
M  END
> <minimizedAffinity>
5.07623

> <CNNscore>
0.5409139991

> <CNNaffinity>
6.5954604149

> <CNN_VS>
3.5675768852

> <CNNaffinity_variance>
0.6427152753

$$$$
[H]OC(=O)C([H])([H])N1C(=O)S/C(=C(/[H])c2c([H])c([H])c3c(c([H])nn3C([H])([H])c3c([H])c([H])c(Cl)c([H])c3C(F)(F)F)c2[H])C1=O


 34 37  0  0  0  0  0  0  0  0999 V2000
   -7.8147   -6.9503    7.1861 C   0  0  0  0  0  0  0  0  0  0  0  0
   -8.9823   -6.4636    7.7406 C   0  0  0  0  0  0  0  0  0  0  0  0
  -10.0949   -7.2510    7.9222 C   0  0  0  0  0  0  0  0  0  0  0  0
  -10.0703   -8.5788    7.5455 C   0  0  0  0  0  0  0  0  0  0  0  0
  -11.0257   -9.5750    7.6217 N   0  0  0  0  0  0  0  0  0  0  0  0
  -10.4267  -10.6234    7.1258 N   0  0  0  0  0  0  0  0  0  0  0  0
   -9.1846  -10.4157    6.7324 C   0  0  0  0  0  0  0  0  0  0  0  0
   -8.9291   -9.0899    6.9954 C   0  0  0  0  0  0  0  0  0  0  0  0
   -7.8236   -8.2736    6.8236 C   0  0  0  0  0  0  0  0  0  0  0  0
   -3.0899   -6.8070    6.3471 N   0  0  0  0  0  0  0  0  0  0  0  0
   -3.2919   -8.1867    6.5324 C   0  0  0  0  0  0  0  0  0  0  0  0
   -2.4512   -9.1165    6.6604 O   0  0  0  0  0  0  0  0  0  0  0  0
   -5.0605   -8.4246    6.5586 S   0  0  0  0  0  0  0  0  0  0  0  0
   -5.4802   -6.6873    6.6907 C   0  0  0  0  0  0  0  0  0  0  0  0
   -6.6635   -6.1330    6.9595 C   0  0  0  0  0  0  0  0  0  0  0  0
   -4.2269   -5.9912    6.4257 C   0  0  0  0  0  0  0  0  0  0  0  0
   -4.2090   -4.7029    6.2789 O   0  0  0  0  0  0  0  0  0  0  0  0
   -1.7182   -6.2868    6.0814 C   0  0  0  0  0  0  0  0  0  0  0  0
   -2.0788   -5.0310    3.9607 O   0  0  0  0  0  0  0  0  0  0  0  0
   -1.5871   -6.1843    4.5887 C   0  0  0  0  0  0  0  0  0  0  0  0
   -1.0609   -7.0849    3.9127 O   0  0  0  0  0  0  0  0  0  0  0  0
   -2.9326   -4.5616    4.2820 H   0  0  0  0  0  0  0  0  0  0  0  0
  -12.3577   -9.4054    8.1361 C   0  0  0  0  0  0  0  0  0  0  0  0
  -13.2294   -8.4215    7.5383 C   0  0  0  0  0  0  0  0  0  0  0  0
  -13.5210   -8.5976    6.1763 C   0  0  0  0  0  0  0  0  0  0  0  0
  -14.3481   -7.7746    5.4530 C   0  0  0  0  0  0  0  0  0  0  0  0
  -14.9347   -6.7114    6.0781 C   0  0  0  0  0  0  0  0  0  0  0  0
  -16.0046   -5.6140    5.2258 Cl  0  0  0  0  0  0  0  0  0  0  0  0
  -14.6721   -6.5150    7.3884 C   0  0  0  0  0  0  0  0  0  0  0  0
  -13.8228   -7.3516    8.1493 C   0  0  0  0  0  0  0  0  0  0  0  0
  -13.5825   -7.0483    9.5572 C   0  0  0  0  0  0  0  0  0  0  0  0
  -12.2315   -7.1187    9.9082 F   0  0  0  0  0  0  0  0  0  0  0  0
  -13.7620   -5.6042    9.6280 F   0  0  0  0  0  0  0  0  0  0  0  0
  -14.4592   -7.4799   10.4788 F   0  0  0  0  0  0  0  0  0  0  0  0
 19 20  1  0  0  0
 20 21  2  0  0  0
 20 18  1  0  0  0
 18 10  1  0  0  0
 10 11  1  0  0  0
 11 12  2  0  0  0
 11 13  1  0  0  0
 13 14  1  0  0  0
 14 15  2  0  0  0
 15  1  1  0  0  0
  1  2  2  0  0  0
  2  3  1  0  0  0
  3  4  2  0  0  0
  4  5  1  0  0  0
  5 23  1  0  0  0
 23 24  1  0  0  0
 24 25  2  0  0  0
 25 26  1  0  0  0
 26 27  2  0  0  0
 27 28  1  0  0  0
 27 29  1  0  0  0
 29 30  2  0  0  0
 30 31  1  0  0  0
 31 32  1  0  0  0
 31 33  1  0  0  0
 31 34  1  0  0  0
  5  6  1  0  0  0
  6  7  2  0  0  0
  7  8  1  0  0  0
  8  9  2  0  0  0
 14 16  1  0  0  0
 16 17  2  0  0  0
 16 10  1  0  0  0
  9  1  1  0  0  0
  8  4  1  0  0  0
 30 24  1  0  0  0
 19 22  1  0  0  0
M  END
> <minimizedAffinity>
-8.52891

> <CNNscore>
0.5378224850

> <CNNaffinity>
6.9631719589

> <CNN_VS>
3.7449505329

> <CNNaffinity_variance>
0.1675785035

$$$$
[H]OC(=O)C([H])([H])N1C(=O)S/C(=C(/[H])c2c([H])c([H])c3c(c([H])nn3C([H])([H])c3c([H])c([H])c(Cl)c([H])c3C(F)(F)F)c2[H])C1=O


 34 37  0  0  0  0  0  0  0  0999 V2000
  -13.3286   -8.1449    9.3830 C   0  0  0  0  0  0  0  0  0  0  0  0
  -14.4584   -7.5081    8.9078 C   0  0  0  0  0  0  0  0  0  0  0  0
  -14.9150   -7.6811    7.6223 C   0  0  0  0  0  0  0  0  0  0  0  0
  -14.2385   -8.5158    6.7556 C   0  0  0  0  0  0  0  0  0  0  0  0
  -14.4795   -8.8680    5.4408 N   0  0  0  0  0  0  0  0  0  0  0  0
  -13.5127   -9.6973    5.1553 N   0  0  0  0  0  0  0  0  0  0  0  0
  -12.6664   -9.9203    6.1426 C   0  0  0  0  0  0  0  0  0  0  0  0
  -13.1181   -9.1609    7.1969 C   0  0  0  0  0  0  0  0  0  0  0  0
  -12.6806   -8.9676    8.4966 C   0  0  0  0  0  0  0  0  0  0  0  0
  -11.7688   -4.9997   12.6576 N   0  0  0  0  0  0  0  0  0  0  0  0
  -11.9592   -4.1616   11.5440 C   0  0  0  0  0  0  0  0  0  0  0  0
  -11.6188   -2.9613   11.3685 O   0  0  0  0  0  0  0  0  0  0  0  0
  -12.8243   -5.1452   10.3318 S   0  0  0  0  0  0  0  0  0  0  0  0
  -12.5921   -6.7146   11.1653 C   0  0  0  0  0  0  0  0  0  0  0  0
  -12.8240   -7.9455   10.7059 C   0  0  0  0  0  0  0  0  0  0  0  0
  -12.0940   -6.3524   12.4867 C   0  0  0  0  0  0  0  0  0  0  0  0
  -11.9751   -7.2515   13.4135 O   0  0  0  0  0  0  0  0  0  0  0  0
  -11.2470   -4.4317   13.9335 C   0  0  0  0  0  0  0  0  0  0  0  0
   -9.4874   -6.1834   13.7341 O   0  0  0  0  0  0  0  0  0  0  0  0
   -9.8071   -4.8492   14.0241 C   0  0  0  0  0  0  0  0  0  0  0  0
   -8.9108   -4.0499   14.3445 O   0  0  0  0  0  0  0  0  0  0  0  0
  -10.1060   -6.9582   13.9980 H   0  0  0  0  0  0  0  0  0  0  0  0
  -15.5676   -8.3767    4.6394 C   0  0  0  0  0  0  0  0  0  0  0  0
  -15.6730   -6.9605    4.3773 C   0  0  0  0  0  0  0  0  0  0  0  0
  -14.4704   -6.2361    4.3933 C   0  0  0  0  0  0  0  0  0  0  0  0
  -14.3791   -4.8894    4.1427 C   0  0  0  0  0  0  0  0  0  0  0  0
  -15.5175   -4.1909    3.8577 C   0  0  0  0  0  0  0  0  0  0  0  0
  -15.4861   -2.4694    3.5247 Cl  0  0  0  0  0  0  0  0  0  0  0  0
  -16.6905   -4.8604    3.8362 C   0  0  0  0  0  0  0  0  0  0  0  0
  -16.8040   -6.2468    4.0922 C   0  0  0  0  0  0  0  0  0  0  0  0
  -18.1189   -6.8808    4.0661 C   0  0  0  0  0  0  0  0  0  0  0  0
  -19.1669   -5.9612    3.9691 F   0  0  0  0  0  0  0  0  0  0  0  0
  -18.1925   -7.4530    2.7282 F   0  0  0  0  0  0  0  0  0  0  0  0
  -18.3423   -7.9571    4.8381 F   0  0  0  0  0  0  0  0  0  0  0  0
 19 20  1  0  0  0
 20 21  2  0  0  0
 20 18  1  0  0  0
 18 10  1  0  0  0
 10 11  1  0  0  0
 11 12  2  0  0  0
 11 13  1  0  0  0
 13 14  1  0  0  0
 14 15  2  0  0  0
 15  1  1  0  0  0
  1  2  2  0  0  0
  2  3  1  0  0  0
  3  4  2  0  0  0
  4  5  1  0  0  0
  5 23  1  0  0  0
 23 24  1  0  0  0
 24 25  2  0  0  0
 25 26  1  0  0  0
 26 27  2  0  0  0
 27 28  1  0  0  0
 27 29  1  0  0  0
 29 30  2  0  0  0
 30 31  1  0  0  0
 31 32  1  0  0  0
 31 33  1  0  0  0
 31 34  1  0  0  0
  5  6  1  0  0  0
  6  7  2  0  0  0
  7  8  1  0  0  0
  8  9  2  0  0  0
 14 16  1  0  0  0
 16 17  2  0  0  0
 16 10  1  0  0  0
  9  1  1  0  0  0
  8  4  1  0  0  0
 30 24  1  0  0  0
 19 22  1  0  0  0
M  END
> <minimizedAffinity>
5.95337

> <CNNscore>
0.4798415899

> <CNNaffinity>
6.8958930969

> <CNN_VS>
3.3089363575

> <CNNaffinity_variance>
0.6944382787

$$$$
[H]OC(=O)C([H])([H])N1C(=O)S/C(=C(/[H])c2c([H])c([H])c3c(c([H])nn3C([H])([H])c3c([H])c([H])c(Cl)c([H])c3C(F)(F)F)c2[H])C1=O


 34 37  0  0  0  0  0  0  0  0999 V2000
   -7.2195   -7.0509    6.4541 C   0  0  0  0  0  0  0  0  0  0  0  0
   -8.2545   -6.4072    7.1038 C   0  0  0  0  0  0  0  0  0  0  0  0
   -9.3532   -7.0798    7.5845 C   0  0  0  0  0  0  0  0  0  0  0  0
   -9.4500   -8.4476    7.4252 C   0  0  0  0  0  0  0  0  0  0  0  0
  -10.4208   -9.3528    7.8113 N   0  0  0  0  0  0  0  0  0  0  0  0
   -9.9600  -10.5025    7.3993 N   0  0  0  0  0  0  0  0  0  0  0  0
   -8.7945  -10.4423    6.7839 C   0  0  0  0  0  0  0  0  0  0  0  0
   -8.4413   -9.1128    6.7878 C   0  0  0  0  0  0  0  0  0  0  0  0
   -7.3466   -8.4098    6.3132 C   0  0  0  0  0  0  0  0  0  0  0  0
   -3.0651   -4.8265    7.3712 N   0  0  0  0  0  0  0  0  0  0  0  0
   -3.5202   -5.1012    8.6735 C   0  0  0  0  0  0  0  0  0  0  0  0
   -3.0837   -4.6971    9.7841 O   0  0  0  0  0  0  0  0  0  0  0  0
   -4.9178   -6.1951    8.4843 S   0  0  0  0  0  0  0  0  0  0  0  0
   -5.0901   -5.9729    6.7144 C   0  0  0  0  0  0  0  0  0  0  0  0
   -6.0891   -6.3581    5.9186 C   0  0  0  0  0  0  0  0  0  0  0  0
   -3.8736   -5.2743    6.3173 C   0  0  0  0  0  0  0  0  0  0  0  0
   -3.5955   -5.1000    5.0629 O   0  0  0  0  0  0  0  0  0  0  0  0
   -1.7813   -4.0950    7.1724 C   0  0  0  0  0  0  0  0  0  0  0  0
   -2.3431   -2.2485    5.5979 O   0  0  0  0  0  0  0  0  0  0  0  0
   -2.1471   -2.6596    6.9241 C   0  0  0  0  0  0  0  0  0  0  0  0
   -2.2774   -1.8451    7.8539 O   0  0  0  0  0  0  0  0  0  0  0  0
   -1.7733   -2.6151    4.8275 H   0  0  0  0  0  0  0  0  0  0  0  0
  -11.6380   -9.0166    8.4989 C   0  0  0  0  0  0  0  0  0  0  0  0
  -12.6422   -8.2307    7.8211 C   0  0  0  0  0  0  0  0  0  0  0  0
  -13.1037   -8.7380    6.5960 C   0  0  0  0  0  0  0  0  0  0  0  0
  -14.0706   -8.1372    5.8287 C   0  0  0  0  0  0  0  0  0  0  0  0
  -14.6324   -6.9717    6.2658 C   0  0  0  0  0  0  0  0  0  0  0  0
  -15.8740   -6.1427    5.3457 Cl  0  0  0  0  0  0  0  0  0  0  0  0
  -14.2079   -6.4580    7.4407 C   0  0  0  0  0  0  0  0  0  0  0  0
  -13.2130   -7.0623    8.2441 C   0  0  0  0  0  0  0  0  0  0  0  0
  -12.8040   -6.4220    9.4909 C   0  0  0  0  0  0  0  0  0  0  0  0
  -11.6257   -5.6813    9.3636 F   0  0  0  0  0  0  0  0  0  0  0  0
  -13.7502   -5.3233    9.6337 F   0  0  0  0  0  0  0  0  0  0  0  0
  -12.9699   -7.0802   10.6500 F   0  0  0  0  0  0  0  0  0  0  0  0
 19 20  1  0  0  0
 20 21  2  0  0  0
 20 18  1  0  0  0
 18 10  1  0  0  0
 10 11  1  0  0  0
 11 12  2  0  0  0
 11 13  1  0  0  0
 13 14  1  0  0  0
 14 15  2  0  0  0
 15  1  1  0  0  0
  1  2  2  0  0  0
  2  3  1  0  0  0
  3  4  2  0  0  0
  4  5  1  0  0  0
  5 23  1  0  0  0
 23 24  1  0  0  0
 24 25  2  0  0  0
 25 26  1  0  0  0
 26 27  2  0  0  0
 27 28  1  0  0  0
 27 29  1  0  0  0
 29 30  2  0  0  0
 30 31  1  0  0  0
 31 32  1  0  0  0
 31 33  1  0  0  0
 31 34  1  0  0  0
  5  6  1  0  0  0
  6  7  2  0  0  0
  7  8  1  0  0  0
  8  9  2  0  0  0
 14 16  1  0  0  0
 16 17  2  0  0  0
 16 10  1  0  0  0
  9  1  1  0  0  0
  8  4  1  0  0  0
 30 24  1  0  0  0
 19 22  1  0  0  0
M  END
> <minimizedAffinity>
-8.42487

> <CNNscore>
0.4266526103

> <CNNaffinity>
6.7500991821

> <CNN_VS>
2.8799474239

> <CNNaffinity_variance>
0.1468086541

$$$$
[H]OC(=O)C([H])([H])N1C(=O)S/C(=C(/[H])c2c([H])c([H])c3c(c([H])nn3C([H])([H])c3c([H])c([H])c(Cl)c([H])c3C(F)(F)F)c2[H])C1=O


 34 37  0  0  0  0  0  0  0  0999 V2000
   -5.8856   -6.8869    6.4007 C   0  0  0  0  0  0  0  0  0  0  0  0
   -7.1569   -6.4885    6.0362 C   0  0  0  0  0  0  0  0  0  0  0  0
   -8.2758   -7.2263    6.3437 C   0  0  0  0  0  0  0  0  0  0  0  0
   -8.1517   -8.4113    7.0408 C   0  0  0  0  0  0  0  0  0  0  0  0
   -9.0926   -9.3249    7.4778 N   0  0  0  0  0  0  0  0  0  0  0  0
   -8.3855  -10.2362    8.0890 N   0  0  0  0  0  0  0  0  0  0  0  0
   -7.0848  -10.0150    8.0942 C   0  0  0  0  0  0  0  0  0  0  0  0
   -6.9073   -8.8312    7.4164 C   0  0  0  0  0  0  0  0  0  0  0  0
   -5.7977   -8.0683    7.0928 C   0  0  0  0  0  0  0  0  0  0  0  0
   -2.3510   -4.0189    7.9268 N   0  0  0  0  0  0  0  0  0  0  0  0
   -3.1275   -4.1386    9.0935 C   0  0  0  0  0  0  0  0  0  0  0  0
   -3.0535   -3.5079   10.1817 O   0  0  0  0  0  0  0  0  0  0  0  0
   -4.3214   -5.4224    8.7588 S   0  0  0  0  0  0  0  0  0  0  0  0
   -4.0102   -5.5113    6.9962 C   0  0  0  0  0  0  0  0  0  0  0  0
   -4.7118   -6.1467    6.0561 C   0  0  0  0  0  0  0  0  0  0  0  0
   -2.7931   -4.7319    6.8039 C   0  0  0  0  0  0  0  0  0  0  0  0
   -2.1910   -4.7261    5.6555 O   0  0  0  0  0  0  0  0  0  0  0  0
   -1.1276   -3.1668    7.9335 C   0  0  0  0  0  0  0  0  0  0  0  0
   -2.0039   -0.9459    8.6434 O   0  0  0  0  0  0  0  0  0  0  0  0
   -1.5803   -1.7752    7.5951 C   0  0  0  0  0  0  0  0  0  0  0  0
   -1.5861   -1.3529    6.4261 O   0  0  0  0  0  0  0  0  0  0  0  0
   -2.5286   -1.3120    9.4454 H   0  0  0  0  0  0  0  0  0  0  0  0
  -10.5097   -9.2222    7.2568 C   0  0  0  0  0  0  0  0  0  0  0  0
  -11.2881   -8.3057    8.0564 C   0  0  0  0  0  0  0  0  0  0  0  0
  -10.5705   -7.2959    8.7169 C   0  0  0  0  0  0  0  0  0  0  0  0
  -11.1477   -6.3261    9.4986 C   0  0  0  0  0  0  0  0  0  0  0  0
  -12.5042   -6.3251    9.6574 C   0  0  0  0  0  0  0  0  0  0  0  0
  -13.3186   -5.1206   10.6379 Cl  0  0  0  0  0  0  0  0  0  0  0  0
  -13.2219   -7.2854    9.0351 C   0  0  0  0  0  0  0  0  0  0  0  0
  -12.6449   -8.2923    8.2267 C   0  0  0  0  0  0  0  0  0  0  0  0
  -13.5005   -9.3017    7.6096 C   0  0  0  0  0  0  0  0  0  0  0  0
  -13.3948  -10.5545    8.2201 F   0  0  0  0  0  0  0  0  0  0  0  0
  -14.8359   -8.9378    8.0644 F   0  0  0  0  0  0  0  0  0  0  0  0
  -13.6550   -9.3021    6.2753 F   0  0  0  0  0  0  0  0  0  0  0  0
 19 20  1  0  0  0
 20 21  2  0  0  0
 20 18  1  0  0  0
 18 10  1  0  0  0
 10 11  1  0  0  0
 11 12  2  0  0  0
 11 13  1  0  0  0
 13 14  1  0  0  0
 14 15  2  0  0  0
 15  1  1  0  0  0
  1  2  2  0  0  0
  2  3  1  0  0  0
  3  4  2  0  0  0
  4  5  1  0  0  0
  5 23  1  0  0  0
 23 24  1  0  0  0
 24 25  2  0  0  0
 25 26  1  0  0  0
 26 27  2  0  0  0
 27 28  1  0  0  0
 27 29  1  0  0  0
 29 30  2  0  0  0
 30 31  1  0  0  0
 31 32  1  0  0  0
 31 33  1  0  0  0
 31 34  1  0  0  0
  5  6  1  0  0  0
  6  7  2  0  0  0
  7  8  1  0  0  0
  8  9  2  0  0  0
 14 16  1  0  0  0
 16 17  2  0  0  0
 16 10  1  0  0  0
  9  1  1  0  0  0
  8  4  1  0  0  0
 30 24  1  0  0  0
 19 22  1  0  0  0
M  END
> <minimizedAffinity>
-8.55502

> <CNNscore>
0.3703168035

> <CNNaffinity>
6.1885952950

> <CNN_VS>
2.2917408943

> <CNNaffinity_variance>
0.1730990261

$$$$
[H]OC(=O)C([H])([H])N1C(=O)S/C(=C(/[H])c2c([H])c([H])c3c(c([H])nn3C([H])([H])c3c([H])c([H])c(Cl)c([H])c3C(F)(F)F)c2[H])C1=O


 34 37  0  0  0  0  0  0  0  0999 V2000
   -9.5505   -5.7405   12.3878 C   0  0  0  0  0  0  0  0  0  0  0  0
   -9.0981   -6.1885   11.1621 C   0  0  0  0  0  0  0  0  0  0  0  0
   -9.9465   -6.4260   10.1064 C   0  0  0  0  0  0  0  0  0  0  0  0
  -11.3034   -6.2172   10.2503 C   0  0  0  0  0  0  0  0  0  0  0  0
  -12.3564   -6.3662    9.3671 N   0  0  0  0  0  0  0  0  0  0  0  0
  -13.4021   -6.0083   10.0616 N   0  0  0  0  0  0  0  0  0  0  0  0
  -13.1430   -5.6449   11.3032 C   0  0  0  0  0  0  0  0  0  0  0  0
  -11.7813   -5.7728   11.4505 C   0  0  0  0  0  0  0  0  0  0  0  0
  -10.9038   -5.5424   12.4969 C   0  0  0  0  0  0  0  0  0  0  0  0
   -5.0261   -5.3249   13.9387 N   0  0  0  0  0  0  0  0  0  0  0  0
   -4.8214   -5.6544   12.5866 C   0  0  0  0  0  0  0  0  0  0  0  0
   -3.7609   -5.9685   11.9831 O   0  0  0  0  0  0  0  0  0  0  0  0
   -6.4235   -5.5474   11.8074 S   0  0  0  0  0  0  0  0  0  0  0  0
   -7.3634   -5.4322   13.3289 C   0  0  0  0  0  0  0  0  0  0  0  0
   -8.6828   -5.5239   13.5034 C   0  0  0  0  0  0  0  0  0  0  0  0
   -6.3576   -5.2015   14.3589 C   0  0  0  0  0  0  0  0  0  0  0  0
   -6.7133   -4.9042   15.5699 O   0  0  0  0  0  0  0  0  0  0  0  0
   -3.8551   -5.1252   14.8396 C   0  0  0  0  0  0  0  0  0  0  0  0
   -4.5212   -2.7275   14.7325 O   0  0  0  0  0  0  0  0  0  0  0  0
   -3.4857   -3.6730   14.7366 C   0  0  0  0  0  0  0  0  0  0  0  0
   -2.3026   -3.3007   14.6568 O   0  0  0  0  0  0  0  0  0  0  0  0
   -5.4167   -2.9070   14.2652 H   0  0  0  0  0  0  0  0  0  0  0  0
  -12.2384   -6.8271    8.0102 C   0  0  0  0  0  0  0  0  0  0  0  0
  -13.4050   -7.3398    7.3308 C   0  0  0  0  0  0  0  0  0  0  0  0
  -14.2530   -6.3843    6.7485 C   0  0  0  0  0  0  0  0  0  0  0  0
  -15.3911   -6.6914    6.0450 C   0  0  0  0  0  0  0  0  0  0  0  0
  -15.7392   -8.0029    5.8897 C   0  0  0  0  0  0  0  0  0  0  0  0
  -17.1761   -8.4787    5.0042 Cl  0  0  0  0  0  0  0  0  0  0  0  0
  -14.9435   -8.9455    6.4401 C   0  0  0  0  0  0  0  0  0  0  0  0
  -13.7680   -8.6481    7.1683 C   0  0  0  0  0  0  0  0  0  0  0  0
  -12.9809   -9.7346    7.7444 C   0  0  0  0  0  0  0  0  0  0  0  0
  -12.8595   -9.6439    9.1337 F   0  0  0  0  0  0  0  0  0  0  0  0
  -13.8779  -10.8802    7.6678 F   0  0  0  0  0  0  0  0  0  0  0  0
  -11.9028  -10.1848    7.0817 F   0  0  0  0  0  0  0  0  0  0  0  0
 19 20  1  0  0  0
 20 21  2  0  0  0
 20 18  1  0  0  0
 18 10  1  0  0  0
 10 11  1  0  0  0
 11 12  2  0  0  0
 11 13  1  0  0  0
 13 14  1  0  0  0
 14 15  2  0  0  0
 15  1  1  0  0  0
  1  2  2  0  0  0
  2  3  1  0  0  0
  3  4  2  0  0  0
  4  5  1  0  0  0
  5 23  1  0  0  0
 23 24  1  0  0  0
 24 25  2  0  0  0
 25 26  1  0  0  0
 26 27  2  0  0  0
 27 28  1  0  0  0
 27 29  1  0  0  0
 29 30  2  0  0  0
 30 31  1  0  0  0
 31 32  1  0  0  0
 31 33  1  0  0  0
 31 34  1  0  0  0
  5  6  1  0  0  0
  6  7  2  0  0  0
  7  8  1  0  0  0
  8  9  2  0  0  0
 14 16  1  0  0  0
 16 17  2  0  0  0
 16 10  1  0  0  0
  9  1  1  0  0  0
  8  4  1  0  0  0
 30 24  1  0  0  0
 19 22  1  0  0  0
M  END
> <minimizedAffinity>
4.12582

> <CNNscore>
0.3470275998

> <CNNaffinity>
5.9399290085

> <CNN_VS>
2.0613193512

> <CNNaffinity_variance>
0.6195236444

$$$$
[H]OC(=O)C([H])([H])N1C(=O)S/C(=C(/[H])c2c([H])c([H])c3c(c([H])nn3C([H])([H])c3c([H])c([H])c(Cl)c([H])c3C(F)(F)F)c2[H])C1=O


 34 37  0  0  0  0  0  0  0  0999 V2000
   -7.7541   -6.7512    8.2893 C   0  0  0  0  0  0  0  0  0  0  0  0
   -8.5401   -7.5136    9.1311 C   0  0  0  0  0  0  0  0  0  0  0  0
   -9.8824   -7.7104    8.9071 C   0  0  0  0  0  0  0  0  0  0  0  0
  -10.4907   -7.1367    7.8087 C   0  0  0  0  0  0  0  0  0  0  0  0
  -11.7948   -7.1789    7.3521 N   0  0  0  0  0  0  0  0  0  0  0  0
  -11.7700   -6.4595    6.2632 N   0  0  0  0  0  0  0  0  0  0  0  0
  -10.5899   -5.9510    5.9636 C   0  0  0  0  0  0  0  0  0  0  0  0
   -9.7392   -6.3782    6.9566 C   0  0  0  0  0  0  0  0  0  0  0  0
   -8.3893   -6.1963    7.2071 C   0  0  0  0  0  0  0  0  0  0  0  0
   -3.2260   -7.7504    7.0459 N   0  0  0  0  0  0  0  0  0  0  0  0
   -3.9378   -8.6376    6.2183 C   0  0  0  0  0  0  0  0  0  0  0  0
   -3.5197   -9.5863    5.5022 O   0  0  0  0  0  0  0  0  0  0  0  0
   -5.6540   -8.1676    6.3564 S   0  0  0  0  0  0  0  0  0  0  0  0
   -5.4349   -7.0718    7.7575 C   0  0  0  0  0  0  0  0  0  0  0  0
   -6.3655   -6.5101    8.5309 C   0  0  0  0  0  0  0  0  0  0  0  0
   -3.9900   -6.9122    7.8695 C   0  0  0  0  0  0  0  0  0  0  0  0
   -3.4865   -6.0417    8.6882 O   0  0  0  0  0  0  0  0  0  0  0  0
   -1.7355   -7.7379    7.0123 C   0  0  0  0  0  0  0  0  0  0  0  0
   -1.0602   -7.9257    9.4025 O   0  0  0  0  0  0  0  0  0  0  0  0
   -1.2798   -8.5701    8.1766 C   0  0  0  0  0  0  0  0  0  0  0  0
   -1.0976   -9.7955    8.0762 O   0  0  0  0  0  0  0  0  0  0  0  0
   -0.6614   -6.9818    9.4543 H   0  0  0  0  0  0  0  0  0  0  0  0
  -12.8749   -7.8743    7.9982 C   0  0  0  0  0  0  0  0  0  0  0  0
  -14.1594   -7.9553    7.3434 C   0  0  0  0  0  0  0  0  0  0  0  0
  -15.1532   -7.0848    7.8184 C   0  0  0  0  0  0  0  0  0  0  0  0
  -16.4221   -7.0084    7.3001 C   0  0  0  0  0  0  0  0  0  0  0  0
  -16.7604   -7.8215    6.2562 C   0  0  0  0  0  0  0  0  0  0  0  0
  -18.3592   -7.7844    5.5367 Cl  0  0  0  0  0  0  0  0  0  0  0  0
  -15.8255   -8.6711    5.7781 C   0  0  0  0  0  0  0  0  0  0  0  0
  -14.5140   -8.7641    6.2994 C   0  0  0  0  0  0  0  0  0  0  0  0
  -13.5768   -9.7280    5.7296 C   0  0  0  0  0  0  0  0  0  0  0  0
  -13.0310  -10.5894    6.6852 F   0  0  0  0  0  0  0  0  0  0  0  0
  -14.4426  -10.6736    5.0375 F   0  0  0  0  0  0  0  0  0  0  0  0
  -12.7534   -9.3362    4.7433 F   0  0  0  0  0  0  0  0  0  0  0  0
 19 20  1  0  0  0
 20 21  2  0  0  0
 20 18  1  0  0  0
 18 10  1  0  0  0
 10 11  1  0  0  0
 11 12  2  0  0  0
 11 13  1  0  0  0
 13 14  1  0  0  0
 14 15  2  0  0  0
 15  1  1  0  0  0
  1  2  2  0  0  0
  2  3  1  0  0  0
  3  4  2  0  0  0
  4  5  1  0  0  0
  5 23  1  0  0  0
 23 24  1  0  0  0
 24 25  2  0  0  0
 25 26  1  0  0  0
 26 27  2  0  0  0
 27 28  1  0  0  0
 27 29  1  0  0  0
 29 30  2  0  0  0
 30 31  1  0  0  0
 31 32  1  0  0  0
 31 33  1  0  0  0
 31 34  1  0  0  0
  5  6  1  0  0  0
  6  7  2  0  0  0
  7  8  1  0  0  0
  8  9  2  0  0  0
 14 16  1  0  0  0
 16 17  2  0  0  0
 16 10  1  0  0  0
  9  1  1  0  0  0
  8  4  1  0  0  0
 30 24  1  0  0  0
 19 22  1  0  0  0
M  END
> <minimizedAffinity>
6.10219

> <CNNscore>
0.3313921392

> <CNNaffinity>
6.1087460518

> <CNN_VS>
2.0243904591

> <CNNaffinity_variance>
1.5018639565

$$$$
[H]OC(=O)C([H])([H])N1C(=O)S/C(=C(/[H])c2c([H])c([H])c3c(c([H])nn3C([H])([H])c3c([H])c([H])c(Cl)c([H])c3C(F)(F)F)c2[H])C1=O


 34 37  0  0  0  0  0  0  0  0999 V2000
   -6.8332   -8.2527    6.8901 C   0  0  0  0  0  0  0  0  0  0  0  0
   -7.5876   -9.3889    6.6716 C   0  0  0  0  0  0  0  0  0  0  0  0
   -8.9113   -9.4744    7.0340 C   0  0  0  0  0  0  0  0  0  0  0  0
   -9.5324   -8.4005    7.6394 C   0  0  0  0  0  0  0  0  0  0  0  0
  -10.8272   -8.2193    8.0884 N   0  0  0  0  0  0  0  0  0  0  0  0
  -10.8302   -7.0005    8.5556 N   0  0  0  0  0  0  0  0  0  0  0  0
   -9.6752   -6.3698    8.4614 C   0  0  0  0  0  0  0  0  0  0  0  0
   -8.8128   -7.2620    7.8676 C   0  0  0  0  0  0  0  0  0  0  0  0
   -7.4809   -7.2039    7.4926 C   0  0  0  0  0  0  0  0  0  0  0  0
   -2.6393   -6.0472    7.6609 N   0  0  0  0  0  0  0  0  0  0  0  0
   -3.4997   -5.2886    8.4752 C   0  0  0  0  0  0  0  0  0  0  0  0
   -3.2924   -4.2015    9.0774 O   0  0  0  0  0  0  0  0  0  0  0  0
   -5.0449   -6.1805    8.5210 S   0  0  0  0  0  0  0  0  0  0  0  0
   -4.6432   -7.3175    7.1954 C   0  0  0  0  0  0  0  0  0  0  0  0
   -5.4472   -8.1642    6.5501 C   0  0  0  0  0  0  0  0  0  0  0  0
   -3.2153   -7.1240    6.9730 C   0  0  0  0  0  0  0  0  0  0  0  0
   -2.5597   -7.9172    6.1841 O   0  0  0  0  0  0  0  0  0  0  0  0
   -1.1957   -5.6865    7.5680 C   0  0  0  0  0  0  0  0  0  0  0  0
   -1.0600   -3.2505    7.0663 O   0  0  0  0  0  0  0  0  0  0  0  0
   -1.1041   -4.5632    6.5752 C   0  0  0  0  0  0  0  0  0  0  0  0
   -1.0669   -4.7710    5.3504 O   0  0  0  0  0  0  0  0  0  0  0  0
   -1.5991   -2.9621    7.8902 H   0  0  0  0  0  0  0  0  0  0  0  0
  -11.8699   -9.2075    8.0255 C   0  0  0  0  0  0  0  0  0  0  0  0
  -13.1233   -8.8770    7.3890 C   0  0  0  0  0  0  0  0  0  0  0  0
  -13.2622   -9.2748    6.0497 C   0  0  0  0  0  0  0  0  0  0  0  0
  -14.3912   -9.0656    5.2972 C   0  0  0  0  0  0  0  0  0  0  0  0
  -15.4584   -8.4324    5.8675 C   0  0  0  0  0  0  0  0  0  0  0  0
  -16.9370   -8.1283    4.9751 Cl  0  0  0  0  0  0  0  0  0  0  0  0
  -15.3542   -8.0364    7.1547 C   0  0  0  0  0  0  0  0  0  0  0  0
  -14.1996   -8.2427    7.9450 C   0  0  0  0  0  0  0  0  0  0  0  0
  -14.1721   -7.7613    9.3232 C   0  0  0  0  0  0  0  0  0  0  0  0
  -14.1409   -6.3670    9.4141 F   0  0  0  0  0  0  0  0  0  0  0  0
  -15.5334   -7.9902    9.7892 F   0  0  0  0  0  0  0  0  0  0  0  0
  -13.4521   -8.4326   10.2370 F   0  0  0  0  0  0  0  0  0  0  0  0
 19 20  1  0  0  0
 20 21  2  0  0  0
 20 18  1  0  0  0
 18 10  1  0  0  0
 10 11  1  0  0  0
 11 12  2  0  0  0
 11 13  1  0  0  0
 13 14  1  0  0  0
 14 15  2  0  0  0
 15  1  1  0  0  0
  1  2  2  0  0  0
  2  3  1  0  0  0
  3  4  2  0  0  0
  4  5  1  0  0  0
  5 23  1  0  0  0
 23 24  1  0  0  0
 24 25  2  0  0  0
 25 26  1  0  0  0
 26 27  2  0  0  0
 27 28  1  0  0  0
 27 29  1  0  0  0
 29 30  2  0  0  0
 30 31  1  0  0  0
 31 32  1  0  0  0
 31 33  1  0  0  0
 31 34  1  0  0  0
  5  6  1  0  0  0
  6  7  2  0  0  0
  7  8  1  0  0  0
  8  9  2  0  0  0
 14 16  1  0  0  0
 16 17  2  0  0  0
 16 10  1  0  0  0
  9  1  1  0  0  0
  8  4  1  0  0  0
 30 24  1  0  0  0
 19 22  1  0  0  0
M  END
> <minimizedAffinity>
-8.70128

> <CNNscore>
0.3196836710

> <CNNaffinity>
6.4995474815

> <CNN_VS>
2.0777990818

> <CNNaffinity_variance>
0.1163417697

$$$$
[H]OC(=O)C([H])([H])N1C(=O)S/C(=C(/[H])c2c([H])c([H])c3c(c([H])nn3C([H])([H])c3c([H])c([H])c(Cl)c([H])c3C(F)(F)F)c2[H])C1=O


 34 37  0  0  0  0  0  0  0  0999 V2000
   -6.0352   -7.9050    7.0666 C   0  0  0  0  0  0  0  0  0  0  0  0
   -6.7101   -7.0516    7.9174 C   0  0  0  0  0  0  0  0  0  0  0  0
   -8.0299   -7.2400    8.2544 C   0  0  0  0  0  0  0  0  0  0  0  0
   -8.7282   -8.3127    7.7376 C   0  0  0  0  0  0  0  0  0  0  0  0
  -10.0334   -8.7325    7.9143 N   0  0  0  0  0  0  0  0  0  0  0  0
  -10.1178   -9.8118    7.1849 N   0  0  0  0  0  0  0  0  0  0  0  0
   -9.0081  -10.1379    6.5501 C   0  0  0  0  0  0  0  0  0  0  0  0
   -8.0876   -9.1754    6.8941 C   0  0  0  0  0  0  0  0  0  0  0  0
   -6.7579   -8.9610    6.5715 C   0  0  0  0  0  0  0  0  0  0  0  0
   -2.8006   -4.8959    5.1877 N   0  0  0  0  0  0  0  0  0  0  0  0
   -3.9827   -4.1461    5.0493 C   0  0  0  0  0  0  0  0  0  0  0  0
   -4.1914   -3.0756    4.4185 O   0  0  0  0  0  0  0  0  0  0  0  0
   -5.2298   -5.0200    5.9801 S   0  0  0  0  0  0  0  0  0  0  0  0
   -4.2708   -6.5149    6.2188 C   0  0  0  0  0  0  0  0  0  0  0  0
   -4.6737   -7.6998    6.6809 C   0  0  0  0  0  0  0  0  0  0  0  0
   -2.9224   -6.1504    5.8009 C   0  0  0  0  0  0  0  0  0  0  0  0
   -1.9304   -6.9610    6.0016 O   0  0  0  0  0  0  0  0  0  0  0  0
   -1.5078   -4.3415    4.6934 C   0  0  0  0  0  0  0  0  0  0  0  0
   -1.2501   -1.8656    4.7803 O   0  0  0  0  0  0  0  0  0  0  0  0
   -1.2612   -3.0833    5.4756 C   0  0  0  0  0  0  0  0  0  0  0  0
   -1.0710   -3.1005    6.7037 O   0  0  0  0  0  0  0  0  0  0  0  0
   -0.8611   -1.7856    3.8343 H   0  0  0  0  0  0  0  0  0  0  0  0
  -11.0135   -8.0655    8.7279 C   0  0  0  0  0  0  0  0  0  0  0  0
  -12.2699   -7.6642    8.1399 C   0  0  0  0  0  0  0  0  0  0  0  0
  -12.6259   -8.3040    6.9420 C   0  0  0  0  0  0  0  0  0  0  0  0
  -13.7923   -8.0653    6.2584 C   0  0  0  0  0  0  0  0  0  0  0  0
  -14.6763   -7.1516    6.7574 C   0  0  0  0  0  0  0  0  0  0  0  0
  -16.1883   -6.7904    5.9457 Cl  0  0  0  0  0  0  0  0  0  0  0  0
  -14.3608   -6.5184    7.9080 C   0  0  0  0  0  0  0  0  0  0  0  0
  -13.1643   -6.7509    8.6255 C   0  0  0  0  0  0  0  0  0  0  0  0
  -12.9003   -6.0031    9.8515 C   0  0  0  0  0  0  0  0  0  0  0  0
  -12.5468   -6.8237   10.9262 F   0  0  0  0  0  0  0  0  0  0  0  0
  -11.6047   -5.3860    9.5994 F   0  0  0  0  0  0  0  0  0  0  0  0
  -13.6611   -4.9356   10.1440 F   0  0  0  0  0  0  0  0  0  0  0  0
 19 20  1  0  0  0
 20 21  2  0  0  0
 20 18  1  0  0  0
 18 10  1  0  0  0
 10 11  1  0  0  0
 11 12  2  0  0  0
 11 13  1  0  0  0
 13 14  1  0  0  0
 14 15  2  0  0  0
 15  1  1  0  0  0
  1  2  2  0  0  0
  2  3  1  0  0  0
  3  4  2  0  0  0
  4  5  1  0  0  0
  5 23  1  0  0  0
 23 24  1  0  0  0
 24 25  2  0  0  0
 25 26  1  0  0  0
 26 27  2  0  0  0
 27 28  1  0  0  0
 27 29  1  0  0  0
 29 30  2  0  0  0
 30 31  1  0  0  0
 31 32  1  0  0  0
 31 33  1  0  0  0
 31 34  1  0  0  0
  5  6  1  0  0  0
  6  7  2  0  0  0
  7  8  1  0  0  0
  8  9  2  0  0  0
 14 16  1  0  0  0
 16 17  2  0  0  0
 16 10  1  0  0  0
  9  1  1  0  0  0
  8  4  1  0  0  0
 30 24  1  0  0  0
 19 22  1  0  0  0
M  END
> <minimizedAffinity>
-7.57148

> <CNNscore>
0.3040879965

> <CNNaffinity>
6.4852399826

> <CNN_VS>
1.9720836878

> <CNNaffinity_variance>
0.1706469953

$$$$
[H]c1c([H])c([H])c(N([H])[H])c(C(=O)c2nnn(-c3c([H])c([H])c([H])c(C([H])(C([H])([H])[H])C([H])([H])[H])c3[H])c2[H])c1[H]


 25 27  0  0  0  0  0  0  0  0999 V2000
  -12.0719   -7.7256    7.6757 N   0  0  0  0  0  0  0  0  0  0  0  0
  -13.1474   -8.0544    6.9624 C   0  0  0  0  0  0  0  0  0  0  0  0
  -14.2169   -7.3156    7.4415 C   0  0  0  0  0  0  0  0  0  0  0  0
  -13.6971   -6.5837    8.4255 N   0  0  0  0  0  0  0  0  0  0  0  0
  -12.4102   -6.8238    8.5727 N   0  0  0  0  0  0  0  0  0  0  0  0
   -8.3794   -7.8067    7.3456 C   0  0  0  0  0  0  0  0  0  0  0  0
   -8.1288   -9.1480    7.2145 C   0  0  0  0  0  0  0  0  0  0  0  0
   -9.1605  -10.0685    7.2298 C   0  0  0  0  0  0  0  0  0  0  0  0
  -10.4689   -9.5942    7.3824 C   0  0  0  0  0  0  0  0  0  0  0  0
  -10.7390   -8.2608    7.5148 C   0  0  0  0  0  0  0  0  0  0  0  0
   -9.6949   -7.3634    7.4967 C   0  0  0  0  0  0  0  0  0  0  0  0
   -6.6062   -6.8292    5.9517 C   0  0  0  0  0  0  0  0  0  0  0  0
   -7.2460   -6.8432    7.3245 C   0  0  0  0  0  0  0  0  0  0  0  0
   -6.1762   -7.2374    8.3209 C   0  0  0  0  0  0  0  0  0  0  0  0
  -15.5903   -7.3131    6.9693 C   0  0  0  0  0  0  0  0  0  0  0  0
  -16.4683   -7.8950    7.7166 O   0  0  0  0  0  0  0  0  0  0  0  0
  -16.0719   -6.7173    5.7357 C   0  0  0  0  0  0  0  0  0  0  0  0
  -15.7963   -5.4363    5.3243 C   0  0  0  0  0  0  0  0  0  0  0  0
  -16.2754   -4.8738    4.1431 C   0  0  0  0  0  0  0  0  0  0  0  0
  -17.0714   -5.6219    3.3254 C   0  0  0  0  0  0  0  0  0  0  0  0
  -17.3796   -6.9108    3.6888 C   0  0  0  0  0  0  0  0  0  0  0  0
  -16.8857   -7.4513    4.8791 C   0  0  0  0  0  0  0  0  0  0  0  0
  -17.1996   -8.7826    5.2632 N   0  0  0  0  0  0  0  0  0  0  0  0
  -16.5886   -9.6013    5.0700 H   0  0  0  0  0  0  0  0  0  0  0  0
  -18.1075   -8.9510    5.7758 H   0  0  0  0  0  0  0  0  0  0  0  0
 12 13  1  0  0  0
 13 14  1  0  0  0
 13  6  1  0  0  0
  6  7  2  0  0  0
  7  8  1  0  0  0
  8  9  2  0  0  0
  9 10  1  0  0  0
 10 11  2  0  0  0
 10  1  1  0  0  0
  1  2  1  0  0  0
  2  3  2  0  0  0
  3  4  1  0  0  0
  4  5  2  0  0  0
  3 15  1  0  0  0
 15 16  2  0  0  0
 15 17  1  0  0  0
 17 18  2  0  0  0
 18 19  1  0  0  0
 19 20  2  0  0  0
 20 21  1  0  0  0
 21 22  2  0  0  0
 22 23  1  0  0  0
 11  6  1  0  0  0
  5  1  1  0  0  0
 22 17  1  0  0  0
 23 24  1  0  0  0
 23 25  1  0  0  0
M  END
> <minimizedAffinity>
-9.53858

> <CNNscore>
0.6899651885

> <CNNaffinity>
6.8151383400

> <CNN_VS>
4.7022080421

> <CNNaffinity_variance>
0.1290937364

$$$$
[H]c1c([H])c([H])c(N([H])[H])c(C(=O)c2nnn(-c3c([H])c([H])c([H])c(C([H])(C([H])([H])[H])C([H])([H])[H])c3[H])c2[H])c1[H]


 25 27  0  0  0  0  0  0  0  0999 V2000
  -13.0843   -8.4254    7.7978 N   0  0  0  0  0  0  0  0  0  0  0  0
  -14.0518   -8.2819    6.8941 C   0  0  0  0  0  0  0  0  0  0  0  0
  -15.2007   -7.8884    7.5607 C   0  0  0  0  0  0  0  0  0  0  0  0
  -14.8334   -7.8231    8.8394 N   0  0  0  0  0  0  0  0  0  0  0  0
  -13.5647   -8.1439    8.9904 N   0  0  0  0  0  0  0  0  0  0  0  0
   -9.3798   -8.2868    7.7092 C   0  0  0  0  0  0  0  0  0  0  0  0
   -9.0590   -9.4744    7.1042 C   0  0  0  0  0  0  0  0  0  0  0  0
  -10.0451  -10.3580    6.7059 C   0  0  0  0  0  0  0  0  0  0  0  0
  -11.3808  -10.0077    6.9364 C   0  0  0  0  0  0  0  0  0  0  0  0
  -11.7207   -8.8285    7.5385 C   0  0  0  0  0  0  0  0  0  0  0  0
  -10.7210   -7.9648    7.9264 C   0  0  0  0  0  0  0  0  0  0  0  0
   -7.8235   -6.5487    6.9347 C   0  0  0  0  0  0  0  0  0  0  0  0
   -8.2940   -7.3587    8.1251 C   0  0  0  0  0  0  0  0  0  0  0  0
   -7.0989   -8.1207    8.6576 C   0  0  0  0  0  0  0  0  0  0  0  0
  -16.5064   -7.5882    7.0002 C   0  0  0  0  0  0  0  0  0  0  0  0
  -17.5356   -7.8694    7.7280 O   0  0  0  0  0  0  0  0  0  0  0  0
  -16.7661   -7.0005    5.6979 C   0  0  0  0  0  0  0  0  0  0  0  0
  -16.3344   -5.7596    5.2981 C   0  0  0  0  0  0  0  0  0  0  0  0
  -16.6014   -5.2034    4.0489 C   0  0  0  0  0  0  0  0  0  0  0  0
  -17.3369   -5.9160    3.1471 C   0  0  0  0  0  0  0  0  0  0  0  0
  -17.7949   -7.1641    3.4952 C   0  0  0  0  0  0  0  0  0  0  0  0
  -17.5127   -7.6992    4.7549 C   0  0  0  0  0  0  0  0  0  0  0  0
  -17.9825   -8.9882    5.1238 N   0  0  0  0  0  0  0  0  0  0  0  0
  -17.4192   -9.8577    5.0365 H   0  0  0  0  0  0  0  0  0  0  0  0
  -18.9623   -9.0683    5.5098 H   0  0  0  0  0  0  0  0  0  0  0  0
 12 13  1  0  0  0
 13 14  1  0  0  0
 13  6  1  0  0  0
  6  7  2  0  0  0
  7  8  1  0  0  0
  8  9  2  0  0  0
  9 10  1  0  0  0
 10 11  2  0  0  0
 10  1  1  0  0  0
  1  2  1  0  0  0
  2  3  2  0  0  0
  3  4  1  0  0  0
  4  5  2  0  0  0
  3 15  1  0  0  0
 15 16  2  0  0  0
 15 17  1  0  0  0
 17 18  2  0  0  0
 18 19  1  0  0  0
 19 20  2  0  0  0
 20 21  1  0  0  0
 21 22  2  0  0  0
 22 23  1  0  0  0
 11  6  1  0  0  0
  5  1  1  0  0  0
 22 17  1  0  0  0
 23 24  1  0  0  0
 23 25  1  0  0  0
M  END
> <minimizedAffinity>
-9.68496

> <CNNscore>
0.5411724448

> <CNNaffinity>
6.7798018456

> <CNN_VS>
3.6690418720

> <CNNaffinity_variance>
0.2292091399

$$$$
[H]c1c([H])c([H])c(N([H])[H])c(C(=O)c2nnn(-c3c([H])c([H])c([H])c(C([H])(C([H])([H])[H])C([H])([H])[H])c3[H])c2[H])c1[H]


 25 27  0  0  0  0  0  0  0  0999 V2000
  -11.9081   -7.4704    8.0350 N   0  0  0  0  0  0  0  0  0  0  0  0
  -10.9610   -8.2015    7.4503 C   0  0  0  0  0  0  0  0  0  0  0  0
   -9.7373   -7.7947    7.9566 C   0  0  0  0  0  0  0  0  0  0  0  0
  -10.0436   -6.8315    8.8241 N   0  0  0  0  0  0  0  0  0  0  0  0
  -11.3445   -6.6306    8.8772 N   0  0  0  0  0  0  0  0  0  0  0  0
  -15.1643   -7.1537    6.2894 C   0  0  0  0  0  0  0  0  0  0  0  0
  -16.0384   -7.6747    7.2080 C   0  0  0  0  0  0  0  0  0  0  0  0
  -15.5896   -8.1460    8.4280 C   0  0  0  0  0  0  0  0  0  0  0  0
  -14.2182   -8.0767    8.7009 C   0  0  0  0  0  0  0  0  0  0  0  0
  -13.3310   -7.5611    7.7979 C   0  0  0  0  0  0  0  0  0  0  0  0
  -13.8018   -7.0981    6.5896 C   0  0  0  0  0  0  0  0  0  0  0  0
  -17.1719   -6.4075    5.0829 C   0  0  0  0  0  0  0  0  0  0  0  0
  -15.6807   -6.6550    4.9863 C   0  0  0  0  0  0  0  0  0  0  0  0
  -15.4587   -7.6716    3.8863 C   0  0  0  0  0  0  0  0  0  0  0  0
   -8.4175   -8.3111    7.6396 C   0  0  0  0  0  0  0  0  0  0  0  0
   -8.2449   -9.5863    7.7496 O   0  0  0  0  0  0  0  0  0  0  0  0
   -7.2714   -7.5298    7.2096 C   0  0  0  0  0  0  0  0  0  0  0  0
   -6.9502   -7.2649    5.9009 C   0  0  0  0  0  0  0  0  0  0  0  0
   -5.8400   -6.5233    5.5026 C   0  0  0  0  0  0  0  0  0  0  0  0
   -5.0024   -6.0171    6.4534 C   0  0  0  0  0  0  0  0  0  0  0  0
   -5.2762   -6.2523    7.7794 C   0  0  0  0  0  0  0  0  0  0  0  0
   -6.3969   -6.9994    8.1523 C   0  0  0  0  0  0  0  0  0  0  0  0
   -6.6875   -7.2482    9.5205 N   0  0  0  0  0  0  0  0  0  0  0  0
   -7.3410   -6.6727   10.0885 H   0  0  0  0  0  0  0  0  0  0  0  0
   -6.2116   -8.0666    9.9887 H   0  0  0  0  0  0  0  0  0  0  0  0
 12 13  1  0  0  0
 13 14  1  0  0  0
 13  6  1  0  0  0
  6  7  2  0  0  0
  7  8  1  0  0  0
  8  9  2  0  0  0
  9 10  1  0  0  0
 10 11  2  0  0  0
 10  1  1  0  0  0
  1  2  1  0  0  0
  2  3  2  0  0  0
  3  4  1  0  0  0
  4  5  2  0  0  0
  3 15  1  0  0  0
 15 16  2  0  0  0
 15 17  1  0  0  0
 17 18  2  0  0  0
 18 19  1  0  0  0
 19 20  2  0  0  0
 20 21  1  0  0  0
 21 22  2  0  0  0
 22 23  1  0  0  0
 11  6  1  0  0  0
  5  1  1  0  0  0
 22 17  1  0  0  0
 23 24  1  0  0  0
 23 25  1  0  0  0
M  END
> <minimizedAffinity>
-8.28907

> <CNNscore>
0.5280163884

> <CNNaffinity>
6.3620386124

> <CNN_VS>
3.3592605591

> <CNNaffinity_variance>
0.2374752462

$$$$
[H]c1c([H])c([H])c(N([H])[H])c(C(=O)c2nnn(-c3c([H])c([H])c([H])c(C([H])(C([H])([H])[H])C([H])([H])[H])c3[H])c2[H])c1[H]


 25 27  0  0  0  0  0  0  0  0999 V2000
  -12.9889   -6.7265    6.4680 N   0  0  0  0  0  0  0  0  0  0  0  0
  -13.8375   -7.6357    5.9920 C   0  0  0  0  0  0  0  0  0  0  0  0
  -14.4803   -7.0839    4.8959 C   0  0  0  0  0  0  0  0  0  0  0  0
  -13.9621   -5.8614    4.7911 N   0  0  0  0  0  0  0  0  0  0  0  0
  -13.0662   -5.6388    5.7309 N   0  0  0  0  0  0  0  0  0  0  0  0
   -9.9749   -7.6058    8.4410 C   0  0  0  0  0  0  0  0  0  0  0  0
  -10.3397   -7.2354    9.7094 C   0  0  0  0  0  0  0  0  0  0  0  0
  -11.5838   -6.6863    9.9591 C   0  0  0  0  0  0  0  0  0  0  0  0
  -12.4621   -6.5188    8.8818 C   0  0  0  0  0  0  0  0  0  0  0  0
  -12.1167   -6.8815    7.6100 C   0  0  0  0  0  0  0  0  0  0  0  0
  -10.8720   -7.4262    7.3862 C   0  0  0  0  0  0  0  0  0  0  0  0
   -7.7212   -7.1662    7.5634 C   0  0  0  0  0  0  0  0  0  0  0  0
   -8.6285   -8.1940    8.2072 C   0  0  0  0  0  0  0  0  0  0  0  0
   -8.7069   -9.3815    7.2710 C   0  0  0  0  0  0  0  0  0  0  0  0
  -15.4754   -7.6984    4.0347 C   0  0  0  0  0  0  0  0  0  0  0  0
  -15.0389   -8.4019    3.0435 O   0  0  0  0  0  0  0  0  0  0  0  0
  -16.9165   -7.5979    4.1820 C   0  0  0  0  0  0  0  0  0  0  0  0
  -17.6542   -6.4693    3.9203 C   0  0  0  0  0  0  0  0  0  0  0  0
  -19.0358   -6.3839    4.0776 C   0  0  0  0  0  0  0  0  0  0  0  0
  -19.7238   -7.4766    4.5188 C   0  0  0  0  0  0  0  0  0  0  0  0
  -19.0351   -8.6330    4.7963 C   0  0  0  0  0  0  0  0  0  0  0  0
  -17.6489   -8.6924    4.6298 C   0  0  0  0  0  0  0  0  0  0  0  0
  -16.9286   -9.8833    4.9148 N   0  0  0  0  0  0  0  0  0  0  0  0
  -16.6740  -10.5926    4.1986 H   0  0  0  0  0  0  0  0  0  0  0  0
  -16.6338  -10.0587    5.9137 H   0  0  0  0  0  0  0  0  0  0  0  0
 12 13  1  0  0  0
 13 14  1  0  0  0
 13  6  1  0  0  0
  6  7  2  0  0  0
  7  8  1  0  0  0
  8  9  2  0  0  0
  9 10  1  0  0  0
 10 11  2  0  0  0
 10  1  1  0  0  0
  1  2  1  0  0  0
  2  3  2  0  0  0
  3  4  1  0  0  0
  4  5  2  0  0  0
  3 15  1  0  0  0
 15 16  2  0  0  0
 15 17  1  0  0  0
 17 18  2  0  0  0
 18 19  1  0  0  0
 19 20  2  0  0  0
 20 21  1  0  0  0
 21 22  2  0  0  0
 22 23  1  0  0  0
 11  6  1  0  0  0
  5  1  1  0  0  0
 22 17  1  0  0  0
 23 24  1  0  0  0
 23 25  1  0  0  0
M  END
> <minimizedAffinity>
1.41840

> <CNNscore>
0.5142202377

> <CNNaffinity>
6.5653953552

> <CNN_VS>
3.3760590553

> <CNNaffinity_variance>
1.5437966585

$$$$
[H]c1c([H])c([H])c(N([H])[H])c(C(=O)c2nnn(-c3c([H])c([H])c([H])c(C([H])(C([H])([H])[H])C([H])([H])[H])c3[H])c2[H])c1[H]


 25 27  0  0  0  0  0  0  0  0999 V2000
   -5.7981   -7.3744    7.1590 N   0  0  0  0  0  0  0  0  0  0  0  0
   -4.5966   -7.2327    6.6025 C   0  0  0  0  0  0  0  0  0  0  0  0
   -3.9288   -6.2283    7.2841 C   0  0  0  0  0  0  0  0  0  0  0  0
   -4.7931   -5.8324    8.2170 N   0  0  0  0  0  0  0  0  0  0  0  0
   -5.9176   -6.5152    8.1487 N   0  0  0  0  0  0  0  0  0  0  0  0
   -7.6315   -9.8354    5.0775 C   0  0  0  0  0  0  0  0  0  0  0  0
   -8.7188  -10.1253    5.8604 C   0  0  0  0  0  0  0  0  0  0  0  0
   -8.8865   -9.5243    7.0943 C   0  0  0  0  0  0  0  0  0  0  0  0
   -7.9161   -8.6108    7.5233 C   0  0  0  0  0  0  0  0  0  0  0  0
   -6.8250   -8.3089    6.7573 C   0  0  0  0  0  0  0  0  0  0  0  0
   -6.6798   -8.9205    5.5322 C   0  0  0  0  0  0  0  0  0  0  0  0
   -6.8399   -9.5466    2.7683 C   0  0  0  0  0  0  0  0  0  0  0  0
   -7.4819  -10.4999    3.7549 C   0  0  0  0  0  0  0  0  0  0  0  0
   -8.8285  -10.9002    3.1899 C   0  0  0  0  0  0  0  0  0  0  0  0
   -2.5835   -5.7302    7.0578 C   0  0  0  0  0  0  0  0  0  0  0  0
   -1.7328   -6.5530    6.5408 O   0  0  0  0  0  0  0  0  0  0  0  0
   -2.1025   -4.3931    7.3570 C   0  0  0  0  0  0  0  0  0  0  0  0
   -1.8991   -3.8983    8.6219 C   0  0  0  0  0  0  0  0  0  0  0  0
   -1.4482   -2.6084    8.8943 C   0  0  0  0  0  0  0  0  0  0  0  0
   -1.1851   -1.7629    7.8561 C   0  0  0  0  0  0  0  0  0  0  0  0
   -1.3718   -2.2062    6.5689 C   0  0  0  0  0  0  0  0  0  0  0  0
   -1.8248   -3.5052    6.3229 C   0  0  0  0  0  0  0  0  0  0  0  0
   -2.0214   -3.9719    4.9956 N   0  0  0  0  0  0  0  0  0  0  0  0
   -1.3133   -4.5134    4.4604 H   0  0  0  0  0  0  0  0  0  0  0  0
   -2.9416   -3.7563    4.5242 H   0  0  0  0  0  0  0  0  0  0  0  0
 12 13  1  0  0  0
 13 14  1  0  0  0
 13  6  1  0  0  0
  6  7  2  0  0  0
  7  8  1  0  0  0
  8  9  2  0  0  0
  9 10  1  0  0  0
 10 11  2  0  0  0
 10  1  1  0  0  0
  1  2  1  0  0  0
  2  3  2  0  0  0
  3  4  1  0  0  0
  4  5  2  0  0  0
  3 15  1  0  0  0
 15 16  2  0  0  0
 15 17  1  0  0  0
 17 18  2  0  0  0
 18 19  1  0  0  0
 19 20  2  0  0  0
 20 21  1  0  0  0
 21 22  2  0  0  0
 22 23  1  0  0  0
 11  6  1  0  0  0
  5  1  1  0  0  0
 22 17  1  0  0  0
 23 24  1  0  0  0
 23 25  1  0  0  0
M  END
> <minimizedAffinity>
5.45373

> <CNNscore>
0.4357187450

> <CNNaffinity>
4.9731240273

> <CNN_VS>
2.1668834686

> <CNNaffinity_variance>
0.8083804846

$$$$
[H]c1c([H])c([H])c(N([H])[H])c(C(=O)c2nnn(-c3c([H])c([H])c([H])c(C([H])(C([H])([H])[H])C([H])([H])[H])c3[H])c2[H])c1[H]


 25 27  0  0  0  0  0  0  0  0999 V2000
   -8.7566   -8.6973    7.4512 N   0  0  0  0  0  0  0  0  0  0  0  0
   -8.0355   -7.6782    6.9876 C   0  0  0  0  0  0  0  0  0  0  0  0
   -6.7003   -8.0439    7.0407 C   0  0  0  0  0  0  0  0  0  0  0  0
   -6.7166   -9.2781    7.5414 N   0  0  0  0  0  0  0  0  0  0  0  0
   -7.9469   -9.6777    7.7906 N   0  0  0  0  0  0  0  0  0  0  0  0
  -12.1891   -7.7043    8.4422 C   0  0  0  0  0  0  0  0  0  0  0  0
  -12.9505   -8.7039    7.8943 C   0  0  0  0  0  0  0  0  0  0  0  0
  -12.3644   -9.7349    7.1832 C   0  0  0  0  0  0  0  0  0  0  0  0
  -10.9720   -9.7312    7.0378 C   0  0  0  0  0  0  0  0  0  0  0  0
  -10.1959   -8.7432    7.5764 C   0  0  0  0  0  0  0  0  0  0  0  0
  -10.8024   -7.7271    8.2802 C   0  0  0  0  0  0  0  0  0  0  0  0
  -11.8386   -5.9032   10.0781 C   0  0  0  0  0  0  0  0  0  0  0  0
  -12.8518   -6.6100    9.2017 C   0  0  0  0  0  0  0  0  0  0  0  0
  -13.9362   -7.1538   10.1079 C   0  0  0  0  0  0  0  0  0  0  0  0
   -5.5410   -7.2748    6.6243 C   0  0  0  0  0  0  0  0  0  0  0  0
   -5.7391   -6.3386    5.7568 O   0  0  0  0  0  0  0  0  0  0  0  0
   -4.1780   -7.4572    7.0910 C   0  0  0  0  0  0  0  0  0  0  0  0
   -3.3311   -8.4518    6.6671 C   0  0  0  0  0  0  0  0  0  0  0  0
   -2.0291   -8.6219    7.1329 C   0  0  0  0  0  0  0  0  0  0  0  0
   -1.5401   -7.7592    8.0702 C   0  0  0  0  0  0  0  0  0  0  0  0
   -2.3453   -6.7450    8.5302 C   0  0  0  0  0  0  0  0  0  0  0  0
   -3.6479   -6.5963    8.0463 C   0  0  0  0  0  0  0  0  0  0  0  0
   -4.4877   -5.5513    8.5165 N   0  0  0  0  0  0  0  0  0  0  0  0
   -4.5994   -4.6363    8.0356 H   0  0  0  0  0  0  0  0  0  0  0  0
   -5.0312   -5.7134    9.4074 H   0  0  0  0  0  0  0  0  0  0  0  0
 12 13  1  0  0  0
 13 14  1  0  0  0
 13  6  1  0  0  0
  6  7  2  0  0  0
  7  8  1  0  0  0
  8  9  2  0  0  0
  9 10  1  0  0  0
 10 11  2  0  0  0
 10  1  1  0  0  0
  1  2  1  0  0  0
  2  3  2  0  0  0
  3  4  1  0  0  0
  4  5  2  0  0  0
  3 15  1  0  0  0
 15 16  2  0  0  0
 15 17  1  0  0  0
 17 18  2  0  0  0
 18 19  1  0  0  0
 19 20  2  0  0  0
 20 21  1  0  0  0
 21 22  2  0  0  0
 22 23  1  0  0  0
 11  6  1  0  0  0
  5  1  1  0  0  0
 22 17  1  0  0  0
 23 24  1  0  0  0
 23 25  1  0  0  0
M  END
> <minimizedAffinity>
-7.90621

> <CNNscore>
0.4346093237

> <CNNaffinity>
5.8073592186

> <CNN_VS>
2.5239324570

> <CNNaffinity_variance>
0.2344784439

$$$$
[H]c1c([H])c([H])c(N([H])[H])c(C(=O)c2nnn(-c3c([H])c([H])c([H])c(C([H])(C([H])([H])[H])C([H])([H])[H])c3[H])c2[H])c1[H]


 25 27  0  0  0  0  0  0  0  0999 V2000
   -7.2433   -7.6342    7.4465 N   0  0  0  0  0  0  0  0  0  0  0  0
   -8.4671   -7.3168    7.8647 C   0  0  0  0  0  0  0  0  0  0  0  0
   -9.3019   -8.3867    7.5860 C   0  0  0  0  0  0  0  0  0  0  0  0
   -8.5048   -9.2851    7.0103 N   0  0  0  0  0  0  0  0  0  0  0  0
   -7.2675   -8.8413    6.9227 N   0  0  0  0  0  0  0  0  0  0  0  0
   -4.4120   -5.4953    6.3699 C   0  0  0  0  0  0  0  0  0  0  0  0
   -3.8041   -5.1962    7.5616 C   0  0  0  0  0  0  0  0  0  0  0  0
   -4.3016   -5.6854    8.7554 C   0  0  0  0  0  0  0  0  0  0  0  0
   -5.4430   -6.4951    8.7150 C   0  0  0  0  0  0  0  0  0  0  0  0
   -6.0634   -6.8042    7.5368 C   0  0  0  0  0  0  0  0  0  0  0  0
   -5.5494   -6.3051    6.3610 C   0  0  0  0  0  0  0  0  0  0  0  0
   -2.4468   -5.4817    4.8932 C   0  0  0  0  0  0  0  0  0  0  0  0
   -3.8504   -4.9527    5.1035 C   0  0  0  0  0  0  0  0  0  0  0  0
   -3.7650   -3.4416    5.1478 C   0  0  0  0  0  0  0  0  0  0  0  0
  -10.7191   -8.5193    7.8745 C   0  0  0  0  0  0  0  0  0  0  0  0
  -11.3221   -9.5529    7.3886 O   0  0  0  0  0  0  0  0  0  0  0  0
  -11.5243   -7.6000    8.6589 C   0  0  0  0  0  0  0  0  0  0  0  0
  -11.0414   -6.4840    9.2974 C   0  0  0  0  0  0  0  0  0  0  0  0
  -11.8242   -5.6171   10.0568 C   0  0  0  0  0  0  0  0  0  0  0  0
  -13.1583   -5.8704   10.1909 C   0  0  0  0  0  0  0  0  0  0  0  0
  -13.6946   -6.9745    9.5731 C   0  0  0  0  0  0  0  0  0  0  0  0
  -12.8873   -7.8282    8.8165 C   0  0  0  0  0  0  0  0  0  0  0  0
  -13.4329   -8.9723    8.1748 N   0  0  0  0  0  0  0  0  0  0  0  0
  -13.7425   -8.9881    7.1824 H   0  0  0  0  0  0  0  0  0  0  0  0
  -13.5296   -9.8598    8.7391 H   0  0  0  0  0  0  0  0  0  0  0  0
 12 13  1  0  0  0
 13 14  1  0  0  0
 13  6  1  0  0  0
  6  7  2  0  0  0
  7  8  1  0  0  0
  8  9  2  0  0  0
  9 10  1  0  0  0
 10 11  2  0  0  0
 10  1  1  0  0  0
  1  2  1  0  0  0
  2  3  2  0  0  0
  3  4  1  0  0  0
  4  5  2  0  0  0
  3 15  1  0  0  0
 15 16  2  0  0  0
 15 17  1  0  0  0
 17 18  2  0  0  0
 18 19  1  0  0  0
 19 20  2  0  0  0
 20 21  1  0  0  0
 21 22  2  0  0  0
 22 23  1  0  0  0
 11  6  1  0  0  0
  5  1  1  0  0  0
 22 17  1  0  0  0
 23 24  1  0  0  0
 23 25  1  0  0  0
M  END
> <minimizedAffinity>
-8.06810

> <CNNscore>
0.4322296679

> <CNNaffinity>
5.8757057190

> <CNN_VS>
2.5396542549

> <CNNaffinity_variance>
0.0803324431

$$$$
[H]c1c([H])c([H])c(N([H])[H])c(C(=O)c2nnn(-c3c([H])c([H])c([H])c(C([H])(C([H])([H])[H])C([H])([H])[H])c3[H])c2[H])c1[H]


 25 27  0  0  0  0  0  0  0  0999 V2000
   -7.1654   -8.3664    7.1340 N   0  0  0  0  0  0  0  0  0  0  0  0
   -8.4084   -7.8998    7.0315 C   0  0  0  0  0  0  0  0  0  0  0  0
   -9.2708   -8.8859    7.4821 C   0  0  0  0  0  0  0  0  0  0  0  0
   -8.4689   -9.8914    7.8287 N   0  0  0  0  0  0  0  0  0  0  0  0
   -7.2036   -9.5878    7.6229 N   0  0  0  0  0  0  0  0  0  0  0  0
   -3.5449   -7.6527    6.7693 C   0  0  0  0  0  0  0  0  0  0  0  0
   -3.5507   -6.4402    6.1299 C   0  0  0  0  0  0  0  0  0  0  0  0
   -4.7399   -5.8176    5.7981 C   0  0  0  0  0  0  0  0  0  0  0  0
   -5.9388   -6.4584    6.1329 C   0  0  0  0  0  0  0  0  0  0  0  0
   -5.9536   -7.6676    6.7701 C   0  0  0  0  0  0  0  0  0  0  0  0
   -4.7566   -8.2680    7.0901 C   0  0  0  0  0  0  0  0  0  0  0  0
   -1.2143   -7.2336    7.4291 C   0  0  0  0  0  0  0  0  0  0  0  0
   -2.2474   -8.2949    7.1122 C   0  0  0  0  0  0  0  0  0  0  0  0
   -1.7193   -9.1117    5.9517 C   0  0  0  0  0  0  0  0  0  0  0  0
  -10.7188   -8.8360    7.5821 C   0  0  0  0  0  0  0  0  0  0  0  0
  -11.3888   -9.5791    6.7655 O   0  0  0  0  0  0  0  0  0  0  0  0
  -11.4868   -8.0297    8.5141 C   0  0  0  0  0  0  0  0  0  0  0  0
  -11.2475   -6.7049    8.7862 C   0  0  0  0  0  0  0  0  0  0  0  0
  -11.9856   -5.9467    9.6924 C   0  0  0  0  0  0  0  0  0  0  0  0
  -13.0170   -6.5337   10.3660 C   0  0  0  0  0  0  0  0  0  0  0  0
  -13.3003   -7.8580   10.1325 C   0  0  0  0  0  0  0  0  0  0  0  0
  -12.5444   -8.5963    9.2179 C   0  0  0  0  0  0  0  0  0  0  0  0
  -12.8295   -9.9659    8.9706 N   0  0  0  0  0  0  0  0  0  0  0  0
  -13.4251  -10.3021    8.1875 H   0  0  0  0  0  0  0  0  0  0  0  0
  -12.4116  -10.6858    9.6207 H   0  0  0  0  0  0  0  0  0  0  0  0
 12 13  1  0  0  0
 13 14  1  0  0  0
 13  6  1  0  0  0
  6  7  2  0  0  0
  7  8  1  0  0  0
  8  9  2  0  0  0
  9 10  1  0  0  0
 10 11  2  0  0  0
 10  1  1  0  0  0
  1  2  1  0  0  0
  2  3  2  0  0  0
  3  4  1  0  0  0
  4  5  2  0  0  0
  3 15  1  0  0  0
 15 16  2  0  0  0
 15 17  1  0  0  0
 17 18  2  0  0  0
 18 19  1  0  0  0
 19 20  2  0  0  0
 20 21  1  0  0  0
 21 22  2  0  0  0
 22 23  1  0  0  0
 11  6  1  0  0  0
  5  1  1  0  0  0
 22 17  1  0  0  0
 23 24  1  0  0  0
 23 25  1  0  0  0
M  END
> <minimizedAffinity>
-8.02357

> <CNNscore>
0.4224002659

> <CNNaffinity>
5.7881779671

> <CNN_VS>
2.4449279308

> <CNNaffinity_variance>
0.1430934966

$$$$
[H]c1c([H])c([H])c(N([H])[H])c(C(=O)c2nnn(-c3c([H])c([H])c([H])c(C([H])(C([H])([H])[H])C([H])([H])[H])c3[H])c2[H])c1[H]


 25 27  0  0  0  0  0  0  0  0999 V2000
   -9.6366   -7.2636    7.8836 N   0  0  0  0  0  0  0  0  0  0  0  0
   -8.8255   -6.4800    7.1754 C   0  0  0  0  0  0  0  0  0  0  0  0
   -7.7741   -7.2585    6.7197 C   0  0  0  0  0  0  0  0  0  0  0  0
   -8.0345   -8.4749    7.1958 N   0  0  0  0  0  0  0  0  0  0  0  0
   -9.1506   -8.4866    7.8955 N   0  0  0  0  0  0  0  0  0  0  0  0
  -13.2635   -6.7867    8.4910 C   0  0  0  0  0  0  0  0  0  0  0  0
  -13.2734   -6.1462    9.7029 C   0  0  0  0  0  0  0  0  0  0  0  0
  -12.0932   -5.8498   10.3596 C   0  0  0  0  0  0  0  0  0  0  0  0
  -10.8870   -6.2210    9.7537 C   0  0  0  0  0  0  0  0  0  0  0  0
  -10.8564   -6.8606    8.5460 C   0  0  0  0  0  0  0  0  0  0  0  0
  -12.0448   -7.1451    7.9113 C   0  0  0  0  0  0  0  0  0  0  0  0
  -15.2282   -8.2641    8.4883 C   0  0  0  0  0  0  0  0  0  0  0  0
  -14.5516   -7.0902    7.8112 C   0  0  0  0  0  0  0  0  0  0  0  0
  -14.3280   -7.4681    6.3621 C   0  0  0  0  0  0  0  0  0  0  0  0
   -6.6519   -6.8561    5.8903 C   0  0  0  0  0  0  0  0  0  0  0  0
   -6.9290   -6.2676    4.7744 O   0  0  0  0  0  0  0  0  0  0  0  0
   -5.2459   -7.0517    6.1959 C   0  0  0  0  0  0  0  0  0  0  0  0
   -4.7051   -8.2149    6.6866 C   0  0  0  0  0  0  0  0  0  0  0  0
   -3.3552   -8.3844    6.9868 C   0  0  0  0  0  0  0  0  0  0  0  0
   -2.4945   -7.3440    6.7901 C   0  0  0  0  0  0  0  0  0  0  0  0
   -2.9823   -6.1560    6.3010 C   0  0  0  0  0  0  0  0  0  0  0  0
   -4.3411   -6.0122    6.0077 C   0  0  0  0  0  0  0  0  0  0  0  0
   -4.8544   -4.7877    5.5024 N   0  0  0  0  0  0  0  0  0  0  0  0
   -4.9937   -4.5905    4.4911 H   0  0  0  0  0  0  0  0  0  0  0  0
   -5.1100   -4.0324    6.1951 H   0  0  0  0  0  0  0  0  0  0  0  0
 12 13  1  0  0  0
 13 14  1  0  0  0
 13  6  1  0  0  0
  6  7  2  0  0  0
  7  8  1  0  0  0
  8  9  2  0  0  0
  9 10  1  0  0  0
 10 11  2  0  0  0
 10  1  1  0  0  0
  1  2  1  0  0  0
  2  3  2  0  0  0
  3  4  1  0  0  0
  4  5  2  0  0  0
  3 15  1  0  0  0
 15 16  2  0  0  0
 15 17  1  0  0  0
 17 18  2  0  0  0
 18 19  1  0  0  0
 19 20  2  0  0  0
 20 21  1  0  0  0
 21 22  2  0  0  0
 22 23  1  0  0  0
 11  6  1  0  0  0
  5  1  1  0  0  0
 22 17  1  0  0  0
 23 24  1  0  0  0
 23 25  1  0  0  0
M  END
> <minimizedAffinity>
-8.83017

> <CNNscore>
0.4013984501

> <CNNaffinity>
5.8813614845

> <CNN_VS>
2.3607692719

> <CNNaffinity_variance>
0.3353356123

$$$$
[H]/C(=C1/SC(=O)N(C([H])([H])C(=O)N([H])S(=O)(=O)C([H])([H])[H])C1=O)c1c([H])c([H])c2c(c([H])nn2C([H])([H])c2c([H])c([H])c(Cl)c([H])c2C(F)(F)F)c1[H]


 38 41  0  0  0  0  0  0  0  0999 V2000
   -8.0698   -7.6077    8.2817 C   0  0  0  0  0  0  0  0  0  0  0  0
   -9.3140   -7.1111    8.5942 C   0  0  0  0  0  0  0  0  0  0  0  0
  -10.4585   -7.7639    8.2939 C   0  0  0  0  0  0  0  0  0  0  0  0
  -10.4231   -9.0039    7.6364 C   0  0  0  0  0  0  0  0  0  0  0  0
  -11.3694   -9.8118    7.2057 N   0  0  0  0  0  0  0  0  0  0  0  0
  -10.7459  -10.8442    6.6028 N   0  0  0  0  0  0  0  0  0  0  0  0
   -9.4330  -10.7041    6.6481 C   0  0  0  0  0  0  0  0  0  0  0  0
   -9.1898   -9.5178    7.3137 C   0  0  0  0  0  0  0  0  0  0  0  0
   -8.0446   -8.8254    7.6359 C   0  0  0  0  0  0  0  0  0  0  0  0
   -3.3725   -6.7806    7.4556 N   0  0  0  0  0  0  0  0  0  0  0  0
   -3.6408   -7.8760    6.6023 C   0  0  0  0  0  0  0  0  0  0  0  0
   -2.8856   -8.6516    5.9734 O   0  0  0  0  0  0  0  0  0  0  0  0
   -5.4306   -7.9979    6.5548 S   0  0  0  0  0  0  0  0  0  0  0  0
   -5.7166   -6.9406    7.9690 C   0  0  0  0  0  0  0  0  0  0  0  0
   -6.8625   -6.8672    8.6036 C   0  0  0  0  0  0  0  0  0  0  0  0
   -4.4396   -6.2788    8.1752 C   0  0  0  0  0  0  0  0  0  0  0  0
   -4.3749   -5.2928    8.9922 O   0  0  0  0  0  0  0  0  0  0  0  0
   -2.0000   -6.2472    7.5356 C   0  0  0  0  0  0  0  0  0  0  0  0
   -2.6336   -4.5661    5.7811 N   0  0  0  0  0  0  0  0  0  0  0  0
   -1.9198   -4.9073    6.9506 C   0  0  0  0  0  0  0  0  0  0  0  0
   -1.2063   -4.0443    7.4964 O   0  0  0  0  0  0  0  0  0  0  0  0
   -3.2305   -5.2845    5.3236 H   0  0  0  0  0  0  0  0  0  0  0  0
   -3.2672   -2.9785    3.4582 C   0  0  0  0  0  0  0  0  0  0  0  0
   -2.5441   -3.0037    5.0980 S   0  0  0  0  0  0  0  0  0  0  0  0
   -1.1244   -2.5231    4.9432 O   0  0  0  0  0  0  0  0  0  0  0  0
   -3.3329   -2.0382    5.9210 O   0  0  0  0  0  0  0  0  0  0  0  0
  -12.7871   -9.7993    7.3463 C   0  0  0  0  0  0  0  0  0  0  0  0
  -13.5729   -8.7547    6.7167 C   0  0  0  0  0  0  0  0  0  0  0  0
  -13.8000   -8.8823    5.3119 C   0  0  0  0  0  0  0  0  0  0  0  0
  -14.5282   -7.9873    4.5870 C   0  0  0  0  0  0  0  0  0  0  0  0
  -15.0952   -6.8892    5.1876 C   0  0  0  0  0  0  0  0  0  0  0  0
  -16.0375   -5.7075    4.3139 Cl  0  0  0  0  0  0  0  0  0  0  0  0
  -14.8803   -6.7630    6.5318 C   0  0  0  0  0  0  0  0  0  0  0  0
  -14.1292   -7.6751    7.3083 C   0  0  0  0  0  0  0  0  0  0  0  0
  -14.0063   -7.3797    8.7420 C   0  0  0  0  0  0  0  0  0  0  0  0
  -13.9063   -6.0535    9.0621 F   0  0  0  0  0  0  0  0  0  0  0  0
  -13.2464   -8.2547    9.4659 F   0  0  0  0  0  0  0  0  0  0  0  0
  -15.3201   -7.6575    9.3031 F   0  0  0  0  0  0  0  0  0  0  0  0
 23 24  1  0  0  0
 24 25  2  0  0  0
 24 26  2  0  0  0
 24 19  1  0  0  0
 19 20  1  0  0  0
 20 21  2  0  0  0
 20 18  1  0  0  0
 18 10  1  0  0  0
 10 11  1  0  0  0
 11 12  2  0  0  0
 11 13  1  0  0  0
 13 14  1  0  0  0
 14 15  2  0  0  0
 15  1  1  0  0  0
  1  2  2  0  0  0
  2  3  1  0  0  0
  3  4  2  0  0  0
  4  5  1  0  0  0
  5 27  1  0  0  0
 27 28  1  0  0  0
 28 29  2  0  0  0
 29 30  1  0  0  0
 30 31  2  0  0  0
 31 32  1  0  0  0
 31 33  1  0  0  0
 33 34  2  0  0  0
 34 35  1  0  0  0
 35 36  1  0  0  0
 35 37  1  0  0  0
 35 38  1  0  0  0
  5  6  1  0  0  0
  6  7  2  0  0  0
  7  8  1  0  0  0
  8  9  2  0  0  0
 14 16  1  0  0  0
 16 17  2  0  0  0
 16 10  1  0  0  0
  9  1  1  0  0  0
  8  4  1  0  0  0
 34 28  1  0  0  0
 19 22  1  0  0  0
M  END
> <minimizedAffinity>
-8.63497

> <CNNscore>
0.4110172391

> <CNNaffinity>
7.1555466652

> <CNN_VS>
2.9410531521

> <CNNaffinity_variance>
0.1814143658

$$$$
[H]/C(=C1/SC(=O)N(C([H])([H])C(=O)N([H])S(=O)(=O)C([H])([H])[H])C1=O)c1c([H])c([H])c2c(c([H])nn2C([H])([H])c2c([H])c([H])c(Cl)c([H])c2C(F)(F)F)c1[H]


 38 41  0  0  0  0  0  0  0  0999 V2000
   -8.9635   -8.1469    7.6617 C   0  0  0  0  0  0  0  0  0  0  0  0
   -9.1517   -8.1032    6.2998 C   0  0  0  0  0  0  0  0  0  0  0  0
  -10.3775   -8.0788    5.7313 C   0  0  0  0  0  0  0  0  0  0  0  0
  -11.5348   -8.0967    6.5260 C   0  0  0  0  0  0  0  0  0  0  0  0
  -12.8180   -8.1162    6.2316 N   0  0  0  0  0  0  0  0  0  0  0  0
  -13.4789   -8.1770    7.4053 N   0  0  0  0  0  0  0  0  0  0  0  0
  -12.6414   -8.1930    8.4269 C   0  0  0  0  0  0  0  0  0  0  0  0
  -11.3693   -8.1416    7.8897 C   0  0  0  0  0  0  0  0  0  0  0  0
  -10.1052   -8.1648    8.4341 C   0  0  0  0  0  0  0  0  0  0  0  0
   -4.3290   -6.7608    7.4854 N   0  0  0  0  0  0  0  0  0  0  0  0
   -4.8575   -6.1990    6.3001 C   0  0  0  0  0  0  0  0  0  0  0  0
   -4.3068   -5.6967    5.2942 O   0  0  0  0  0  0  0  0  0  0  0  0
   -6.6381   -6.3322    6.4789 S   0  0  0  0  0  0  0  0  0  0  0  0
   -6.5920   -7.4945    7.8377 C   0  0  0  0  0  0  0  0  0  0  0  0
   -7.6298   -8.1919    8.2350 C   0  0  0  0  0  0  0  0  0  0  0  0
   -5.2155   -7.4387    8.2995 C   0  0  0  0  0  0  0  0  0  0  0  0
   -4.9075   -8.0071    9.4068 O   0  0  0  0  0  0  0  0  0  0  0  0
   -2.8929   -6.6030    7.7812 C   0  0  0  0  0  0  0  0  0  0  0  0
   -2.7907   -9.0916    7.4614 N   0  0  0  0  0  0  0  0  0  0  0  0
   -2.2533   -7.9019    7.9995 C   0  0  0  0  0  0  0  0  0  0  0  0
   -1.2084   -7.9623    8.6749 O   0  0  0  0  0  0  0  0  0  0  0  0
   -3.6628   -9.0439    6.8965 H   0  0  0  0  0  0  0  0  0  0  0  0
   -1.0976  -10.6122    9.2331 C   0  0  0  0  0  0  0  0  0  0  0  0
   -2.0458  -10.6075    7.7121 S   0  0  0  0  0  0  0  0  0  0  0  0
   -1.0824  -10.9651    6.6102 O   0  0  0  0  0  0  0  0  0  0  0  0
   -3.0845  -11.6710    7.8600 O   0  0  0  0  0  0  0  0  0  0  0  0
  -13.5279   -8.0051    5.0013 C   0  0  0  0  0  0  0  0  0  0  0  0
  -14.9762   -8.0903    4.9852 C   0  0  0  0  0  0  0  0  0  0  0  0
  -15.5395   -9.3856    4.7699 C   0  0  0  0  0  0  0  0  0  0  0  0
  -16.8810   -9.6230    4.7410 C   0  0  0  0  0  0  0  0  0  0  0  0
  -17.7817   -8.6013    4.9227 C   0  0  0  0  0  0  0  0  0  0  0  0
  -19.5107   -8.8413    4.8958 Cl  0  0  0  0  0  0  0  0  0  0  0  0
  -17.2470   -7.3601    5.1289 C   0  0  0  0  0  0  0  0  0  0  0  0
  -15.8606   -7.0848    5.1633 C   0  0  0  0  0  0  0  0  0  0  0  0
  -15.4685   -5.6891    5.4002 C   0  0  0  0  0  0  0  0  0  0  0  0
  -16.4660   -4.7650    5.2508 F   0  0  0  0  0  0  0  0  0  0  0  0
  -14.2233   -5.3389    4.9599 F   0  0  0  0  0  0  0  0  0  0  0  0
  -15.2689   -5.5875    6.8382 F   0  0  0  0  0  0  0  0  0  0  0  0
 23 24  1  0  0  0
 24 25  2  0  0  0
 24 26  2  0  0  0
 24 19  1  0  0  0
 19 20  1  0  0  0
 20 21  2  0  0  0
 20 18  1  0  0  0
 18 10  1  0  0  0
 10 11  1  0  0  0
 11 12  2  0  0  0
 11 13  1  0  0  0
 13 14  1  0  0  0
 14 15  2  0  0  0
 15  1  1  0  0  0
  1  2  2  0  0  0
  2  3  1  0  0  0
  3  4  2  0  0  0
  4  5  1  0  0  0
  5 27  1  0  0  0
 27 28  1  0  0  0
 28 29  2  0  0  0
 29 30  1  0  0  0
 30 31  2  0  0  0
 31 32  1  0  0  0
 31 33  1  0  0  0
 33 34  2  0  0  0
 34 35  1  0  0  0
 35 36  1  0  0  0
 35 37  1  0  0  0
 35 38  1  0  0  0
  5  6  1  0  0  0
  6  7  2  0  0  0
  7  8  1  0  0  0
  8  9  2  0  0  0
 14 16  1  0  0  0
 16 17  2  0  0  0
 16 10  1  0  0  0
  9  1  1  0  0  0
  8  4  1  0  0  0
 34 28  1  0  0  0
 19 22  1  0  0  0
M  END
> <minimizedAffinity>
6.94173

> <CNNscore>
0.3939940929

> <CNNaffinity>
6.6995940208

> <CNN_VS>
2.6396005154

> <CNNaffinity_variance>
1.0373743773

$$$$
[H]/C(=C1/SC(=O)N(C([H])([H])C(=O)N([H])S(=O)(=O)C([H])([H])[H])C1=O)c1c([H])c([H])c2c(c([H])nn2C([H])([H])c2c([H])c([H])c(Cl)c([H])c2C(F)(F)F)c1[H]


 38 41  0  0  0  0  0  0  0  0999 V2000
  -11.4944   -6.3512    9.4745 C   0  0  0  0  0  0  0  0  0  0  0  0
  -10.1520   -6.6058    9.6329 C   0  0  0  0  0  0  0  0  0  0  0  0
   -9.4986   -6.3882   10.7956 C   0  0  0  0  0  0  0  0  0  0  0  0
  -10.1792   -5.8825   11.9146 C   0  0  0  0  0  0  0  0  0  0  0  0
   -9.7819   -5.5533   13.1260 N   0  0  0  0  0  0  0  0  0  0  0  0
  -10.8671   -5.0757   13.7680 N   0  0  0  0  0  0  0  0  0  0  0  0
  -11.9343   -5.1005   12.9897 C   0  0  0  0  0  0  0  0  0  0  0  0
  -11.5214   -5.6199   11.7776 C   0  0  0  0  0  0  0  0  0  0  0  0
  -12.1546   -5.8545   10.5781 C   0  0  0  0  0  0  0  0  0  0  0  0
  -15.2382   -8.2035    7.0281 N   0  0  0  0  0  0  0  0  0  0  0  0
  -15.4974   -8.6357    8.3494 C   0  0  0  0  0  0  0  0  0  0  0  0
  -16.2956   -9.4823    8.8117 O   0  0  0  0  0  0  0  0  0  0  0  0
  -14.3807   -7.6779    9.3770 S   0  0  0  0  0  0  0  0  0  0  0  0
  -13.3431   -7.1159    8.0328 C   0  0  0  0  0  0  0  0  0  0  0  0
  -12.1578   -6.5797    8.2027 C   0  0  0  0  0  0  0  0  0  0  0  0
  -14.1219   -7.4112    6.8422 C   0  0  0  0  0  0  0  0  0  0  0  0
  -13.7403   -6.9338    5.7151 O   0  0  0  0  0  0  0  0  0  0  0  0
  -16.1472   -8.6154    5.9424 C   0  0  0  0  0  0  0  0  0  0  0  0
  -16.6095   -6.1735    5.5836 N   0  0  0  0  0  0  0  0  0  0  0  0
  -16.4791   -7.4839    5.0744 C   0  0  0  0  0  0  0  0  0  0  0  0
  -16.6499   -7.6785    3.8559 O   0  0  0  0  0  0  0  0  0  0  0  0
  -16.4669   -6.0081    6.6005 H   0  0  0  0  0  0  0  0  0  0  0  0
  -15.5841   -3.7621    4.3787 C   0  0  0  0  0  0  0  0  0  0  0  0
  -16.9940   -4.8515    4.5735 S   0  0  0  0  0  0  0  0  0  0  0  0
  -18.1098   -4.0061    5.1308 O   0  0  0  0  0  0  0  0  0  0  0  0
  -17.3434   -5.3368    3.2045 O   0  0  0  0  0  0  0  0  0  0  0  0
   -8.5378   -5.6952   13.8056 C   0  0  0  0  0  0  0  0  0  0  0  0
   -7.8378   -4.5232   14.2970 C   0  0  0  0  0  0  0  0  0  0  0  0
   -8.6467   -3.4533   14.7894 C   0  0  0  0  0  0  0  0  0  0  0  0
   -8.1321   -2.2964   15.2930 C   0  0  0  0  0  0  0  0  0  0  0  0
   -6.7740   -2.0969   15.3540 C   0  0  0  0  0  0  0  0  0  0  0  0
   -6.0543   -0.6377   15.9869 Cl  0  0  0  0  0  0  0  0  0  0  0  0
   -5.9961   -3.1181   14.8838 C   0  0  0  0  0  0  0  0  0  0  0  0
   -6.5023   -4.3280   14.3558 C   0  0  0  0  0  0  0  0  0  0  0  0
   -5.5152   -5.3156   13.8997 C   0  0  0  0  0  0  0  0  0  0  0  0
   -5.6322   -5.7031   12.5930 F   0  0  0  0  0  0  0  0  0  0  0  0
   -5.1753   -6.2788   14.8074 F   0  0  0  0  0  0  0  0  0  0  0  0
   -4.2575   -4.5881   13.8164 F   0  0  0  0  0  0  0  0  0  0  0  0
 23 24  1  0  0  0
 24 25  2  0  0  0
 24 26  2  0  0  0
 24 19  1  0  0  0
 19 20  1  0  0  0
 20 21  2  0  0  0
 20 18  1  0  0  0
 18 10  1  0  0  0
 10 11  1  0  0  0
 11 12  2  0  0  0
 11 13  1  0  0  0
 13 14  1  0  0  0
 14 15  2  0  0  0
 15  1  1  0  0  0
  1  2  2  0  0  0
  2  3  1  0  0  0
  3  4  2  0  0  0
  4  5  1  0  0  0
  5 27  1  0  0  0
 27 28  1  0  0  0
 28 29  2  0  0  0
 29 30  1  0  0  0
 30 31  2  0  0  0
 31 32  1  0  0  0
 31 33  1  0  0  0
 33 34  2  0  0  0
 34 35  1  0  0  0
 35 36  1  0  0  0
 35 37  1  0  0  0
 35 38  1  0  0  0
  5  6  1  0  0  0
  6  7  2  0  0  0
  7  8  1  0  0  0
  8  9  2  0  0  0
 14 16  1  0  0  0
 16 17  2  0  0  0
 16 10  1  0  0  0
  9  1  1  0  0  0
  8  4  1  0  0  0
 34 28  1  0  0  0
 19 22  1  0  0  0
M  END
> <minimizedAffinity>
6.27733

> <CNNscore>
0.3632585406

> <CNNaffinity>
6.5942893028

> <CNN_VS>
2.3954319954

> <CNNaffinity_variance>
0.7748786211

$$$$
[H]/C(=C1/SC(=O)N(C([H])([H])C(=O)N([H])S(=O)(=O)C([H])([H])[H])C1=O)c1c([H])c([H])c2c(c([H])nn2C([H])([H])c2c([H])c([H])c(Cl)c([H])c2C(F)(F)F)c1[H]


 38 41  0  0  0  0  0  0  0  0999 V2000
   -7.1834   -7.1491    6.4329 C   0  0  0  0  0  0  0  0  0  0  0  0
   -8.2609   -6.4699    6.9523 C   0  0  0  0  0  0  0  0  0  0  0  0
   -9.3716   -7.0947    7.4018 C   0  0  0  0  0  0  0  0  0  0  0  0
   -9.4728   -8.4943    7.3563 C   0  0  0  0  0  0  0  0  0  0  0  0
  -10.4351   -9.3297    7.6877 N   0  0  0  0  0  0  0  0  0  0  0  0
   -9.9911  -10.5655    7.3815 N   0  0  0  0  0  0  0  0  0  0  0  0
   -8.7739  -10.5246    6.8696 C   0  0  0  0  0  0  0  0  0  0  0  0
   -8.4075   -9.1926    6.8397 C   0  0  0  0  0  0  0  0  0  0  0  0
   -7.2915   -8.5228    6.3917 C   0  0  0  0  0  0  0  0  0  0  0  0
   -3.1452   -4.6558    7.3863 N   0  0  0  0  0  0  0  0  0  0  0  0
   -3.6961   -4.8427    8.6752 C   0  0  0  0  0  0  0  0  0  0  0  0
   -3.4309   -4.3217    9.7823 O   0  0  0  0  0  0  0  0  0  0  0  0
   -4.9780   -6.0791    8.4557 S   0  0  0  0  0  0  0  0  0  0  0  0
   -5.0398   -5.9540    6.6725 C   0  0  0  0  0  0  0  0  0  0  0  0
   -6.0144   -6.4408    5.9415 C   0  0  0  0  0  0  0  0  0  0  0  0
   -3.8292   -5.2268    6.3305 C   0  0  0  0  0  0  0  0  0  0  0  0
   -3.4725   -5.1561    5.1010 O   0  0  0  0  0  0  0  0  0  0  0  0
   -1.9027   -3.8755    7.2384 C   0  0  0  0  0  0  0  0  0  0  0  0
   -3.4395   -1.9588    6.7186 N   0  0  0  0  0  0  0  0  0  0  0  0
   -2.1868   -2.4415    7.1563 C   0  0  0  0  0  0  0  0  0  0  0  0
   -1.3044   -1.6245    7.4810 O   0  0  0  0  0  0  0  0  0  0  0  0
   -4.1783   -2.6388    6.4474 H   0  0  0  0  0  0  0  0  0  0  0  0
   -2.7883    0.4935    5.3474 C   0  0  0  0  0  0  0  0  0  0  0  0
   -3.7747   -0.2872    6.6242 S   0  0  0  0  0  0  0  0  0  0  0  0
   -3.4585    0.4371    7.9071 O   0  0  0  0  0  0  0  0  0  0  0  0
   -5.2032   -0.0714    6.2438 O   0  0  0  0  0  0  0  0  0  0  0  0
  -11.6936   -9.1466    8.3299 C   0  0  0  0  0  0  0  0  0  0  0  0
  -12.7116   -8.3155    7.7151 C   0  0  0  0  0  0  0  0  0  0  0  0
  -13.2390   -8.7667    6.4662 C   0  0  0  0  0  0  0  0  0  0  0  0
  -14.2068   -8.0992    5.7774 C   0  0  0  0  0  0  0  0  0  0  0  0
  -14.7373   -6.9285    6.2631 C   0  0  0  0  0  0  0  0  0  0  0  0
  -15.9776   -6.0274    5.4278 Cl  0  0  0  0  0  0  0  0  0  0  0  0
  -14.2355   -6.4929    7.4579 C   0  0  0  0  0  0  0  0  0  0  0  0
  -13.2319   -7.1642    8.1934 C   0  0  0  0  0  0  0  0  0  0  0  0
  -12.8169   -6.5491    9.4612 C   0  0  0  0  0  0  0  0  0  0  0  0
  -11.6051   -5.9148    9.4376 F   0  0  0  0  0  0  0  0  0  0  0  0
  -13.1327   -7.2479   10.5921 F   0  0  0  0  0  0  0  0  0  0  0  0
  -13.6836   -5.3916    9.6258 F   0  0  0  0  0  0  0  0  0  0  0  0
 23 24  1  0  0  0
 24 25  2  0  0  0
 24 26  2  0  0  0
 24 19  1  0  0  0
 19 20  1  0  0  0
 20 21  2  0  0  0
 20 18  1  0  0  0
 18 10  1  0  0  0
 10 11  1  0  0  0
 11 12  2  0  0  0
 11 13  1  0  0  0
 13 14  1  0  0  0
 14 15  2  0  0  0
 15  1  1  0  0  0
  1  2  2  0  0  0
  2  3  1  0  0  0
  3  4  2  0  0  0
  4  5  1  0  0  0
  5 27  1  0  0  0
 27 28  1  0  0  0
 28 29  2  0  0  0
 29 30  1  0  0  0
 30 31  2  0  0  0
 31 32  1  0  0  0
 31 33  1  0  0  0
 33 34  2  0  0  0
 34 35  1  0  0  0
 35 36  1  0  0  0
 35 37  1  0  0  0
 35 38  1  0  0  0
  5  6  1  0  0  0
  6  7  2  0  0  0
  7  8  1  0  0  0
  8  9  2  0  0  0
 14 16  1  0  0  0
 16 17  2  0  0  0
 16 10  1  0  0  0
  9  1  1  0  0  0
  8  4  1  0  0  0
 34 28  1  0  0  0
 19 22  1  0  0  0
M  END
> <minimizedAffinity>
-9.06265

> <CNNscore>
0.3586746454

> <CNNaffinity>
6.9795289040

> <CNN_VS>
2.5033800602

> <CNNaffinity_variance>
0.1736250073

$$$$
[H]/C(=C1/SC(=O)N(C([H])([H])C(=O)N([H])S(=O)(=O)C([H])([H])[H])C1=O)c1c([H])c([H])c2c(c([H])nn2C([H])([H])c2c([H])c([H])c(Cl)c([H])c2C(F)(F)F)c1[H]


 38 41  0  0  0  0  0  0  0  0999 V2000
  -14.4730   -8.1047    3.4584 C   0  0  0  0  0  0  0  0  0  0  0  0
  -15.1157   -6.9614    3.8731 C   0  0  0  0  0  0  0  0  0  0  0  0
  -14.9269   -6.4192    5.0964 C   0  0  0  0  0  0  0  0  0  0  0  0
  -14.0465   -7.0140    6.0142 C   0  0  0  0  0  0  0  0  0  0  0  0
  -13.7165   -6.7170    7.2538 N   0  0  0  0  0  0  0  0  0  0  0  0
  -12.8550   -7.6715    7.6595 N   0  0  0  0  0  0  0  0  0  0  0  0
  -12.6351   -8.5568    6.7038 C   0  0  0  0  0  0  0  0  0  0  0  0
  -13.3946   -8.1582    5.6204 C   0  0  0  0  0  0  0  0  0  0  0  0
  -13.6109   -8.6822    4.3659 C   0  0  0  0  0  0  0  0  0  0  0  0
  -12.9372  -10.8451   -0.2244 N   0  0  0  0  0  0  0  0  0  0  0  0
  -11.8165  -10.8429    0.6381 C   0  0  0  0  0  0  0  0  0  0  0  0
  -10.6278  -11.1963    0.4667 O   0  0  0  0  0  0  0  0  0  0  0  0
  -12.4283  -10.1807    2.1897 S   0  0  0  0  0  0  0  0  0  0  0  0
  -13.9519   -9.5304    1.5151 C   0  0  0  0  0  0  0  0  0  0  0  0
  -14.7168   -8.6686    2.1423 C   0  0  0  0  0  0  0  0  0  0  0  0
  -14.0588  -10.1680    0.2138 C   0  0  0  0  0  0  0  0  0  0  0  0
  -15.1579  -10.0692   -0.4388 O   0  0  0  0  0  0  0  0  0  0  0  0
  -12.8511  -11.5479   -1.5180 C   0  0  0  0  0  0  0  0  0  0  0  0
  -11.4246  -13.5167   -0.8901 N   0  0  0  0  0  0  0  0  0  0  0  0
  -12.6588  -12.9865   -1.3251 C   0  0  0  0  0  0  0  0  0  0  0  0
  -13.6057  -13.7646   -1.5480 O   0  0  0  0  0  0  0  0  0  0  0  0
  -10.6324  -12.8692   -0.7026 H   0  0  0  0  0  0  0  0  0  0  0  0
  -10.4228  -15.5264    0.9198 C   0  0  0  0  0  0  0  0  0  0  0  0
  -11.1979  -15.1937   -0.6617 S   0  0  0  0  0  0  0  0  0  0  0  0
  -10.3023  -15.8019   -1.7097 O   0  0  0  0  0  0  0  0  0  0  0  0
  -12.5188  -15.8911   -0.6384 O   0  0  0  0  0  0  0  0  0  0  0  0
  -14.0315   -5.6139    8.0986 C   0  0  0  0  0  0  0  0  0  0  0  0
  -13.5638   -5.5906    9.4718 C   0  0  0  0  0  0  0  0  0  0  0  0
  -13.6701   -6.8119   10.2057 C   0  0  0  0  0  0  0  0  0  0  0  0
  -13.2616   -6.9462   11.4987 C   0  0  0  0  0  0  0  0  0  0  0  0
  -12.7125   -5.8857   12.1781 C   0  0  0  0  0  0  0  0  0  0  0  0
  -12.1714   -5.9943   13.8344 Cl  0  0  0  0  0  0  0  0  0  0  0  0
  -12.6089   -4.7149   11.4798 C   0  0  0  0  0  0  0  0  0  0  0  0
  -13.0247   -4.5469   10.1389 C   0  0  0  0  0  0  0  0  0  0  0  0
  -12.8329   -3.2157    9.5482 C   0  0  0  0  0  0  0  0  0  0  0  0
  -13.8829   -2.7441    8.8090 F   0  0  0  0  0  0  0  0  0  0  0  0
  -11.5752   -2.9458    9.0874 F   0  0  0  0  0  0  0  0  0  0  0  0
  -12.8994   -2.2880   10.6675 F   0  0  0  0  0  0  0  0  0  0  0  0
 23 24  1  0  0  0
 24 25  2  0  0  0
 24 26  2  0  0  0
 24 19  1  0  0  0
 19 20  1  0  0  0
 20 21  2  0  0  0
 20 18  1  0  0  0
 18 10  1  0  0  0
 10 11  1  0  0  0
 11 12  2  0  0  0
 11 13  1  0  0  0
 13 14  1  0  0  0
 14 15  2  0  0  0
 15  1  1  0  0  0
  1  2  2  0  0  0
  2  3  1  0  0  0
  3  4  2  0  0  0
  4  5  1  0  0  0
  5 27  1  0  0  0
 27 28  1  0  0  0
 28 29  2  0  0  0
 29 30  1  0  0  0
 30 31  2  0  0  0
 31 32  1  0  0  0
 31 33  1  0  0  0
 33 34  2  0  0  0
 34 35  1  0  0  0
 35 36  1  0  0  0
 35 37  1  0  0  0
 35 38  1  0  0  0
  5  6  1  0  0  0
  6  7  2  0  0  0
  7  8  1  0  0  0
  8  9  2  0  0  0
 14 16  1  0  0  0
 16 17  2  0  0  0
 16 10  1  0  0  0
  9  1  1  0  0  0
  8  4  1  0  0  0
 34 28  1  0  0  0
 19 22  1  0  0  0
M  END
> <minimizedAffinity>
71.18325

> <CNNscore>
0.3126291037

> <CNNaffinity>
5.9012756348

> <CNN_VS>
1.8449105024

> <CNNaffinity_variance>
0.5109404325

$$$$
[H]/C(=C1/SC(=O)N(C([H])([H])C(=O)N([H])S(=O)(=O)C([H])([H])[H])C1=O)c1c([H])c([H])c2c(c([H])nn2C([H])([H])c2c([H])c([H])c(Cl)c([H])c2C(F)(F)F)c1[H]


 38 41  0  0  0  0  0  0  0  0999 V2000
  -10.1094   -9.6341    6.4553 C   0  0  0  0  0  0  0  0  0  0  0  0
  -10.2344  -10.7977    5.7323 C   0  0  0  0  0  0  0  0  0  0  0  0
   -9.3016  -11.2121    4.8467 C   0  0  0  0  0  0  0  0  0  0  0  0
   -8.1405  -10.4549    4.6241 C   0  0  0  0  0  0  0  0  0  0  0  0
   -7.1173  -10.6104    3.8101 N   0  0  0  0  0  0  0  0  0  0  0  0
   -6.3158   -9.5419    3.9946 N   0  0  0  0  0  0  0  0  0  0  0  0
   -6.8103   -8.7232    4.9059 C   0  0  0  0  0  0  0  0  0  0  0  0
   -7.9962   -9.2876    5.3354 C   0  0  0  0  0  0  0  0  0  0  0  0
   -8.9666   -8.8967    6.2300 C   0  0  0  0  0  0  0  0  0  0  0  0
  -14.7501   -8.5188    7.2624 N   0  0  0  0  0  0  0  0  0  0  0  0
  -14.7298   -8.7332    5.8648 C   0  0  0  0  0  0  0  0  0  0  0  0
  -15.5619   -8.4736    4.9661 O   0  0  0  0  0  0  0  0  0  0  0  0
  -13.1510   -9.5221    5.5406 S   0  0  0  0  0  0  0  0  0  0  0  0
  -12.4268   -9.1250    7.1272 C   0  0  0  0  0  0  0  0  0  0  0  0
  -11.1431   -9.2117    7.3841 C   0  0  0  0  0  0  0  0  0  0  0  0
  -13.5617   -8.7179    7.9380 C   0  0  0  0  0  0  0  0  0  0  0  0
  -13.4020   -8.5690    9.2014 O   0  0  0  0  0  0  0  0  0  0  0  0
  -16.0066   -8.0985    7.9101 C   0  0  0  0  0  0  0  0  0  0  0  0
  -16.3581   -6.4184    6.0772 N   0  0  0  0  0  0  0  0  0  0  0  0
  -16.8721   -7.3847    6.9692 C   0  0  0  0  0  0  0  0  0  0  0  0
  -18.0923   -7.6347    6.9517 O   0  0  0  0  0  0  0  0  0  0  0  0
  -15.3395   -6.2082    6.0894 H   0  0  0  0  0  0  0  0  0  0  0  0
  -18.4845   -6.7162    4.1517 C   0  0  0  0  0  0  0  0  0  0  0  0
  -17.3644   -5.5862    4.9771 S   0  0  0  0  0  0  0  0  0  0  0  0
  -16.5822   -4.8946    3.8907 O   0  0  0  0  0  0  0  0  0  0  0  0
  -18.2202   -4.6035    5.7075 O   0  0  0  0  0  0  0  0  0  0  0  0
   -6.7347  -11.6642    2.9310 C   0  0  0  0  0  0  0  0  0  0  0  0
   -7.7424  -12.3876    2.1784 C   0  0  0  0  0  0  0  0  0  0  0  0
   -8.4358  -11.6545    1.1669 C   0  0  0  0  0  0  0  0  0  0  0  0
   -9.3981  -12.2020    0.3725 C   0  0  0  0  0  0  0  0  0  0  0  0
   -9.7581  -13.5210    0.5086 C   0  0  0  0  0  0  0  0  0  0  0  0
  -10.9830  -14.2794   -0.4774 Cl  0  0  0  0  0  0  0  0  0  0  0  0
   -9.0972  -14.2263    1.4754 C   0  0  0  0  0  0  0  0  0  0  0  0
   -8.0958  -13.6844    2.3137 C   0  0  0  0  0  0  0  0  0  0  0  0
   -7.4913  -14.5940    3.2961 C   0  0  0  0  0  0  0  0  0  0  0  0
   -6.7999  -13.9887    4.3096 F   0  0  0  0  0  0  0  0  0  0  0  0
   -6.9712  -15.7525    2.7919 F   0  0  0  0  0  0  0  0  0  0  0  0
   -8.6087  -15.1272    4.0611 F   0  0  0  0  0  0  0  0  0  0  0  0
 23 24  1  0  0  0
 24 25  2  0  0  0
 24 26  2  0  0  0
 24 19  1  0  0  0
 19 20  1  0  0  0
 20 21  2  0  0  0
 20 18  1  0  0  0
 18 10  1  0  0  0
 10 11  1  0  0  0
 11 12  2  0  0  0
 11 13  1  0  0  0
 13 14  1  0  0  0
 14 15  2  0  0  0
 15  1  1  0  0  0
  1  2  2  0  0  0
  2  3  1  0  0  0
  3  4  2  0  0  0
  4  5  1  0  0  0
  5 27  1  0  0  0
 27 28  1  0  0  0
 28 29  2  0  0  0
 29 30  1  0  0  0
 30 31  2  0  0  0
 31 32  1  0  0  0
 31 33  1  0  0  0
 33 34  2  0  0  0
 34 35  1  0  0  0
 35 36  1  0  0  0
 35 37  1  0  0  0
 35 38  1  0  0  0
  5  6  1  0  0  0
  6  7  2  0  0  0
  7  8  1  0  0  0
  8  9  2  0  0  0
 14 16  1  0  0  0
 16 17  2  0  0  0
 16 10  1  0  0  0
  9  1  1  0  0  0
  8  4  1  0  0  0
 34 28  1  0  0  0
 19 22  1  0  0  0
M  END
> <minimizedAffinity>
19.47859

> <CNNscore>
0.3011184037

> <CNNaffinity>
6.5394721031

> <CNN_VS>
1.9691554308

> <CNNaffinity_variance>
0.5803959370

$$$$
[H]/C(=C1/SC(=O)N(C([H])([H])C(=O)N([H])S(=O)(=O)C([H])([H])[H])C1=O)c1c([H])c([H])c2c(c([H])nn2C([H])([H])c2c([H])c([H])c(Cl)c([H])c2C(F)(F)F)c1[H]


 38 41  0  0  0  0  0  0  0  0999 V2000
  -11.8845   -7.9139    7.3162 C   0  0  0  0  0  0  0  0  0  0  0  0
  -10.9377   -7.0927    6.7493 C   0  0  0  0  0  0  0  0  0  0  0  0
   -9.6383   -7.4453    6.6342 C   0  0  0  0  0  0  0  0  0  0  0  0
   -9.1919   -8.6929    7.0985 C   0  0  0  0  0  0  0  0  0  0  0  0
   -8.0020   -9.2549    7.1400 N   0  0  0  0  0  0  0  0  0  0  0  0
   -8.1645  -10.4511    7.7408 N   0  0  0  0  0  0  0  0  0  0  0  0
   -9.4270  -10.6529    8.0736 C   0  0  0  0  0  0  0  0  0  0  0  0
  -10.1217   -9.5287    7.6698 C   0  0  0  0  0  0  0  0  0  0  0  0
  -11.4374   -9.1366    7.7697 C   0  0  0  0  0  0  0  0  0  0  0  0
  -16.3744   -7.8510    5.5086 N   0  0  0  0  0  0  0  0  0  0  0  0
  -15.6476   -8.5077    4.4887 C   0  0  0  0  0  0  0  0  0  0  0  0
  -15.9377   -8.7919    3.3044 O   0  0  0  0  0  0  0  0  0  0  0  0
  -14.0681   -8.9164    5.2360 S   0  0  0  0  0  0  0  0  0  0  0  0
  -14.2571   -7.8358    6.6488 C   0  0  0  0  0  0  0  0  0  0  0  0
  -13.2686   -7.4916    7.4399 C   0  0  0  0  0  0  0  0  0  0  0  0
  -15.6691   -7.4934    6.6413 C   0  0  0  0  0  0  0  0  0  0  0  0
  -16.1691   -6.8937    7.6582 O   0  0  0  0  0  0  0  0  0  0  0  0
  -17.8114   -7.5831    5.3130 C   0  0  0  0  0  0  0  0  0  0  0  0
  -19.3490   -5.6491    4.8650 N   0  0  0  0  0  0  0  0  0  0  0  0
  -18.0445   -6.1787    4.9707 C   0  0  0  0  0  0  0  0  0  0  0  0
  -17.0700   -5.4296    4.7684 O   0  0  0  0  0  0  0  0  0  0  0  0
  -20.1645   -6.2723    5.0339 H   0  0  0  0  0  0  0  0  0  0  0  0
  -19.1829   -3.6815    2.7628 C   0  0  0  0  0  0  0  0  0  0  0  0
  -19.6240   -4.0111    4.4685 S   0  0  0  0  0  0  0  0  0  0  0  0
  -18.8018   -3.0691    5.3092 O   0  0  0  0  0  0  0  0  0  0  0  0
  -21.0772   -3.6894    4.5974 O   0  0  0  0  0  0  0  0  0  0  0  0
   -6.7326   -8.8666    6.6227 C   0  0  0  0  0  0  0  0  0  0  0  0
   -6.1807   -7.5645    6.9469 C   0  0  0  0  0  0  0  0  0  0  0  0
   -5.5372   -6.8587    5.8842 C   0  0  0  0  0  0  0  0  0  0  0  0
   -4.9834   -5.6228    6.0341 C   0  0  0  0  0  0  0  0  0  0  0  0
   -5.0179   -4.9773    7.2466 C   0  0  0  0  0  0  0  0  0  0  0  0
   -4.3261   -3.3949    7.5020 Cl  0  0  0  0  0  0  0  0  0  0  0  0
   -5.6326   -5.6490    8.2664 C   0  0  0  0  0  0  0  0  0  0  0  0
   -6.2147   -6.9313    8.1397 C   0  0  0  0  0  0  0  0  0  0  0  0
   -6.8353   -7.4985    9.3442 C   0  0  0  0  0  0  0  0  0  0  0  0
   -6.2244   -7.1794   10.5259 F   0  0  0  0  0  0  0  0  0  0  0  0
   -7.3251   -8.7679    9.2187 F   0  0  0  0  0  0  0  0  0  0  0  0
   -8.0781   -6.7612    9.5168 F   0  0  0  0  0  0  0  0  0  0  0  0
 23 24  1  0  0  0
 24 25  2  0  0  0
 24 26  2  0  0  0
 24 19  1  0  0  0
 19 20  1  0  0  0
 20 21  2  0  0  0
 20 18  1  0  0  0
 18 10  1  0  0  0
 10 11  1  0  0  0
 11 12  2  0  0  0
 11 13  1  0  0  0
 13 14  1  0  0  0
 14 15  2  0  0  0
 15  1  1  0  0  0
  1  2  2  0  0  0
  2  3  1  0  0  0
  3  4  2  0  0  0
  4  5  1  0  0  0
  5 27  1  0  0  0
 27 28  1  0  0  0
 28 29  2  0  0  0
 29 30  1  0  0  0
 30 31  2  0  0  0
 31 32  1  0  0  0
 31 33  1  0  0  0
 33 34  2  0  0  0
 34 35  1  0  0  0
 35 36  1  0  0  0
 35 37  1  0  0  0
 35 38  1  0  0  0
  5  6  1  0  0  0
  6  7  2  0  0  0
  7  8  1  0  0  0
  8  9  2  0  0  0
 14 16  1  0  0  0
 16 17  2  0  0  0
 16 10  1  0  0  0
  9  1  1  0  0  0
  8  4  1  0  0  0
 34 28  1  0  0  0
 19 22  1  0  0  0
M  END
> <minimizedAffinity>
9.82431

> <CNNscore>
0.2954267561

> <CNNaffinity>
6.7635164261

> <CNN_VS>
1.9981237650

> <CNNaffinity_variance>
1.1923925877

$$$$
[H]/C(=C1/SC(=O)N(C([H])([H])C(=O)N([H])S(=O)(=O)C([H])([H])[H])C1=O)c1c([H])c([H])c2c(c([H])nn2C([H])([H])c2c([H])c([H])c(Cl)c([H])c2C(F)(F)F)c1[H]


 38 41  0  0  0  0  0  0  0  0999 V2000
   -9.5318  -10.0543    6.2379 C   0  0  0  0  0  0  0  0  0  0  0  0
   -9.8215  -11.0980    5.3899 C   0  0  0  0  0  0  0  0  0  0  0  0
   -9.0886  -11.3696    4.2876 C   0  0  0  0  0  0  0  0  0  0  0  0
   -7.9760  -10.5801    3.9560 C   0  0  0  0  0  0  0  0  0  0  0  0
   -7.1346  -10.6058    2.9436 N   0  0  0  0  0  0  0  0  0  0  0  0
   -6.2884   -9.5716    3.1230 N   0  0  0  0  0  0  0  0  0  0  0  0
   -6.5773   -8.9010    4.2240 C   0  0  0  0  0  0  0  0  0  0  0  0
   -7.6695   -9.5309    4.7894 C   0  0  0  0  0  0  0  0  0  0  0  0
   -8.4382   -9.2841    5.9044 C   0  0  0  0  0  0  0  0  0  0  0  0
  -13.8141   -8.7338    8.0681 N   0  0  0  0  0  0  0  0  0  0  0  0
  -14.0228   -8.5892    6.6769 C   0  0  0  0  0  0  0  0  0  0  0  0
  -14.9313   -8.0315    6.0204 O   0  0  0  0  0  0  0  0  0  0  0  0
  -12.6287   -9.4202    5.9111 S   0  0  0  0  0  0  0  0  0  0  0  0
  -11.6383   -9.5089    7.3979 C   0  0  0  0  0  0  0  0  0  0  0  0
  -10.3551   -9.7818    7.4030 C   0  0  0  0  0  0  0  0  0  0  0  0
  -12.5798   -9.2115    8.4639 C   0  0  0  0  0  0  0  0  0  0  0  0
  -12.2227   -9.4027    9.6804 O   0  0  0  0  0  0  0  0  0  0  0  0
  -14.8961   -8.3708    9.0020 C   0  0  0  0  0  0  0  0  0  0  0  0
  -13.5829   -6.3306    9.6493 N   0  0  0  0  0  0  0  0  0  0  0  0
  -14.4307   -7.4043    9.9986 C   0  0  0  0  0  0  0  0  0  0  0  0
  -14.7908   -7.5288   11.1846 O   0  0  0  0  0  0  0  0  0  0  0  0
  -13.2812   -6.2240    8.6596 H   0  0  0  0  0  0  0  0  0  0  0  0
  -11.6876   -5.8715   11.7742 C   0  0  0  0  0  0  0  0  0  0  0  0
  -13.0406   -5.2005   10.8088 S   0  0  0  0  0  0  0  0  0  0  0  0
  -14.1175   -4.8227   11.7926 O   0  0  0  0  0  0  0  0  0  0  0  0
  -12.5082   -3.9822   10.1275 O   0  0  0  0  0  0  0  0  0  0  0  0
   -6.9545  -11.5144    1.8610 C   0  0  0  0  0  0  0  0  0  0  0  0
   -8.0671  -12.3190    1.3920 C   0  0  0  0  0  0  0  0  0  0  0  0
   -9.0000  -11.6767    0.5209 C   0  0  0  0  0  0  0  0  0  0  0  0
  -10.0859  -12.3069   -0.0086 C   0  0  0  0  0  0  0  0  0  0  0  0
  -10.3437  -13.6261    0.2765 C   0  0  0  0  0  0  0  0  0  0  0  0
  -11.7175  -14.4881   -0.3696 Cl  0  0  0  0  0  0  0  0  0  0  0  0
   -9.4536  -14.2446    1.1097 C   0  0  0  0  0  0  0  0  0  0  0  0
   -8.3198  -13.6158    1.6735 C   0  0  0  0  0  0  0  0  0  0  0  0
   -7.4715  -14.4389    2.5457 C   0  0  0  0  0  0  0  0  0  0  0  0
   -6.8331  -13.7649    3.5505 F   0  0  0  0  0  0  0  0  0  0  0  0
   -6.7764  -15.4391    1.9265 F   0  0  0  0  0  0  0  0  0  0  0  0
   -8.3973  -15.2280    3.3447 F   0  0  0  0  0  0  0  0  0  0  0  0
 23 24  1  0  0  0
 24 25  2  0  0  0
 24 26  2  0  0  0
 24 19  1  0  0  0
 19 20  1  0  0  0
 20 21  2  0  0  0
 20 18  1  0  0  0
 18 10  1  0  0  0
 10 11  1  0  0  0
 11 12  2  0  0  0
 11 13  1  0  0  0
 13 14  1  0  0  0
 14 15  2  0  0  0
 15  1  1  0  0  0
  1  2  2  0  0  0
  2  3  1  0  0  0
  3  4  2  0  0  0
  4  5  1  0  0  0
  5 27  1  0  0  0
 27 28  1  0  0  0
 28 29  2  0  0  0
 29 30  1  0  0  0
 30 31  2  0  0  0
 31 32  1  0  0  0
 31 33  1  0  0  0
 33 34  2  0  0  0
 34 35  1  0  0  0
 35 36  1  0  0  0
 35 37  1  0  0  0
 35 38  1  0  0  0
  5  6  1  0  0  0
  6  7  2  0  0  0
  7  8  1  0  0  0
  8  9  2  0  0  0
 14 16  1  0  0  0
 16 17  2  0  0  0
 16 10  1  0  0  0
  9  1  1  0  0  0
  8  4  1  0  0  0
 34 28  1  0  0  0
 19 22  1  0  0  0
M  END
> <minimizedAffinity>
20.64434

> <CNNscore>
0.2881505787

> <CNNaffinity>
6.3119125366

> <CNN_VS>
1.8187812567

> <CNNaffinity_variance>
0.7420684099

$$$$
[H]/C(=C1/SC(=O)N(C([H])([H])C(=O)N([H])S(=O)(=O)C([H])([H])[H])C1=O)c1c([H])c([H])c2c(c([H])nn2C([H])([H])c2c([H])c([H])c(Cl)c([H])c2C(F)(F)F)c1[H]


 38 41  0  0  0  0  0  0  0  0999 V2000
   -5.9097   -6.8519    6.4277 C   0  0  0  0  0  0  0  0  0  0  0  0
   -7.1757   -6.4885    6.0310 C   0  0  0  0  0  0  0  0  0  0  0  0
   -8.2711   -7.2276    6.3138 C   0  0  0  0  0  0  0  0  0  0  0  0
   -8.1588   -8.4232    7.0412 C   0  0  0  0  0  0  0  0  0  0  0  0
   -9.0411   -9.3279    7.4112 N   0  0  0  0  0  0  0  0  0  0  0  0
   -8.3527  -10.2943    8.0515 N   0  0  0  0  0  0  0  0  0  0  0  0
   -7.0620  -10.0157    8.0942 C   0  0  0  0  0  0  0  0  0  0  0  0
   -6.9022   -8.8056    7.4464 C   0  0  0  0  0  0  0  0  0  0  0  0
   -5.8087   -8.0273    7.1409 C   0  0  0  0  0  0  0  0  0  0  0  0
   -2.4270   -3.8023    7.8426 N   0  0  0  0  0  0  0  0  0  0  0  0
   -3.1894   -3.9586    9.0233 C   0  0  0  0  0  0  0  0  0  0  0  0
   -3.1991   -3.3255   10.1033 O   0  0  0  0  0  0  0  0  0  0  0  0
   -4.2619   -5.3605    8.6993 S   0  0  0  0  0  0  0  0  0  0  0  0
   -3.9960   -5.3804    6.9306 C   0  0  0  0  0  0  0  0  0  0  0  0
   -4.7538   -6.0409    6.0876 C   0  0  0  0  0  0  0  0  0  0  0  0
   -2.8301   -4.5340    6.7423 C   0  0  0  0  0  0  0  0  0  0  0  0
   -2.2556   -4.5126    5.5963 O   0  0  0  0  0  0  0  0  0  0  0  0
   -1.2727   -2.8846    7.8449 C   0  0  0  0  0  0  0  0  0  0  0  0
   -2.1714   -1.2089    6.2047 N   0  0  0  0  0  0  0  0  0  0  0  0
   -1.6800   -1.5236    7.4905 C   0  0  0  0  0  0  0  0  0  0  0  0
   -1.5935   -0.6188    8.3423 O   0  0  0  0  0  0  0  0  0  0  0  0
   -2.2452   -1.9626    5.4917 H   0  0  0  0  0  0  0  0  0  0  0  0
   -3.1445    0.4671    4.0689 C   0  0  0  0  0  0  0  0  0  0  0  0
   -2.6496    0.3768    5.7892 S   0  0  0  0  0  0  0  0  0  0  0  0
   -1.5375    1.3783    5.9641 O   0  0  0  0  0  0  0  0  0  0  0  0
   -3.8431    0.7795    6.5925 O   0  0  0  0  0  0  0  0  0  0  0  0
  -10.4619   -9.3835    7.3218 C   0  0  0  0  0  0  0  0  0  0  0  0
  -11.2766   -8.4445    8.0700 C   0  0  0  0  0  0  0  0  0  0  0  0
  -10.5799   -7.4520    8.8256 C   0  0  0  0  0  0  0  0  0  0  0  0
  -11.2090   -6.4970    9.5666 C   0  0  0  0  0  0  0  0  0  0  0  0
  -12.5806   -6.4399    9.6247 C   0  0  0  0  0  0  0  0  0  0  0  0
  -13.4443   -5.2421   10.5558 Cl  0  0  0  0  0  0  0  0  0  0  0  0
  -13.2514   -7.3878    8.9032 C   0  0  0  0  0  0  0  0  0  0  0  0
  -12.6252   -8.3899    8.1267 C   0  0  0  0  0  0  0  0  0  0  0  0
  -13.5077   -9.3235    7.4144 C   0  0  0  0  0  0  0  0  0  0  0  0
  -13.0729   -9.7157    6.1781 F   0  0  0  0  0  0  0  0  0  0  0  0
  -14.8482   -9.1048    7.5632 F   0  0  0  0  0  0  0  0  0  0  0  0
  -13.3752  -10.5888    8.1212 F   0  0  0  0  0  0  0  0  0  0  0  0
 23 24  1  0  0  0
 24 25  2  0  0  0
 24 26  2  0  0  0
 24 19  1  0  0  0
 19 20  1  0  0  0
 20 21  2  0  0  0
 20 18  1  0  0  0
 18 10  1  0  0  0
 10 11  1  0  0  0
 11 12  2  0  0  0
 11 13  1  0  0  0
 13 14  1  0  0  0
 14 15  2  0  0  0
 15  1  1  0  0  0
  1  2  2  0  0  0
  2  3  1  0  0  0
  3  4  2  0  0  0
  4  5  1  0  0  0
  5 27  1  0  0  0
 27 28  1  0  0  0
 28 29  2  0  0  0
 29 30  1  0  0  0
 30 31  2  0  0  0
 31 32  1  0  0  0
 31 33  1  0  0  0
 33 34  2  0  0  0
 34 35  1  0  0  0
 35 36  1  0  0  0
 35 37  1  0  0  0
 35 38  1  0  0  0
  5  6  1  0  0  0
  6  7  2  0  0  0
  7  8  1  0  0  0
  8  9  2  0  0  0
 14 16  1  0  0  0
 16 17  2  0  0  0
 16 10  1  0  0  0
  9  1  1  0  0  0
  8  4  1  0  0  0
 34 28  1  0  0  0
 19 22  1  0  0  0
M  END
> <minimizedAffinity>
-8.58663

> <CNNscore>
0.2675339282

> <CNNaffinity>
6.4529037476

> <CNN_VS>
1.7263706923

> <CNNaffinity_variance>
0.1354316324

$$$$
[H]Oc1c([H])c([H])c2c(c1[H])C([H])([H])[C@@]([H])(C([H])([H])C([H])([H])C([H])([H])C([H])([H])c1nnn(C([H])([H])C3([H])Oc4c([H])c([H])c([H])c([H])c4OC3([H])[H])c1[H])[C@]1([H])[C@]2([H])C([H])([H])C([H])([H])[C@]2(C([H])([H])[H])[C@@]([H])(O[H])C([H])([H])C([H])([H])[C@]21[H]


 42 48  0  0  0  0  0  0  0  0999 V2000
  -14.4488   -9.1912    2.6329 C   0  0  0  0  0  0  0  0  0  0  0  0
  -15.6891   -8.6815    3.3132 C   0  0  0  0  0  0  0  0  0  0  0  0
  -16.3812   -7.5997    2.5743 C   0  0  0  0  0  0  0  0  0  0  0  0
  -15.6056   -6.2836    2.7278 C   0  0  0  0  0  0  0  0  0  0  0  0
  -15.5523   -6.0389    4.2188 C   0  0  0  0  0  0  0  0  0  0  0  0
  -14.6864   -7.0932    4.8508 C   0  0  0  0  0  0  0  0  0  0  0  0
  -15.4330   -8.3482    4.7991 C   0  0  0  0  0  0  0  0  0  0  0  0
  -14.7847   -9.6341    5.1622 C   0  0  0  0  0  0  0  0  0  0  0  0
  -15.7545  -10.6598    4.5360 C   0  0  0  0  0  0  0  0  0  0  0  0
  -16.5844   -9.9007    3.5341 C   0  0  0  0  0  0  0  0  0  0  0  0
  -16.6441  -10.6646    2.3547 O   0  0  0  0  0  0  0  0  0  0  0  0
  -14.2081   -6.5693    6.1684 C   0  0  0  0  0  0  0  0  0  0  0  0
  -15.2036   -5.5498    6.7532 C   0  0  0  0  0  0  0  0  0  0  0  0
  -15.0134   -4.3452    5.8538 C   0  0  0  0  0  0  0  0  0  0  0  0
  -14.6880   -3.1050    6.3273 C   0  0  0  0  0  0  0  0  0  0  0  0
  -14.5275   -2.0946    5.4060 C   0  0  0  0  0  0  0  0  0  0  0  0
  -14.1972   -0.8312    5.8739 O   0  0  0  0  0  0  0  0  0  0  0  0
  -14.6989   -2.3669    4.0493 C   0  0  0  0  0  0  0  0  0  0  0  0
  -15.0294   -3.6404    3.6097 C   0  0  0  0  0  0  0  0  0  0  0  0
  -15.1902   -4.6492    4.5294 C   0  0  0  0  0  0  0  0  0  0  0  0
  -16.5751  -10.0968    1.5490 H   0  0  0  0  0  0  0  0  0  0  0  0
  -14.9030   -0.1627    6.1164 H   0  0  0  0  0  0  0  0  0  0  0  0
  -13.8703   -7.6028    7.1832 C   0  0  0  0  0  0  0  0  0  0  0  0
  -12.7467   -7.1567    8.0916 C   0  0  0  0  0  0  0  0  0  0  0  0
  -11.5131   -8.0375    7.9567 C   0  0  0  0  0  0  0  0  0  0  0  0
  -10.4232   -7.4956    8.8247 C   0  0  0  0  0  0  0  0  0  0  0  0
   -9.2502   -7.0757    7.9988 C   0  0  0  0  0  0  0  0  0  0  0  0
   -8.3825   -7.9557    7.3894 C   0  0  0  0  0  0  0  0  0  0  0  0
   -7.4393   -7.2614    6.7250 N   0  0  0  0  0  0  0  0  0  0  0  0
   -7.7207   -5.9845    6.9215 N   0  0  0  0  0  0  0  0  0  0  0  0
   -8.8050   -5.8546    7.6843 N   0  0  0  0  0  0  0  0  0  0  0  0
   -6.3360   -7.8326    5.9495 C   0  0  0  0  0  0  0  0  0  0  0  0
   -5.0953   -7.0205    6.3395 C   0  0  0  0  0  0  0  0  0  0  0  0
   -4.9346   -6.9388    7.8226 C   0  0  0  0  0  0  0  0  0  0  0  0
   -3.6645   -7.3097    8.2704 O   0  0  0  0  0  0  0  0  0  0  0  0
   -2.8439   -8.2183    7.6285 C   0  0  0  0  0  0  0  0  0  0  0  0
   -1.8698   -8.9676    8.2483 C   0  0  0  0  0  0  0  0  0  0  0  0
   -1.0841   -9.8624    7.5296 C   0  0  0  0  0  0  0  0  0  0  0  0
   -1.2864  -10.0000    6.1705 C   0  0  0  0  0  0  0  0  0  0  0  0
   -2.2695   -9.2439    5.5449 C   0  0  0  0  0  0  0  0  0  0  0  0
   -3.0368   -8.3655    6.2656 C   0  0  0  0  0  0  0  0  0  0  0  0
   -4.0136   -7.6094    5.6640 O   0  0  0  0  0  0  0  0  0  0  0  0
  2  1  1  0  0  0
  2  3  1  0  0  0
  3  4  1  0  0  0
  4  5  1  0  0  0
  5  6  1  0  0  0
  6  7  1  0  0  0
  7  8  1  0  0  0
  8  9  1  0  0  0
  9 10  1  0  0  0
 10 11  1  0  0  0
  6 12  1  0  0  0
 12 23  1  0  0  0
 23 24  1  0  0  0
 24 25  1  0  0  0
 25 26  1  0  0  0
 26 27  1  0  0  0
 27 28  2  0  0  0
 28 29  1  0  0  0
 29 32  1  0  0  0
 32 33  1  0  0  0
 33 34  1  0  0  0
 34 35  1  0  0  0
 35 36  1  0  0  0
 36 37  2  0  0  0
 37 38  1  0  0  0
 38 39  2  0  0  0
 39 40  1  0  0  0
 40 41  2  0  0  0
 41 42  1  0  0  0
 29 30  1  0  0  0
 30 31  2  0  0  0
 12 13  1  0  0  0
 13 14  1  0  0  0
 14 15  2  0  0  0
 15 16  1  0  0  0
 16 17  1  0  0  0
 16 18  2  0  0  0
 18 19  1  0  0  0
 19 20  2  0  0  0
  7  2  1  0  0  0
 31 27  1  0  0  0
 20 14  1  0  0  0
 10  2  1  0  0  0
 42 33  1  0  0  0
 20  5  1  0  0  0
 41 36  1  0  0  0
 11 21  1  0  0  0
 17 22  1  0  0  0
M  END
> <minimizedAffinity>
9.57045

> <CNNscore>
0.4276715815

> <CNNaffinity>
7.6725554466

> <CNN_VS>
3.2813339233

> <CNNaffinity_variance>
1.5345246792

$$$$
[H]Oc1c([H])c([H])c2c(c1[H])C([H])([H])[C@@]([H])(C([H])([H])C([H])([H])C([H])([H])C([H])([H])c1nnn(C([H])([H])C3([H])Oc4c([H])c([H])c([H])c([H])c4OC3([H])[H])c1[H])[C@]1([H])[C@]2([H])C([H])([H])C([H])([H])[C@]2(C([H])([H])[H])[C@@]([H])(O[H])C([H])([H])C([H])([H])[C@]21[H]


 42 48  0  0  0  0  0  0  0  0999 V2000
   -3.4377   -3.8038    4.0415 C   0  0  0  0  0  0  0  0  0  0  0  0
   -2.1677   -4.0578    4.8054 C   0  0  0  0  0  0  0  0  0  0  0  0
   -1.0888   -4.6705    3.9956 C   0  0  0  0  0  0  0  0  0  0  0  0
   -1.3920   -6.1571    3.7610 C   0  0  0  0  0  0  0  0  0  0  0  0
   -1.4998   -6.7521    5.1467 C   0  0  0  0  0  0  0  0  0  0  0  0
   -2.7226   -6.1925    5.8192 C   0  0  0  0  0  0  0  0  0  0  0  0
   -2.4357   -4.7951    6.1355 C   0  0  0  0  0  0  0  0  0  0  0  0
   -3.5064   -3.8919    6.6287 C   0  0  0  0  0  0  0  0  0  0  0  0
   -2.8800   -2.5021    6.3820 C   0  0  0  0  0  0  0  0  0  0  0  0
   -1.7548   -2.7127    5.4030 C   0  0  0  0  0  0  0  0  0  0  0  0
   -1.8433   -1.7105    4.4204 O   0  0  0  0  0  0  0  0  0  0  0  0
   -3.1197   -7.1335    6.9129 C   0  0  0  0  0  0  0  0  0  0  0  0
   -1.9005   -7.9097    7.4453 C   0  0  0  0  0  0  0  0  0  0  0  0
   -1.5934   -8.8660    6.3107 C   0  0  0  0  0  0  0  0  0  0  0  0
   -1.5295  -10.2214    6.4747 C   0  0  0  0  0  0  0  0  0  0  0  0
   -1.2572  -10.9845    5.3615 C   0  0  0  0  0  0  0  0  0  0  0  0
   -1.1896  -12.3614    5.5147 O   0  0  0  0  0  0  0  0  0  0  0  0
   -1.0604  -10.3597    4.1305 C   0  0  0  0  0  0  0  0  0  0  0  0
   -1.1338   -8.9801    4.0067 C   0  0  0  0  0  0  0  0  0  0  0  0
   -1.4052   -8.2181    5.1181 C   0  0  0  0  0  0  0  0  0  0  0  0
   -1.6435   -2.0646    3.5198 H   0  0  0  0  0  0  0  0  0  0  0  0
   -0.3273  -12.8209    5.7363 H   0  0  0  0  0  0  0  0  0  0  0  0
   -3.8759   -6.5229    8.0387 C   0  0  0  0  0  0  0  0  0  0  0  0
   -5.3385   -6.9060    8.0104 C   0  0  0  0  0  0  0  0  0  0  0  0
   -5.5960   -8.1316    7.1459 C   0  0  0  0  0  0  0  0  0  0  0  0
   -6.7342   -7.8501    6.2184 C   0  0  0  0  0  0  0  0  0  0  0  0
   -8.0383   -8.1908    6.8646 C   0  0  0  0  0  0  0  0  0  0  0  0
   -8.9377   -7.2541    7.3254 C   0  0  0  0  0  0  0  0  0  0  0  0
  -10.0058   -7.8841    7.8503 N   0  0  0  0  0  0  0  0  0  0  0  0
   -9.7684   -9.1778    7.7152 N   0  0  0  0  0  0  0  0  0  0  0  0
   -8.5913   -9.3801    7.1253 N   0  0  0  0  0  0  0  0  0  0  0  0
  -11.1794   -7.2398    8.4441 C   0  0  0  0  0  0  0  0  0  0  0  0
  -12.1939   -8.3660    8.6755 C   0  0  0  0  0  0  0  0  0  0  0  0
  -13.2565   -7.9594    9.6439 C   0  0  0  0  0  0  0  0  0  0  0  0
  -14.5546   -8.1733    9.1745 O   0  0  0  0  0  0  0  0  0  0  0  0
  -14.9179   -8.1465    7.8409 C   0  0  0  0  0  0  0  0  0  0  0  0
  -16.1806   -7.8515    7.3793 C   0  0  0  0  0  0  0  0  0  0  0  0
  -16.4657   -7.8456    6.0180 C   0  0  0  0  0  0  0  0  0  0  0  0
  -15.4632   -8.1413    5.1154 C   0  0  0  0  0  0  0  0  0  0  0  0
  -14.1890   -8.4392    5.5813 C   0  0  0  0  0  0  0  0  0  0  0  0
  -13.9217   -8.4413    6.9261 C   0  0  0  0  0  0  0  0  0  0  0  0
  -12.6675   -8.7334    7.4052 O   0  0  0  0  0  0  0  0  0  0  0  0
  2  1  1  0  0  0
  2  3  1  0  0  0
  3  4  1  0  0  0
  4  5  1  0  0  0
  5  6  1  0  0  0
  6  7  1  0  0  0
  7  8  1  0  0  0
  8  9  1  0  0  0
  9 10  1  0  0  0
 10 11  1  0  0  0
  6 12  1  0  0  0
 12 23  1  0  0  0
 23 24  1  0  0  0
 24 25  1  0  0  0
 25 26  1  0  0  0
 26 27  1  0  0  0
 27 28  2  0  0  0
 28 29  1  0  0  0
 29 32  1  0  0  0
 32 33  1  0  0  0
 33 34  1  0  0  0
 34 35  1  0  0  0
 35 36  1  0  0  0
 36 37  2  0  0  0
 37 38  1  0  0  0
 38 39  2  0  0  0
 39 40  1  0  0  0
 40 41  2  0  0  0
 41 42  1  0  0  0
 29 30  1  0  0  0
 30 31  2  0  0  0
 12 13  1  0  0  0
 13 14  1  0  0  0
 14 15  2  0  0  0
 15 16  1  0  0  0
 16 17  1  0  0  0
 16 18  2  0  0  0
 18 19  1  0  0  0
 19 20  2  0  0  0
  7  2  1  0  0  0
 31 27  1  0  0  0
 20 14  1  0  0  0
 10  2  1  0  0  0
 42 33  1  0  0  0
 20  5  1  0  0  0
 41 36  1  0  0  0
 11 21  1  0  0  0
 17 22  1  0  0  0
M  END
> <minimizedAffinity>
-9.03471

> <CNNscore>
0.4067203104

> <CNNaffinity>
7.2040948868

> <CNN_VS>
2.9300518036

> <CNNaffinity_variance>
0.1141199693

$$$$
[H]Oc1c([H])c([H])c2c(c1[H])C([H])([H])[C@@]([H])(C([H])([H])C([H])([H])C([H])([H])C([H])([H])c1nnn(C([H])([H])C3([H])Oc4c([H])c([H])c([H])c([H])c4OC3([H])[H])c1[H])[C@]1([H])[C@]2([H])C([H])([H])C([H])([H])[C@]2(C([H])([H])[H])[C@@]([H])(O[H])C([H])([H])C([H])([H])[C@]21[H]


 42 48  0  0  0  0  0  0  0  0999 V2000
   -3.8950   -2.6217   10.0233 C   0  0  0  0  0  0  0  0  0  0  0  0
   -2.7581   -3.5670    9.7491 C   0  0  0  0  0  0  0  0  0  0  0  0
   -1.5675   -2.9207    9.1493 C   0  0  0  0  0  0  0  0  0  0  0  0
   -1.8315   -2.6113    7.6689 C   0  0  0  0  0  0  0  0  0  0  0  0
   -2.1520   -3.9511    7.0460 C   0  0  0  0  0  0  0  0  0  0  0  0
   -3.4638   -4.4384    7.5962 C   0  0  0  0  0  0  0  0  0  0  0  0
   -3.2285   -4.8242    8.9857 C   0  0  0  0  0  0  0  0  0  0  0  0
   -4.3621   -5.1650    9.8825 C   0  0  0  0  0  0  0  0  0  0  0  0
   -3.7046   -5.0468   11.2747 C   0  0  0  0  0  0  0  0  0  0  0  0
   -2.4419   -4.2490   11.0802 C   0  0  0  0  0  0  0  0  0  0  0  0
   -2.3773   -3.2855   12.1027 O   0  0  0  0  0  0  0  0  0  0  0  0
   -4.0253   -5.4379    6.6344 C   0  0  0  0  0  0  0  0  0  0  0  0
   -2.9032   -6.1357    5.8430 C   0  0  0  0  0  0  0  0  0  0  0  0
   -2.4250   -5.0425    4.9090 C   0  0  0  0  0  0  0  0  0  0  0  0
   -2.3877   -5.1861    3.5503 C   0  0  0  0  0  0  0  0  0  0  0  0
   -1.9472   -4.1127    2.8093 C   0  0  0  0  0  0  0  0  0  0  0  0
   -1.9046   -4.2457    1.4292 O   0  0  0  0  0  0  0  0  0  0  0  0
   -1.5626   -2.9400    3.4584 C   0  0  0  0  0  0  0  0  0  0  0  0
   -1.6154   -2.8351    4.8405 C   0  0  0  0  0  0  0  0  0  0  0  0
   -2.0547   -3.9069    5.5806 C   0  0  0  0  0  0  0  0  0  0  0  0
   -2.0411   -2.4194   11.7664 H   0  0  0  0  0  0  0  0  0  0  0  0
   -1.0870   -4.5881    0.9622 H   0  0  0  0  0  0  0  0  0  0  0  0
   -4.9459   -6.4461    7.2244 C   0  0  0  0  0  0  0  0  0  0  0  0
   -6.1736   -6.6598    6.3679 C   0  0  0  0  0  0  0  0  0  0  0  0
   -7.4532   -6.6825    7.1913 C   0  0  0  0  0  0  0  0  0  0  0  0
   -7.7127   -8.0780    7.6604 C   0  0  0  0  0  0  0  0  0  0  0  0
   -9.1746   -8.3867    7.6154 C   0  0  0  0  0  0  0  0  0  0  0  0
  -10.1664   -7.4417    7.7633 C   0  0  0  0  0  0  0  0  0  0  0  0
  -11.3686   -8.0414    7.6731 N   0  0  0  0  0  0  0  0  0  0  0  0
  -11.1215   -9.3250    7.4743 N   0  0  0  0  0  0  0  0  0  0  0  0
   -9.8091   -9.5501    7.4369 N   0  0  0  0  0  0  0  0  0  0  0  0
  -12.6710   -7.3795    7.7779 C   0  0  0  0  0  0  0  0  0  0  0  0
  -13.5822   -8.1042    6.7801 C   0  0  0  0  0  0  0  0  0  0  0  0
  -14.8737   -8.5128    7.4103 C   0  0  0  0  0  0  0  0  0  0  0  0
  -16.0012   -8.1067    6.6926 O   0  0  0  0  0  0  0  0  0  0  0  0
  -16.0551   -6.9800    5.8935 C   0  0  0  0  0  0  0  0  0  0  0  0
  -17.2055   -6.2854    5.5959 C   0  0  0  0  0  0  0  0  0  0  0  0
  -17.1752   -5.1582    4.7818 C   0  0  0  0  0  0  0  0  0  0  0  0
  -15.9688   -4.7299    4.2638 C   0  0  0  0  0  0  0  0  0  0  0  0
  -14.8078   -5.4308    4.5640 C   0  0  0  0  0  0  0  0  0  0  0  0
  -14.8521   -6.5406    5.3680 C   0  0  0  0  0  0  0  0  0  0  0  0
  -13.7141   -7.2463    5.6757 O   0  0  0  0  0  0  0  0  0  0  0  0
  2  1  1  0  0  0
  2  3  1  0  0  0
  3  4  1  0  0  0
  4  5  1  0  0  0
  5  6  1  0  0  0
  6  7  1  0  0  0
  7  8  1  0  0  0
  8  9  1  0  0  0
  9 10  1  0  0  0
 10 11  1  0  0  0
  6 12  1  0  0  0
 12 23  1  0  0  0
 23 24  1  0  0  0
 24 25  1  0  0  0
 25 26  1  0  0  0
 26 27  1  0  0  0
 27 28  2  0  0  0
 28 29  1  0  0  0
 29 32  1  0  0  0
 32 33  1  0  0  0
 33 34  1  0  0  0
 34 35  1  0  0  0
 35 36  1  0  0  0
 36 37  2  0  0  0
 37 38  1  0  0  0
 38 39  2  0  0  0
 39 40  1  0  0  0
 40 41  2  0  0  0
 41 42  1  0  0  0
 29 30  1  0  0  0
 30 31  2  0  0  0
 12 13  1  0  0  0
 13 14  1  0  0  0
 14 15  2  0  0  0
 15 16  1  0  0  0
 16 17  1  0  0  0
 16 18  2  0  0  0
 18 19  1  0  0  0
 19 20  2  0  0  0
  7  2  1  0  0  0
 31 27  1  0  0  0
 20 14  1  0  0  0
 10  2  1  0  0  0
 42 33  1  0  0  0
 20  5  1  0  0  0
 41 36  1  0  0  0
 11 21  1  0  0  0
 17 22  1  0  0  0
M  END
> <minimizedAffinity>
-8.85705

> <CNNscore>
0.3810295165

> <CNNaffinity>
7.0611786842

> <CNN_VS>
2.6905174255

> <CNNaffinity_variance>
0.0755385384

$$$$
[H]Oc1c([H])c([H])c2c(c1[H])C([H])([H])[C@@]([H])(C([H])([H])C([H])([H])C([H])([H])C([H])([H])c1nnn(C([H])([H])C3([H])Oc4c([H])c([H])c([H])c([H])c4OC3([H])[H])c1[H])[C@]1([H])[C@]2([H])C([H])([H])C([H])([H])[C@]2(C([H])([H])[H])[C@@]([H])(O[H])C([H])([H])C([H])([H])[C@]21[H]


 42 48  0  0  0  0  0  0  0  0999 V2000
  -14.3063   -9.0989    2.7427 C   0  0  0  0  0  0  0  0  0  0  0  0
  -15.4822   -8.6751    3.5788 C   0  0  0  0  0  0  0  0  0  0  0  0
  -16.3526   -7.6675    2.9289 C   0  0  0  0  0  0  0  0  0  0  0  0
  -15.6734   -6.2910    2.9630 C   0  0  0  0  0  0  0  0  0  0  0  0
  -15.4416   -6.0116    4.4306 C   0  0  0  0  0  0  0  0  0  0  0  0
  -14.4160   -6.9801    4.9509 C   0  0  0  0  0  0  0  0  0  0  0  0
  -15.0579   -8.2913    5.0131 C   0  0  0  0  0  0  0  0  0  0  0  0
  -14.2643   -9.5136    5.2985 C   0  0  0  0  0  0  0  0  0  0  0  0
  -15.2221  -10.6261    4.8193 C   0  0  0  0  0  0  0  0  0  0  0  0
  -16.2374   -9.9567    3.9307 C   0  0  0  0  0  0  0  0  0  0  0  0
  -16.3915  -10.7476    2.7780 O   0  0  0  0  0  0  0  0  0  0  0  0
  -13.8104   -6.3921    6.1866 C   0  0  0  0  0  0  0  0  0  0  0  0
  -14.7987   -5.4429    6.8898 C   0  0  0  0  0  0  0  0  0  0  0  0
  -14.8293   -4.2462    5.9607 C   0  0  0  0  0  0  0  0  0  0  0  0
  -14.5459   -2.9745    6.3733 C   0  0  0  0  0  0  0  0  0  0  0  0
  -14.5928   -1.9741    5.4286 C   0  0  0  0  0  0  0  0  0  0  0  0
  -14.3072   -0.6789    5.8347 O   0  0  0  0  0  0  0  0  0  0  0  0
  -14.9211   -2.2877    4.1102 C   0  0  0  0  0  0  0  0  0  0  0  0
  -15.2023   -3.5924    3.7322 C   0  0  0  0  0  0  0  0  0  0  0  0
  -15.1560   -4.5912    4.6754 C   0  0  0  0  0  0  0  0  0  0  0  0
  -16.4773  -10.1933    1.9646 H   0  0  0  0  0  0  0  0  0  0  0  0
  -15.0264   -0.0636    6.1633 H   0  0  0  0  0  0  0  0  0  0  0  0
  -13.2570   -7.3739    7.1571 C   0  0  0  0  0  0  0  0  0  0  0  0
  -12.4758   -6.6979    8.2614 C   0  0  0  0  0  0  0  0  0  0  0  0
  -11.5865   -7.6737    9.0180 C   0  0  0  0  0  0  0  0  0  0  0  0
  -11.1383   -8.7549    8.0880 C   0  0  0  0  0  0  0  0  0  0  0  0
   -9.7051   -8.5643    7.7086 C   0  0  0  0  0  0  0  0  0  0  0  0
   -9.1312   -7.3369    7.4579 C   0  0  0  0  0  0  0  0  0  0  0  0
   -7.8332   -7.5091    7.1438 N   0  0  0  0  0  0  0  0  0  0  0  0
   -7.6144   -8.8119    7.2000 N   0  0  0  0  0  0  0  0  0  0  0  0
   -8.7277   -9.4608    7.5378 N   0  0  0  0  0  0  0  0  0  0  0  0
   -6.8798   -6.4482    6.8112 C   0  0  0  0  0  0  0  0  0  0  0  0
   -5.4980   -7.0116    7.1637 C   0  0  0  0  0  0  0  0  0  0  0  0
   -4.4583   -6.5725    6.1846 C   0  0  0  0  0  0  0  0  0  0  0  0
   -3.3303   -6.0046    6.7813 O   0  0  0  0  0  0  0  0  0  0  0  0
   -3.3406   -5.3285    7.9871 C   0  0  0  0  0  0  0  0  0  0  0  0
   -2.4302   -4.3623    8.3507 C   0  0  0  0  0  0  0  0  0  0  0  0
   -2.5097   -3.7273    9.5856 C   0  0  0  0  0  0  0  0  0  0  0  0
   -3.5202   -4.0736   10.4608 C   0  0  0  0  0  0  0  0  0  0  0  0
   -4.4390   -5.0487   10.0938 C   0  0  0  0  0  0  0  0  0  0  0  0
   -4.3489   -5.6667    8.8733 C   0  0  0  0  0  0  0  0  0  0  0  0
   -5.2485   -6.6332    8.4932 O   0  0  0  0  0  0  0  0  0  0  0  0
  2  1  1  0  0  0
  2  3  1  0  0  0
  3  4  1  0  0  0
  4  5  1  0  0  0
  5  6  1  0  0  0
  6  7  1  0  0  0
  7  8  1  0  0  0
  8  9  1  0  0  0
  9 10  1  0  0  0
 10 11  1  0  0  0
  6 12  1  0  0  0
 12 23  1  0  0  0
 23 24  1  0  0  0
 24 25  1  0  0  0
 25 26  1  0  0  0
 26 27  1  0  0  0
 27 28  2  0  0  0
 28 29  1  0  0  0
 29 32  1  0  0  0
 32 33  1  0  0  0
 33 34  1  0  0  0
 34 35  1  0  0  0
 35 36  1  0  0  0
 36 37  2  0  0  0
 37 38  1  0  0  0
 38 39  2  0  0  0
 39 40  1  0  0  0
 40 41  2  0  0  0
 41 42  1  0  0  0
 29 30  1  0  0  0
 30 31  2  0  0  0
 12 13  1  0  0  0
 13 14  1  0  0  0
 14 15  2  0  0  0
 15 16  1  0  0  0
 16 17  1  0  0  0
 16 18  2  0  0  0
 18 19  1  0  0  0
 19 20  2  0  0  0
  7  2  1  0  0  0
 31 27  1  0  0  0
 20 14  1  0  0  0
 10  2  1  0  0  0
 42 33  1  0  0  0
 20  5  1  0  0  0
 41 36  1  0  0  0
 11 21  1  0  0  0
 17 22  1  0  0  0
M  END
> <minimizedAffinity>
7.24878

> <CNNscore>
0.3597581089

> <CNNaffinity>
7.5933847427

> <CNN_VS>
2.7317817211

> <CNNaffinity_variance>
0.5476881862

$$$$
[H]Oc1c([H])c([H])c2c(c1[H])C([H])([H])[C@@]([H])(C([H])([H])C([H])([H])C([H])([H])C([H])([H])c1nnn(C([H])([H])C3([H])Oc4c([H])c([H])c([H])c([H])c4OC3([H])[H])c1[H])[C@]1([H])[C@]2([H])C([H])([H])C([H])([H])[C@]2(C([H])([H])[H])[C@@]([H])(O[H])C([H])([H])C([H])([H])[C@]21[H]


 42 48  0  0  0  0  0  0  0  0999 V2000
  -14.6228   -9.0559    6.7828 C   0  0  0  0  0  0  0  0  0  0  0  0
  -13.8798   -9.3420    8.0584 C   0  0  0  0  0  0  0  0  0  0  0  0
  -14.6080   -8.9388    9.2841 C   0  0  0  0  0  0  0  0  0  0  0  0
  -14.5514   -7.4132    9.4470 C   0  0  0  0  0  0  0  0  0  0  0  0
  -13.0765   -7.0856    9.5024 C   0  0  0  0  0  0  0  0  0  0  0  0
  -12.4673   -7.3704    8.1576 C   0  0  0  0  0  0  0  0  0  0  0  0
  -12.4265   -8.8230    8.0048 C   0  0  0  0  0  0  0  0  0  0  0  0
  -12.0632   -9.4408    6.7042 C   0  0  0  0  0  0  0  0  0  0  0  0
  -12.5882  -10.8816    6.8860 C   0  0  0  0  0  0  0  0  0  0  0  0
  -13.5585  -10.8364    8.0372 C   0  0  0  0  0  0  0  0  0  0  0  0
  -14.7044  -11.5622    7.6656 O   0  0  0  0  0  0  0  0  0  0  0  0
  -11.2030   -6.5776    8.0460 C   0  0  0  0  0  0  0  0  0  0  0  0
  -10.5890   -6.3163    9.4341 C   0  0  0  0  0  0  0  0  0  0  0  0
  -11.5398   -5.2996   10.0328 C   0  0  0  0  0  0  0  0  0  0  0  0
  -11.1318   -4.0817   10.5000 C   0  0  0  0  0  0  0  0  0  0  0  0
  -12.0958   -3.2395   11.0067 C   0  0  0  0  0  0  0  0  0  0  0  0
  -11.6944   -2.0005   11.4841 O   0  0  0  0  0  0  0  0  0  0  0  0
  -13.4280   -3.6506   11.0248 C   0  0  0  0  0  0  0  0  0  0  0  0
  -13.8008   -4.8959   10.5407 C   0  0  0  0  0  0  0  0  0  0  0  0
  -12.8384   -5.7371   10.0351 C   0  0  0  0  0  0  0  0  0  0  0  0
  -15.5319  -11.1209    7.9767 H   0  0  0  0  0  0  0  0  0  0  0  0
  -11.4288   -1.8702   12.4413 H   0  0  0  0  0  0  0  0  0  0  0  0
  -10.1780   -7.1349    7.1237 C   0  0  0  0  0  0  0  0  0  0  0  0
   -9.8188   -6.1615    6.0236 C   0  0  0  0  0  0  0  0  0  0  0  0
  -10.9775   -5.9207    5.0670 C   0  0  0  0  0  0  0  0  0  0  0  0
  -12.2455   -6.3988    5.6984 C   0  0  0  0  0  0  0  0  0  0  0  0
  -13.4057   -5.5734    5.2434 C   0  0  0  0  0  0  0  0  0  0  0  0
  -14.5999   -5.4814    5.9245 C   0  0  0  0  0  0  0  0  0  0  0  0
  -15.4322   -4.6626    5.2537 N   0  0  0  0  0  0  0  0  0  0  0  0
  -14.7650   -4.2607    4.1853 N   0  0  0  0  0  0  0  0  0  0  0  0
  -13.5463   -4.7980    4.1631 N   0  0  0  0  0  0  0  0  0  0  0  0
  -16.7961   -4.3071    5.6516 C   0  0  0  0  0  0  0  0  0  0  0  0
  -17.7069   -4.8900    4.5645 C   0  0  0  0  0  0  0  0  0  0  0  0
  -17.0438   -4.8772    3.2257 C   0  0  0  0  0  0  0  0  0  0  0  0
  -17.0682   -6.1135    2.5759 O   0  0  0  0  0  0  0  0  0  0  0  0
  -17.0897   -7.3356    3.2217 C   0  0  0  0  0  0  0  0  0  0  0  0
  -16.6202   -8.5130    2.6852 C   0  0  0  0  0  0  0  0  0  0  0  0
  -16.6781   -9.7036    3.4017 C   0  0  0  0  0  0  0  0  0  0  0  0
  -17.2165   -9.7026    4.6734 C   0  0  0  0  0  0  0  0  0  0  0  0
  -17.6904   -8.5144    5.2149 C   0  0  0  0  0  0  0  0  0  0  0  0
  -17.6272   -7.3478    4.4974 C   0  0  0  0  0  0  0  0  0  0  0  0
  -18.0909   -6.1632    5.0166 O   0  0  0  0  0  0  0  0  0  0  0  0
  2  1  1  0  0  0
  2  3  1  0  0  0
  3  4  1  0  0  0
  4  5  1  0  0  0
  5  6  1  0  0  0
  6  7  1  0  0  0
  7  8  1  0  0  0
  8  9  1  0  0  0
  9 10  1  0  0  0
 10 11  1  0  0  0
  6 12  1  0  0  0
 12 23  1  0  0  0
 23 24  1  0  0  0
 24 25  1  0  0  0
 25 26  1  0  0  0
 26 27  1  0  0  0
 27 28  2  0  0  0
 28 29  1  0  0  0
 29 32  1  0  0  0
 32 33  1  0  0  0
 33 34  1  0  0  0
 34 35  1  0  0  0
 35 36  1  0  0  0
 36 37  2  0  0  0
 37 38  1  0  0  0
 38 39  2  0  0  0
 39 40  1  0  0  0
 40 41  2  0  0  0
 41 42  1  0  0  0
 29 30  1  0  0  0
 30 31  2  0  0  0
 12 13  1  0  0  0
 13 14  1  0  0  0
 14 15  2  0  0  0
 15 16  1  0  0  0
 16 17  1  0  0  0
 16 18  2  0  0  0
 18 19  1  0  0  0
 19 20  2  0  0  0
  7  2  1  0  0  0
 31 27  1  0  0  0
 20 14  1  0  0  0
 10  2  1  0  0  0
 42 33  1  0  0  0
 20  5  1  0  0  0
 41 36  1  0  0  0
 11 21  1  0  0  0
 17 22  1  0  0  0
M  END
> <minimizedAffinity>
21.10903

> <CNNscore>
0.3487327695

> <CNNaffinity>
7.5175757408

> <CNN_VS>
2.6216249466

> <CNNaffinity_variance>
0.5342351794

$$$$
[H]Oc1c([H])c([H])c2c(c1[H])C([H])([H])[C@@]([H])(C([H])([H])C([H])([H])C([H])([H])C([H])([H])c1nnn(C([H])([H])C3([H])Oc4c([H])c([H])c([H])c([H])c4OC3([H])[H])c1[H])[C@]1([H])[C@]2([H])C([H])([H])C([H])([H])[C@]2(C([H])([H])[H])[C@@]([H])(O[H])C([H])([H])C([H])([H])[C@]21[H]


 42 48  0  0  0  0  0  0  0  0999 V2000
  -14.4360   -9.0793    2.6159 C   0  0  0  0  0  0  0  0  0  0  0  0
  -15.4965   -8.7435    3.6277 C   0  0  0  0  0  0  0  0  0  0  0  0
  -16.4853   -7.7457    3.1568 C   0  0  0  0  0  0  0  0  0  0  0  0
  -15.8577   -6.3446    3.1652 C   0  0  0  0  0  0  0  0  0  0  0  0
  -15.4314   -6.1215    4.5984 C   0  0  0  0  0  0  0  0  0  0  0  0
  -14.3087   -7.0680    4.9215 C   0  0  0  0  0  0  0  0  0  0  0  0
  -14.8882   -8.4067    5.0065 C   0  0  0  0  0  0  0  0  0  0  0  0
  -14.0191   -9.6058    5.1170 C   0  0  0  0  0  0  0  0  0  0  0  0
  -14.9946  -10.7353    4.7204 C   0  0  0  0  0  0  0  0  0  0  0  0
  -16.1484  -10.0705    4.0165 C   0  0  0  0  0  0  0  0  0  0  0  0
  -16.4352  -10.8149    2.8582 O   0  0  0  0  0  0  0  0  0  0  0  0
  -13.5563   -6.5108    6.0889 C   0  0  0  0  0  0  0  0  0  0  0  0
  -14.4688   -5.6367    6.9696 C   0  0  0  0  0  0  0  0  0  0  0  0
  -14.6728   -4.4020    6.1151 C   0  0  0  0  0  0  0  0  0  0  0  0
  -14.3796   -3.1391    6.5477 C   0  0  0  0  0  0  0  0  0  0  0  0
  -14.5950   -2.1003    5.6701 C   0  0  0  0  0  0  0  0  0  0  0  0
  -14.3014   -0.8137    6.0971 O   0  0  0  0  0  0  0  0  0  0  0  0
  -15.0945   -2.3683    4.3961 C   0  0  0  0  0  0  0  0  0  0  0  0
  -15.3795   -3.6655    3.9959 C   0  0  0  0  0  0  0  0  0  0  0  0
  -15.1650   -4.7027    4.8721 C   0  0  0  0  0  0  0  0  0  0  0  0
  -16.6545  -10.2288    2.0935 H   0  0  0  0  0  0  0  0  0  0  0  0
  -14.9886   -0.2448    6.5531 H   0  0  0  0  0  0  0  0  0  0  0  0
  -12.8368   -7.5106    6.9224 C   0  0  0  0  0  0  0  0  0  0  0  0
  -12.2169   -6.8817    8.1499 C   0  0  0  0  0  0  0  0  0  0  0  0
  -10.9239   -7.5717    8.5596 C   0  0  0  0  0  0  0  0  0  0  0  0
   -9.9951   -7.6133    7.3890 C   0  0  0  0  0  0  0  0  0  0  0  0
   -8.5713   -7.6099    7.8444 C   0  0  0  0  0  0  0  0  0  0  0  0
   -7.8557   -6.4670    8.1275 C   0  0  0  0  0  0  0  0  0  0  0  0
   -6.6099   -6.8059    8.5097 N   0  0  0  0  0  0  0  0  0  0  0  0
   -6.5609   -8.1264    8.4625 N   0  0  0  0  0  0  0  0  0  0  0  0
   -7.7301   -8.6257    8.0650 N   0  0  0  0  0  0  0  0  0  0  0  0
   -5.5447   -5.8772    8.8944 C   0  0  0  0  0  0  0  0  0  0  0  0
   -4.7755   -5.5756    7.6027 C   0  0  0  0  0  0  0  0  0  0  0  0
   -3.4789   -4.8877    7.8818 C   0  0  0  0  0  0  0  0  0  0  0  0
   -2.3788   -5.4961    7.2730 O   0  0  0  0  0  0  0  0  0  0  0  0
   -2.2910   -6.8458    6.9870 C   0  0  0  0  0  0  0  0  0  0  0  0
   -1.1120   -7.5470    6.8736 C   0  0  0  0  0  0  0  0  0  0  0  0
   -1.1089   -8.9070    6.5828 C   0  0  0  0  0  0  0  0  0  0  0  0
   -2.3108   -9.5637    6.4051 C   0  0  0  0  0  0  0  0  0  0  0  0
   -3.5006   -8.8561    6.5195 C   0  0  0  0  0  0  0  0  0  0  0  0
   -3.4890   -7.5154    6.8065 C   0  0  0  0  0  0  0  0  0  0  0  0
   -4.6558   -6.7993    6.9235 O   0  0  0  0  0  0  0  0  0  0  0  0
  2  1  1  0  0  0
  2  3  1  0  0  0
  3  4  1  0  0  0
  4  5  1  0  0  0
  5  6  1  0  0  0
  6  7  1  0  0  0
  7  8  1  0  0  0
  8  9  1  0  0  0
  9 10  1  0  0  0
 10 11  1  0  0  0
  6 12  1  0  0  0
 12 23  1  0  0  0
 23 24  1  0  0  0
 24 25  1  0  0  0
 25 26  1  0  0  0
 26 27  1  0  0  0
 27 28  2  0  0  0
 28 29  1  0  0  0
 29 32  1  0  0  0
 32 33  1  0  0  0
 33 34  1  0  0  0
 34 35  1  0  0  0
 35 36  1  0  0  0
 36 37  2  0  0  0
 37 38  1  0  0  0
 38 39  2  0  0  0
 39 40  1  0  0  0
 40 41  2  0  0  0
 41 42  1  0  0  0
 29 30  1  0  0  0
 30 31  2  0  0  0
 12 13  1  0  0  0
 13 14  1  0  0  0
 14 15  2  0  0  0
 15 16  1  0  0  0
 16 17  1  0  0  0
 16 18  2  0  0  0
 18 19  1  0  0  0
 19 20  2  0  0  0
  7  2  1  0  0  0
 31 27  1  0  0  0
 20 14  1  0  0  0
 10  2  1  0  0  0
 42 33  1  0  0  0
 20  5  1  0  0  0
 41 36  1  0  0  0
 11 21  1  0  0  0
 17 22  1  0  0  0
M  END
> <minimizedAffinity>
9.88813

> <CNNscore>
0.3320733905

> <CNNaffinity>
7.4197006226

> <CNN_VS>
2.4638850689

> <CNNaffinity_variance>
1.6747610569

$$$$
[H]Oc1c([H])c([H])c2c(c1[H])C([H])([H])[C@@]([H])(C([H])([H])C([H])([H])C([H])([H])C([H])([H])c1nnn(C([H])([H])C3([H])Oc4c([H])c([H])c([H])c([H])c4OC3([H])[H])c1[H])[C@]1([H])[C@]2([H])C([H])([H])C([H])([H])[C@]2(C([H])([H])[H])[C@@]([H])(O[H])C([H])([H])C([H])([H])[C@]21[H]


 42 48  0  0  0  0  0  0  0  0999 V2000
   -5.9858   -6.4777    7.6408 C   0  0  0  0  0  0  0  0  0  0  0  0
   -7.1856   -6.5176    6.7353 C   0  0  0  0  0  0  0  0  0  0  0  0
   -8.0706   -5.3352    6.8541 C   0  0  0  0  0  0  0  0  0  0  0  0
   -8.8897   -5.4242    8.1496 C   0  0  0  0  0  0  0  0  0  0  0  0
   -9.6537   -6.7236    8.0344 C   0  0  0  0  0  0  0  0  0  0  0  0
   -8.6773   -7.8655    8.0955 C   0  0  0  0  0  0  0  0  0  0  0  0
   -7.9363   -7.8632    6.8362 C   0  0  0  0  0  0  0  0  0  0  0  0
   -6.7545   -8.7425    6.6479 C   0  0  0  0  0  0  0  0  0  0  0  0
   -6.0687   -8.0864    5.4297 C   0  0  0  0  0  0  0  0  0  0  0  0
   -6.6426   -6.6983    5.3177 C   0  0  0  0  0  0  0  0  0  0  0  0
   -5.5772   -5.8061    5.1012 O   0  0  0  0  0  0  0  0  0  0  0  0
   -9.4264   -9.0920    8.5124 C   0  0  0  0  0  0  0  0  0  0  0  0
  -10.9057   -9.0069    8.0920 C   0  0  0  0  0  0  0  0  0  0  0  0
  -11.4627   -7.9664    9.0423 C   0  0  0  0  0  0  0  0  0  0  0  0
  -12.5317   -8.2005    9.8610 C   0  0  0  0  0  0  0  0  0  0  0  0
  -12.9330   -7.1779   10.6910 C   0  0  0  0  0  0  0  0  0  0  0  0
  -14.0169   -7.4029   11.5269 O   0  0  0  0  0  0  0  0  0  0  0  0
  -12.2479   -5.9637   10.6675 C   0  0  0  0  0  0  0  0  0  0  0  0
  -11.1669   -5.7665    9.8209 C   0  0  0  0  0  0  0  0  0  0  0  0
  -10.7664   -6.7872    8.9918 C   0  0  0  0  0  0  0  0  0  0  0  0
   -5.6984   -4.9648    5.6050 H   0  0  0  0  0  0  0  0  0  0  0  0
  -14.9535   -7.2013   11.2338 H   0  0  0  0  0  0  0  0  0  0  0  0
   -8.8363  -10.3833    8.0694 C   0  0  0  0  0  0  0  0  0  0  0  0
   -9.1553  -10.6832    6.6220 C   0  0  0  0  0  0  0  0  0  0  0  0
  -10.6245  -11.0206    6.4142 C   0  0  0  0  0  0  0  0  0  0  0  0
  -11.1610  -10.2086    5.2794 C   0  0  0  0  0  0  0  0  0  0  0  0
  -12.2964   -9.3498    5.7352 C   0  0  0  0  0  0  0  0  0  0  0  0
  -13.6129   -9.7563    5.7483 C   0  0  0  0  0  0  0  0  0  0  0  0
  -14.3830   -8.7537    6.2117 N   0  0  0  0  0  0  0  0  0  0  0  0
  -13.5590   -7.7543    6.4773 N   0  0  0  0  0  0  0  0  0  0  0  0
  -12.3021   -8.0949    6.1971 N   0  0  0  0  0  0  0  0  0  0  0  0
  -15.8377   -8.7914    6.3774 C   0  0  0  0  0  0  0  0  0  0  0  0
  -16.4155   -8.7073    4.9596 C   0  0  0  0  0  0  0  0  0  0  0  0
  -17.9094   -8.7261    4.9718 C   0  0  0  0  0  0  0  0  0  0  0  0
  -18.4894   -7.6816    4.2481 O   0  0  0  0  0  0  0  0  0  0  0  0
  -17.9078   -6.4411    4.0636 C   0  0  0  0  0  0  0  0  0  0  0  0
  -18.6036   -5.2783    3.8224 C   0  0  0  0  0  0  0  0  0  0  0  0
  -17.9423   -4.0673    3.6475 C   0  0  0  0  0  0  0  0  0  0  0  0
  -16.5635   -4.0330    3.7174 C   0  0  0  0  0  0  0  0  0  0  0  0
  -15.8613   -5.2065    3.9608 C   0  0  0  0  0  0  0  0  0  0  0  0
  -16.5259   -6.3935    4.1313 C   0  0  0  0  0  0  0  0  0  0  0  0
  -15.8482   -7.5640    4.3728 O   0  0  0  0  0  0  0  0  0  0  0  0
  2  1  1  0  0  0
  2  3  1  0  0  0
  3  4  1  0  0  0
  4  5  1  0  0  0
  5  6  1  0  0  0
  6  7  1  0  0  0
  7  8  1  0  0  0
  8  9  1  0  0  0
  9 10  1  0  0  0
 10 11  1  0  0  0
  6 12  1  0  0  0
 12 23  1  0  0  0
 23 24  1  0  0  0
 24 25  1  0  0  0
 25 26  1  0  0  0
 26 27  1  0  0  0
 27 28  2  0  0  0
 28 29  1  0  0  0
 29 32  1  0  0  0
 32 33  1  0  0  0
 33 34  1  0  0  0
 34 35  1  0  0  0
 35 36  1  0  0  0
 36 37  2  0  0  0
 37 38  1  0  0  0
 38 39  2  0  0  0
 39 40  1  0  0  0
 40 41  2  0  0  0
 41 42  1  0  0  0
 29 30  1  0  0  0
 30 31  2  0  0  0
 12 13  1  0  0  0
 13 14  1  0  0  0
 14 15  2  0  0  0
 15 16  1  0  0  0
 16 17  1  0  0  0
 16 18  2  0  0  0
 18 19  1  0  0  0
 19 20  2  0  0  0
  7  2  1  0  0  0
 31 27  1  0  0  0
 20 14  1  0  0  0
 10  2  1  0  0  0
 42 33  1  0  0  0
 20  5  1  0  0  0
 41 36  1  0  0  0
 11 21  1  0  0  0
 17 22  1  0  0  0
M  END
> <minimizedAffinity>
0.67879

> <CNNscore>
0.3113207519

> <CNNaffinity>
7.4963469505

> <CNN_VS>
2.3337683678

> <CNNaffinity_variance>
0.4227817059

$$$$
[H]Oc1c([H])c([H])c2c(c1[H])C([H])([H])[C@@]([H])(C([H])([H])C([H])([H])C([H])([H])C([H])([H])c1nnn(C([H])([H])C3([H])Oc4c([H])c([H])c([H])c([H])c4OC3([H])[H])c1[H])[C@]1([H])[C@]2([H])C([H])([H])C([H])([H])[C@]2(C([H])([H])[H])[C@@]([H])(O[H])C([H])([H])C([H])([H])[C@]21[H]


 42 48  0  0  0  0  0  0  0  0999 V2000
  -14.0546   -9.1590    2.8637 C   0  0  0  0  0  0  0  0  0  0  0  0
  -15.3355   -8.6965    3.5013 C   0  0  0  0  0  0  0  0  0  0  0  0
  -16.0613   -7.6680    2.7200 C   0  0  0  0  0  0  0  0  0  0  0  0
  -15.3559   -6.3116    2.8603 C   0  0  0  0  0  0  0  0  0  0  0  0
  -15.3526   -6.0304    4.3458 C   0  0  0  0  0  0  0  0  0  0  0  0
  -14.4518   -7.0253    5.0239 C   0  0  0  0  0  0  0  0  0  0  0  0
  -15.1338   -8.3169    4.9844 C   0  0  0  0  0  0  0  0  0  0  0  0
  -14.4322   -9.5600    5.3940 C   0  0  0  0  0  0  0  0  0  0  0  0
  -15.3338  -10.6471    4.7696 C   0  0  0  0  0  0  0  0  0  0  0  0
  -16.1746   -9.9538    3.7298 C   0  0  0  0  0  0  0  0  0  0  0  0
  -16.1665  -10.7465    2.5682 O   0  0  0  0  0  0  0  0  0  0  0  0
  -14.0336   -6.4479    6.3396 C   0  0  0  0  0  0  0  0  0  0  0  0
  -15.0928   -5.4664    6.8753 C   0  0  0  0  0  0  0  0  0  0  0  0
  -14.9398   -4.2748    5.9520 C   0  0  0  0  0  0  0  0  0  0  0  0
  -14.6883   -3.0094    6.4031 C   0  0  0  0  0  0  0  0  0  0  0  0
  -14.5547   -2.0135    5.4618 C   0  0  0  0  0  0  0  0  0  0  0  0
  -14.2993   -0.7248    5.9068 O   0  0  0  0  0  0  0  0  0  0  0  0
  -14.6780   -2.3251    4.1083 C   0  0  0  0  0  0  0  0  0  0  0  0
  -14.9339   -3.6233    3.6918 C   0  0  0  0  0  0  0  0  0  0  0  0
  -15.0677   -4.6176    4.6314 C   0  0  0  0  0  0  0  0  0  0  0  0
  -16.1053  -10.1946    1.7509 H   0  0  0  0  0  0  0  0  0  0  0  0
  -15.0433   -0.0871    6.1160 H   0  0  0  0  0  0  0  0  0  0  0  0
  -13.6709   -7.4397    7.3870 C   0  0  0  0  0  0  0  0  0  0  0  0
  -12.1840   -7.4525    7.6622 C   0  0  0  0  0  0  0  0  0  0  0  0
  -11.4929   -8.6545    7.0351 C   0  0  0  0  0  0  0  0  0  0  0  0
  -10.3869   -9.1103    7.9317 C   0  0  0  0  0  0  0  0  0  0  0  0
   -9.1674   -8.2684    7.7356 C   0  0  0  0  0  0  0  0  0  0  0  0
   -8.3213   -8.3782    6.6537 C   0  0  0  0  0  0  0  0  0  0  0  0
   -7.3239   -7.4819    6.7767 N   0  0  0  0  0  0  0  0  0  0  0  0
   -7.5518   -6.8363    7.9078 N   0  0  0  0  0  0  0  0  0  0  0  0
   -8.6548   -7.2958    8.4967 N   0  0  0  0  0  0  0  0  0  0  0  0
   -6.2223   -7.2846    5.8319 C   0  0  0  0  0  0  0  0  0  0  0  0
   -5.0383   -6.7986    6.6763 C   0  0  0  0  0  0  0  0  0  0  0  0
   -3.9916   -7.8554    6.8167 C   0  0  0  0  0  0  0  0  0  0  0  0
   -2.7071   -7.4207    6.4817 O   0  0  0  0  0  0  0  0  0  0  0  0
   -2.4339   -6.4261    5.5613 C   0  0  0  0  0  0  0  0  0  0  0  0
   -1.2602   -6.3182    4.8504 C   0  0  0  0  0  0  0  0  0  0  0  0
   -1.0626   -5.2850    3.9405 C   0  0  0  0  0  0  0  0  0  0  0  0
   -2.0625   -4.3522    3.7483 C   0  0  0  0  0  0  0  0  0  0  0  0
   -3.2470   -4.4610    4.4656 C   0  0  0  0  0  0  0  0  0  0  0  0
   -3.4285   -5.4846    5.3596 C   0  0  0  0  0  0  0  0  0  0  0  0
   -4.5932   -5.6082    6.0780 O   0  0  0  0  0  0  0  0  0  0  0  0
  2  1  1  0  0  0
  2  3  1  0  0  0
  3  4  1  0  0  0
  4  5  1  0  0  0
  5  6  1  0  0  0
  6  7  1  0  0  0
  7  8  1  0  0  0
  8  9  1  0  0  0
  9 10  1  0  0  0
 10 11  1  0  0  0
  6 12  1  0  0  0
 12 23  1  0  0  0
 23 24  1  0  0  0
 24 25  1  0  0  0
 25 26  1  0  0  0
 26 27  1  0  0  0
 27 28  2  0  0  0
 28 29  1  0  0  0
 29 32  1  0  0  0
 32 33  1  0  0  0
 33 34  1  0  0  0
 34 35  1  0  0  0
 35 36  1  0  0  0
 36 37  2  0  0  0
 37 38  1  0  0  0
 38 39  2  0  0  0
 39 40  1  0  0  0
 40 41  2  0  0  0
 41 42  1  0  0  0
 29 30  1  0  0  0
 30 31  2  0  0  0
 12 13  1  0  0  0
 13 14  1  0  0  0
 14 15  2  0  0  0
 15 16  1  0  0  0
 16 17  1  0  0  0
 16 18  2  0  0  0
 18 19  1  0  0  0
 19 20  2  0  0  0
  7  2  1  0  0  0
 31 27  1  0  0  0
 20 14  1  0  0  0
 10  2  1  0  0  0
 42 33  1  0  0  0
 20  5  1  0  0  0
 41 36  1  0  0  0
 11 21  1  0  0  0
 17 22  1  0  0  0
M  END
> <minimizedAffinity>
8.46992

> <CNNscore>
0.3021947742

> <CNNaffinity>
7.3522787094

> <CNN_VS>
2.2218201160

> <CNNaffinity_variance>
0.6093772054

$$$$
[H]Oc1c([H])c([H])c2c(c1[H])C([H])([H])[C@@]([H])(C([H])([H])C([H])([H])C([H])([H])C([H])([H])c1nnn(C([H])([H])C3([H])Oc4c([H])c([H])c([H])c([H])c4OC3([H])[H])c1[H])[C@]1([H])[C@]2([H])C([H])([H])C([H])([H])[C@]2(C([H])([H])[H])[C@@]([H])(O[H])C([H])([H])C([H])([H])[C@]21[H]


 42 48  0  0  0  0  0  0  0  0999 V2000
  -14.4515   -7.9844    9.3326 C   0  0  0  0  0  0  0  0  0  0  0  0
  -14.0758   -7.7871    7.8900 C   0  0  0  0  0  0  0  0  0  0  0  0
  -14.3927   -8.9440    7.0204 C   0  0  0  0  0  0  0  0  0  0  0  0
  -13.3778  -10.0708    7.2600 C   0  0  0  0  0  0  0  0  0  0  0  0
  -12.0337   -9.4515    6.9511 C   0  0  0  0  0  0  0  0  0  0  0  0
  -11.7315   -8.4088    7.9914 C   0  0  0  0  0  0  0  0  0  0  0  0
  -12.6250   -7.2805    7.7390 C   0  0  0  0  0  0  0  0  0  0  0  0
  -12.7250   -6.1586    8.7069 C   0  0  0  0  0  0  0  0  0  0  0  0
  -14.0504   -5.4930    8.2766 C   0  0  0  0  0  0  0  0  0  0  0  0
  -14.7813   -6.5085    7.4381 C   0  0  0  0  0  0  0  0  0  0  0  0
  -16.1226   -6.5329    7.8602 O   0  0  0  0  0  0  0  0  0  0  0  0
  -10.2510   -8.1917    8.0114 C   0  0  0  0  0  0  0  0  0  0  0  0
   -9.6267   -8.5065    6.6390 C   0  0  0  0  0  0  0  0  0  0  0  0
   -9.7170  -10.0176    6.5708 C   0  0  0  0  0  0  0  0  0  0  0  0
   -8.6310  -10.8207    6.3620 C   0  0  0  0  0  0  0  0  0  0  0  0
   -8.8416  -12.1811    6.3366 C   0  0  0  0  0  0  0  0  0  0  0  0
   -7.7475  -13.0071    6.1254 O   0  0  0  0  0  0  0  0  0  0  0  0
  -10.1300  -12.6813    6.5212 C   0  0  0  0  0  0  0  0  0  0  0  0
  -11.2061  -11.8314    6.7303 C   0  0  0  0  0  0  0  0  0  0  0  0
  -10.9961  -10.4731    6.7553 C   0  0  0  0  0  0  0  0  0  0  0  0
  -16.4818   -7.4532    7.8795 H   0  0  0  0  0  0  0  0  0  0  0  0
   -7.4704  -13.2817    5.2026 H   0  0  0  0  0  0  0  0  0  0  0  0
   -9.8070   -6.8543    8.4870 C   0  0  0  0  0  0  0  0  0  0  0  0
   -8.6536   -6.9549    9.4597 C   0  0  0  0  0  0  0  0  0  0  0  0
   -7.3251   -6.5826    8.8178 C   0  0  0  0  0  0  0  0  0  0  0  0
   -7.0832   -7.4669    7.6370 C   0  0  0  0  0  0  0  0  0  0  0  0
   -5.6600   -7.3727    7.1896 C   0  0  0  0  0  0  0  0  0  0  0  0
   -4.9844   -6.1845    7.0151 C   0  0  0  0  0  0  0  0  0  0  0  0
   -3.7273   -6.4438    6.6084 N   0  0  0  0  0  0  0  0  0  0  0  0
   -3.6324   -7.7605    6.5347 N   0  0  0  0  0  0  0  0  0  0  0  0
   -4.7839   -8.3343    6.8803 N   0  0  0  0  0  0  0  0  0  0  0  0
   -2.6947   -5.4475    6.3144 C   0  0  0  0  0  0  0  0  0  0  0  0
   -3.0712   -4.2098    7.1374 C   0  0  0  0  0  0  0  0  0  0  0  0
   -1.8604   -3.4642    7.5959 C   0  0  0  0  0  0  0  0  0  0  0  0
   -1.8925   -2.1012    7.2921 O   0  0  0  0  0  0  0  0  0  0  0  0
   -2.5553   -1.5575    6.2075 C   0  0  0  0  0  0  0  0  0  0  0  0
   -2.2180   -0.3700    5.5988 C   0  0  0  0  0  0  0  0  0  0  0  0
   -2.9372    0.1096    4.5093 C   0  0  0  0  0  0  0  0  0  0  0  0
   -4.0081   -0.6197    4.0314 C   0  0  0  0  0  0  0  0  0  0  0  0
   -4.3485   -1.8181    4.6457 C   0  0  0  0  0  0  0  0  0  0  0  0
   -3.6309   -2.2793    5.7191 C   0  0  0  0  0  0  0  0  0  0  0  0
   -3.9529   -3.4622    6.3393 O   0  0  0  0  0  0  0  0  0  0  0  0
  2  1  1  0  0  0
  2  3  1  0  0  0
  3  4  1  0  0  0
  4  5  1  0  0  0
  5  6  1  0  0  0
  6  7  1  0  0  0
  7  8  1  0  0  0
  8  9  1  0  0  0
  9 10  1  0  0  0
 10 11  1  0  0  0
  6 12  1  0  0  0
 12 23  1  0  0  0
 23 24  1  0  0  0
 24 25  1  0  0  0
 25 26  1  0  0  0
 26 27  1  0  0  0
 27 28  2  0  0  0
 28 29  1  0  0  0
 29 32  1  0  0  0
 32 33  1  0  0  0
 33 34  1  0  0  0
 34 35  1  0  0  0
 35 36  1  0  0  0
 36 37  2  0  0  0
 37 38  1  0  0  0
 38 39  2  0  0  0
 39 40  1  0  0  0
 40 41  2  0  0  0
 41 42  1  0  0  0
 29 30  1  0  0  0
 30 31  2  0  0  0
 12 13  1  0  0  0
 13 14  1  0  0  0
 14 15  2  0  0  0
 15 16  1  0  0  0
 16 17  1  0  0  0
 16 18  2  0  0  0
 18 19  1  0  0  0
 19 20  2  0  0  0
  7  2  1  0  0  0
 31 27  1  0  0  0
 20 14  1  0  0  0
 10  2  1  0  0  0
 42 33  1  0  0  0
 20  5  1  0  0  0
 41 36  1  0  0  0
 11 21  1  0  0  0
 17 22  1  0  0  0
M  END
> <minimizedAffinity>
11.99102

> <CNNscore>
0.2887527347

> <CNNaffinity>
6.9362502098

> <CNN_VS>
2.0028612614

> <CNNaffinity_variance>
0.8926481009

$$$$
[H]/C(=C1/SC(=O)N([C@@]2([H])C([H])([H])C([H])([H])N(C([H])([H])[H])C([H])([H])[C@]2([H])F)C1=O)c1c([H])c([H])c2c(c([H])nn2C([H])([H])c2c([H])c([H])c(Cl)c([H])c2C(F)(F)F)c1[H]


 37 41  0  0  0  0  0  0  0  0999 V2000
   -3.6750   -1.8713    6.6351 C   0  0  0  0  0  0  0  0  0  0  0  0
   -2.9958   -1.1091    7.5592 C   0  0  0  0  0  0  0  0  0  0  0  0
   -2.3755   -1.7609    8.5961 C   0  0  0  0  0  0  0  0  0  0  0  0
   -2.4047   -3.1396    8.7540 C   0  0  0  0  0  0  0  0  0  0  0  0
   -1.8786   -3.9612    9.6397 N   0  0  0  0  0  0  0  0  0  0  0  0
   -2.2451   -5.2360    9.2528 N   0  0  0  0  0  0  0  0  0  0  0  0
   -2.9805   -5.1764    8.1476 C   0  0  0  0  0  0  0  0  0  0  0  0
   -3.1165   -3.8749    7.7820 C   0  0  0  0  0  0  0  0  0  0  0  0
   -3.7270   -3.2332    6.7597 C   0  0  0  0  0  0  0  0  0  0  0  0
   -3.0286   -1.0402    2.0148 N   0  0  0  0  0  0  0  0  0  0  0  0
   -1.9707   -1.9073    2.3733 C   0  0  0  0  0  0  0  0  0  0  0  0
   -1.1054   -2.4404    1.6259 O   0  0  0  0  0  0  0  0  0  0  0  0
   -2.0600   -2.1353    4.1267 S   0  0  0  0  0  0  0  0  0  0  0  0
   -3.6330   -1.2694    4.3453 C   0  0  0  0  0  0  0  0  0  0  0  0
   -4.2984   -1.1956    5.5064 C   0  0  0  0  0  0  0  0  0  0  0  0
   -3.9136   -0.7004    3.0523 C   0  0  0  0  0  0  0  0  0  0  0  0
   -4.9373    0.0818    2.8779 O   0  0  0  0  0  0  0  0  0  0  0  0
   -4.0429    0.5409   -2.4269 C   0  0  0  0  0  0  0  0  0  0  0  0
   -2.8785    0.9395   -1.6911 N   0  0  0  0  0  0  0  0  0  0  0  0
   -3.1635    1.6943   -0.4963 C   0  0  0  0  0  0  0  0  0  0  0  0
   -3.7962    0.8199    0.5736 C   0  0  0  0  0  0  0  0  0  0  0  0
   -3.1199   -0.5215    0.6246 C   0  0  0  0  0  0  0  0  0  0  0  0
   -1.7496   -0.4483    0.0021 C   0  0  0  0  0  0  0  0  0  0  0  0
   -1.2223   -1.7301    0.0740 F   0  0  0  0  0  0  0  0  0  0  0  0
   -1.9669   -0.1536   -1.4774 C   0  0  0  0  0  0  0  0  0  0  0  0
   -1.0606   -3.7707   10.8140 C   0  0  0  0  0  0  0  0  0  0  0  0
   -1.7609   -3.7910   12.0859 C   0  0  0  0  0  0  0  0  0  0  0  0
   -2.1337   -5.0769   12.5312 C   0  0  0  0  0  0  0  0  0  0  0  0
   -2.8791   -5.2858   13.6642 C   0  0  0  0  0  0  0  0  0  0  0  0
   -3.2952   -4.2096   14.4180 C   0  0  0  0  0  0  0  0  0  0  0  0
   -4.2607   -4.3957   15.8833 Cl  0  0  0  0  0  0  0  0  0  0  0  0
   -2.9318   -2.9691   13.9844 C   0  0  0  0  0  0  0  0  0  0  0  0
   -2.1671   -2.7237   12.8283 C   0  0  0  0  0  0  0  0  0  0  0  0
   -1.7841   -1.3452   12.5199 C   0  0  0  0  0  0  0  0  0  0  0  0
   -1.1679   -0.7257   13.6265 F   0  0  0  0  0  0  0  0  0  0  0  0
   -3.0229   -0.5984   12.4968 F   0  0  0  0  0  0  0  0  0  0  0  0
   -1.2392   -1.0637   11.3305 F   0  0  0  0  0  0  0  0  0  0  0  0
 18 19  1  0  0  0
 19 20  1  0  0  0
 20 21  1  0  0  0
 21 22  1  0  0  0
 22 23  1  0  0  0
 23 24  1  0  0  0
 23 25  1  0  0  0
 22 10  1  0  0  0
 10 11  1  0  0  0
 11 12  2  0  0  0
 11 13  1  0  0  0
 13 14  1  0  0  0
 14 15  2  0  0  0
 15  1  1  0  0  0
  1  2  2  0  0  0
  2  3  1  0  0  0
  3  4  2  0  0  0
  4  5  1  0  0  0
  5 26  1  0  0  0
 26 27  1  0  0  0
 27 28  2  0  0  0
 28 29  1  0  0  0
 29 30  2  0  0  0
 30 31  1  0  0  0
 30 32  1  0  0  0
 32 33  2  0  0  0
 33 34  1  0  0  0
 34 35  1  0  0  0
 34 36  1  0  0  0
 34 37  1  0  0  0
  5  6  1  0  0  0
  6  7  2  0  0  0
  7  8  1  0  0  0
  8  9  2  0  0  0
 14 16  1  0  0  0
 16 17  2  0  0  0
 25 19  1  0  0  0
 16 10  1  0  0  0
  9  1  1  0  0  0
  8  4  1  0  0  0
 33 27  1  0  0  0
M  END
> <minimizedAffinity>
-3.23667

> <CNNscore>
0.4292843640

> <CNNaffinity>
5.7519898415

> <CNN_VS>
2.4692392349

> <CNNaffinity_variance>
0.7292874455

$$$$
[H]/C(=C1/SC(=O)N([C@@]2([H])C([H])([H])C([H])([H])N(C([H])([H])[H])C([H])([H])[C@]2([H])F)C1=O)c1c([H])c([H])c2c(c([H])nn2C([H])([H])c2c([H])c([H])c(Cl)c([H])c2C(F)(F)F)c1[H]


 37 41  0  0  0  0  0  0  0  0999 V2000
   -7.4521   -8.8018    4.5312 C   0  0  0  0  0  0  0  0  0  0  0  0
   -8.3014   -9.7861    4.9852 C   0  0  0  0  0  0  0  0  0  0  0  0
   -8.5345  -10.8607    4.1632 C   0  0  0  0  0  0  0  0  0  0  0  0
   -7.9604  -10.9960    2.9068 C   0  0  0  0  0  0  0  0  0  0  0  0
   -8.0252  -11.9272    1.9768 N   0  0  0  0  0  0  0  0  0  0  0  0
   -7.2103  -11.5030    0.9447 N   0  0  0  0  0  0  0  0  0  0  0  0
   -6.6639  -10.3322    1.2556 C   0  0  0  0  0  0  0  0  0  0  0  0
   -7.1002   -9.9587    2.4869 C   0  0  0  0  0  0  0  0  0  0  0  0
   -6.8694   -8.9003    3.2969 C   0  0  0  0  0  0  0  0  0  0  0  0
   -4.1018   -7.1850    7.4667 N   0  0  0  0  0  0  0  0  0  0  0  0
   -3.5433   -8.3515    6.8950 C   0  0  0  0  0  0  0  0  0  0  0  0
   -2.3778   -8.8134    7.0352 O   0  0  0  0  0  0  0  0  0  0  0  0
   -4.8055   -9.0964    5.9019 S   0  0  0  0  0  0  0  0  0  0  0  0
   -5.9912   -7.7398    6.0626 C   0  0  0  0  0  0  0  0  0  0  0  0
   -7.1614   -7.6798    5.4121 C   0  0  0  0  0  0  0  0  0  0  0  0
   -5.3956   -6.8537    7.0292 C   0  0  0  0  0  0  0  0  0  0  0  0
   -6.0389   -5.8085    7.4583 O   0  0  0  0  0  0  0  0  0  0  0  0
   -1.0601   -5.1458   10.6047 C   0  0  0  0  0  0  0  0  0  0  0  0
   -2.2007   -4.4723   10.0556 N   0  0  0  0  0  0  0  0  0  0  0  0
   -2.1324   -4.2583    8.6316 C   0  0  0  0  0  0  0  0  0  0  0  0
   -2.2746   -5.5644    7.8676 C   0  0  0  0  0  0  0  0  0  0  0  0
   -3.3374   -6.4253    8.4908 C   0  0  0  0  0  0  0  0  0  0  0  0
   -4.2713   -5.5912    9.3291 C   0  0  0  0  0  0  0  0  0  0  0  0
   -5.1924   -6.4731    9.8769 F   0  0  0  0  0  0  0  0  0  0  0  0
   -3.4418   -5.0570   10.4907 C   0  0  0  0  0  0  0  0  0  0  0  0
   -8.7222  -13.1874    1.8744 C   0  0  0  0  0  0  0  0  0  0  0  0
   -8.3466  -14.2016    2.8433 C   0  0  0  0  0  0  0  0  0  0  0  0
   -9.0996  -14.1822    4.0363 C   0  0  0  0  0  0  0  0  0  0  0  0
   -8.8302  -15.0053    5.1007 C   0  0  0  0  0  0  0  0  0  0  0  0
   -7.7833  -15.8988    5.0274 C   0  0  0  0  0  0  0  0  0  0  0  0
   -7.3704  -16.9855    6.3550 Cl  0  0  0  0  0  0  0  0  0  0  0  0
   -7.0591  -15.9145    3.8723 C   0  0  0  0  0  0  0  0  0  0  0  0
   -7.3123  -15.0843    2.7641 C   0  0  0  0  0  0  0  0  0  0  0  0
   -6.5028  -15.2588    1.5573 C   0  0  0  0  0  0  0  0  0  0  0  0
   -7.1224  -16.1412    0.6488 F   0  0  0  0  0  0  0  0  0  0  0  0
   -5.3870  -16.0870    1.9598 F   0  0  0  0  0  0  0  0  0  0  0  0
   -5.9064  -14.1956    1.0052 F   0  0  0  0  0  0  0  0  0  0  0  0
 18 19  1  0  0  0
 19 20  1  0  0  0
 20 21  1  0  0  0
 21 22  1  0  0  0
 22 23  1  0  0  0
 23 24  1  0  0  0
 23 25  1  0  0  0
 22 10  1  0  0  0
 10 11  1  0  0  0
 11 12  2  0  0  0
 11 13  1  0  0  0
 13 14  1  0  0  0
 14 15  2  0  0  0
 15  1  1  0  0  0
  1  2  2  0  0  0
  2  3  1  0  0  0
  3  4  2  0  0  0
  4  5  1  0  0  0
  5 26  1  0  0  0
 26 27  1  0  0  0
 27 28  2  0  0  0
 28 29  1  0  0  0
 29 30  2  0  0  0
 30 31  1  0  0  0
 30 32  1  0  0  0
 32 33  2  0  0  0
 33 34  1  0  0  0
 34 35  1  0  0  0
 34 36  1  0  0  0
 34 37  1  0  0  0
  5  6  1  0  0  0
  6  7  2  0  0  0
  7  8  1  0  0  0
  8  9  2  0  0  0
 14 16  1  0  0  0
 16 17  2  0  0  0
 25 19  1  0  0  0
 16 10  1  0  0  0
  9  1  1  0  0  0
  8  4  1  0  0  0
 33 27  1  0  0  0
M  END
> <minimizedAffinity>
20.37220

> <CNNscore>
0.4197325706

> <CNNaffinity>
5.9654941559

> <CNN_VS>
2.5039122105

> <CNNaffinity_variance>
1.0971453190

$$$$
[H]/C(=C1/SC(=O)N([C@@]2([H])C([H])([H])C([H])([H])N(C([H])([H])[H])C([H])([H])[C@]2([H])F)C1=O)c1c([H])c([H])c2c(c([H])nn2C([H])([H])c2c([H])c([H])c(Cl)c([H])c2C(F)(F)F)c1[H]


 37 41  0  0  0  0  0  0  0  0999 V2000
   -8.4338   -7.8820    8.2627 C   0  0  0  0  0  0  0  0  0  0  0  0
   -9.6266   -7.3182    8.6569 C   0  0  0  0  0  0  0  0  0  0  0  0
  -10.7868   -7.9664    8.3125 C   0  0  0  0  0  0  0  0  0  0  0  0
  -10.8104   -9.1510    7.5895 C   0  0  0  0  0  0  0  0  0  0  0  0
  -11.7811   -9.9385    7.1727 N   0  0  0  0  0  0  0  0  0  0  0  0
  -11.1727  -10.9901    6.5145 N   0  0  0  0  0  0  0  0  0  0  0  0
   -9.8534  -10.8330    6.5392 C   0  0  0  0  0  0  0  0  0  0  0  0
   -9.5617   -9.6861    7.2068 C   0  0  0  0  0  0  0  0  0  0  0  0
   -8.4183   -9.0483    7.5468 C   0  0  0  0  0  0  0  0  0  0  0  0
   -4.8338   -5.3824    6.4604 N   0  0  0  0  0  0  0  0  0  0  0  0
   -5.7236   -5.5602    5.3759 C   0  0  0  0  0  0  0  0  0  0  0  0
   -5.6499   -5.0768    4.2130 O   0  0  0  0  0  0  0  0  0  0  0  0
   -7.0218   -6.6233    5.9405 S   0  0  0  0  0  0  0  0  0  0  0  0
   -6.5052   -6.6404    7.6740 C   0  0  0  0  0  0  0  0  0  0  0  0
   -7.1955   -7.2283    8.6609 C   0  0  0  0  0  0  0  0  0  0  0  0
   -5.2419   -5.9489    7.6801 C   0  0  0  0  0  0  0  0  0  0  0  0
   -4.5349   -5.8649    8.7680 O   0  0  0  0  0  0  0  0  0  0  0  0
   -1.0604   -2.5409    5.4885 C   0  0  0  0  0  0  0  0  0  0  0  0
   -1.0610   -3.5287    6.5279 N   0  0  0  0  0  0  0  0  0  0  0  0
   -1.9975   -3.2668    7.5922 C   0  0  0  0  0  0  0  0  0  0  0  0
   -3.4320   -3.4544    7.1266 C   0  0  0  0  0  0  0  0  0  0  0  0
   -3.5458   -4.6703    6.2503 C   0  0  0  0  0  0  0  0  0  0  0  0
   -2.3869   -5.6041    6.4859 C   0  0  0  0  0  0  0  0  0  0  0  0
   -2.5684   -6.6732    5.6197 F   0  0  0  0  0  0  0  0  0  0  0  0
   -1.1406   -4.8683    6.0080 C   0  0  0  0  0  0  0  0  0  0  0  0
  -13.2196   -9.8952    7.2883 C   0  0  0  0  0  0  0  0  0  0  0  0
  -13.8573   -8.6750    6.8269 C   0  0  0  0  0  0  0  0  0  0  0  0
  -13.9864   -8.5730    5.4256 C   0  0  0  0  0  0  0  0  0  0  0  0
  -14.4816   -7.4551    4.8026 C   0  0  0  0  0  0  0  0  0  0  0  0
  -14.8766   -6.3702    5.5553 C   0  0  0  0  0  0  0  0  0  0  0  0
  -15.5175   -4.8955    4.8284 Cl  0  0  0  0  0  0  0  0  0  0  0  0
  -14.7509   -6.4738    6.9090 C   0  0  0  0  0  0  0  0  0  0  0  0
  -14.2486   -7.6070    7.5762 C   0  0  0  0  0  0  0  0  0  0  0  0
  -14.2390   -7.6125    9.0397 C   0  0  0  0  0  0  0  0  0  0  0  0
  -15.5318   -7.8285    9.5590 F   0  0  0  0  0  0  0  0  0  0  0  0
  -14.0616   -6.2302    9.4278 F   0  0  0  0  0  0  0  0  0  0  0  0
  -13.2501   -8.2382    9.6891 F   0  0  0  0  0  0  0  0  0  0  0  0
 18 19  1  0  0  0
 19 20  1  0  0  0
 20 21  1  0  0  0
 21 22  1  0  0  0
 22 23  1  0  0  0
 23 24  1  0  0  0
 23 25  1  0  0  0
 22 10  1  0  0  0
 10 11  1  0  0  0
 11 12  2  0  0  0
 11 13  1  0  0  0
 13 14  1  0  0  0
 14 15  2  0  0  0
 15  1  1  0  0  0
  1  2  2  0  0  0
  2  3  1  0  0  0
  3  4  2  0  0  0
  4  5  1  0  0  0
  5 26  1  0  0  0
 26 27  1  0  0  0
 27 28  2  0  0  0
 28 29  1  0  0  0
 29 30  2  0  0  0
 30 31  1  0  0  0
 30 32  1  0  0  0
 32 33  2  0  0  0
 33 34  1  0  0  0
 34 35  1  0  0  0
 34 36  1  0  0  0
 34 37  1  0  0  0
  5  6  1  0  0  0
  6  7  2  0  0  0
  7  8  1  0  0  0
  8  9  2  0  0  0
 14 16  1  0  0  0
 16 17  2  0  0  0
 25 19  1  0  0  0
 16 10  1  0  0  0
  9  1  1  0  0  0
  8  4  1  0  0  0
 33 27  1  0  0  0
M  END
> <minimizedAffinity>
-7.74583

> <CNNscore>
0.4127382636

> <CNNaffinity>
7.2554116249

> <CNN_VS>
2.9945859909

> <CNNaffinity_variance>
0.2656683922

$$$$
[H]/C(=C1/SC(=O)N([C@@]2([H])C([H])([H])C([H])([H])N(C([H])([H])[H])C([H])([H])[C@]2([H])F)C1=O)c1c([H])c([H])c2c(c([H])nn2C([H])([H])c2c([H])c([H])c(Cl)c([H])c2C(F)(F)F)c1[H]


 37 41  0  0  0  0  0  0  0  0999 V2000
  -12.0945   -6.5355    7.0250 C   0  0  0  0  0  0  0  0  0  0  0  0
  -12.5235   -7.8439    7.0155 C   0  0  0  0  0  0  0  0  0  0  0  0
  -13.5773   -8.1670    6.1970 C   0  0  0  0  0  0  0  0  0  0  0  0
  -14.2245   -7.2422    5.3894 C   0  0  0  0  0  0  0  0  0  0  0  0
  -15.2209   -7.3292    4.5316 N   0  0  0  0  0  0  0  0  0  0  0  0
  -15.4028   -6.0597    4.0173 N   0  0  0  0  0  0  0  0  0  0  0  0
  -14.5237   -5.2243    4.5606 C   0  0  0  0  0  0  0  0  0  0  0  0
  -13.7487   -5.9142    5.4378 C   0  0  0  0  0  0  0  0  0  0  0  0
  -12.7098   -5.5957    6.2433 C   0  0  0  0  0  0  0  0  0  0  0  0
   -7.3835   -7.0174    7.1987 N   0  0  0  0  0  0  0  0  0  0  0  0
   -7.7540   -7.5749    5.9532 C   0  0  0  0  0  0  0  0  0  0  0  0
   -7.0065   -8.0066    5.0332 O   0  0  0  0  0  0  0  0  0  0  0  0
   -9.5232   -7.5699    5.8897 S   0  0  0  0  0  0  0  0  0  0  0  0
   -9.7595   -6.6193    7.4104 C   0  0  0  0  0  0  0  0  0  0  0  0
  -10.9490   -6.1899    7.8543 C   0  0  0  0  0  0  0  0  0  0  0  0
   -8.4389   -6.5074    7.9740 C   0  0  0  0  0  0  0  0  0  0  0  0
   -8.2571   -5.9589    9.1387 O   0  0  0  0  0  0  0  0  0  0  0  0
   -2.9983   -7.4487    9.1588 C   0  0  0  0  0  0  0  0  0  0  0  0
   -3.2247   -7.2900    7.7518 N   0  0  0  0  0  0  0  0  0  0  0  0
   -3.9308   -8.3873    7.1389 C   0  0  0  0  0  0  0  0  0  0  0  0
   -5.3846   -8.4263    7.5802 C   0  0  0  0  0  0  0  0  0  0  0  0
   -5.9587   -7.0378    7.6229 C   0  0  0  0  0  0  0  0  0  0  0  0
   -5.1447   -6.1010    6.7683 C   0  0  0  0  0  0  0  0  0  0  0  0
   -5.7347   -4.8510    6.8934 F   0  0  0  0  0  0  0  0  0  0  0  0
   -3.7752   -5.9998    7.4294 C   0  0  0  0  0  0  0  0  0  0  0  0
  -16.0561   -8.4170    4.0802 C   0  0  0  0  0  0  0  0  0  0  0  0
  -17.3969   -8.4611    4.6358 C   0  0  0  0  0  0  0  0  0  0  0  0
  -17.8527   -9.7541    4.9692 C   0  0  0  0  0  0  0  0  0  0  0  0
  -19.1241  -10.0019    5.4221 C   0  0  0  0  0  0  0  0  0  0  0  0
  -20.0149   -8.9601    5.5659 C   0  0  0  0  0  0  0  0  0  0  0  0
  -21.6676   -9.1984    6.1364 Cl  0  0  0  0  0  0  0  0  0  0  0  0
  -19.5697   -7.7124    5.2434 C   0  0  0  0  0  0  0  0  0  0  0  0
  -18.2720   -7.4271    4.7784 C   0  0  0  0  0  0  0  0  0  0  0  0
  -17.9029   -6.0309    4.5412 C   0  0  0  0  0  0  0  0  0  0  0  0
  -17.1943   -5.4958    5.6364 F   0  0  0  0  0  0  0  0  0  0  0  0
  -19.1329   -5.2808    4.6727 F   0  0  0  0  0  0  0  0  0  0  0  0
  -17.4529   -5.6646    3.3352 F   0  0  0  0  0  0  0  0  0  0  0  0
 18 19  1  0  0  0
 19 20  1  0  0  0
 20 21  1  0  0  0
 21 22  1  0  0  0
 22 23  1  0  0  0
 23 24  1  0  0  0
 23 25  1  0  0  0
 22 10  1  0  0  0
 10 11  1  0  0  0
 11 12  2  0  0  0
 11 13  1  0  0  0
 13 14  1  0  0  0
 14 15  2  0  0  0
 15  1  1  0  0  0
  1  2  2  0  0  0
  2  3  1  0  0  0
  3  4  2  0  0  0
  4  5  1  0  0  0
  5 26  1  0  0  0
 26 27  1  0  0  0
 27 28  2  0  0  0
 28 29  1  0  0  0
 29 30  2  0  0  0
 30 31  1  0  0  0
 30 32  1  0  0  0
 32 33  2  0  0  0
 33 34  1  0  0  0
 34 35  1  0  0  0
 34 36  1  0  0  0
 34 37  1  0  0  0
  5  6  1  0  0  0
  6  7  2  0  0  0
  7  8  1  0  0  0
  8  9  2  0  0  0
 14 16  1  0  0  0
 16 17  2  0  0  0
 25 19  1  0  0  0
 16 10  1  0  0  0
  9  1  1  0  0  0
  8  4  1  0  0  0
 33 27  1  0  0  0
M  END
> <minimizedAffinity>
14.08268

> <CNNscore>
0.3804740310

> <CNNaffinity>
6.7959051132

> <CNN_VS>
2.5856654644

> <CNNaffinity_variance>
1.6963026524

$$$$
[H]/C(=C1/SC(=O)N([C@@]2([H])C([H])([H])C([H])([H])N(C([H])([H])[H])C([H])([H])[C@]2([H])F)C1=O)c1c([H])c([H])c2c(c([H])nn2C([H])([H])c2c([H])c([H])c(Cl)c([H])c2C(F)(F)F)c1[H]


 37 41  0  0  0  0  0  0  0  0999 V2000
  -11.1737   -7.5398    8.3011 C   0  0  0  0  0  0  0  0  0  0  0  0
  -10.6841   -8.4589    7.4000 C   0  0  0  0  0  0  0  0  0  0  0  0
   -9.3418   -8.7443    7.4410 C   0  0  0  0  0  0  0  0  0  0  0  0
   -8.4652   -8.1514    8.3390 C   0  0  0  0  0  0  0  0  0  0  0  0
   -7.1739   -8.2834    8.5655 N   0  0  0  0  0  0  0  0  0  0  0  0
   -6.8741   -7.4327    9.6122 N   0  0  0  0  0  0  0  0  0  0  0  0
   -7.9744   -6.8010   10.0074 C   0  0  0  0  0  0  0  0  0  0  0  0
   -9.0161   -7.2143    9.2393 C   0  0  0  0  0  0  0  0  0  0  0  0
  -10.3387   -6.9336    9.2000 C   0  0  0  0  0  0  0  0  0  0  0  0
  -14.9475   -7.6439    5.4369 N   0  0  0  0  0  0  0  0  0  0  0  0
  -13.8974   -8.1915    4.6643 C   0  0  0  0  0  0  0  0  0  0  0  0
  -13.9545   -8.7013    3.5118 O   0  0  0  0  0  0  0  0  0  0  0  0
  -12.4163   -8.0386    5.6219 S   0  0  0  0  0  0  0  0  0  0  0  0
  -13.2310   -7.4630    7.1309 C   0  0  0  0  0  0  0  0  0  0  0  0
  -12.6029   -7.2627    8.2977 C   0  0  0  0  0  0  0  0  0  0  0  0
  -14.6031   -7.2587    6.7438 C   0  0  0  0  0  0  0  0  0  0  0  0
  -15.4595   -6.7450    7.5762 O   0  0  0  0  0  0  0  0  0  0  0  0
  -19.1037   -7.5793    2.9915 C   0  0  0  0  0  0  0  0  0  0  0  0
  -18.9973   -7.2432    4.3814 N   0  0  0  0  0  0  0  0  0  0  0  0
  -18.5908   -8.3390    5.2254 C   0  0  0  0  0  0  0  0  0  0  0  0
  -17.1360   -8.7100    4.9894 C   0  0  0  0  0  0  0  0  0  0  0  0
  -16.2962   -7.4730    4.8350 C   0  0  0  0  0  0  0  0  0  0  0  0
  -16.9919   -6.2809    5.4394 C   0  0  0  0  0  0  0  0  0  0  0  0
  -16.1556   -5.1942    5.2248 F   0  0  0  0  0  0  0  0  0  0  0  0
  -18.2380   -6.0395    4.5956 C   0  0  0  0  0  0  0  0  0  0  0  0
   -6.1349   -9.0918    7.9725 C   0  0  0  0  0  0  0  0  0  0  0  0
   -5.1831   -8.3868    7.1327 C   0  0  0  0  0  0  0  0  0  0  0  0
   -3.8628   -8.3664    7.6300 C   0  0  0  0  0  0  0  0  0  0  0  0
   -2.8476   -7.6736    7.0197 C   0  0  0  0  0  0  0  0  0  0  0  0
   -3.1020   -6.9576    5.8699 C   0  0  0  0  0  0  0  0  0  0  0  0
   -1.8520   -6.0372    5.0307 Cl  0  0  0  0  0  0  0  0  0  0  0  0
   -4.3790   -6.9810    5.3927 C   0  0  0  0  0  0  0  0  0  0  0  0
   -5.4400   -7.6831    5.9952 C   0  0  0  0  0  0  0  0  0  0  0  0
   -6.7457   -7.6840    5.3340 C   0  0  0  0  0  0  0  0  0  0  0  0
   -7.3630   -8.9484    5.4224 F   0  0  0  0  0  0  0  0  0  0  0  0
   -6.4584   -7.6653    3.9163 F   0  0  0  0  0  0  0  0  0  0  0  0
   -7.5635   -6.6363    5.4905 F   0  0  0  0  0  0  0  0  0  0  0  0
 18 19  1  0  0  0
 19 20  1  0  0  0
 20 21  1  0  0  0
 21 22  1  0  0  0
 22 23  1  0  0  0
 23 24  1  0  0  0
 23 25  1  0  0  0
 22 10  1  0  0  0
 10 11  1  0  0  0
 11 12  2  0  0  0
 11 13  1  0  0  0
 13 14  1  0  0  0
 14 15  2  0  0  0
 15  1  1  0  0  0
  1  2  2  0  0  0
  2  3  1  0  0  0
  3  4  2  0  0  0
  4  5  1  0  0  0
  5 26  1  0  0  0
 26 27  1  0  0  0
 27 28  2  0  0  0
 28 29  1  0  0  0
 29 30  2  0  0  0
 30 31  1  0  0  0
 30 32  1  0  0  0
 32 33  2  0  0  0
 33 34  1  0  0  0
 34 35  1  0  0  0
 34 36  1  0  0  0
 34 37  1  0  0  0
  5  6  1  0  0  0
  6  7  2  0  0  0
  7  8  1  0  0  0
  8  9  2  0  0  0
 14 16  1  0  0  0
 16 17  2  0  0  0
 25 19  1  0  0  0
 16 10  1  0  0  0
  9  1  1  0  0  0
  8  4  1  0  0  0
 33 27  1  0  0  0
M  END
> <minimizedAffinity>
3.82841

> <CNNscore>
0.3787284493

> <CNNaffinity>
7.0077652931

> <CNN_VS>
2.6540400982

> <CNNaffinity_variance>
1.8441753387

$$$$
[H]/C(=C1/SC(=O)N([C@@]2([H])C([H])([H])C([H])([H])N(C([H])([H])[H])C([H])([H])[C@]2([H])F)C1=O)c1c([H])c([H])c2c(c([H])nn2C([H])([H])c2c([H])c([H])c(Cl)c([H])c2C(F)(F)F)c1[H]


 37 41  0  0  0  0  0  0  0  0999 V2000
  -10.3696   -7.6544    8.4944 C   0  0  0  0  0  0  0  0  0  0  0  0
  -11.2679   -6.6711    8.8443 C   0  0  0  0  0  0  0  0  0  0  0  0
  -12.5790   -6.8394    8.4735 C   0  0  0  0  0  0  0  0  0  0  0  0
  -13.0338   -7.9437    7.7665 C   0  0  0  0  0  0  0  0  0  0  0  0
  -14.2209   -8.3145    7.3311 N   0  0  0  0  0  0  0  0  0  0  0  0
  -14.0421   -9.5338    6.7062 N   0  0  0  0  0  0  0  0  0  0  0  0
  -12.7629   -9.8879    6.7691 C   0  0  0  0  0  0  0  0  0  0  0  0
  -12.0732   -8.9214    7.4294 C   0  0  0  0  0  0  0  0  0  0  0  0
  -10.7815   -8.7565    7.7955 C   0  0  0  0  0  0  0  0  0  0  0  0
   -6.0708   -6.6165    6.7917 N   0  0  0  0  0  0  0  0  0  0  0  0
   -6.9435   -6.4333    5.6943 C   0  0  0  0  0  0  0  0  0  0  0  0
   -6.6761   -5.9877    4.5448 O   0  0  0  0  0  0  0  0  0  0  0  0
   -8.5515   -6.9563    6.2189 S   0  0  0  0  0  0  0  0  0  0  0  0
   -8.1093   -7.1966    7.9564 C   0  0  0  0  0  0  0  0  0  0  0  0
   -8.9854   -7.5094    8.9213 C   0  0  0  0  0  0  0  0  0  0  0  0
   -6.6807   -7.0177    7.9925 C   0  0  0  0  0  0  0  0  0  0  0  0
   -6.0125   -7.2211    9.0891 O   0  0  0  0  0  0  0  0  0  0  0  0
   -1.5044   -5.3779    5.8581 C   0  0  0  0  0  0  0  0  0  0  0  0
   -1.8901   -6.2066    6.9629 N   0  0  0  0  0  0  0  0  0  0  0  0
   -2.7076   -5.5398    7.9454 C   0  0  0  0  0  0  0  0  0  0  0  0
   -4.0989   -5.2523    7.4056 C   0  0  0  0  0  0  0  0  0  0  0  0
   -4.6076   -6.4233    6.6123 C   0  0  0  0  0  0  0  0  0  0  0  0
   -3.8641   -7.6797    6.9855 C   0  0  0  0  0  0  0  0  0  0  0  0
   -4.3843   -8.6893    6.1877 F   0  0  0  0  0  0  0  0  0  0  0  0
   -2.4227   -7.4735    6.5353 C   0  0  0  0  0  0  0  0  0  0  0  0
  -15.5375   -7.7263    7.4021 C   0  0  0  0  0  0  0  0  0  0  0  0
  -16.1970   -7.4901    6.1302 C   0  0  0  0  0  0  0  0  0  0  0  0
  -17.2716   -8.3619    5.8545 C   0  0  0  0  0  0  0  0  0  0  0  0
  -17.9556   -8.3482    4.6650 C   0  0  0  0  0  0  0  0  0  0  0  0
  -17.5970   -7.4541    3.6793 C   0  0  0  0  0  0  0  0  0  0  0  0
  -18.4232   -7.3790    2.1219 Cl  0  0  0  0  0  0  0  0  0  0  0  0
  -16.5586   -6.6131    3.9506 C   0  0  0  0  0  0  0  0  0  0  0  0
  -15.8397   -6.6025    5.1608 C   0  0  0  0  0  0  0  0  0  0  0  0
  -14.7954   -5.5943    5.3477 C   0  0  0  0  0  0  0  0  0  0  0  0
  -14.8361   -4.6207    4.3287 F   0  0  0  0  0  0  0  0  0  0  0  0
  -13.5578   -6.2523    4.9898 F   0  0  0  0  0  0  0  0  0  0  0  0
  -14.5447   -5.1261    6.5761 F   0  0  0  0  0  0  0  0  0  0  0  0
 18 19  1  0  0  0
 19 20  1  0  0  0
 20 21  1  0  0  0
 21 22  1  0  0  0
 22 23  1  0  0  0
 23 24  1  0  0  0
 23 25  1  0  0  0
 22 10  1  0  0  0
 10 11  1  0  0  0
 11 12  2  0  0  0
 11 13  1  0  0  0
 13 14  1  0  0  0
 14 15  2  0  0  0
 15  1  1  0  0  0
  1  2  2  0  0  0
  2  3  1  0  0  0
  3  4  2  0  0  0
  4  5  1  0  0  0
  5 26  1  0  0  0
 26 27  1  0  0  0
 27 28  2  0  0  0
 28 29  1  0  0  0
 29 30  2  0  0  0
 30 31  1  0  0  0
 30 32  1  0  0  0
 32 33  2  0  0  0
 33 34  1  0  0  0
 34 35  1  0  0  0
 34 36  1  0  0  0
 34 37  1  0  0  0
  5  6  1  0  0  0
  6  7  2  0  0  0
  7  8  1  0  0  0
  8  9  2  0  0  0
 14 16  1  0  0  0
 16 17  2  0  0  0
 25 19  1  0  0  0
 16 10  1  0  0  0
  9  1  1  0  0  0
  8  4  1  0  0  0
 33 27  1  0  0  0
M  END
> <minimizedAffinity>
-7.35818

> <CNNscore>
0.3510137200

> <CNNaffinity>
7.2719779015

> <CNN_VS>
2.5525639057

> <CNNaffinity_variance>
0.2049105614

$$$$
[H]/C(=C1/SC(=O)N([C@@]2([H])C([H])([H])C([H])([H])N(C([H])([H])[H])C([H])([H])[C@]2([H])F)C1=O)c1c([H])c([H])c2c(c([H])nn2C([H])([H])c2c([H])c([H])c(Cl)c([H])c2C(F)(F)F)c1[H]


 37 41  0  0  0  0  0  0  0  0999 V2000
  -10.8481   -6.7628    6.6391 C   0  0  0  0  0  0  0  0  0  0  0  0
  -10.8525   -6.6021    8.0067 C   0  0  0  0  0  0  0  0  0  0  0  0
  -12.0082   -6.9035    8.6837 C   0  0  0  0  0  0  0  0  0  0  0  0
  -13.1611   -7.3555    8.0569 C   0  0  0  0  0  0  0  0  0  0  0  0
  -14.3500   -7.7146    8.4971 N   0  0  0  0  0  0  0  0  0  0  0  0
  -15.0777   -8.0936    7.3853 N   0  0  0  0  0  0  0  0  0  0  0  0
  -14.3311   -7.9638    6.2936 C   0  0  0  0  0  0  0  0  0  0  0  0
  -13.1058   -7.5004    6.6540 C   0  0  0  0  0  0  0  0  0  0  0  0
  -11.9670   -7.2046    5.9867 C   0  0  0  0  0  0  0  0  0  0  0  0
   -6.1425   -7.0285    7.1321 N   0  0  0  0  0  0  0  0  0  0  0  0
   -6.6589   -7.6135    8.3114 C   0  0  0  0  0  0  0  0  0  0  0  0
   -6.0304   -8.1838    9.2447 O   0  0  0  0  0  0  0  0  0  0  0  0
   -8.4165   -7.4062    8.2651 S   0  0  0  0  0  0  0  0  0  0  0  0
   -8.4808   -6.7535    6.5793 C   0  0  0  0  0  0  0  0  0  0  0  0
   -9.6148   -6.4900    5.9153 C   0  0  0  0  0  0  0  0  0  0  0  0
   -7.1004   -6.5736    6.2099 C   0  0  0  0  0  0  0  0  0  0  0  0
   -6.7817   -6.0188    5.0781 O   0  0  0  0  0  0  0  0  0  0  0  0
   -1.5055   -5.8796    6.4721 C   0  0  0  0  0  0  0  0  0  0  0  0
   -1.9391   -7.0273    7.2144 N   0  0  0  0  0  0  0  0  0  0  0  0
   -2.6708   -6.7127    8.4161 C   0  0  0  0  0  0  0  0  0  0  0  0
   -4.0424   -6.1417    8.0962 C   0  0  0  0  0  0  0  0  0  0  0  0
   -4.6724   -6.8933    6.9571 C   0  0  0  0  0  0  0  0  0  0  0  0
   -4.0368   -8.2506    6.8015 C   0  0  0  0  0  0  0  0  0  0  0  0
   -4.6637   -8.8502    5.7181 F   0  0  0  0  0  0  0  0  0  0  0  0
   -2.5932   -8.0014    6.3809 C   0  0  0  0  0  0  0  0  0  0  0  0
  -14.9493   -7.7818    9.8089 C   0  0  0  0  0  0  0  0  0  0  0  0
  -16.0320   -8.7368    9.9643 C   0  0  0  0  0  0  0  0  0  0  0  0
  -16.8061   -8.9419    8.8027 C   0  0  0  0  0  0  0  0  0  0  0  0
  -17.9232   -9.7387    8.7831 C   0  0  0  0  0  0  0  0  0  0  0  0
  -18.3288  -10.3775    9.9350 C   0  0  0  0  0  0  0  0  0  0  0  0
  -19.7565  -11.4130    9.9917 Cl  0  0  0  0  0  0  0  0  0  0  0  0
  -17.5771  -10.1770   11.0547 C   0  0  0  0  0  0  0  0  0  0  0  0
  -16.4265   -9.3676   11.1052 C   0  0  0  0  0  0  0  0  0  0  0  0
  -15.6701   -9.3007   12.3564 C   0  0  0  0  0  0  0  0  0  0  0  0
  -14.3465   -8.8703   12.1317 F   0  0  0  0  0  0  0  0  0  0  0  0
  -15.4076  -10.6760   12.7205 F   0  0  0  0  0  0  0  0  0  0  0  0
  -16.2545   -8.8040   13.4532 F   0  0  0  0  0  0  0  0  0  0  0  0
 18 19  1  0  0  0
 19 20  1  0  0  0
 20 21  1  0  0  0
 21 22  1  0  0  0
 22 23  1  0  0  0
 23 24  1  0  0  0
 23 25  1  0  0  0
 22 10  1  0  0  0
 10 11  1  0  0  0
 11 12  2  0  0  0
 11 13  1  0  0  0
 13 14  1  0  0  0
 14 15  2  0  0  0
 15  1  1  0  0  0
  1  2  2  0  0  0
  2  3  1  0  0  0
  3  4  2  0  0  0
  4  5  1  0  0  0
  5 26  1  0  0  0
 26 27  1  0  0  0
 27 28  2  0  0  0
 28 29  1  0  0  0
 29 30  2  0  0  0
 30 31  1  0  0  0
 30 32  1  0  0  0
 32 33  2  0  0  0
 33 34  1  0  0  0
 34 35  1  0  0  0
 34 36  1  0  0  0
 34 37  1  0  0  0
  5  6  1  0  0  0
  6  7  2  0  0  0
  7  8  1  0  0  0
  8  9  2  0  0  0
 14 16  1  0  0  0
 16 17  2  0  0  0
 25 19  1  0  0  0
 16 10  1  0  0  0
  9  1  1  0  0  0
  8  4  1  0  0  0
 33 27  1  0  0  0
M  END
> <minimizedAffinity>
23.81221

> <CNNscore>
0.3269144297

> <CNNaffinity>
6.3638200760

> <CNN_VS>
2.0804245472

> <CNNaffinity_variance>
0.9716498256

$$$$
[H]/C(=C1/SC(=O)N([C@@]2([H])C([H])([H])C([H])([H])N(C([H])([H])[H])C([H])([H])[C@]2([H])F)C1=O)c1c([H])c([H])c2c(c([H])nn2C([H])([H])c2c([H])c([H])c(Cl)c([H])c2C(F)(F)F)c1[H]


 37 41  0  0  0  0  0  0  0  0999 V2000
  -10.2495   -7.7212    8.4304 C   0  0  0  0  0  0  0  0  0  0  0  0
  -11.2018   -6.7998    8.8050 C   0  0  0  0  0  0  0  0  0  0  0  0
  -12.4881   -6.9927    8.3656 C   0  0  0  0  0  0  0  0  0  0  0  0
  -12.8665   -8.0626    7.5665 C   0  0  0  0  0  0  0  0  0  0  0  0
  -14.0179   -8.4481    7.0547 N   0  0  0  0  0  0  0  0  0  0  0  0
  -13.7625   -9.6137    6.3581 N   0  0  0  0  0  0  0  0  0  0  0  0
  -12.4734   -9.9216    6.4541 C   0  0  0  0  0  0  0  0  0  0  0  0
  -11.8528   -8.9769    7.2079 C   0  0  0  0  0  0  0  0  0  0  0  0
  -10.5855   -8.7878    7.6415 C   0  0  0  0  0  0  0  0  0  0  0  0
   -5.8910   -6.5920    6.9524 N   0  0  0  0  0  0  0  0  0  0  0  0
   -6.7107   -6.4188    5.8132 C   0  0  0  0  0  0  0  0  0  0  0  0
   -6.3942   -5.9614    4.6809 O   0  0  0  0  0  0  0  0  0  0  0  0
   -8.3327   -6.9752    6.2533 S   0  0  0  0  0  0  0  0  0  0  0  0
   -7.9742   -7.2174    8.0097 C   0  0  0  0  0  0  0  0  0  0  0  0
   -8.8916   -7.5525    8.9275 C   0  0  0  0  0  0  0  0  0  0  0  0
   -6.5529   -7.0118    8.1188 C   0  0  0  0  0  0  0  0  0  0  0  0
   -5.9371   -7.2089    9.2467 O   0  0  0  0  0  0  0  0  0  0  0  0
   -1.3085   -5.2319    6.3133 C   0  0  0  0  0  0  0  0  0  0  0  0
   -1.7252   -6.1620    7.3219 N   0  0  0  0  0  0  0  0  0  0  0  0
   -2.5875   -5.5956    8.3289 C   0  0  0  0  0  0  0  0  0  0  0  0
   -3.9609   -5.2723    7.7643 C   0  0  0  0  0  0  0  0  0  0  0  0
   -4.4247   -6.3700    6.8482 C   0  0  0  0  0  0  0  0  0  0  0  0
   -3.6802   -7.6486    7.1333 C   0  0  0  0  0  0  0  0  0  0  0  0
   -4.1572   -8.5852    6.2270 F   0  0  0  0  0  0  0  0  0  0  0  0
   -2.2254   -7.3890    6.7600 C   0  0  0  0  0  0  0  0  0  0  0  0
  -15.3596   -7.9175    7.1061 C   0  0  0  0  0  0  0  0  0  0  0  0
  -15.7390   -7.0424    6.0112 C   0  0  0  0  0  0  0  0  0  0  0  0
  -14.9237   -5.9006    5.8618 C   0  0  0  0  0  0  0  0  0  0  0  0
  -15.1814   -4.9167    4.9407 C   0  0  0  0  0  0  0  0  0  0  0  0
  -16.2787   -5.0236    4.1136 C   0  0  0  0  0  0  0  0  0  0  0  0
  -16.6803   -3.7982    2.9090 Cl  0  0  0  0  0  0  0  0  0  0  0  0
  -17.0631   -6.1290    4.2610 C   0  0  0  0  0  0  0  0  0  0  0  0
  -16.8234   -7.1549    5.1947 C   0  0  0  0  0  0  0  0  0  0  0  0
  -17.7043   -8.3237    5.1945 C   0  0  0  0  0  0  0  0  0  0  0  0
  -17.1308   -9.3964    4.4816 F   0  0  0  0  0  0  0  0  0  0  0  0
  -18.7815   -7.9925    4.2873 F   0  0  0  0  0  0  0  0  0  0  0  0
  -18.3484   -8.6629    6.3175 F   0  0  0  0  0  0  0  0  0  0  0  0
 18 19  1  0  0  0
 19 20  1  0  0  0
 20 21  1  0  0  0
 21 22  1  0  0  0
 22 23  1  0  0  0
 23 24  1  0  0  0
 23 25  1  0  0  0
 22 10  1  0  0  0
 10 11  1  0  0  0
 11 12  2  0  0  0
 11 13  1  0  0  0
 13 14  1  0  0  0
 14 15  2  0  0  0
 15  1  1  0  0  0
  1  2  2  0  0  0
  2  3  1  0  0  0
  3  4  2  0  0  0
  4  5  1  0  0  0
  5 26  1  0  0  0
 26 27  1  0  0  0
 27 28  2  0  0  0
 28 29  1  0  0  0
 29 30  2  0  0  0
 30 31  1  0  0  0
 30 32  1  0  0  0
 32 33  2  0  0  0
 33 34  1  0  0  0
 34 35  1  0  0  0
 34 36  1  0  0  0
 34 37  1  0  0  0
  5  6  1  0  0  0
  6  7  2  0  0  0
  7  8  1  0  0  0
  8  9  2  0  0  0
 14 16  1  0  0  0
 16 17  2  0  0  0
 25 19  1  0  0  0
 16 10  1  0  0  0
  9  1  1  0  0  0
  8  4  1  0  0  0
 33 27  1  0  0  0
M  END
> <minimizedAffinity>
-8.24690

> <CNNscore>
0.3162574470

> <CNNaffinity>
7.0970373154

> <CNN_VS>
2.2444908619

> <CNNaffinity_variance>
0.1102175862

$$$$
[H]/C(=C1/SC(=O)N([C@@]2([H])C([H])([H])C([H])([H])N(C([H])([H])[H])C([H])([H])[C@]2([H])F)C1=O)c1c([H])c([H])c2c(c([H])nn2C([H])([H])c2c([H])c([H])c(Cl)c([H])c2C(F)(F)F)c1[H]


 37 41  0  0  0  0  0  0  0  0999 V2000
  -13.2808   -7.2962    8.9348 C   0  0  0  0  0  0  0  0  0  0  0  0
  -12.9400   -6.8885    7.6644 C   0  0  0  0  0  0  0  0  0  0  0  0
  -11.6629   -6.4279    7.4600 C   0  0  0  0  0  0  0  0  0  0  0  0
  -10.7111   -6.3530    8.4674 C   0  0  0  0  0  0  0  0  0  0  0  0
   -9.4503   -5.9710    8.4956 N   0  0  0  0  0  0  0  0  0  0  0  0
   -9.0210   -6.1440    9.7975 N   0  0  0  0  0  0  0  0  0  0  0  0
  -10.0139   -6.6254   10.5380 C   0  0  0  0  0  0  0  0  0  0  0  0
  -11.1111   -6.7799    9.7519 C   0  0  0  0  0  0  0  0  0  0  0  0
  -12.3689   -7.2348    9.9534 C   0  0  0  0  0  0  0  0  0  0  0  0
  -17.1128   -8.7469    6.5543 N   0  0  0  0  0  0  0  0  0  0  0  0
  -16.1563   -8.4627    5.5524 C   0  0  0  0  0  0  0  0  0  0  0  0
  -16.2434   -8.6514    4.3081 O   0  0  0  0  0  0  0  0  0  0  0  0
  -14.7471   -7.7645    6.3655 S   0  0  0  0  0  0  0  0  0  0  0  0
  -15.3376   -8.0656    8.0486 C   0  0  0  0  0  0  0  0  0  0  0  0
  -14.6177   -7.8292    9.1540 C   0  0  0  0  0  0  0  0  0  0  0  0
  -16.6860   -8.5417    7.8774 C   0  0  0  0  0  0  0  0  0  0  0  0
  -17.4485   -8.7640    8.9067 O   0  0  0  0  0  0  0  0  0  0  0  0
  -21.3218  -10.8497    5.4958 C   0  0  0  0  0  0  0  0  0  0  0  0
  -21.1939   -9.4645    5.8433 N   0  0  0  0  0  0  0  0  0  0  0  0
  -20.7404   -9.2325    7.1920 C   0  0  0  0  0  0  0  0  0  0  0  0
  -19.2819   -9.6247    7.3612 C   0  0  0  0  0  0  0  0  0  0  0  0
  -18.4783   -9.1899    6.1676 C   0  0  0  0  0  0  0  0  0  0  0  0
  -19.1917   -8.0939    5.4189 C   0  0  0  0  0  0  0  0  0  0  0  0
  -18.3892   -7.7824    4.3303 F   0  0  0  0  0  0  0  0  0  0  0  0
  -20.4619   -8.7186    4.8538 C   0  0  0  0  0  0  0  0  0  0  0  0
   -8.5383   -5.4673    7.4961 C   0  0  0  0  0  0  0  0  0  0  0  0
   -7.8392   -6.4694    6.7116 C   0  0  0  0  0  0  0  0  0  0  0  0
   -8.1582   -6.4676    5.3372 C   0  0  0  0  0  0  0  0  0  0  0  0
   -7.6653   -7.3978    4.4569 C   0  0  0  0  0  0  0  0  0  0  0  0
   -6.8203   -8.3882    4.9093 C   0  0  0  0  0  0  0  0  0  0  0  0
   -6.1504   -9.6230    3.8415 Cl  0  0  0  0  0  0  0  0  0  0  0  0
   -6.5143   -8.3854    6.2380 C   0  0  0  0  0  0  0  0  0  0  0  0
   -7.0025   -7.4444    7.1641 C   0  0  0  0  0  0  0  0  0  0  0  0
   -6.5325   -7.5133    8.5484 C   0  0  0  0  0  0  0  0  0  0  0  0
   -5.8579   -6.3321    8.9191 F   0  0  0  0  0  0  0  0  0  0  0  0
   -5.4090   -8.4246    8.5276 F   0  0  0  0  0  0  0  0  0  0  0  0
   -7.3285   -8.0363    9.4886 F   0  0  0  0  0  0  0  0  0  0  0  0
 18 19  1  0  0  0
 19 20  1  0  0  0
 20 21  1  0  0  0
 21 22  1  0  0  0
 22 23  1  0  0  0
 23 24  1  0  0  0
 23 25  1  0  0  0
 22 10  1  0  0  0
 10 11  1  0  0  0
 11 12  2  0  0  0
 11 13  1  0  0  0
 13 14  1  0  0  0
 14 15  2  0  0  0
 15  1  1  0  0  0
  1  2  2  0  0  0
  2  3  1  0  0  0
  3  4  2  0  0  0
  4  5  1  0  0  0
  5 26  1  0  0  0
 26 27  1  0  0  0
 27 28  2  0  0  0
 28 29  1  0  0  0
 29 30  2  0  0  0
 30 31  1  0  0  0
 30 32  1  0  0  0
 32 33  2  0  0  0
 33 34  1  0  0  0
 34 35  1  0  0  0
 34 36  1  0  0  0
 34 37  1  0  0  0
  5  6  1  0  0  0
  6  7  2  0  0  0
  7  8  1  0  0  0
  8  9  2  0  0  0
 14 16  1  0  0  0
 16 17  2  0  0  0
 25 19  1  0  0  0
 16 10  1  0  0  0
  9  1  1  0  0  0
  8  4  1  0  0  0
 33 27  1  0  0  0
M  END
> <minimizedAffinity>
16.21931

> <CNNscore>
0.3161002696

> <CNNaffinity>
6.8034377098

> <CNN_VS>
2.1505684853

> <CNNaffinity_variance>
1.3028795719

$$$$
[H]OC([H])([H])C([H])([H])N1C([H])([H])C([H])([H])C([H])(N2C(=O)S/C(=C(/[H])c3c([H])c([H])c4c(c([H])nn4C([H])([H])c4c([H])c([H])c(Cl)c([H])c4C(F)(F)F)c3[H])C2=O)C([H])([H])C1([H])[H]


 39 43  0  0  0  0  0  0  0  0999 V2000
  -10.0148   -7.4309    7.5945 C   0  0  0  0  0  0  0  0  0  0  0  0
  -10.4255   -6.8473    6.4299 C   0  0  0  0  0  0  0  0  0  0  0  0
  -11.6786   -7.0948    5.8916 C   0  0  0  0  0  0  0  0  0  0  0  0
  -12.5846   -7.9493    6.5076 C   0  0  0  0  0  0  0  0  0  0  0  0
  -13.8647   -8.3478    6.2050 N   0  0  0  0  0  0  0  0  0  0  0  0
  -14.2171   -9.1495    7.1622 N   0  0  0  0  0  0  0  0  0  0  0  0
  -13.2636   -9.3048    8.0649 C   0  0  0  0  0  0  0  0  0  0  0  0
  -12.1852   -8.5436    7.6801 C   0  0  0  0  0  0  0  0  0  0  0  0
  -10.9361   -8.2911    8.2072 C   0  0  0  0  0  0  0  0  0  0  0  0
   -5.3064   -6.2593    7.4115 N   0  0  0  0  0  0  0  0  0  0  0  0
   -5.7388   -5.9523    6.0974 C   0  0  0  0  0  0  0  0  0  0  0  0
   -5.2143   -5.2537    5.2000 O   0  0  0  0  0  0  0  0  0  0  0  0
   -7.3217   -6.8232    5.9267 S   0  0  0  0  0  0  0  0  0  0  0  0
   -7.5843   -6.9939    7.6861 C   0  0  0  0  0  0  0  0  0  0  0  0
   -8.7351   -7.2423    8.2473 C   0  0  0  0  0  0  0  0  0  0  0  0
   -6.2631   -6.8048    8.2553 C   0  0  0  0  0  0  0  0  0  0  0  0
   -6.0568   -7.1420    9.4734 O   0  0  0  0  0  0  0  0  0  0  0  0
   -1.8155   -5.2236    9.4895 N   0  0  0  0  0  0  0  0  0  0  0  0
   -2.9270   -5.9327   10.0568 C   0  0  0  0  0  0  0  0  0  0  0  0
   -3.5235   -6.8344    9.0169 C   0  0  0  0  0  0  0  0  0  0  0  0
   -3.9136   -5.9903    7.8112 C   0  0  0  0  0  0  0  0  0  0  0  0
   -3.6538   -4.5233    8.0198 C   0  0  0  0  0  0  0  0  0  0  0  0
   -2.1584   -4.4251    8.3600 C   0  0  0  0  0  0  0  0  0  0  0  0
   -1.0608   -4.5008   10.5011 C   0  0  0  0  0  0  0  0  0  0  0  0
   -2.7750   -2.9089   10.5667 O   0  0  0  0  0  0  0  0  0  0  0  0
   -1.3767   -3.0138   10.4795 C   0  0  0  0  0  0  0  0  0  0  0  0
   -3.1183   -2.4685    9.7437 H   0  0  0  0  0  0  0  0  0  0  0  0
  -14.6270   -7.9180    5.0697 C   0  0  0  0  0  0  0  0  0  0  0  0
  -16.0614   -7.8213    5.1060 C   0  0  0  0  0  0  0  0  0  0  0  0
  -16.8180   -9.0150    5.2492 C   0  0  0  0  0  0  0  0  0  0  0  0
  -18.1777   -9.0613    5.2801 C   0  0  0  0  0  0  0  0  0  0  0  0
  -18.8920   -7.8927    5.1679 C   0  0  0  0  0  0  0  0  0  0  0  0
  -20.6400   -7.8435    5.1967 Cl  0  0  0  0  0  0  0  0  0  0  0  0
  -18.1925   -6.7377    5.0304 C   0  0  0  0  0  0  0  0  0  0  0  0
  -16.7762   -6.6696    4.9959 C   0  0  0  0  0  0  0  0  0  0  0  0
  -16.1580   -5.3543    4.8642 C   0  0  0  0  0  0  0  0  0  0  0  0
  -15.2713   -5.4084    3.7315 F   0  0  0  0  0  0  0  0  0  0  0  0
  -15.4009   -4.8869    5.8634 F   0  0  0  0  0  0  0  0  0  0  0  0
  -17.0562   -4.3856    4.3245 F   0  0  0  0  0  0  0  0  0  0  0  0
 25 26  1  0  0  0
 26 24  1  0  0  0
 24 18  1  0  0  0
 18 19  1  0  0  0
 19 20  1  0  0  0
 20 21  1  0  0  0
 21 22  1  0  0  0
 22 23  1  0  0  0
 21 10  1  0  0  0
 10 11  1  0  0  0
 11 12  2  0  0  0
 11 13  1  0  0  0
 13 14  1  0  0  0
 14 15  2  0  0  0
 15  1  1  0  0  0
  1  2  2  0  0  0
  2  3  1  0  0  0
  3  4  2  0  0  0
  4  5  1  0  0  0
  5 28  1  0  0  0
 28 29  1  0  0  0
 29 30  2  0  0  0
 30 31  1  0  0  0
 31 32  2  0  0  0
 32 33  1  0  0  0
 32 34  1  0  0  0
 34 35  2  0  0  0
 35 36  1  0  0  0
 36 37  1  0  0  0
 36 38  1  0  0  0
 36 39  1  0  0  0
  5  6  1  0  0  0
  6  7  2  0  0  0
  7  8  1  0  0  0
  8  9  2  0  0  0
 14 16  1  0  0  0
 16 17  2  0  0  0
 23 18  1  0  0  0
 16 10  1  0  0  0
  9  1  1  0  0  0
  8  4  1  0  0  0
 35 29  1  0  0  0
 25 27  1  0  0  0
M  END
> <minimizedAffinity>
3.40231

> <CNNscore>
0.3845260441

> <CNNaffinity>
6.8706064224

> <CNN_VS>
2.6419270039

> <CNNaffinity_variance>
0.9857365489

$$$$
[H]OC([H])([H])C([H])([H])N1C([H])([H])C([H])([H])C([H])(N2C(=O)S/C(=C(/[H])c3c([H])c([H])c4c(c([H])nn4C([H])([H])c4c([H])c([H])c(Cl)c([H])c4C(F)(F)F)c3[H])C2=O)C([H])([H])C1([H])[H]


 39 43  0  0  0  0  0  0  0  0999 V2000
  -10.5496   -7.5695    8.4169 C   0  0  0  0  0  0  0  0  0  0  0  0
  -11.4944   -6.5856    8.3464 C   0  0  0  0  0  0  0  0  0  0  0  0
  -12.8199   -6.8660    8.0535 C   0  0  0  0  0  0  0  0  0  0  0  0
  -13.2592   -8.1626    7.8164 C   0  0  0  0  0  0  0  0  0  0  0  0
  -14.4878   -8.7070    7.5281 N   0  0  0  0  0  0  0  0  0  0  0  0
  -14.2895   -9.9852    7.4285 N   0  0  0  0  0  0  0  0  0  0  0  0
  -13.0249  -10.3153    7.6288 C   0  0  0  0  0  0  0  0  0  0  0  0
  -12.3198   -9.1629    7.8840 C   0  0  0  0  0  0  0  0  0  0  0  0
  -11.0032   -8.8734    8.1757 C   0  0  0  0  0  0  0  0  0  0  0  0
   -5.9997   -6.6663    6.9823 N   0  0  0  0  0  0  0  0  0  0  0  0
   -6.7339   -6.4517    5.7895 C   0  0  0  0  0  0  0  0  0  0  0  0
   -6.4268   -5.8617    4.7284 O   0  0  0  0  0  0  0  0  0  0  0  0
   -8.3350   -7.2500    6.0937 S   0  0  0  0  0  0  0  0  0  0  0  0
   -8.1599   -7.2542    7.8721 C   0  0  0  0  0  0  0  0  0  0  0  0
   -9.1433   -7.3925    8.7176 C   0  0  0  0  0  0  0  0  0  0  0  0
   -6.7341   -7.0861    8.0820 C   0  0  0  0  0  0  0  0  0  0  0  0
   -6.2434   -7.3272    9.2401 O   0  0  0  0  0  0  0  0  0  0  0  0
   -2.0673   -5.6875    8.0576 N   0  0  0  0  0  0  0  0  0  0  0  0
   -3.0178   -6.3282    8.9214 C   0  0  0  0  0  0  0  0  0  0  0  0
   -3.8843   -7.2467    8.1117 C   0  0  0  0  0  0  0  0  0  0  0  0
   -4.5440   -6.4372    7.0035 C   0  0  0  0  0  0  0  0  0  0  0  0
   -4.1983   -4.9745    7.0673 C   0  0  0  0  0  0  0  0  0  0  0  0
   -2.6633   -4.9222    7.0134 C   0  0  0  0  0  0  0  0  0  0  0  0
   -1.0602   -4.9550    8.8089 C   0  0  0  0  0  0  0  0  0  0  0  0
   -1.4591   -2.8390    9.7255 O   0  0  0  0  0  0  0  0  0  0  0  0
   -1.1161   -3.4645    8.5150 C   0  0  0  0  0  0  0  0  0  0  0  0
   -2.3287   -2.3699    9.6121 H   0  0  0  0  0  0  0  0  0  0  0  0
  -15.7154   -7.9780    7.4015 C   0  0  0  0  0  0  0  0  0  0  0  0
  -16.3428   -7.7556    6.1267 C   0  0  0  0  0  0  0  0  0  0  0  0
  -17.5270   -8.4773    5.8187 C   0  0  0  0  0  0  0  0  0  0  0  0
  -18.2054   -8.3711    4.6439 C   0  0  0  0  0  0  0  0  0  0  0  0
  -17.7380   -7.5176    3.6736 C   0  0  0  0  0  0  0  0  0  0  0  0
  -18.5356   -7.3078    2.1313 Cl  0  0  0  0  0  0  0  0  0  0  0  0
  -16.6080   -6.8157    3.9431 C   0  0  0  0  0  0  0  0  0  0  0  0
  -15.8875   -6.9133    5.1610 C   0  0  0  0  0  0  0  0  0  0  0  0
  -14.6990   -6.0817    5.3206 C   0  0  0  0  0  0  0  0  0  0  0  0
  -14.6979   -5.1240    4.2459 F   0  0  0  0  0  0  0  0  0  0  0  0
  -13.4908   -6.6538    5.2640 F   0  0  0  0  0  0  0  0  0  0  0  0
  -14.8370   -5.1383    6.3823 F   0  0  0  0  0  0  0  0  0  0  0  0
 25 26  1  0  0  0
 26 24  1  0  0  0
 24 18  1  0  0  0
 18 19  1  0  0  0
 19 20  1  0  0  0
 20 21  1  0  0  0
 21 22  1  0  0  0
 22 23  1  0  0  0
 21 10  1  0  0  0
 10 11  1  0  0  0
 11 12  2  0  0  0
 11 13  1  0  0  0
 13 14  1  0  0  0
 14 15  2  0  0  0
 15  1  1  0  0  0
  1  2  2  0  0  0
  2  3  1  0  0  0
  3  4  2  0  0  0
  4  5  1  0  0  0
  5 28  1  0  0  0
 28 29  1  0  0  0
 29 30  2  0  0  0
 30 31  1  0  0  0
 31 32  2  0  0  0
 32 33  1  0  0  0
 32 34  1  0  0  0
 34 35  2  0  0  0
 35 36  1  0  0  0
 36 37  1  0  0  0
 36 38  1  0  0  0
 36 39  1  0  0  0
  5  6  1  0  0  0
  6  7  2  0  0  0
  7  8  1  0  0  0
  8  9  2  0  0  0
 14 16  1  0  0  0
 16 17  2  0  0  0
 23 18  1  0  0  0
 16 10  1  0  0  0
  9  1  1  0  0  0
  8  4  1  0  0  0
 35 29  1  0  0  0
 25 27  1  0  0  0
M  END
> <minimizedAffinity>
-5.90898

> <CNNscore>
0.3749599457

> <CNNaffinity>
7.2642860413

> <CNN_VS>
2.7238163948

> <CNNaffinity_variance>
0.3896660805

$$$$
[H]OC([H])([H])C([H])([H])N1C([H])([H])C([H])([H])C([H])(N2C(=O)S/C(=C(/[H])c3c([H])c([H])c4c(c([H])nn4C([H])([H])c4c([H])c([H])c(Cl)c([H])c4C(F)(F)F)c3[H])C2=O)C([H])([H])C1([H])[H]


 39 43  0  0  0  0  0  0  0  0999 V2000
  -11.2824   -9.3495    6.9295 C   0  0  0  0  0  0  0  0  0  0  0  0
  -11.8094   -9.5780    5.6903 C   0  0  0  0  0  0  0  0  0  0  0  0
  -13.1487   -9.3520    5.4136 C   0  0  0  0  0  0  0  0  0  0  0  0
  -14.0271   -8.8804    6.3813 C   0  0  0  0  0  0  0  0  0  0  0  0
  -15.3643   -8.5631    6.3706 N   0  0  0  0  0  0  0  0  0  0  0  0
  -15.6362   -8.1531    7.5710 N   0  0  0  0  0  0  0  0  0  0  0  0
  -14.5783   -8.1801    8.3636 C   0  0  0  0  0  0  0  0  0  0  0  0
  -13.5109   -8.6458    7.6327 C   0  0  0  0  0  0  0  0  0  0  0  0
  -12.1770   -8.8744    7.8980 C   0  0  0  0  0  0  0  0  0  0  0  0
   -6.9009   -7.5652    8.0222 N   0  0  0  0  0  0  0  0  0  0  0  0
   -7.6756   -6.3861    7.8893 C   0  0  0  0  0  0  0  0  0  0  0  0
   -7.4604   -5.2122    8.2690 O   0  0  0  0  0  0  0  0  0  0  0  0
   -9.1622   -6.9196    6.9957 S   0  0  0  0  0  0  0  0  0  0  0  0
   -8.9583   -8.6497    7.3940 C   0  0  0  0  0  0  0  0  0  0  0  0
   -9.9032   -9.5462    7.3280 C   0  0  0  0  0  0  0  0  0  0  0  0
   -7.5603   -8.7588    7.7666 C   0  0  0  0  0  0  0  0  0  0  0  0
   -7.0246   -9.9199    7.8382 O   0  0  0  0  0  0  0  0  0  0  0  0
   -2.9510   -6.3279    8.6892 N   0  0  0  0  0  0  0  0  0  0  0  0
   -4.1060   -5.4851    8.8144 C   0  0  0  0  0  0  0  0  0  0  0  0
   -5.2538   -6.2915    9.3458 C   0  0  0  0  0  0  0  0  0  0  0  0
   -5.4838   -7.4758    8.4168 C   0  0  0  0  0  0  0  0  0  0  0  0
   -4.5606   -7.4710    7.2290 C   0  0  0  0  0  0  0  0  0  0  0  0
   -3.1433   -7.4426    7.8224 C   0  0  0  0  0  0  0  0  0  0  0  0
   -1.7515   -5.5621    8.3891 C   0  0  0  0  0  0  0  0  0  0  0  0
   -1.0720   -4.9286   10.5371 O   0  0  0  0  0  0  0  0  0  0  0  0
   -1.5815   -4.3908    9.3433 C   0  0  0  0  0  0  0  0  0  0  0  0
   -1.7238   -4.7642   11.2700 H   0  0  0  0  0  0  0  0  0  0  0  0
  -16.2353   -8.6540    5.2358 C   0  0  0  0  0  0  0  0  0  0  0  0
  -16.9764   -7.5214    4.7500 C   0  0  0  0  0  0  0  0  0  0  0  0
  -18.3761   -7.6612    4.5520 C   0  0  0  0  0  0  0  0  0  0  0  0
  -19.1859   -6.6737    4.0819 C   0  0  0  0  0  0  0  0  0  0  0  0
  -18.6420   -5.4508    3.7702 C   0  0  0  0  0  0  0  0  0  0  0  0
  -19.5948   -4.1170    3.1607 Cl  0  0  0  0  0  0  0  0  0  0  0  0
  -17.3062   -5.2910    3.9508 C   0  0  0  0  0  0  0  0  0  0  0  0
  -16.4466   -6.3080    4.4392 C   0  0  0  0  0  0  0  0  0  0  0  0
  -15.0324   -5.9874    4.6029 C   0  0  0  0  0  0  0  0  0  0  0  0
  -14.8563   -4.6126    4.2138 F   0  0  0  0  0  0  0  0  0  0  0  0
  -14.1244   -6.6598    3.8863 F   0  0  0  0  0  0  0  0  0  0  0  0
  -14.6706   -5.8188    5.9729 F   0  0  0  0  0  0  0  0  0  0  0  0
 25 26  1  0  0  0
 26 24  1  0  0  0
 24 18  1  0  0  0
 18 19  1  0  0  0
 19 20  1  0  0  0
 20 21  1  0  0  0
 21 22  1  0  0  0
 22 23  1  0  0  0
 21 10  1  0  0  0
 10 11  1  0  0  0
 11 12  2  0  0  0
 11 13  1  0  0  0
 13 14  1  0  0  0
 14 15  2  0  0  0
 15  1  1  0  0  0
  1  2  2  0  0  0
  2  3  1  0  0  0
  3  4  2  0  0  0
  4  5  1  0  0  0
  5 28  1  0  0  0
 28 29  1  0  0  0
 29 30  2  0  0  0
 30 31  1  0  0  0
 31 32  2  0  0  0
 32 33  1  0  0  0
 32 34  1  0  0  0
 34 35  2  0  0  0
 35 36  1  0  0  0
 36 37  1  0  0  0
 36 38  1  0  0  0
 36 39  1  0  0  0
  5  6  1  0  0  0
  6  7  2  0  0  0
  7  8  1  0  0  0
  8  9  2  0  0  0
 14 16  1  0  0  0
 16 17  2  0  0  0
 23 18  1  0  0  0
 16 10  1  0  0  0
  9  1  1  0  0  0
  8  4  1  0  0  0
 35 29  1  0  0  0
 25 27  1  0  0  0
M  END
> <minimizedAffinity>
-1.11630

> <CNNscore>
0.3431628346

> <CNNaffinity>
7.0917649269

> <CNN_VS>
2.4336302280

> <CNNaffinity_variance>
0.3475565016

$$$$
[H]OC([H])([H])C([H])([H])N1C([H])([H])C([H])([H])C([H])(N2C(=O)S/C(=C(/[H])c3c([H])c([H])c4c(c([H])nn4C([H])([H])c4c([H])c([H])c(Cl)c([H])c4C(F)(F)F)c3[H])C2=O)C([H])([H])C1([H])[H]


 39 43  0  0  0  0  0  0  0  0999 V2000
  -13.1750   -6.5525    6.2589 C   0  0  0  0  0  0  0  0  0  0  0  0
  -12.6991   -5.2836    6.4296 C   0  0  0  0  0  0  0  0  0  0  0  0
  -13.3879   -4.1763    5.9599 C   0  0  0  0  0  0  0  0  0  0  0  0
  -14.5996   -4.2970    5.2907 C   0  0  0  0  0  0  0  0  0  0  0  0
  -15.4756   -3.3868    4.7494 N   0  0  0  0  0  0  0  0  0  0  0  0
  -16.4543   -4.0880    4.2661 N   0  0  0  0  0  0  0  0  0  0  0  0
  -16.2823   -5.3859    4.4502 C   0  0  0  0  0  0  0  0  0  0  0  0
  -15.0907   -5.5675    5.1117 C   0  0  0  0  0  0  0  0  0  0  0  0
  -14.3974   -6.6629    5.5824 C   0  0  0  0  0  0  0  0  0  0  0  0
   -9.2798   -8.9500    7.8883 N   0  0  0  0  0  0  0  0  0  0  0  0
   -8.8228   -7.6087    7.8883 C   0  0  0  0  0  0  0  0  0  0  0  0
   -7.8438   -7.0723    8.4560 O   0  0  0  0  0  0  0  0  0  0  0  0
  -10.0054   -6.7275    6.8309 S   0  0  0  0  0  0  0  0  0  0  0  0
  -11.2812   -7.9709    6.9719 C   0  0  0  0  0  0  0  0  0  0  0  0
  -12.5438   -7.7764    6.7096 C   0  0  0  0  0  0  0  0  0  0  0  0
  -10.5666   -9.1546    7.4117 C   0  0  0  0  0  0  0  0  0  0  0  0
  -11.1467  -10.2941    7.3388 O   0  0  0  0  0  0  0  0  0  0  0  0
   -6.1701  -11.7049    8.4524 N   0  0  0  0  0  0  0  0  0  0  0  0
   -5.9912  -10.3362    8.0588 C   0  0  0  0  0  0  0  0  0  0  0  0
   -7.0253   -9.4858    8.7351 C   0  0  0  0  0  0  0  0  0  0  0  0
   -8.4037  -10.0276    8.3814 C   0  0  0  0  0  0  0  0  0  0  0  0
   -8.3443  -11.1930    7.4320 C   0  0  0  0  0  0  0  0  0  0  0  0
   -7.4535  -12.2334    8.1291 C   0  0  0  0  0  0  0  0  0  0  0  0
   -5.0697  -12.5450    8.0069 C   0  0  0  0  0  0  0  0  0  0  0  0
   -2.9723  -11.6662    8.5595 O   0  0  0  0  0  0  0  0  0  0  0  0
   -3.8991  -11.7150    7.5047 C   0  0  0  0  0  0  0  0  0  0  0  0
   -2.8542  -10.7201    8.8428 H   0  0  0  0  0  0  0  0  0  0  0  0
  -15.3154   -1.9625    4.7641 C   0  0  0  0  0  0  0  0  0  0  0  0
  -15.3685   -1.2012    5.9830 C   0  0  0  0  0  0  0  0  0  0  0  0
  -16.6146   -1.0830    6.6549 C   0  0  0  0  0  0  0  0  0  0  0  0
  -16.8017   -0.3785    7.8040 C   0  0  0  0  0  0  0  0  0  0  0  0
  -15.7337    0.2711    8.3747 C   0  0  0  0  0  0  0  0  0  0  0  0
  -15.8679    1.2016    9.8495 Cl  0  0  0  0  0  0  0  0  0  0  0  0
  -14.5313    0.1736    7.7525 C   0  0  0  0  0  0  0  0  0  0  0  0
  -14.3171   -0.5554    6.5548 C   0  0  0  0  0  0  0  0  0  0  0  0
  -12.9643   -0.5905    6.0086 C   0  0  0  0  0  0  0  0  0  0  0  0
  -12.9440   -1.5942    4.9769 F   0  0  0  0  0  0  0  0  0  0  0  0
  -11.9447   -0.9126    6.8129 F   0  0  0  0  0  0  0  0  0  0  0  0
  -12.6943    0.5243    5.1596 F   0  0  0  0  0  0  0  0  0  0  0  0
 25 26  1  0  0  0
 26 24  1  0  0  0
 24 18  1  0  0  0
 18 19  1  0  0  0
 19 20  1  0  0  0
 20 21  1  0  0  0
 21 22  1  0  0  0
 22 23  1  0  0  0
 21 10  1  0  0  0
 10 11  1  0  0  0
 11 12  2  0  0  0
 11 13  1  0  0  0
 13 14  1  0  0  0
 14 15  2  0  0  0
 15  1  1  0  0  0
  1  2  2  0  0  0
  2  3  1  0  0  0
  3  4  2  0  0  0
  4  5  1  0  0  0
  5 28  1  0  0  0
 28 29  1  0  0  0
 29 30  2  0  0  0
 30 31  1  0  0  0
 31 32  2  0  0  0
 32 33  1  0  0  0
 32 34  1  0  0  0
 34 35  2  0  0  0
 35 36  1  0  0  0
 36 37  1  0  0  0
 36 38  1  0  0  0
 36 39  1  0  0  0
  5  6  1  0  0  0
  6  7  2  0  0  0
  7  8  1  0  0  0
  8  9  2  0  0  0
 14 16  1  0  0  0
 16 17  2  0  0  0
 23 18  1  0  0  0
 16 10  1  0  0  0
  9  1  1  0  0  0
  8  4  1  0  0  0
 35 29  1  0  0  0
 25 27  1  0  0  0
M  END
> <minimizedAffinity>
55.54182

> <CNNscore>
0.3376924992

> <CNNaffinity>
6.2189650536

> <CNN_VS>
2.1000978947

> <CNNaffinity_variance>
1.1504333019

$$$$
[H]OC([H])([H])C([H])([H])N1C([H])([H])C([H])([H])C([H])(N2C(=O)S/C(=C(/[H])c3c([H])c([H])c4c(c([H])nn4C([H])([H])c4c([H])c([H])c(Cl)c([H])c4C(F)(F)F)c3[H])C2=O)C([H])([H])C1([H])[H]


 39 43  0  0  0  0  0  0  0  0999 V2000
  -10.3500   -7.5967    8.2406 C   0  0  0  0  0  0  0  0  0  0  0  0
  -11.3657   -6.6873    8.3246 C   0  0  0  0  0  0  0  0  0  0  0  0
  -12.6628   -7.0052    7.9534 C   0  0  0  0  0  0  0  0  0  0  0  0
  -13.0000   -8.2659    7.4763 C   0  0  0  0  0  0  0  0  0  0  0  0
  -14.1805   -8.8365    7.0645 N   0  0  0  0  0  0  0  0  0  0  0  0
  -13.8850  -10.0578    6.7418 N   0  0  0  0  0  0  0  0  0  0  0  0
  -12.6014  -10.3262    6.9108 C   0  0  0  0  0  0  0  0  0  0  0  0
  -11.9884   -9.1911    7.3864 C   0  0  0  0  0  0  0  0  0  0  0  0
  -10.7010   -8.8647    7.7579 C   0  0  0  0  0  0  0  0  0  0  0  0
   -5.7787   -6.5152    7.0125 N   0  0  0  0  0  0  0  0  0  0  0  0
   -6.4694   -6.3082    5.7926 C   0  0  0  0  0  0  0  0  0  0  0  0
   -6.1391   -5.6920    4.7536 O   0  0  0  0  0  0  0  0  0  0  0  0
   -8.0527   -7.1658    6.0178 S   0  0  0  0  0  0  0  0  0  0  0  0
   -7.9522   -7.1908    7.8019 C   0  0  0  0  0  0  0  0  0  0  0  0
   -8.9646   -7.3758    8.6030 C   0  0  0  0  0  0  0  0  0  0  0  0
   -6.5432   -6.9766    8.0743 C   0  0  0  0  0  0  0  0  0  0  0  0
   -6.0933   -7.2181    9.2487 O   0  0  0  0  0  0  0  0  0  0  0  0
   -1.9813   -5.1082    8.0978 N   0  0  0  0  0  0  0  0  0  0  0  0
   -3.0095   -5.4895    9.0239 C   0  0  0  0  0  0  0  0  0  0  0  0
   -3.7838   -6.6432    8.4586 C   0  0  0  0  0  0  0  0  0  0  0  0
   -4.3341   -6.2363    7.0985 C   0  0  0  0  0  0  0  0  0  0  0  0
   -4.0065   -4.8121    6.7411 C   0  0  0  0  0  0  0  0  0  0  0  0
   -2.4743   -4.7214    6.8179 C   0  0  0  0  0  0  0  0  0  0  0  0
   -1.0600   -4.1441    8.6782 C   0  0  0  0  0  0  0  0  0  0  0  0
   -1.8575   -1.9784    8.2903 O   0  0  0  0  0  0  0  0  0  0  0  0
   -1.7968   -2.9635    9.2902 C   0  0  0  0  0  0  0  0  0  0  0  0
   -1.3664   -1.1713    8.6011 H   0  0  0  0  0  0  0  0  0  0  0  0
  -15.4583   -8.1874    7.0405 C   0  0  0  0  0  0  0  0  0  0  0  0
  -15.7970   -7.2057    6.0457 C   0  0  0  0  0  0  0  0  0  0  0  0
  -14.9748   -6.0538    5.9224 C   0  0  0  0  0  0  0  0  0  0  0  0
  -15.1959   -5.0460    5.0352 C   0  0  0  0  0  0  0  0  0  0  0  0
  -16.2773   -5.1203    4.1906 C   0  0  0  0  0  0  0  0  0  0  0  0
  -16.6491   -3.8799    3.0150 Cl  0  0  0  0  0  0  0  0  0  0  0  0
  -17.0789   -6.2113    4.2880 C   0  0  0  0  0  0  0  0  0  0  0  0
  -16.8647   -7.2711    5.2060 C   0  0  0  0  0  0  0  0  0  0  0  0
  -17.7976   -8.3931    5.1846 C   0  0  0  0  0  0  0  0  0  0  0  0
  -18.8489   -8.0594    4.2596 F   0  0  0  0  0  0  0  0  0  0  0  0
  -18.4346   -8.7327    6.3111 F   0  0  0  0  0  0  0  0  0  0  0  0
  -17.2857   -9.5088    4.4571 F   0  0  0  0  0  0  0  0  0  0  0  0
 25 26  1  0  0  0
 26 24  1  0  0  0
 24 18  1  0  0  0
 18 19  1  0  0  0
 19 20  1  0  0  0
 20 21  1  0  0  0
 21 22  1  0  0  0
 22 23  1  0  0  0
 21 10  1  0  0  0
 10 11  1  0  0  0
 11 12  2  0  0  0
 11 13  1  0  0  0
 13 14  1  0  0  0
 14 15  2  0  0  0
 15  1  1  0  0  0
  1  2  2  0  0  0
  2  3  1  0  0  0
  3  4  2  0  0  0
  4  5  1  0  0  0
  5 28  1  0  0  0
 28 29  1  0  0  0
 29 30  2  0  0  0
 30 31  1  0  0  0
 31 32  2  0  0  0
 32 33  1  0  0  0
 32 34  1  0  0  0
 34 35  2  0  0  0
 35 36  1  0  0  0
 36 37  1  0  0  0
 36 38  1  0  0  0
 36 39  1  0  0  0
  5  6  1  0  0  0
  6  7  2  0  0  0
  7  8  1  0  0  0
  8  9  2  0  0  0
 14 16  1  0  0  0
 16 17  2  0  0  0
 23 18  1  0  0  0
 16 10  1  0  0  0
  9  1  1  0  0  0
  8  4  1  0  0  0
 35 29  1  0  0  0
 25 27  1  0  0  0
M  END
> <minimizedAffinity>
-7.11542

> <CNNscore>
0.2928077877

> <CNNaffinity>
7.1625542641

> <CNN_VS>
2.0972516537

> <CNNaffinity_variance>
0.2664918005

$$$$
[H]OC([H])([H])C([H])([H])N1C([H])([H])C([H])([H])C([H])(N2C(=O)S/C(=C(/[H])c3c([H])c([H])c4c(c([H])nn4C([H])([H])c4c([H])c([H])c(Cl)c([H])c4C(F)(F)F)c3[H])C2=O)C([H])([H])C1([H])[H]


 39 43  0  0  0  0  0  0  0  0999 V2000
  -13.7432   -8.8534    5.0225 C   0  0  0  0  0  0  0  0  0  0  0  0
  -14.8216   -8.3102    4.3839 C   0  0  0  0  0  0  0  0  0  0  0  0
  -15.6294   -7.3625    4.9927 C   0  0  0  0  0  0  0  0  0  0  0  0
  -15.3858   -6.9136    6.2849 C   0  0  0  0  0  0  0  0  0  0  0  0
  -16.0032   -5.9941    7.0986 N   0  0  0  0  0  0  0  0  0  0  0  0
  -15.3149   -5.9822    8.1983 N   0  0  0  0  0  0  0  0  0  0  0  0
  -14.2966   -6.8249    8.1636 C   0  0  0  0  0  0  0  0  0  0  0  0
  -14.3043   -7.4512    6.9396 C   0  0  0  0  0  0  0  0  0  0  0  0
  -13.5069   -8.3939    6.3253 C   0  0  0  0  0  0  0  0  0  0  0  0
   -9.6104  -11.3875    5.2925 N   0  0  0  0  0  0  0  0  0  0  0  0
   -9.6227  -10.7086    6.5362 C   0  0  0  0  0  0  0  0  0  0  0  0
   -8.9820  -10.9134    7.5926 O   0  0  0  0  0  0  0  0  0  0  0  0
  -10.8332   -9.3753    6.3122 S   0  0  0  0  0  0  0  0  0  0  0  0
  -11.6382  -10.1432    4.9136 C   0  0  0  0  0  0  0  0  0  0  0  0
  -12.8324   -9.8430    4.4837 C   0  0  0  0  0  0  0  0  0  0  0  0
  -10.6610  -11.1017    4.4325 C   0  0  0  0  0  0  0  0  0  0  0  0
  -10.8168  -11.6190    3.2714 O   0  0  0  0  0  0  0  0  0  0  0  0
   -6.9896  -14.0735    3.4230 N   0  0  0  0  0  0  0  0  0  0  0  0
   -7.5266  -12.8918    2.8104 C   0  0  0  0  0  0  0  0  0  0  0  0
   -7.6589  -11.8128    3.8441 C   0  0  0  0  0  0  0  0  0  0  0  0
   -8.5264  -12.3361    4.9808 C   0  0  0  0  0  0  0  0  0  0  0  0
   -9.0415  -13.7265    4.7267 C   0  0  0  0  0  0  0  0  0  0  0  0
   -7.7871  -14.5819    4.4892 C   0  0  0  0  0  0  0  0  0  0  0  0
   -6.6327  -15.0807    2.4365 C   0  0  0  0  0  0  0  0  0  0  0  0
   -7.6724  -14.9312    0.3452 O   0  0  0  0  0  0  0  0  0  0  0  0
   -7.8370  -15.5110    1.6144 C   0  0  0  0  0  0  0  0  0  0  0  0
   -8.4275  -14.3068    0.1745 H   0  0  0  0  0  0  0  0  0  0  0  0
  -17.1522   -5.2103    6.7520 C   0  0  0  0  0  0  0  0  0  0  0  0
  -17.4193   -4.8051    5.3983 C   0  0  0  0  0  0  0  0  0  0  0  0
  -18.7420   -4.9407    4.8984 C   0  0  0  0  0  0  0  0  0  0  0  0
  -19.1208   -4.6108    3.6337 C   0  0  0  0  0  0  0  0  0  0  0  0
  -18.1840   -4.1113    2.7610 C   0  0  0  0  0  0  0  0  0  0  0  0
  -18.5676   -3.6568    1.1163 Cl  0  0  0  0  0  0  0  0  0  0  0  0
  -16.9123   -3.9715    3.2142 C   0  0  0  0  0  0  0  0  0  0  0  0
  -16.4988   -4.3099    4.5282 C   0  0  0  0  0  0  0  0  0  0  0  0
  -15.1013   -4.0865    4.8839 C   0  0  0  0  0  0  0  0  0  0  0  0
  -14.5391   -3.2134    3.8869 F   0  0  0  0  0  0  0  0  0  0  0  0
  -14.2652   -5.1301    4.9286 F   0  0  0  0  0  0  0  0  0  0  0  0
  -14.9597   -3.1913    5.9861 F   0  0  0  0  0  0  0  0  0  0  0  0
 25 26  1  0  0  0
 26 24  1  0  0  0
 24 18  1  0  0  0
 18 19  1  0  0  0
 19 20  1  0  0  0
 20 21  1  0  0  0
 21 22  1  0  0  0
 22 23  1  0  0  0
 21 10  1  0  0  0
 10 11  1  0  0  0
 11 12  2  0  0  0
 11 13  1  0  0  0
 13 14  1  0  0  0
 14 15  2  0  0  0
 15  1  1  0  0  0
  1  2  2  0  0  0
  2  3  1  0  0  0
  3  4  2  0  0  0
  4  5  1  0  0  0
  5 28  1  0  0  0
 28 29  1  0  0  0
 29 30  2  0  0  0
 30 31  1  0  0  0
 31 32  2  0  0  0
 32 33  1  0  0  0
 32 34  1  0  0  0
 34 35  2  0  0  0
 35 36  1  0  0  0
 36 37  1  0  0  0
 36 38  1  0  0  0
 36 39  1  0  0  0
  5  6  1  0  0  0
  6  7  2  0  0  0
  7  8  1  0  0  0
  8  9  2  0  0  0
 14 16  1  0  0  0
 16 17  2  0  0  0
 23 18  1  0  0  0
 16 10  1  0  0  0
  9  1  1  0  0  0
  8  4  1  0  0  0
 35 29  1  0  0  0
 25 27  1  0  0  0
M  END
> <minimizedAffinity>
50.24863

> <CNNscore>
0.2923162580

> <CNNaffinity>
6.2768144608

> <CNN_VS>
1.8348149061

> <CNNaffinity_variance>
0.7787845135

$$$$
[H]OC([H])([H])C([H])([H])N1C([H])([H])C([H])([H])C([H])(N2C(=O)S/C(=C(/[H])c3c([H])c([H])c4c(c([H])nn4C([H])([H])c4c([H])c([H])c(Cl)c([H])c4C(F)(F)F)c3[H])C2=O)C([H])([H])C1([H])[H]


 39 43  0  0  0  0  0  0  0  0999 V2000
  -10.2838   -7.8290    8.1933 C   0  0  0  0  0  0  0  0  0  0  0  0
  -10.7953   -7.4767    6.9768 C   0  0  0  0  0  0  0  0  0  0  0  0
  -12.0192   -7.9530    6.5337 C   0  0  0  0  0  0  0  0  0  0  0  0
  -12.7921   -8.8140    7.3031 C   0  0  0  0  0  0  0  0  0  0  0  0
  -14.0175   -9.4075    7.1157 N   0  0  0  0  0  0  0  0  0  0  0  0
  -14.2397  -10.0984    8.1910 N   0  0  0  0  0  0  0  0  0  0  0  0
  -13.2519  -10.0014    9.0645 C   0  0  0  0  0  0  0  0  0  0  0  0
  -12.2903   -9.1770    8.5294 C   0  0  0  0  0  0  0  0  0  0  0  0
  -11.0712   -8.6979    8.9609 C   0  0  0  0  0  0  0  0  0  0  0  0
   -5.6092   -6.6252    7.6700 N   0  0  0  0  0  0  0  0  0  0  0  0
   -6.0250   -6.7877    6.3251 C   0  0  0  0  0  0  0  0  0  0  0  0
   -5.5040   -6.4101    5.2507 O   0  0  0  0  0  0  0  0  0  0  0  0
   -7.5781   -7.7193    6.4409 S   0  0  0  0  0  0  0  0  0  0  0  0
   -7.8694   -7.3039    8.1545 C   0  0  0  0  0  0  0  0  0  0  0  0
   -9.0230   -7.3905    8.7567 C   0  0  0  0  0  0  0  0  0  0  0  0
   -6.5656   -6.8912    8.6392 C   0  0  0  0  0  0  0  0  0  0  0  0
   -6.3730   -6.7968    9.9018 O   0  0  0  0  0  0  0  0  0  0  0  0
   -2.1005   -4.4126    8.2794 N   0  0  0  0  0  0  0  0  0  0  0  0
   -3.4168   -3.9821    8.6565 C   0  0  0  0  0  0  0  0  0  0  0  0
   -4.2202   -5.1695    9.0978 C   0  0  0  0  0  0  0  0  0  0  0  0
   -4.2329   -6.1913    7.9690 C   0  0  0  0  0  0  0  0  0  0  0  0
   -3.5075   -5.7110    6.7417 C   0  0  0  0  0  0  0  0  0  0  0  0
   -2.0886   -5.3685    7.2225 C   0  0  0  0  0  0  0  0  0  0  0  0
   -1.2071   -3.2878    8.0520 C   0  0  0  0  0  0  0  0  0  0  0  0
   -1.8895   -1.7871    6.3910 O   0  0  0  0  0  0  0  0  0  0  0  0
   -1.1085   -2.9404    6.5753 C   0  0  0  0  0  0  0  0  0  0  0  0
   -2.6321   -1.9963    5.7633 H   0  0  0  0  0  0  0  0  0  0  0  0
  -14.8570   -9.2453    5.9652 C   0  0  0  0  0  0  0  0  0  0  0  0
  -15.6506   -8.0638    5.7601 C   0  0  0  0  0  0  0  0  0  0  0  0
  -16.7027   -7.7867    6.6735 C   0  0  0  0  0  0  0  0  0  0  0  0
  -17.5349   -6.7139    6.5813 C   0  0  0  0  0  0  0  0  0  0  0  0
  -17.3704   -5.8236    5.5475 C   0  0  0  0  0  0  0  0  0  0  0  0
  -18.3850   -4.4143    5.3395 Cl  0  0  0  0  0  0  0  0  0  0  0  0
  -16.3716   -6.0654    4.6607 C   0  0  0  0  0  0  0  0  0  0  0  0
  -15.4949   -7.1775    4.7404 C   0  0  0  0  0  0  0  0  0  0  0  0
  -14.4516   -7.2994    3.7274 C   0  0  0  0  0  0  0  0  0  0  0  0
  -13.9658   -8.6537    3.7726 F   0  0  0  0  0  0  0  0  0  0  0  0
  -13.3526   -6.5431    3.8292 F   0  0  0  0  0  0  0  0  0  0  0  0
  -14.9852   -7.3596    2.4053 F   0  0  0  0  0  0  0  0  0  0  0  0
 25 26  1  0  0  0
 26 24  1  0  0  0
 24 18  1  0  0  0
 18 19  1  0  0  0
 19 20  1  0  0  0
 20 21  1  0  0  0
 21 22  1  0  0  0
 22 23  1  0  0  0
 21 10  1  0  0  0
 10 11  1  0  0  0
 11 12  2  0  0  0
 11 13  1  0  0  0
 13 14  1  0  0  0
 14 15  2  0  0  0
 15  1  1  0  0  0
  1  2  2  0  0  0
  2  3  1  0  0  0
  3  4  2  0  0  0
  4  5  1  0  0  0
  5 28  1  0  0  0
 28 29  1  0  0  0
 29 30  2  0  0  0
 30 31  1  0  0  0
 31 32  2  0  0  0
 32 33  1  0  0  0
 32 34  1  0  0  0
 34 35  2  0  0  0
 35 36  1  0  0  0
 36 37  1  0  0  0
 36 38  1  0  0  0
 36 39  1  0  0  0
  5  6  1  0  0  0
  6  7  2  0  0  0
  7  8  1  0  0  0
  8  9  2  0  0  0
 14 16  1  0  0  0
 16 17  2  0  0  0
 23 18  1  0  0  0
 16 10  1  0  0  0
  9  1  1  0  0  0
  8  4  1  0  0  0
 35 29  1  0  0  0
 25 27  1  0  0  0
M  END
> <minimizedAffinity>
-1.91031

> <CNNscore>
0.2648812830

> <CNNaffinity>
6.7498550415

> <CNN_VS>
1.7879102230

> <CNNaffinity_variance>
0.4629894793

$$$$
[H]OC([H])([H])C([H])([H])N1C([H])([H])C([H])([H])C([H])(N2C(=O)S/C(=C(/[H])c3c([H])c([H])c4c(c([H])nn4C([H])([H])c4c([H])c([H])c(Cl)c([H])c4C(F)(F)F)c3[H])C2=O)C([H])([H])C1([H])[H]


 39 43  0  0  0  0  0  0  0  0999 V2000
  -10.7402   -7.9775    8.2750 C   0  0  0  0  0  0  0  0  0  0  0  0
  -11.0521   -8.2090    6.9655 C   0  0  0  0  0  0  0  0  0  0  0  0
  -12.3641   -8.3510    6.5416 C   0  0  0  0  0  0  0  0  0  0  0  0
  -13.4327   -8.2651    7.4254 C   0  0  0  0  0  0  0  0  0  0  0  0
  -14.7959   -8.3495    7.2719 N   0  0  0  0  0  0  0  0  0  0  0  0
  -15.2930   -8.1725    8.4572 N   0  0  0  0  0  0  0  0  0  0  0  0
  -14.3575   -7.9804    9.3715 C   0  0  0  0  0  0  0  0  0  0  0  0
  -13.1342   -8.0324    8.7461 C   0  0  0  0  0  0  0  0  0  0  0  0
  -11.8254   -7.8930    9.1578 C   0  0  0  0  0  0  0  0  0  0  0  0
   -6.0232   -6.9744    7.7102 N   0  0  0  0  0  0  0  0  0  0  0  0
   -6.5405   -6.6996    6.4199 C   0  0  0  0  0  0  0  0  0  0  0  0
   -6.0612   -6.0516    5.4614 O   0  0  0  0  0  0  0  0  0  0  0  0
   -8.1583   -7.5215    6.3963 S   0  0  0  0  0  0  0  0  0  0  0  0
   -8.2970   -7.6207    8.1752 C   0  0  0  0  0  0  0  0  0  0  0  0
   -9.4109   -7.8096    8.8266 C   0  0  0  0  0  0  0  0  0  0  0  0
   -6.9325   -7.4567    8.6405 C   0  0  0  0  0  0  0  0  0  0  0  0
   -6.6485   -7.7574    9.8526 O   0  0  0  0  0  0  0  0  0  0  0  0
   -2.1645   -5.3649    8.0228 N   0  0  0  0  0  0  0  0  0  0  0  0
   -3.3796   -4.6167    8.1775 C   0  0  0  0  0  0  0  0  0  0  0  0
   -4.4142   -5.4806    8.8358 C   0  0  0  0  0  0  0  0  0  0  0  0
   -4.5972   -6.7391    7.9985 C   0  0  0  0  0  0  0  0  0  0  0  0
   -3.7568   -6.7346    6.7507 C   0  0  0  0  0  0  0  0  0  0  0  0
   -2.3123   -6.5469    7.2404 C   0  0  0  0  0  0  0  0  0  0  0  0
   -1.0600   -4.5216    7.5937 C   0  0  0  0  0  0  0  0  0  0  0  0
   -1.2560   -3.2184    5.6598 O   0  0  0  0  0  0  0  0  0  0  0  0
   -1.5518   -3.1968    7.0331 C   0  0  0  0  0  0  0  0  0  0  0  0
   -0.6219   -2.4805    5.4539 H   0  0  0  0  0  0  0  0  0  0  0  0
  -15.4855   -8.5615    6.0334 C   0  0  0  0  0  0  0  0  0  0  0  0
  -16.4255   -7.6070    5.5104 C   0  0  0  0  0  0  0  0  0  0  0  0
  -17.7572   -8.0338    5.2606 C   0  0  0  0  0  0  0  0  0  0  0  0
  -18.7350   -7.2356    4.7519 C   0  0  0  0  0  0  0  0  0  0  0  0
  -18.4442   -5.9267    4.4508 C   0  0  0  0  0  0  0  0  0  0  0  0
  -19.6281   -4.8193    3.7945 Cl  0  0  0  0  0  0  0  0  0  0  0  0
  -17.1785   -5.4936    4.6806 C   0  0  0  0  0  0  0  0  0  0  0  0
  -16.1467   -6.3103    5.2097 C   0  0  0  0  0  0  0  0  0  0  0  0
  -14.8369   -5.7037    5.4242 C   0  0  0  0  0  0  0  0  0  0  0  0
  -14.9503   -4.3083    5.0891 F   0  0  0  0  0  0  0  0  0  0  0  0
  -13.7923   -6.1384    4.7100 F   0  0  0  0  0  0  0  0  0  0  0  0
  -14.5466   -5.5177    6.8089 F   0  0  0  0  0  0  0  0  0  0  0  0
 25 26  1  0  0  0
 26 24  1  0  0  0
 24 18  1  0  0  0
 18 19  1  0  0  0
 19 20  1  0  0  0
 20 21  1  0  0  0
 21 22  1  0  0  0
 22 23  1  0  0  0
 21 10  1  0  0  0
 10 11  1  0  0  0
 11 12  2  0  0  0
 11 13  1  0  0  0
 13 14  1  0  0  0
 14 15  2  0  0  0
 15  1  1  0  0  0
  1  2  2  0  0  0
  2  3  1  0  0  0
  3  4  2  0  0  0
  4  5  1  0  0  0
  5 28  1  0  0  0
 28 29  1  0  0  0
 29 30  2  0  0  0
 30 31  1  0  0  0
 31 32  2  0  0  0
 32 33  1  0  0  0
 32 34  1  0  0  0
 34 35  2  0  0  0
 35 36  1  0  0  0
 36 37  1  0  0  0
 36 38  1  0  0  0
 36 39  1  0  0  0
  5  6  1  0  0  0
  6  7  2  0  0  0
  7  8  1  0  0  0
  8  9  2  0  0  0
 14 16  1  0  0  0
 16 17  2  0  0  0
 23 18  1  0  0  0
 16 10  1  0  0  0
  9  1  1  0  0  0
  8  4  1  0  0  0
 35 29  1  0  0  0
 25 27  1  0  0  0
M  END
> <minimizedAffinity>
-6.26758

> <CNNscore>
0.2165931463

> <CNNaffinity>
6.8709197044

> <CNN_VS>
1.4881941080

> <CNNaffinity_variance>
0.0962310433

$$$$
[H]OC([H])([H])C([H])([H])N1C([H])([H])C([H])([H])C([H])(N2C(=O)S/C(=C(/[H])c3c([H])c([H])c4c(c([H])nn4C([H])([H])c4c([H])c([H])c(Cl)c([H])c4C(F)(F)F)c3[H])C2=O)C([H])([H])C1([H])[H]


 39 43  0  0  0  0  0  0  0  0999 V2000
  -10.6440   -7.8119    8.4473 C   0  0  0  0  0  0  0  0  0  0  0  0
  -11.1272   -8.2903    7.2627 C   0  0  0  0  0  0  0  0  0  0  0  0
  -12.4854   -8.4581    7.0427 C   0  0  0  0  0  0  0  0  0  0  0  0
  -13.4286   -8.1484    8.0149 C   0  0  0  0  0  0  0  0  0  0  0  0
  -14.8014   -8.2028    8.0518 N   0  0  0  0  0  0  0  0  0  0  0  0
  -15.1373   -7.7678    9.2270 N   0  0  0  0  0  0  0  0  0  0  0  0
  -14.0878   -7.4351    9.9592 C   0  0  0  0  0  0  0  0  0  0  0  0
  -12.9571   -7.6660    9.2117 C   0  0  0  0  0  0  0  0  0  0  0  0
  -11.6037   -7.5031    9.4209 C   0  0  0  0  0  0  0  0  0  0  0  0
   -6.0865   -6.7800    7.1284 N   0  0  0  0  0  0  0  0  0  0  0  0
   -6.7954   -6.5891    5.9164 C   0  0  0  0  0  0  0  0  0  0  0  0
   -6.4781   -5.9926    4.8620 O   0  0  0  0  0  0  0  0  0  0  0  0
   -8.3801   -7.4329    6.1813 S   0  0  0  0  0  0  0  0  0  0  0  0
   -8.2511   -7.4285    7.9637 C   0  0  0  0  0  0  0  0  0  0  0  0
   -9.2516   -7.5936    8.7838 C   0  0  0  0  0  0  0  0  0  0  0  0
   -6.8367   -7.2187    8.2099 C   0  0  0  0  0  0  0  0  0  0  0  0
   -6.3694   -7.4433    9.3810 O   0  0  0  0  0  0  0  0  0  0  0  0
   -2.1649   -5.5230    6.3418 N   0  0  0  0  0  0  0  0  0  0  0  0
   -3.3434   -4.7504    6.0692 C   0  0  0  0  0  0  0  0  0  0  0  0
   -4.3660   -5.0117    7.1351 C   0  0  0  0  0  0  0  0  0  0  0  0
   -4.6391   -6.5088    7.1866 C   0  0  0  0  0  0  0  0  0  0  0  0
   -3.8732   -7.2758    6.1434 C   0  0  0  0  0  0  0  0  0  0  0  0
   -2.3972   -6.9282    6.3928 C   0  0  0  0  0  0  0  0  0  0  0  0
   -1.0599   -5.1506    5.4725 C   0  0  0  0  0  0  0  0  0  0  0  0
   -1.0947   -4.1650    3.3503 O   0  0  0  0  0  0  0  0  0  0  0  0
   -1.4021   -5.3682    4.0073 C   0  0  0  0  0  0  0  0  0  0  0  0
   -1.9272   -3.7901    2.9558 H   0  0  0  0  0  0  0  0  0  0  0  0
  -15.6495   -8.6313    6.9787 C   0  0  0  0  0  0  0  0  0  0  0  0
  -16.0946   -7.7291    5.9510 C   0  0  0  0  0  0  0  0  0  0  0  0
  -16.9364   -6.6453    6.3183 C   0  0  0  0  0  0  0  0  0  0  0  0
  -17.4384   -5.7337    5.4414 C   0  0  0  0  0  0  0  0  0  0  0  0
  -17.1275   -5.8435    4.1074 C   0  0  0  0  0  0  0  0  0  0  0  0
  -17.7199   -4.7248    2.9006 Cl  0  0  0  0  0  0  0  0  0  0  0  0
  -16.3243   -6.8706    3.7302 C   0  0  0  0  0  0  0  0  0  0  0  0
  -15.7920   -7.8301    4.6290 C   0  0  0  0  0  0  0  0  0  0  0  0
  -14.9243   -8.8694    4.0845 C   0  0  0  0  0  0  0  0  0  0  0  0
  -15.7473  -10.0205    3.8204 F   0  0  0  0  0  0  0  0  0  0  0  0
  -13.9192   -9.3377    4.8332 F   0  0  0  0  0  0  0  0  0  0  0  0
  -14.5583   -8.6137    2.7292 F   0  0  0  0  0  0  0  0  0  0  0  0
 25 26  1  0  0  0
 26 24  1  0  0  0
 24 18  1  0  0  0
 18 19  1  0  0  0
 19 20  1  0  0  0
 20 21  1  0  0  0
 21 22  1  0  0  0
 22 23  1  0  0  0
 21 10  1  0  0  0
 10 11  1  0  0  0
 11 12  2  0  0  0
 11 13  1  0  0  0
 13 14  1  0  0  0
 14 15  2  0  0  0
 15  1  1  0  0  0
  1  2  2  0  0  0
  2  3  1  0  0  0
  3  4  2  0  0  0
  4  5  1  0  0  0
  5 28  1  0  0  0
 28 29  1  0  0  0
 29 30  2  0  0  0
 30 31  1  0  0  0
 31 32  2  0  0  0
 32 33  1  0  0  0
 32 34  1  0  0  0
 34 35  2  0  0  0
 35 36  1  0  0  0
 36 37  1  0  0  0
 36 38  1  0  0  0
 36 39  1  0  0  0
  5  6  1  0  0  0
  6  7  2  0  0  0
  7  8  1  0  0  0
  8  9  2  0  0  0
 14 16  1  0  0  0
 16 17  2  0  0  0
 23 18  1  0  0  0
 16 10  1  0  0  0
  9  1  1  0  0  0
  8  4  1  0  0  0
 35 29  1  0  0  0
 25 27  1  0  0  0
M  END
> <minimizedAffinity>
-7.05154

> <CNNscore>
0.2085816264

> <CNNaffinity>
6.9897813797

> <CNN_VS>
1.4579399824

> <CNNaffinity_variance>
0.0471129157

$$$$
[H]Oc1c([H])c([H])c2c(c1[H])C([H])([H])[C@@]([H])(C([H])([H])C([H])([H])C([H])([H])C([H])([H])C#Cc1c([H])c([H])c(C(=O)C([H])([H])C(=O)OC([H])([H])C([H])([H])[H])c([H])c1[H])[C@]1([H])[C@]2([H])C([H])([H])C([H])([H])[C@]2(C([H])([H])[H])[C@@]([H])(O[H])C([H])([H])C([H])([H])[C@]21[H]


 42 46  0  0  0  0  0  0  0  0999 V2000
  -16.1482   -7.9837    6.0202 C   0  0  0  0  0  0  0  0  0  0  0  0
  -16.6345   -9.0672    5.0950 C   0  0  0  0  0  0  0  0  0  0  0  0
  -18.1402   -9.0381    5.2409 C   0  0  0  0  0  0  0  0  0  0  0  0
  -18.8795  -10.1538    5.5501 C   0  0  0  0  0  0  0  0  0  0  0  0
  -20.2443  -10.0271    5.6985 C   0  0  0  0  0  0  0  0  0  0  0  0
  -21.0529  -11.1322    6.0143 O   0  0  0  0  0  0  0  0  0  0  0  0
  -20.7987   -8.7764    5.5273 C   0  0  0  0  0  0  0  0  0  0  0  0
  -20.0343   -7.6560    5.2135 C   0  0  0  0  0  0  0  0  0  0  0  0
  -18.6587   -7.7725    5.0609 C   0  0  0  0  0  0  0  0  0  0  0  0
  -17.7401   -6.7156    4.7094 C   0  0  0  0  0  0  0  0  0  0  0  0
  -18.3064   -5.3174    4.7637 C   0  0  0  0  0  0  0  0  0  0  0  0
  -17.3777   -4.4645    3.9244 C   0  0  0  0  0  0  0  0  0  0  0  0
  -15.9469   -4.5709    4.3404 C   0  0  0  0  0  0  0  0  0  0  0  0
  -15.5923   -3.7473    5.5468 C   0  0  0  0  0  0  0  0  0  0  0  0
  -14.9883   -4.1899    3.2316 C   0  0  0  0  0  0  0  0  0  0  0  0
  -14.9005   -2.8319    3.0453 O   0  0  0  0  0  0  0  0  0  0  0  0
  -13.6824   -4.7892    3.7532 C   0  0  0  0  0  0  0  0  0  0  0  0
  -14.0840   -5.8795    4.7280 C   0  0  0  0  0  0  0  0  0  0  0  0
  -15.5050   -6.0379    4.5061 C   0  0  0  0  0  0  0  0  0  0  0  0
  -16.4277   -6.6390    5.4562 C   0  0  0  0  0  0  0  0  0  0  0  0
  -21.4277  -11.6626    5.2151 H   0  0  0  0  0  0  0  0  0  0  0  0
  -15.6309   -2.5639    2.4136 H   0  0  0  0  0  0  0  0  0  0  0  0
  -14.9254   -8.2068    6.7869 C   0  0  0  0  0  0  0  0  0  0  0  0
  -14.0491   -9.3718    6.4881 C   0  0  0  0  0  0  0  0  0  0  0  0
  -13.5067  -10.1985    7.5733 C   0  0  0  0  0  0  0  0  0  0  0  0
  -12.9379   -9.1922    8.6172 C   0  0  0  0  0  0  0  0  0  0  0  0
  -10.4403   -8.5083    7.8963 C   0  0  0  0  0  0  0  0  0  0  0  0
  -11.5750   -8.8139    8.2188 C   0  0  0  0  0  0  0  0  0  0  0  0
   -6.4925   -7.5221    6.7896 C   0  0  0  0  0  0  0  0  0  0  0  0
   -6.8306   -8.8398    7.0067 C   0  0  0  0  0  0  0  0  0  0  0  0
   -8.1214   -9.1371    7.3662 C   0  0  0  0  0  0  0  0  0  0  0  0
   -9.0976   -8.1696    7.5197 C   0  0  0  0  0  0  0  0  0  0  0  0
   -8.7194   -6.8584    7.2930 C   0  0  0  0  0  0  0  0  0  0  0  0
   -7.4270   -6.5183    6.9289 C   0  0  0  0  0  0  0  0  0  0  0  0
   -5.1022   -7.2222    6.4043 C   0  0  0  0  0  0  0  0  0  0  0  0
   -4.1939   -8.0881    6.5349 O   0  0  0  0  0  0  0  0  0  0  0  0
   -4.8256   -5.8725    5.8633 C   0  0  0  0  0  0  0  0  0  0  0  0
   -3.7571   -5.1606    6.5834 C   0  0  0  0  0  0  0  0  0  0  0  0
   -3.9086   -4.8569    7.7914 O   0  0  0  0  0  0  0  0  0  0  0  0
   -2.5928   -4.8318    5.9209 O   0  0  0  0  0  0  0  0  0  0  0  0
   -1.0758   -6.4099    6.9145 C   0  0  0  0  0  0  0  0  0  0  0  0
   -1.6016   -5.8063    5.6272 C   0  0  0  0  0  0  0  0  0  0  0  0
 41 42  1  0  0  0
 42 40  1  0  0  0
 40 38  1  0  0  0
 38 39  2  0  0  0
 38 37  1  0  0  0
 37 35  1  0  0  0
 35 36  2  0  0  0
 35 29  1  0  0  0
 29 30  2  0  0  0
 30 31  1  0  0  0
 31 32  2  0  0  0
 32 33  1  0  0  0
 33 34  2  0  0  0
 32 27  1  0  0  0
 27 28  3  0  0  0
 28 26  1  0  0  0
 26 25  1  0  0  0
 25 24  1  0  0  0
 24 23  1  0  0  0
 23  1  1  0  0  0
  1  2  1  0  0  0
  2  3  1  0  0  0
  3  4  2  0  0  0
  4  5  1  0  0  0
  5  6  1  0  0  0
  5  7  2  0  0  0
  7  8  1  0  0  0
  8  9  2  0  0  0
  9 10  1  0  0  0
 10 11  1  0  0  0
 11 12  1  0  0  0
 12 13  1  0  0  0
 13 14  1  0  0  0
 13 15  1  0  0  0
 15 16  1  0  0  0
 15 17  1  0  0  0
 17 18  1  0  0  0
 18 19  1  0  0  0
 19 20  1  0  0  0
 34 29  1  0  0  0
 20  1  1  0  0  0
  9  3  1  0  0  0
 20 10  1  0  0  0
 19 13  1  0  0  0
  6 21  1  0  0  0
 16 22  1  0  0  0
M  END
> <minimizedAffinity>
1.16621

> <CNNscore>
0.5214747787

> <CNNaffinity>
7.6629309654

> <CNN_VS>
3.9960253239

> <CNNaffinity_variance>
1.1655371189

$$$$
[H]Oc1c([H])c([H])c2c(c1[H])C([H])([H])[C@@]([H])(C([H])([H])C([H])([H])C([H])([H])C([H])([H])C#Cc1c([H])c([H])c(C(=O)C([H])([H])C(=O)OC([H])([H])C([H])([H])[H])c([H])c1[H])[C@]1([H])[C@]2([H])C([H])([H])C([H])([H])[C@]2(C([H])([H])[H])[C@@]([H])(O[H])C([H])([H])C([H])([H])[C@]21[H]


 42 46  0  0  0  0  0  0  0  0999 V2000
   -2.7295   -8.5130    6.9299 C   0  0  0  0  0  0  0  0  0  0  0  0
   -1.5259   -7.6294    6.7371 C   0  0  0  0  0  0  0  0  0  0  0  0
   -1.3526   -6.9345    8.0698 C   0  0  0  0  0  0  0  0  0  0  0  0
   -1.2704   -5.5687    8.1917 C   0  0  0  0  0  0  0  0  0  0  0  0
   -1.1487   -5.0195    9.4504 C   0  0  0  0  0  0  0  0  0  0  0  0
   -1.0602   -3.6296    9.6381 O   0  0  0  0  0  0  0  0  0  0  0  0
   -1.1159   -5.8780   10.5287 C   0  0  0  0  0  0  0  0  0  0  0  0
   -1.2000   -7.2604   10.3870 C   0  0  0  0  0  0  0  0  0  0  0  0
   -1.3220   -7.8242    9.1236 C   0  0  0  0  0  0  0  0  0  0  0  0
   -1.3900   -9.2328    8.8136 C   0  0  0  0  0  0  0  0  0  0  0  0
   -1.6000  -10.1489    9.9948 C   0  0  0  0  0  0  0  0  0  0  0  0
   -1.1627  -11.5234    9.5322 C   0  0  0  0  0  0  0  0  0  0  0  0
   -1.8426  -11.9638    8.2770 C   0  0  0  0  0  0  0  0  0  0  0  0
   -3.2357  -12.4898    8.4820 C   0  0  0  0  0  0  0  0  0  0  0  0
   -1.0602  -13.0257    7.5329 C   0  0  0  0  0  0  0  0  0  0  0  0
   -1.1702  -14.2692    8.1058 O   0  0  0  0  0  0  0  0  0  0  0  0
   -1.7166  -12.9623    6.1540 C   0  0  0  0  0  0  0  0  0  0  0  0
   -2.3479  -11.5869    6.0554 C   0  0  0  0  0  0  0  0  0  0  0  0
   -1.8033  -10.8725    7.1898 C   0  0  0  0  0  0  0  0  0  0  0  0
   -2.3978   -9.6838    7.7806 C   0  0  0  0  0  0  0  0  0  0  0  0
   -0.1107   -3.2310    9.6311 H   0  0  0  0  0  0  0  0  0  0  0  0
   -0.4643  -14.3414    8.8134 H   0  0  0  0  0  0  0  0  0  0  0  0
   -3.6777   -8.6638    5.8293 C   0  0  0  0  0  0  0  0  0  0  0  0
   -5.0114   -8.0065    5.8867 C   0  0  0  0  0  0  0  0  0  0  0  0
   -5.9379   -8.0921    4.7510 C   0  0  0  0  0  0  0  0  0  0  0  0
   -6.8286   -9.3379    5.0351 C   0  0  0  0  0  0  0  0  0  0  0  0
   -8.9763   -8.5581    6.4509 C   0  0  0  0  0  0  0  0  0  0  0  0
   -8.0011   -8.9160    5.8139 C   0  0  0  0  0  0  0  0  0  0  0  0
  -12.3891   -7.3132    8.5922 C   0  0  0  0  0  0  0  0  0  0  0  0
  -12.5359   -7.8778    7.3443 C   0  0  0  0  0  0  0  0  0  0  0  0
  -11.4110   -8.2754    6.6658 C   0  0  0  0  0  0  0  0  0  0  0  0
  -10.1359   -8.1334    7.1820 C   0  0  0  0  0  0  0  0  0  0  0  0
  -10.0296   -7.5622    8.4375 C   0  0  0  0  0  0  0  0  0  0  0  0
  -11.1408   -7.1483    9.1534 C   0  0  0  0  0  0  0  0  0  0  0  0
  -13.6080   -6.8925    9.3056 C   0  0  0  0  0  0  0  0  0  0  0  0
  -13.8314   -5.6733    9.5406 O   0  0  0  0  0  0  0  0  0  0  0  0
  -14.5463   -7.9564    9.7282 C   0  0  0  0  0  0  0  0  0  0  0  0
  -15.1405   -8.6947    8.6017 C   0  0  0  0  0  0  0  0  0  0  0  0
  -14.7953   -9.8798    8.3760 O   0  0  0  0  0  0  0  0  0  0  0  0
  -16.0760   -8.0746    7.8000 O   0  0  0  0  0  0  0  0  0  0  0  0
  -18.2539   -7.4712    6.9804 C   0  0  0  0  0  0  0  0  0  0  0  0
  -17.4652   -8.1351    8.0917 C   0  0  0  0  0  0  0  0  0  0  0  0
 41 42  1  0  0  0
 42 40  1  0  0  0
 40 38  1  0  0  0
 38 39  2  0  0  0
 38 37  1  0  0  0
 37 35  1  0  0  0
 35 36  2  0  0  0
 35 29  1  0  0  0
 29 30  2  0  0  0
 30 31  1  0  0  0
 31 32  2  0  0  0
 32 33  1  0  0  0
 33 34  2  0  0  0
 32 27  1  0  0  0
 27 28  3  0  0  0
 28 26  1  0  0  0
 26 25  1  0  0  0
 25 24  1  0  0  0
 24 23  1  0  0  0
 23  1  1  0  0  0
  1  2  1  0  0  0
  2  3  1  0  0  0
  3  4  2  0  0  0
  4  5  1  0  0  0
  5  6  1  0  0  0
  5  7  2  0  0  0
  7  8  1  0  0  0
  8  9  2  0  0  0
  9 10  1  0  0  0
 10 11  1  0  0  0
 11 12  1  0  0  0
 12 13  1  0  0  0
 13 14  1  0  0  0
 13 15  1  0  0  0
 15 16  1  0  0  0
 15 17  1  0  0  0
 17 18  1  0  0  0
 18 19  1  0  0  0
 19 20  1  0  0  0
 34 29  1  0  0  0
 20  1  1  0  0  0
  9  3  1  0  0  0
 20 10  1  0  0  0
 19 13  1  0  0  0
  6 21  1  0  0  0
 16 22  1  0  0  0
M  END
> <minimizedAffinity>
2.23222

> <CNNscore>
0.4571520984

> <CNNaffinity>
6.6438550949

> <CNN_VS>
3.0372521877

> <CNNaffinity_variance>
2.0118565559

$$$$
[H]Oc1c([H])c([H])c2c(c1[H])C([H])([H])[C@@]([H])(C([H])([H])C([H])([H])C([H])([H])C([H])([H])C#Cc1c([H])c([H])c(C(=O)C([H])([H])C(=O)OC([H])([H])C([H])([H])[H])c([H])c1[H])[C@]1([H])[C@]2([H])C([H])([H])C([H])([H])[C@]2(C([H])([H])[H])[C@@]([H])(O[H])C([H])([H])C([H])([H])[C@]21[H]


 42 46  0  0  0  0  0  0  0  0999 V2000
  -15.9899   -7.7593    6.5459 C   0  0  0  0  0  0  0  0  0  0  0  0
  -15.9569   -6.3213    6.9904 C   0  0  0  0  0  0  0  0  0  0  0  0
  -15.7642   -5.5369    5.7110 C   0  0  0  0  0  0  0  0  0  0  0  0
  -14.7569   -4.6174    5.5464 C   0  0  0  0  0  0  0  0  0  0  0  0
  -14.6350   -3.9747    4.3330 C   0  0  0  0  0  0  0  0  0  0  0  0
  -13.6250   -3.0245    4.1051 O   0  0  0  0  0  0  0  0  0  0  0  0
  -15.5382   -4.2920    3.3408 C   0  0  0  0  0  0  0  0  0  0  0  0
  -16.5537   -5.2264    3.5249 C   0  0  0  0  0  0  0  0  0  0  0  0
  -16.6861   -5.8792    4.7436 C   0  0  0  0  0  0  0  0  0  0  0  0
  -17.6994   -6.8457    5.0957 C   0  0  0  0  0  0  0  0  0  0  0  0
  -18.5264   -7.3684    3.9461 C   0  0  0  0  0  0  0  0  0  0  0  0
  -19.7781   -7.9493    4.5707 C   0  0  0  0  0  0  0  0  0  0  0  0
  -19.4895   -8.9565    5.6356 C   0  0  0  0  0  0  0  0  0  0  0  0
  -19.1319  -10.3202    5.1143 C   0  0  0  0  0  0  0  0  0  0  0  0
  -20.6418   -9.1270    6.6033 C   0  0  0  0  0  0  0  0  0  0  0  0
  -21.6692   -9.8757    6.0831 O   0  0  0  0  0  0  0  0  0  0  0  0
  -19.9453   -9.8288    7.7690 C   0  0  0  0  0  0  0  0  0  0  0  0
  -18.4723   -9.4921    7.6384 C   0  0  0  0  0  0  0  0  0  0  0  0
  -18.4427   -8.4425    6.6429 C   0  0  0  0  0  0  0  0  0  0  0  0
  -17.2705   -8.0750    5.8642 C   0  0  0  0  0  0  0  0  0  0  0  0
  -13.8624   -2.0480    4.3302 H   0  0  0  0  0  0  0  0  0  0  0  0
  -22.2731   -9.2546    5.5793 H   0  0  0  0  0  0  0  0  0  0  0  0
  -15.3456   -8.7705    7.3798 C   0  0  0  0  0  0  0  0  0  0  0  0
  -14.6043   -8.3754    8.6081 C   0  0  0  0  0  0  0  0  0  0  0  0
  -13.2236   -8.8242    8.8262 C   0  0  0  0  0  0  0  0  0  0  0  0
  -12.4789   -7.5971    9.4308 C   0  0  0  0  0  0  0  0  0  0  0  0
   -9.9582   -7.5610    8.4981 C   0  0  0  0  0  0  0  0  0  0  0  0
  -11.0993   -7.5822    8.9252 C   0  0  0  0  0  0  0  0  0  0  0  0
   -6.0162   -7.4140    7.0076 C   0  0  0  0  0  0  0  0  0  0  0  0
   -6.8286   -6.3071    6.8966 C   0  0  0  0  0  0  0  0  0  0  0  0
   -8.1078   -6.3780    7.3887 C   0  0  0  0  0  0  0  0  0  0  0  0
   -8.6162   -7.5140    7.9917 C   0  0  0  0  0  0  0  0  0  0  0  0
   -7.7701   -8.6046    8.0844 C   0  0  0  0  0  0  0  0  0  0  0  0
   -6.4730   -8.5720    7.5999 C   0  0  0  0  0  0  0  0  0  0  0  0
   -4.6460   -7.3192    6.4737 C   0  0  0  0  0  0  0  0  0  0  0  0
   -4.3470   -6.4484    5.6111 O   0  0  0  0  0  0  0  0  0  0  0  0
   -3.6492   -8.2830    6.9918 C   0  0  0  0  0  0  0  0  0  0  0  0
   -2.2589   -7.9108    6.6824 C   0  0  0  0  0  0  0  0  0  0  0  0
   -1.6108   -7.1881    7.4775 O   0  0  0  0  0  0  0  0  0  0  0  0
   -1.6778   -8.3617    5.5157 O   0  0  0  0  0  0  0  0  0  0  0  0
   -1.1263  -10.6209    6.1245 C   0  0  0  0  0  0  0  0  0  0  0  0
   -1.7878   -9.7168    5.1033 C   0  0  0  0  0  0  0  0  0  0  0  0
 41 42  1  0  0  0
 42 40  1  0  0  0
 40 38  1  0  0  0
 38 39  2  0  0  0
 38 37  1  0  0  0
 37 35  1  0  0  0
 35 36  2  0  0  0
 35 29  1  0  0  0
 29 30  2  0  0  0
 30 31  1  0  0  0
 31 32  2  0  0  0
 32 33  1  0  0  0
 33 34  2  0  0  0
 32 27  1  0  0  0
 27 28  3  0  0  0
 28 26  1  0  0  0
 26 25  1  0  0  0
 25 24  1  0  0  0
 24 23  1  0  0  0
 23  1  1  0  0  0
  1  2  1  0  0  0
  2  3  1  0  0  0
  3  4  2  0  0  0
  4  5  1  0  0  0
  5  6  1  0  0  0
  5  7  2  0  0  0
  7  8  1  0  0  0
  8  9  2  0  0  0
  9 10  1  0  0  0
 10 11  1  0  0  0
 11 12  1  0  0  0
 12 13  1  0  0  0
 13 14  1  0  0  0
 13 15  1  0  0  0
 15 16  1  0  0  0
 15 17  1  0  0  0
 17 18  1  0  0  0
 18 19  1  0  0  0
 19 20  1  0  0  0
 34 29  1  0  0  0
 20  1  1  0  0  0
  9  3  1  0  0  0
 20 10  1  0  0  0
 19 13  1  0  0  0
  6 21  1  0  0  0
 16 22  1  0  0  0
M  END
> <minimizedAffinity>
2.46320

> <CNNscore>
0.4143291414

> <CNNaffinity>
7.3191518784

> <CNN_VS>
3.0325379372

> <CNNaffinity_variance>
1.4294037819

$$$$
[H]Oc1c([H])c([H])c2c(c1[H])C([H])([H])[C@@]([H])(C([H])([H])C([H])([H])C([H])([H])C([H])([H])C#Cc1c([H])c([H])c(C(=O)C([H])([H])C(=O)OC([H])([H])C([H])([H])[H])c([H])c1[H])[C@]1([H])[C@]2([H])C([H])([H])C([H])([H])[C@]2(C([H])([H])[H])[C@@]([H])(O[H])C([H])([H])C([H])([H])[C@]21[H]


 42 46  0  0  0  0  0  0  0  0999 V2000
  -13.2027   -7.2332    7.1382 C   0  0  0  0  0  0  0  0  0  0  0  0
  -13.6576   -7.3098    8.5713 C   0  0  0  0  0  0  0  0  0  0  0  0
  -13.4017   -5.9238    9.1213 C   0  0  0  0  0  0  0  0  0  0  0  0
  -12.6682   -5.6991   10.2609 C   0  0  0  0  0  0  0  0  0  0  0  0
  -12.4554   -4.3997   10.6694 C   0  0  0  0  0  0  0  0  0  0  0  0
  -11.7135   -4.1074   11.8265 O   0  0  0  0  0  0  0  0  0  0  0  0
  -12.9946   -3.3865    9.9055 C   0  0  0  0  0  0  0  0  0  0  0  0
  -13.7361   -3.6322    8.7531 C   0  0  0  0  0  0  0  0  0  0  0  0
  -13.9572   -4.9374    8.3330 C   0  0  0  0  0  0  0  0  0  0  0  0
  -14.7257   -5.3520    7.1831 C   0  0  0  0  0  0  0  0  0  0  0  0
  -15.1030   -4.2507    6.2221 C   0  0  0  0  0  0  0  0  0  0  0  0
  -16.2593   -4.7935    5.4081 C   0  0  0  0  0  0  0  0  0  0  0  0
  -15.9564   -6.1051    4.7604 C   0  0  0  0  0  0  0  0  0  0  0  0
  -15.1384   -5.9984    3.5039 C   0  0  0  0  0  0  0  0  0  0  0  0
  -17.2066   -6.8909    4.4241 C   0  0  0  0  0  0  0  0  0  0  0  0
  -17.8517   -6.4155    3.3086 O   0  0  0  0  0  0  0  0  0  0  0  0
  -16.6261   -8.2881    4.2070 C   0  0  0  0  0  0  0  0  0  0  0  0
  -15.3072   -8.3127    4.9555 C   0  0  0  0  0  0  0  0  0  0  0  0
  -15.3389   -7.1072    5.7550 C   0  0  0  0  0  0  0  0  0  0  0  0
  -14.1653   -6.4570    6.3165 C   0  0  0  0  0  0  0  0  0  0  0  0
  -12.2486   -4.0450   12.7042 H   0  0  0  0  0  0  0  0  0  0  0  0
  -18.4718   -5.6857    3.6039 H   0  0  0  0  0  0  0  0  0  0  0  0
  -12.5139   -8.3810    6.5543 C   0  0  0  0  0  0  0  0  0  0  0  0
  -11.5067   -9.1392    7.3448 C   0  0  0  0  0  0  0  0  0  0  0  0
  -11.6555  -10.5842    7.5579 C   0  0  0  0  0  0  0  0  0  0  0  0
  -10.2375  -11.0938    7.9521 C   0  0  0  0  0  0  0  0  0  0  0  0
   -9.1977  -12.4635    5.8861 C   0  0  0  0  0  0  0  0  0  0  0  0
   -9.6678  -11.8368    6.8195 C   0  0  0  0  0  0  0  0  0  0  0  0
   -7.6174  -14.6878    2.6709 C   0  0  0  0  0  0  0  0  0  0  0  0
   -8.2004  -15.3442    3.7324 C   0  0  0  0  0  0  0  0  0  0  0  0
   -8.7079  -14.5996    4.7677 C   0  0  0  0  0  0  0  0  0  0  0  0
   -8.6590  -13.2177    4.7905 C   0  0  0  0  0  0  0  0  0  0  0  0
   -8.0658  -12.5952    3.7068 C   0  0  0  0  0  0  0  0  0  0  0  0
   -7.5423  -13.3116    2.6432 C   0  0  0  0  0  0  0  0  0  0  0  0
   -7.0782  -15.5037    1.5687 C   0  0  0  0  0  0  0  0  0  0  0  0
   -6.5331  -16.6185    1.7961 O   0  0  0  0  0  0  0  0  0  0  0  0
   -7.2053  -14.9591    0.1982 C   0  0  0  0  0  0  0  0  0  0  0  0
   -8.2966  -13.9814    0.0553 C   0  0  0  0  0  0  0  0  0  0  0  0
   -9.4746  -14.3101    0.3358 O   0  0  0  0  0  0  0  0  0  0  0  0
   -8.0135  -12.7062   -0.3876 O   0  0  0  0  0  0  0  0  0  0  0  0
   -8.4515  -11.2958    1.5092 C   0  0  0  0  0  0  0  0  0  0  0  0
   -7.4378  -11.7300    0.4692 C   0  0  0  0  0  0  0  0  0  0  0  0
 41 42  1  0  0  0
 42 40  1  0  0  0
 40 38  1  0  0  0
 38 39  2  0  0  0
 38 37  1  0  0  0
 37 35  1  0  0  0
 35 36  2  0  0  0
 35 29  1  0  0  0
 29 30  2  0  0  0
 30 31  1  0  0  0
 31 32  2  0  0  0
 32 33  1  0  0  0
 33 34  2  0  0  0
 32 27  1  0  0  0
 27 28  3  0  0  0
 28 26  1  0  0  0
 26 25  1  0  0  0
 25 24  1  0  0  0
 24 23  1  0  0  0
 23  1  1  0  0  0
  1  2  1  0  0  0
  2  3  1  0  0  0
  3  4  2  0  0  0
  4  5  1  0  0  0
  5  6  1  0  0  0
  5  7  2  0  0  0
  7  8  1  0  0  0
  8  9  2  0  0  0
  9 10  1  0  0  0
 10 11  1  0  0  0
 11 12  1  0  0  0
 12 13  1  0  0  0
 13 14  1  0  0  0
 13 15  1  0  0  0
 15 16  1  0  0  0
 15 17  1  0  0  0
 17 18  1  0  0  0
 18 19  1  0  0  0
 19 20  1  0  0  0
 34 29  1  0  0  0
 20  1  1  0  0  0
  9  3  1  0  0  0
 20 10  1  0  0  0
 19 13  1  0  0  0
  6 21  1  0  0  0
 16 22  1  0  0  0
M  END
> <minimizedAffinity>
24.87135

> <CNNscore>
0.4057985544

> <CNNaffinity>
6.7791090012

> <CNN_VS>
2.7509527206

> <CNNaffinity_variance>
0.8924415708

$$$$
[H]Oc1c([H])c([H])c2c(c1[H])C([H])([H])[C@@]([H])(C([H])([H])C([H])([H])C([H])([H])C([H])([H])C#Cc1c([H])c([H])c(C(=O)C([H])([H])C(=O)OC([H])([H])C([H])([H])[H])c([H])c1[H])[C@]1([H])[C@]2([H])C([H])([H])C([H])([H])[C@]2(C([H])([H])[H])[C@@]([H])(O[H])C([H])([H])C([H])([H])[C@]21[H]


 42 46  0  0  0  0  0  0  0  0999 V2000
   -3.6100   -4.0338    5.9454 C   0  0  0  0  0  0  0  0  0  0  0  0
   -2.7388   -3.1849    5.0584 C   0  0  0  0  0  0  0  0  0  0  0  0
   -3.3168   -1.7925    5.1855 C   0  0  0  0  0  0  0  0  0  0  0  0
   -3.6866   -1.0381    4.0987 C   0  0  0  0  0  0  0  0  0  0  0  0
   -4.2382    0.2074    4.3103 C   0  0  0  0  0  0  0  0  0  0  0  0
   -4.6356    1.0247    3.2384 O   0  0  0  0  0  0  0  0  0  0  0  0
   -4.3908    0.6329    5.6128 C   0  0  0  0  0  0  0  0  0  0  0  0
   -4.0100   -0.1446    6.7031 C   0  0  0  0  0  0  0  0  0  0  0  0
   -3.4525   -1.4006    6.5012 C   0  0  0  0  0  0  0  0  0  0  0  0
   -2.9834   -2.3072    7.5224 C   0  0  0  0  0  0  0  0  0  0  0  0
   -3.3718   -1.9504    8.9367 C   0  0  0  0  0  0  0  0  0  0  0  0
   -2.4115   -2.7077    9.8304 C   0  0  0  0  0  0  0  0  0  0  0  0
   -2.3790   -4.1741    9.5474 C   0  0  0  0  0  0  0  0  0  0  0  0
   -3.5232   -4.9435   10.1460 C   0  0  0  0  0  0  0  0  0  0  0  0
   -1.0961   -4.8290   10.0151 C   0  0  0  0  0  0  0  0  0  0  0  0
   -1.0616   -5.0248   11.3741 O   0  0  0  0  0  0  0  0  0  0  0  0
   -1.1389   -6.1460    9.2404 C   0  0  0  0  0  0  0  0  0  0  0  0
   -2.0458   -5.9002    8.0498 C   0  0  0  0  0  0  0  0  0  0  0  0
   -2.2271   -4.4647    8.0416 C   0  0  0  0  0  0  0  0  0  0  0  0
   -3.3218   -3.7738    7.3784 C   0  0  0  0  0  0  0  0  0  0  0  0
   -3.9200    1.6661    2.8680 H   0  0  0  0  0  0  0  0  0  0  0  0
   -0.7066   -4.1865   11.7931 H   0  0  0  0  0  0  0  0  0  0  0  0
   -3.9561   -5.3844    5.5104 C   0  0  0  0  0  0  0  0  0  0  0  0
   -5.1524   -6.0731    6.0661 C   0  0  0  0  0  0  0  0  0  0  0  0
   -5.0381   -7.4115    6.6586 C   0  0  0  0  0  0  0  0  0  0  0  0
   -5.5945   -7.2733    8.1067 C   0  0  0  0  0  0  0  0  0  0  0  0
   -8.2377   -7.7607    8.0691 C   0  0  0  0  0  0  0  0  0  0  0  0
   -7.0384   -7.5457    8.0889 C   0  0  0  0  0  0  0  0  0  0  0  0
  -12.3941   -8.4624    7.9496 C   0  0  0  0  0  0  0  0  0  0  0  0
  -11.9105   -7.3383    8.5821 C   0  0  0  0  0  0  0  0  0  0  0  0
  -10.5541   -7.1306    8.6086 C   0  0  0  0  0  0  0  0  0  0  0  0
   -9.6516   -8.0022    8.0269 C   0  0  0  0  0  0  0  0  0  0  0  0
  -10.1757   -9.1193    7.4015 C   0  0  0  0  0  0  0  0  0  0  0  0
  -11.5382   -9.3639    7.3536 C   0  0  0  0  0  0  0  0  0  0  0  0
  -13.8530   -8.6685    7.9312 C   0  0  0  0  0  0  0  0  0  0  0  0
  -14.3422   -9.8312    7.9562 O   0  0  0  0  0  0  0  0  0  0  0  0
  -14.7070   -7.4605    7.8826 C   0  0  0  0  0  0  0  0  0  0  0  0
  -15.2923   -7.2101    6.5552 C   0  0  0  0  0  0  0  0  0  0  0  0
  -16.2922   -7.8665    6.1760 O   0  0  0  0  0  0  0  0  0  0  0  0
  -14.7339   -6.2515    5.7357 O   0  0  0  0  0  0  0  0  0  0  0  0
  -14.7551   -4.2909    4.3447 C   0  0  0  0  0  0  0  0  0  0  0  0
  -15.5180   -5.5168    4.8062 C   0  0  0  0  0  0  0  0  0  0  0  0
 41 42  1  0  0  0
 42 40  1  0  0  0
 40 38  1  0  0  0
 38 39  2  0  0  0
 38 37  1  0  0  0
 37 35  1  0  0  0
 35 36  2  0  0  0
 35 29  1  0  0  0
 29 30  2  0  0  0
 30 31  1  0  0  0
 31 32  2  0  0  0
 32 33  1  0  0  0
 33 34  2  0  0  0
 32 27  1  0  0  0
 27 28  3  0  0  0
 28 26  1  0  0  0
 26 25  1  0  0  0
 25 24  1  0  0  0
 24 23  1  0  0  0
 23  1  1  0  0  0
  1  2  1  0  0  0
  2  3  1  0  0  0
  3  4  2  0  0  0
  4  5  1  0  0  0
  5  6  1  0  0  0
  5  7  2  0  0  0
  7  8  1  0  0  0
  8  9  2  0  0  0
  9 10  1  0  0  0
 10 11  1  0  0  0
 11 12  1  0  0  0
 12 13  1  0  0  0
 13 14  1  0  0  0
 13 15  1  0  0  0
 15 16  1  0  0  0
 15 17  1  0  0  0
 17 18  1  0  0  0
 18 19  1  0  0  0
 19 20  1  0  0  0
 34 29  1  0  0  0
 20  1  1  0  0  0
  9  3  1  0  0  0
 20 10  1  0  0  0
 19 13  1  0  0  0
  6 21  1  0  0  0
 16 22  1  0  0  0
M  END
> <minimizedAffinity>
-8.11635

> <CNNscore>
0.3872678280

> <CNNaffinity>
6.8326597214

> <CNN_VS>
2.6460692883

> <CNNaffinity_variance>
0.0821793750

$$$$
[H]Oc1c([H])c([H])c2c(c1[H])C([H])([H])[C@@]([H])(C([H])([H])C([H])([H])C([H])([H])C([H])([H])C#Cc1c([H])c([H])c(C(=O)C([H])([H])C(=O)OC([H])([H])C([H])([H])[H])c([H])c1[H])[C@]1([H])[C@]2([H])C([H])([H])C([H])([H])[C@]2(C([H])([H])[H])[C@@]([H])(O[H])C([H])([H])C([H])([H])[C@]21[H]


 42 46  0  0  0  0  0  0  0  0999 V2000
  -16.0333   -7.6922    6.6510 C   0  0  0  0  0  0  0  0  0  0  0  0
  -16.0353   -6.2378    7.0400 C   0  0  0  0  0  0  0  0  0  0  0  0
  -15.8171   -5.5001    5.7372 C   0  0  0  0  0  0  0  0  0  0  0  0
  -14.8196   -4.5713    5.5660 C   0  0  0  0  0  0  0  0  0  0  0  0
  -14.6720   -3.9736    4.3325 C   0  0  0  0  0  0  0  0  0  0  0  0
  -13.6704   -3.0165    4.0970 O   0  0  0  0  0  0  0  0  0  0  0  0
  -15.5409   -4.3436    3.3280 C   0  0  0  0  0  0  0  0  0  0  0  0
  -16.5469   -5.2867    3.5190 C   0  0  0  0  0  0  0  0  0  0  0  0
  -16.7050   -5.8944    4.7578 C   0  0  0  0  0  0  0  0  0  0  0  0
  -17.7134   -6.8630    5.1179 C   0  0  0  0  0  0  0  0  0  0  0  0
  -18.4982   -7.4430    3.9663 C   0  0  0  0  0  0  0  0  0  0  0  0
  -19.7587   -8.0199    4.5768 C   0  0  0  0  0  0  0  0  0  0  0  0
  -19.4861   -8.9806    5.6878 C   0  0  0  0  0  0  0  0  0  0  0  0
  -19.0926  -10.3573    5.2304 C   0  0  0  0  0  0  0  0  0  0  0  0
  -20.6635   -9.1327    6.6280 C   0  0  0  0  0  0  0  0  0  0  0  0
  -21.6637   -9.9175    6.1080 O   0  0  0  0  0  0  0  0  0  0  0  0
  -19.9909   -9.7777    7.8395 C   0  0  0  0  0  0  0  0  0  0  0  0
  -18.5200   -9.4222    7.7383 C   0  0  0  0  0  0  0  0  0  0  0  0
  -18.4772   -8.4112    6.7040 C   0  0  0  0  0  0  0  0  0  0  0  0
  -17.2884   -8.0548    5.9456 C   0  0  0  0  0  0  0  0  0  0  0  0
  -13.9291   -2.0361    4.2770 H   0  0  0  0  0  0  0  0  0  0  0  0
  -22.2620   -9.3262    5.5633 H   0  0  0  0  0  0  0  0  0  0  0  0
  -15.3984   -8.6600    7.5417 C   0  0  0  0  0  0  0  0  0  0  0  0
  -14.8488   -8.2291    8.8557 C   0  0  0  0  0  0  0  0  0  0  0  0
  -13.4403   -8.4693    9.1932 C   0  0  0  0  0  0  0  0  0  0  0  0
  -12.8071   -7.0564    9.3619 C   0  0  0  0  0  0  0  0  0  0  0  0
  -10.2891   -7.1152    8.4230 C   0  0  0  0  0  0  0  0  0  0  0  0
  -11.4328   -7.0866    8.8426 C   0  0  0  0  0  0  0  0  0  0  0  0
   -6.3163   -7.2703    7.0177 C   0  0  0  0  0  0  0  0  0  0  0  0
   -6.6469   -7.8993    8.1979 C   0  0  0  0  0  0  0  0  0  0  0  0
   -7.9460   -7.8354    8.6358 C   0  0  0  0  0  0  0  0  0  0  0  0
   -8.9379   -7.1661    7.9423 C   0  0  0  0  0  0  0  0  0  0  0  0
   -8.5668   -6.5473    6.7620 C   0  0  0  0  0  0  0  0  0  0  0  0
   -7.2664   -6.5892    6.2871 C   0  0  0  0  0  0  0  0  0  0  0  0
   -4.9168   -7.3498    6.5634 C   0  0  0  0  0  0  0  0  0  0  0  0
   -4.3440   -8.4655    6.4257 O   0  0  0  0  0  0  0  0  0  0  0  0
   -4.2234   -6.0732    6.2798 C   0  0  0  0  0  0  0  0  0  0  0  0
   -3.0249   -5.8612    7.1081 C   0  0  0  0  0  0  0  0  0  0  0  0
   -1.8960   -5.7722    6.5677 O   0  0  0  0  0  0  0  0  0  0  0  0
   -3.1539   -5.7616    8.4778 O   0  0  0  0  0  0  0  0  0  0  0  0
   -4.0155   -4.9900   10.5852 C   0  0  0  0  0  0  0  0  0  0  0  0
   -4.0682   -4.8538    9.0764 C   0  0  0  0  0  0  0  0  0  0  0  0
 41 42  1  0  0  0
 42 40  1  0  0  0
 40 38  1  0  0  0
 38 39  2  0  0  0
 38 37  1  0  0  0
 37 35  1  0  0  0
 35 36  2  0  0  0
 35 29  1  0  0  0
 29 30  2  0  0  0
 30 31  1  0  0  0
 31 32  2  0  0  0
 32 33  1  0  0  0
 33 34  2  0  0  0
 32 27  1  0  0  0
 27 28  3  0  0  0
 28 26  1  0  0  0
 26 25  1  0  0  0
 25 24  1  0  0  0
 24 23  1  0  0  0
 23  1  1  0  0  0
  1  2  1  0  0  0
  2  3  1  0  0  0
  3  4  2  0  0  0
  4  5  1  0  0  0
  5  6  1  0  0  0
  5  7  2  0  0  0
  7  8  1  0  0  0
  8  9  2  0  0  0
  9 10  1  0  0  0
 10 11  1  0  0  0
 11 12  1  0  0  0
 12 13  1  0  0  0
 13 14  1  0  0  0
 13 15  1  0  0  0
 15 16  1  0  0  0
 15 17  1  0  0  0
 17 18  1  0  0  0
 18 19  1  0  0  0
 19 20  1  0  0  0
 34 29  1  0  0  0
 20  1  1  0  0  0
  9  3  1  0  0  0
 20 10  1  0  0  0
 19 13  1  0  0  0
  6 21  1  0  0  0
 16 22  1  0  0  0
M  END
> <minimizedAffinity>
2.09994

> <CNNscore>
0.3824227154

> <CNNaffinity>
7.4590215683

> <CNN_VS>
2.8524992466

> <CNNaffinity_variance>
0.9917085767

$$$$
[H]Oc1c([H])c([H])c2c(c1[H])C([H])([H])[C@@]([H])(C([H])([H])C([H])([H])C([H])([H])C([H])([H])C#Cc1c([H])c([H])c(C(=O)C([H])([H])C(=O)OC([H])([H])C([H])([H])[H])c([H])c1[H])[C@]1([H])[C@]2([H])C([H])([H])C([H])([H])[C@]2(C([H])([H])[H])[C@@]([H])(O[H])C([H])([H])C([H])([H])[C@]21[H]


 42 46  0  0  0  0  0  0  0  0999 V2000
   -5.3107   -8.4468    6.3553 C   0  0  0  0  0  0  0  0  0  0  0  0
   -6.5975   -8.4122    5.5747 C   0  0  0  0  0  0  0  0  0  0  0  0
   -7.6633   -8.7572    6.5917 C   0  0  0  0  0  0  0  0  0  0  0  0
   -8.5723   -9.7696    6.4026 C   0  0  0  0  0  0  0  0  0  0  0  0
   -9.4864  -10.0372    7.3993 C   0  0  0  0  0  0  0  0  0  0  0  0
  -10.4405  -11.0601    7.2633 O   0  0  0  0  0  0  0  0  0  0  0  0
   -9.4387   -9.2679    8.5424 C   0  0  0  0  0  0  0  0  0  0  0  0
   -8.5107   -8.2450    8.7173 C   0  0  0  0  0  0  0  0  0  0  0  0
   -7.5858   -7.9664    7.7193 C   0  0  0  0  0  0  0  0  0  0  0  0
   -6.5860   -6.9249    7.7401 C   0  0  0  0  0  0  0  0  0  0  0  0
   -6.3754   -6.2526    9.0751 C   0  0  0  0  0  0  0  0  0  0  0  0
   -5.6891   -4.9373    8.7696 C   0  0  0  0  0  0  0  0  0  0  0  0
   -4.4482   -5.0985    7.9536 C   0  0  0  0  0  0  0  0  0  0  0  0
   -3.2432   -5.5297    8.7420 C   0  0  0  0  0  0  0  0  0  0  0  0
   -4.0749   -3.8356    7.2060 C   0  0  0  0  0  0  0  0  0  0  0  0
   -3.4975   -2.8876    8.0150 O   0  0  0  0  0  0  0  0  0  0  0  0
   -3.0966   -4.3863    6.1687 C   0  0  0  0  0  0  0  0  0  0  0  0
   -3.4216   -5.8613    6.0309 C   0  0  0  0  0  0  0  0  0  0  0  0
   -4.6798   -6.0068    6.7305 C   0  0  0  0  0  0  0  0  0  0  0  0
   -5.1980   -7.2643    7.2459 C   0  0  0  0  0  0  0  0  0  0  0  0
  -11.3388  -10.7884    6.8392 H   0  0  0  0  0  0  0  0  0  0  0  0
   -4.2354   -2.3464    8.4236 H   0  0  0  0  0  0  0  0  0  0  0  0
   -4.1136   -8.9898    5.7187 C   0  0  0  0  0  0  0  0  0  0  0  0
   -3.5632  -10.3052    6.1440 C   0  0  0  0  0  0  0  0  0  0  0  0
   -2.2157  -10.7206    5.7351 C   0  0  0  0  0  0  0  0  0  0  0  0
   -1.2927  -10.3822    6.9431 C   0  0  0  0  0  0  0  0  0  0  0  0
   -1.8180  -12.0940    8.9480 C   0  0  0  0  0  0  0  0  0  0  0  0
   -1.5855  -11.3146    8.0405 C   0  0  0  0  0  0  0  0  0  0  0  0
   -2.5496  -14.7962   12.1015 C   0  0  0  0  0  0  0  0  0  0  0  0
   -1.2770  -14.3071   11.9045 C   0  0  0  0  0  0  0  0  0  0  0  0
   -1.0624  -13.4288   10.8718 C   0  0  0  0  0  0  0  0  0  0  0  0
   -2.0701  -13.0138   10.0203 C   0  0  0  0  0  0  0  0  0  0  0  0
   -3.3340  -13.5270   10.2504 C   0  0  0  0  0  0  0  0  0  0  0  0
   -3.5903  -14.4152   11.2818 C   0  0  0  0  0  0  0  0  0  0  0  0
   -2.7607  -15.7378   13.2151 C   0  0  0  0  0  0  0  0  0  0  0  0
   -3.3682  -16.8286   13.0333 O   0  0  0  0  0  0  0  0  0  0  0  0
   -2.2324  -15.3473   14.5415 C   0  0  0  0  0  0  0  0  0  0  0  0
   -2.1394  -16.4704   15.4887 C   0  0  0  0  0  0  0  0  0  0  0  0
   -1.1395  -17.2282   15.4676 O   0  0  0  0  0  0  0  0  0  0  0  0
   -3.1569  -16.6812   16.3956 O   0  0  0  0  0  0  0  0  0  0  0  0
   -4.8583  -17.5336   14.9267 C   0  0  0  0  0  0  0  0  0  0  0  0
   -4.1019  -17.7284   16.2258 C   0  0  0  0  0  0  0  0  0  0  0  0
 41 42  1  0  0  0
 42 40  1  0  0  0
 40 38  1  0  0  0
 38 39  2  0  0  0
 38 37  1  0  0  0
 37 35  1  0  0  0
 35 36  2  0  0  0
 35 29  1  0  0  0
 29 30  2  0  0  0
 30 31  1  0  0  0
 31 32  2  0  0  0
 32 33  1  0  0  0
 33 34  2  0  0  0
 32 27  1  0  0  0
 27 28  3  0  0  0
 28 26  1  0  0  0
 26 25  1  0  0  0
 25 24  1  0  0  0
 24 23  1  0  0  0
 23  1  1  0  0  0
  1  2  1  0  0  0
  2  3  1  0  0  0
  3  4  2  0  0  0
  4  5  1  0  0  0
  5  6  1  0  0  0
  5  7  2  0  0  0
  7  8  1  0  0  0
  8  9  2  0  0  0
  9 10  1  0  0  0
 10 11  1  0  0  0
 11 12  1  0  0  0
 12 13  1  0  0  0
 13 14  1  0  0  0
 13 15  1  0  0  0
 15 16  1  0  0  0
 15 17  1  0  0  0
 17 18  1  0  0  0
 18 19  1  0  0  0
 19 20  1  0  0  0
 34 29  1  0  0  0
 20  1  1  0  0  0
  9  3  1  0  0  0
 20 10  1  0  0  0
 19 13  1  0  0  0
  6 21  1  0  0  0
 16 22  1  0  0  0
M  END
> <minimizedAffinity>
9.80212

> <CNNscore>
0.3804096878

> <CNNaffinity>
6.0876855850

> <CNN_VS>
2.3158144951

> <CNNaffinity_variance>
1.5944732428

$$$$
[H]Oc1c([H])c([H])c2c(c1[H])C([H])([H])[C@@]([H])(C([H])([H])C([H])([H])C([H])([H])C([H])([H])C#Cc1c([H])c([H])c(C(=O)C([H])([H])C(=O)OC([H])([H])C([H])([H])[H])c([H])c1[H])[C@]1([H])[C@]2([H])C([H])([H])C([H])([H])[C@]2(C([H])([H])[H])[C@@]([H])(O[H])C([H])([H])C([H])([H])[C@]21[H]


 42 46  0  0  0  0  0  0  0  0999 V2000
   -4.9163   -8.3889    6.4254 C   0  0  0  0  0  0  0  0  0  0  0  0
   -6.1156   -8.5387    5.5278 C   0  0  0  0  0  0  0  0  0  0  0  0
   -7.2746   -8.0407    6.3632 C   0  0  0  0  0  0  0  0  0  0  0  0
   -8.4109   -8.7825    6.5766 C   0  0  0  0  0  0  0  0  0  0  0  0
   -9.4025   -8.2634    7.3815 C   0  0  0  0  0  0  0  0  0  0  0  0
  -10.5871   -8.9752    7.6365 O   0  0  0  0  0  0  0  0  0  0  0  0
   -9.1988   -7.0168    7.9341 C   0  0  0  0  0  0  0  0  0  0  0  0
   -8.0408   -6.2781    7.7067 C   0  0  0  0  0  0  0  0  0  0  0  0
   -7.0359   -6.7912    6.8969 C   0  0  0  0  0  0  0  0  0  0  0  0
   -5.7977   -6.1374    6.5446 C   0  0  0  0  0  0  0  0  0  0  0  0
   -5.4704   -4.8949    7.3369 C   0  0  0  0  0  0  0  0  0  0  0  0
   -4.4487   -4.1389    6.5130 C   0  0  0  0  0  0  0  0  0  0  0  0
   -3.2630   -4.9689    6.1429 C   0  0  0  0  0  0  0  0  0  0  0  0
   -2.2478   -5.1187    7.2413 C   0  0  0  0  0  0  0  0  0  0  0  0
   -2.5389   -4.4384    4.9232 C   0  0  0  0  0  0  0  0  0  0  0  0
   -1.7641   -3.3384    5.1991 O   0  0  0  0  0  0  0  0  0  0  0  0
   -1.7005   -5.6538    4.5274 C   0  0  0  0  0  0  0  0  0  0  0  0
   -2.3986   -6.8567    5.1321 C   0  0  0  0  0  0  0  0  0  0  0  0
   -3.6774   -6.3356    5.5641 C   0  0  0  0  0  0  0  0  0  0  0  0
   -4.5304   -6.9617    6.5621 C   0  0  0  0  0  0  0  0  0  0  0  0
  -11.3636   -8.8129    6.9798 H   0  0  0  0  0  0  0  0  0  0  0  0
   -2.3482   -2.5278    5.1208 H   0  0  0  0  0  0  0  0  0  0  0  0
   -3.8811   -9.4188    6.3977 C   0  0  0  0  0  0  0  0  0  0  0  0
   -3.0935   -9.7305    7.6211 C   0  0  0  0  0  0  0  0  0  0  0  0
   -1.6352   -9.8866    7.5531 C   0  0  0  0  0  0  0  0  0  0  0  0
   -1.0692   -8.4423    7.4143 C   0  0  0  0  0  0  0  0  0  0  0  0
   -1.6901   -7.0433    9.6240 C   0  0  0  0  0  0  0  0  0  0  0  0
   -1.4151   -7.6784    8.6210 C   0  0  0  0  0  0  0  0  0  0  0  0
   -2.5809   -4.8105   13.0886 C   0  0  0  0  0  0  0  0  0  0  0  0
   -1.4130   -5.5386   13.0285 C   0  0  0  0  0  0  0  0  0  0  0  0
   -1.1441   -6.2578   11.8909 C   0  0  0  0  0  0  0  0  0  0  0  0
   -1.9960   -6.2825   10.8017 C   0  0  0  0  0  0  0  0  0  0  0  0
   -3.1584   -5.5389   10.9002 C   0  0  0  0  0  0  0  0  0  0  0  0
   -3.4652   -4.8004   12.0311 C   0  0  0  0  0  0  0  0  0  0  0  0
   -2.8526   -4.0446   14.3178 C   0  0  0  0  0  0  0  0  0  0  0  0
   -2.0668   -4.1031   15.3031 O   0  0  0  0  0  0  0  0  0  0  0  0
   -4.0770   -3.2132   14.3408 C   0  0  0  0  0  0  0  0  0  0  0  0
   -4.2108   -2.4014   15.5617 C   0  0  0  0  0  0  0  0  0  0  0  0
   -4.4432   -2.9569   16.6625 O   0  0  0  0  0  0  0  0  0  0  0  0
   -4.0788   -1.0306   15.4847 O   0  0  0  0  0  0  0  0  0  0  0  0
   -5.7671   -0.3842   17.0692 C   0  0  0  0  0  0  0  0  0  0  0  0
   -4.3377   -0.1928   16.6025 C   0  0  0  0  0  0  0  0  0  0  0  0
 41 42  1  0  0  0
 42 40  1  0  0  0
 40 38  1  0  0  0
 38 39  2  0  0  0
 38 37  1  0  0  0
 37 35  1  0  0  0
 35 36  2  0  0  0
 35 29  1  0  0  0
 29 30  2  0  0  0
 30 31  1  0  0  0
 31 32  2  0  0  0
 32 33  1  0  0  0
 33 34  2  0  0  0
 32 27  1  0  0  0
 27 28  3  0  0  0
 28 26  1  0  0  0
 26 25  1  0  0  0
 25 24  1  0  0  0
 24 23  1  0  0  0
 23  1  1  0  0  0
  1  2  1  0  0  0
  2  3  1  0  0  0
  3  4  2  0  0  0
  4  5  1  0  0  0
  5  6  1  0  0  0
  5  7  2  0  0  0
  7  8  1  0  0  0
  8  9  2  0  0  0
  9 10  1  0  0  0
 10 11  1  0  0  0
 11 12  1  0  0  0
 12 13  1  0  0  0
 13 14  1  0  0  0
 13 15  1  0  0  0
 15 16  1  0  0  0
 15 17  1  0  0  0
 17 18  1  0  0  0
 18 19  1  0  0  0
 19 20  1  0  0  0
 34 29  1  0  0  0
 20  1  1  0  0  0
  9  3  1  0  0  0
 20 10  1  0  0  0
 19 13  1  0  0  0
  6 21  1  0  0  0
 16 22  1  0  0  0
M  END
> <minimizedAffinity>
-1.14381

> <CNNscore>
0.3788735867

> <CNNaffinity>
6.2478151321

> <CNN_VS>
2.3671321869

> <CNNaffinity_variance>
1.0727465153

$$$$
[H]Oc1c([H])c([H])c2c(c1[H])C([H])([H])[C@@]([H])(C([H])([H])C([H])([H])C([H])([H])C([H])([H])C#Cc1c([H])c([H])c(C(=O)C([H])([H])C(=O)OC([H])([H])C([H])([H])[H])c([H])c1[H])[C@]1([H])[C@]2([H])C([H])([H])C([H])([H])[C@]2(C([H])([H])[H])[C@@]([H])(O[H])C([H])([H])C([H])([H])[C@]21[H]


 42 46  0  0  0  0  0  0  0  0999 V2000
  -11.5525   -6.6587    9.1651 C   0  0  0  0  0  0  0  0  0  0  0  0
  -12.4464   -7.5968    9.9316 C   0  0  0  0  0  0  0  0  0  0  0  0
  -13.4791   -8.0426    8.9196 C   0  0  0  0  0  0  0  0  0  0  0  0
  -14.8309   -7.9402    9.1414 C   0  0  0  0  0  0  0  0  0  0  0  0
  -15.6998   -8.3386    8.1480 C   0  0  0  0  0  0  0  0  0  0  0  0
  -17.0926   -8.2577    8.3167 O   0  0  0  0  0  0  0  0  0  0  0  0
  -15.1608   -8.8224    6.9749 C   0  0  0  0  0  0  0  0  0  0  0  0
  -13.7877   -8.9199    6.7670 C   0  0  0  0  0  0  0  0  0  0  0  0
  -12.9034   -8.5221    7.7614 C   0  0  0  0  0  0  0  0  0  0  0  0
  -11.4621   -8.5893    7.7073 C   0  0  0  0  0  0  0  0  0  0  0  0
  -10.8756   -8.8838    6.3480 C   0  0  0  0  0  0  0  0  0  0  0  0
   -9.4668   -9.3769    6.6059 C   0  0  0  0  0  0  0  0  0  0  0  0
   -8.6592   -8.4363    7.4394 C   0  0  0  0  0  0  0  0  0  0  0  0
   -8.0974   -7.2666    6.6806 C   0  0  0  0  0  0  0  0  0  0  0  0
   -7.5042   -9.1226    8.1382 C   0  0  0  0  0  0  0  0  0  0  0  0
   -6.4506   -9.3839    7.2966 O   0  0  0  0  0  0  0  0  0  0  0  0
   -7.1503   -8.0880    9.2063 C   0  0  0  0  0  0  0  0  0  0  0  0
   -8.3970   -7.2467    9.4012 C   0  0  0  0  0  0  0  0  0  0  0  0
   -9.4255   -7.9810    8.6964 C   0  0  0  0  0  0  0  0  0  0  0  0
  -10.6770   -7.4067    8.2280 C   0  0  0  0  0  0  0  0  0  0  0  0
  -17.5491   -9.0876    8.7210 H   0  0  0  0  0  0  0  0  0  0  0  0
   -6.6232  -10.2690    6.8592 H   0  0  0  0  0  0  0  0  0  0  0  0
  -11.0430   -5.4649    9.8346 C   0  0  0  0  0  0  0  0  0  0  0  0
  -11.4683   -5.1383   11.2226 C   0  0  0  0  0  0  0  0  0  0  0  0
  -11.3930   -6.1479   12.2859 C   0  0  0  0  0  0  0  0  0  0  0  0
  -11.0199   -5.3627   13.5782 C   0  0  0  0  0  0  0  0  0  0  0  0
   -8.3413   -5.2594   13.7775 C   0  0  0  0  0  0  0  0  0  0  0  0
   -9.5561   -5.3062   13.6938 C   0  0  0  0  0  0  0  0  0  0  0  0
   -4.1363   -5.0567   14.0213 C   0  0  0  0  0  0  0  0  0  0  0  0
   -4.9037   -4.5527   15.0483 C   0  0  0  0  0  0  0  0  0  0  0  0
   -6.2703   -4.6295   14.9472 C   0  0  0  0  0  0  0  0  0  0  0  0
   -6.9100   -5.1918   13.8575 C   0  0  0  0  0  0  0  0  0  0  0  0
   -6.1053   -5.6867   12.8470 C   0  0  0  0  0  0  0  0  0  0  0  0
   -4.7231   -5.6277   12.9123 C   0  0  0  0  0  0  0  0  0  0  0  0
   -2.6710   -4.9654   14.1476 C   0  0  0  0  0  0  0  0  0  0  0  0
   -1.9721   -5.9997   14.3309 O   0  0  0  0  0  0  0  0  0  0  0  0
   -2.0656   -3.6182   14.0503 C   0  0  0  0  0  0  0  0  0  0  0  0
   -1.9256   -2.9437   15.3513 C   0  0  0  0  0  0  0  0  0  0  0  0
   -1.4228   -3.5554   16.3247 O   0  0  0  0  0  0  0  0  0  0  0  0
   -2.3504   -1.6388   15.4899 O   0  0  0  0  0  0  0  0  0  0  0  0
   -3.1726    0.2431   14.2404 C   0  0  0  0  0  0  0  0  0  0  0  0
   -3.4750   -1.1414   14.7785 C   0  0  0  0  0  0  0  0  0  0  0  0
 41 42  1  0  0  0
 42 40  1  0  0  0
 40 38  1  0  0  0
 38 39  2  0  0  0
 38 37  1  0  0  0
 37 35  1  0  0  0
 35 36  2  0  0  0
 35 29  1  0  0  0
 29 30  2  0  0  0
 30 31  1  0  0  0
 31 32  2  0  0  0
 32 33  1  0  0  0
 33 34  2  0  0  0
 32 27  1  0  0  0
 27 28  3  0  0  0
 28 26  1  0  0  0
 26 25  1  0  0  0
 25 24  1  0  0  0
 24 23  1  0  0  0
 23  1  1  0  0  0
  1  2  1  0  0  0
  2  3  1  0  0  0
  3  4  2  0  0  0
  4  5  1  0  0  0
  5  6  1  0  0  0
  5  7  2  0  0  0
  7  8  1  0  0  0
  8  9  2  0  0  0
  9 10  1  0  0  0
 10 11  1  0  0  0
 11 12  1  0  0  0
 12 13  1  0  0  0
 13 14  1  0  0  0
 13 15  1  0  0  0
 15 16  1  0  0  0
 15 17  1  0  0  0
 17 18  1  0  0  0
 18 19  1  0  0  0
 19 20  1  0  0  0
 34 29  1  0  0  0
 20  1  1  0  0  0
  9  3  1  0  0  0
 20 10  1  0  0  0
 19 13  1  0  0  0
  6 21  1  0  0  0
 16 22  1  0  0  0
M  END
> <minimizedAffinity>
-2.89239

> <CNNscore>
0.3329964876

> <CNNaffinity>
6.7112708092

> <CNN_VS>
2.2348296642

> <CNNaffinity_variance>
0.1525600255

$$$$
[H]Oc1c([H])c([H])c2c(c1[H])OC([H])([H])c1c-2nc2c([H])c([H])c(O[H])c([H])c2c1Cl


 23 26  0  0  0  0  0  0  0  0999 V2000
   -1.4556   -6.4265    3.4973 O   0  0  0  0  0  0  0  0  0  0  0  0
   -1.5317   -6.0278    4.8448 C   0  0  0  0  0  0  0  0  0  0  0  0
   -1.7840   -4.7024    5.1467 C   0  0  0  0  0  0  0  0  0  0  0  0
   -1.8656   -4.2744    6.4550 C   0  0  0  0  0  0  0  0  0  0  0  0
   -1.6893   -5.2012    7.4755 C   0  0  0  0  0  0  0  0  0  0  0  0
   -1.4361   -6.5309    7.1566 C   0  0  0  0  0  0  0  0  0  0  0  0
   -1.2747   -7.3789    8.2248 O   0  0  0  0  0  0  0  0  0  0  0  0
   -1.3330   -7.0726    9.5765 C   0  0  0  0  0  0  0  0  0  0  0  0
   -1.6021   -5.6595    9.8667 C   0  0  0  0  0  0  0  0  0  0  0  0
   -1.6888   -5.2050   11.1702 C   0  0  0  0  0  0  0  0  0  0  0  0
   -1.4829   -6.2863   12.5331 Cl  0  0  0  0  0  0  0  0  0  0  0  0
   -1.9436   -3.8669   11.4443 C   0  0  0  0  0  0  0  0  0  0  0  0
   -2.0365   -3.3796   12.7218 C   0  0  0  0  0  0  0  0  0  0  0  0
   -2.2912   -2.0421   12.9498 C   0  0  0  0  0  0  0  0  0  0  0  0
   -2.3892   -1.5276   14.2452 O   0  0  0  0  0  0  0  0  0  0  0  0
   -2.4628   -1.1406   11.9165 C   0  0  0  0  0  0  0  0  0  0  0  0
   -2.3675   -1.6405   10.6333 C   0  0  0  0  0  0  0  0  0  0  0  0
   -2.1124   -2.9803   10.3897 C   0  0  0  0  0  0  0  0  0  0  0  0
   -2.0192   -3.4689    9.1601 N   0  0  0  0  0  0  0  0  0  0  0  0
   -1.7742   -4.7554    8.8569 C   0  0  0  0  0  0  0  0  0  0  0  0
   -1.3530   -6.9660    5.8405 C   0  0  0  0  0  0  0  0  0  0  0  0
   -2.2751   -6.7393    2.9860 H   0  0  0  0  0  0  0  0  0  0  0  0
   -1.5756   -1.1698   14.7380 H   0  0  0  0  0  0  0  0  0  0  0  0
  1  2  1  0  0  0
  2  3  2  0  0  0
  3  4  1  0  0  0
  4  5  2  0  0  0
  5  6  1  0  0  0
  6  7  1  0  0  0
  7  8  1  0  0  0
  8  9  1  0  0  0
  9 10  2  0  0  0
 10 11  1  0  0  0
 10 12  1  0  0  0
 12 13  2  0  0  0
 13 14  1  0  0  0
 14 15  1  0  0  0
 14 16  2  0  0  0
 16 17  1  0  0  0
 17 18  2  0  0  0
 18 19  1  0  0  0
 19 20  2  0  0  0
  6 21  2  0  0  0
 21  2  1  0  0  0
  5 20  1  0  0  0
 20  9  1  0  0  0
 18 12  1  0  0  0
  1 22  1  0  0  0
 15 23  1  0  0  0
M  END
> <minimizedAffinity>
-2.27091

> <CNNscore>
0.5894857645

> <CNNaffinity>
4.6846041679

> <CNN_VS>
2.7615075111

> <CNNaffinity_variance>
0.8390733004

$$$$
[H]Oc1c([H])c([H])c2c(c1[H])OC([H])([H])c1c-2nc2c([H])c([H])c(O[H])c([H])c2c1Cl


 23 26  0  0  0  0  0  0  0  0999 V2000
   -2.9383   -6.8904    7.2411 O   0  0  0  0  0  0  0  0  0  0  0  0
   -4.3206   -7.0958    7.4075 C   0  0  0  0  0  0  0  0  0  0  0  0
   -5.0422   -6.2339    8.2124 C   0  0  0  0  0  0  0  0  0  0  0  0
   -6.3979   -6.4032    8.3994 C   0  0  0  0  0  0  0  0  0  0  0  0
   -7.0352   -7.4612    7.7623 C   0  0  0  0  0  0  0  0  0  0  0  0
   -6.2965   -8.3200    6.9558 C   0  0  0  0  0  0  0  0  0  0  0  0
   -7.0042   -9.3378    6.3647 O   0  0  0  0  0  0  0  0  0  0  0  0
   -8.3595   -9.6127    6.4736 C   0  0  0  0  0  0  0  0  0  0  0  0
   -9.0996   -8.6820    7.3337 C   0  0  0  0  0  0  0  0  0  0  0  0
  -10.4596   -8.8302    7.5374 C   0  0  0  0  0  0  0  0  0  0  0  0
  -11.3629  -10.1283    6.7838 Cl  0  0  0  0  0  0  0  0  0  0  0  0
  -11.1597   -7.9486    8.3519 C   0  0  0  0  0  0  0  0  0  0  0  0
  -12.5066   -8.0630    8.5775 C   0  0  0  0  0  0  0  0  0  0  0  0
  -13.1637   -7.1649    9.3944 C   0  0  0  0  0  0  0  0  0  0  0  0
  -14.5362   -7.2660    9.6359 O   0  0  0  0  0  0  0  0  0  0  0  0
  -12.5061   -6.1207   10.0165 C   0  0  0  0  0  0  0  0  0  0  0  0
  -11.1497   -6.0134    9.7834 C   0  0  0  0  0  0  0  0  0  0  0  0
  -10.4774   -6.9075    8.9660 C   0  0  0  0  0  0  0  0  0  0  0  0
   -9.1745   -6.8117    8.7366 N   0  0  0  0  0  0  0  0  0  0  0  0
   -8.4647   -7.6445    7.9560 C   0  0  0  0  0  0  0  0  0  0  0  0
   -4.9311   -8.1531    6.7649 C   0  0  0  0  0  0  0  0  0  0  0  0
   -2.5712   -6.3070    6.4957 H   0  0  0  0  0  0  0  0  0  0  0  0
  -14.9006   -7.8115   10.4122 H   0  0  0  0  0  0  0  0  0  0  0  0
  1  2  1  0  0  0
  2  3  2  0  0  0
  3  4  1  0  0  0
  4  5  2  0  0  0
  5  6  1  0  0  0
  6  7  1  0  0  0
  7  8  1  0  0  0
  8  9  1  0  0  0
  9 10  2  0  0  0
 10 11  1  0  0  0
 10 12  1  0  0  0
 12 13  2  0  0  0
 13 14  1  0  0  0
 14 15  1  0  0  0
 14 16  2  0  0  0
 16 17  1  0  0  0
 17 18  2  0  0  0
 18 19  1  0  0  0
 19 20  2  0  0  0
  6 21  2  0  0  0
 21  2  1  0  0  0
  5 20  1  0  0  0
 20  9  1  0  0  0
 18 12  1  0  0  0
  1 22  1  0  0  0
 15 23  1  0  0  0
M  END
> <minimizedAffinity>
-7.42932

> <CNNscore>
0.4780289829

> <CNNaffinity>
5.7873163223

> <CNN_VS>
2.7665050030

> <CNNaffinity_variance>
0.0114345718

$$$$
[H]Oc1c([H])c([H])c2c(c1[H])OC([H])([H])c1c-2nc2c([H])c([H])c(O[H])c([H])c2c1Cl


 23 26  0  0  0  0  0  0  0  0999 V2000
  -18.1549   -8.9745    4.0771 O   0  0  0  0  0  0  0  0  0  0  0  0
  -17.1153   -8.5642    4.9324 C   0  0  0  0  0  0  0  0  0  0  0  0
  -17.3613   -8.4385    6.2870 C   0  0  0  0  0  0  0  0  0  0  0  0
  -16.3678   -8.0390    7.1559 C   0  0  0  0  0  0  0  0  0  0  0  0
  -15.1044   -7.7619    6.6474 C   0  0  0  0  0  0  0  0  0  0  0  0
  -14.8718   -7.8927    5.2826 C   0  0  0  0  0  0  0  0  0  0  0  0
  -13.5968   -7.5992    4.8652 O   0  0  0  0  0  0  0  0  0  0  0  0
  -12.5177   -7.1901    5.6349 C   0  0  0  0  0  0  0  0  0  0  0  0
  -12.8080   -7.0655    7.0680 C   0  0  0  0  0  0  0  0  0  0  0  0
  -11.8290   -6.6667    7.9601 C   0  0  0  0  0  0  0  0  0  0  0  0
  -10.2024   -6.2922    7.4282 Cl  0  0  0  0  0  0  0  0  0  0  0  0
  -12.1046   -6.5489    9.3169 C   0  0  0  0  0  0  0  0  0  0  0  0
  -11.1613   -6.1570   10.2305 C   0  0  0  0  0  0  0  0  0  0  0  0
  -11.4775   -6.0529   11.5703 C   0  0  0  0  0  0  0  0  0  0  0  0
  -10.5290   -5.6549   12.5159 O   0  0  0  0  0  0  0  0  0  0  0  0
  -12.7424   -6.3346   12.0504 C   0  0  0  0  0  0  0  0  0  0  0  0
  -13.6858   -6.7286   11.1229 C   0  0  0  0  0  0  0  0  0  0  0  0
  -13.3826   -6.8374    9.7754 C   0  0  0  0  0  0  0  0  0  0  0  0
  -14.2828   -7.2152    8.8776 N   0  0  0  0  0  0  0  0  0  0  0  0
  -14.0531   -7.3402    7.5591 C   0  0  0  0  0  0  0  0  0  0  0  0
  -15.8695   -8.2946    4.4042 C   0  0  0  0  0  0  0  0  0  0  0  0
  -18.3210   -9.9546    3.8706 H   0  0  0  0  0  0  0  0  0  0  0  0
  -10.3973   -4.6764   12.7573 H   0  0  0  0  0  0  0  0  0  0  0  0
  1  2  1  0  0  0
  2  3  2  0  0  0
  3  4  1  0  0  0
  4  5  2  0  0  0
  5  6  1  0  0  0
  6  7  1  0  0  0
  7  8  1  0  0  0
  8  9  1  0  0  0
  9 10  2  0  0  0
 10 11  1  0  0  0
 10 12  1  0  0  0
 12 13  2  0  0  0
 13 14  1  0  0  0
 14 15  1  0  0  0
 14 16  2  0  0  0
 16 17  1  0  0  0
 17 18  2  0  0  0
 18 19  1  0  0  0
 19 20  2  0  0  0
  6 21  2  0  0  0
 21  2  1  0  0  0
  5 20  1  0  0  0
 20  9  1  0  0  0
 18 12  1  0  0  0
  1 22  1  0  0  0
 15 23  1  0  0  0
M  END
> <minimizedAffinity>
3.53883

> <CNNscore>
0.4514844418

> <CNNaffinity>
6.0012769699

> <CNN_VS>
2.7094831467

> <CNNaffinity_variance>
1.1442548037

$$$$
[H]Oc1c([H])c([H])c2c(c1[H])OC([H])([H])c1c-2nc2c([H])c([H])c(O[H])c([H])c2c1Cl


 23 26  0  0  0  0  0  0  0  0999 V2000
   -6.4141   -4.9912    5.9675 O   0  0  0  0  0  0  0  0  0  0  0  0
   -7.6750   -5.4811    6.3559 C   0  0  0  0  0  0  0  0  0  0  0  0
   -8.7296   -5.4226    5.4637 C   0  0  0  0  0  0  0  0  0  0  0  0
   -9.9793   -5.8925    5.8085 C   0  0  0  0  0  0  0  0  0  0  0  0
  -10.1666   -6.4307    7.0760 C   0  0  0  0  0  0  0  0  0  0  0  0
   -9.0967   -6.4829    7.9627 C   0  0  0  0  0  0  0  0  0  0  0  0
   -9.3690   -7.0295    9.1929 O   0  0  0  0  0  0  0  0  0  0  0  0
  -10.5752   -7.5335    9.6568 C   0  0  0  0  0  0  0  0  0  0  0  0
  -11.6759   -7.4584    8.6890 C   0  0  0  0  0  0  0  0  0  0  0  0
  -12.9385   -7.9229    9.0102 C   0  0  0  0  0  0  0  0  0  0  0  0
  -13.2865   -8.6202   10.5792 Cl  0  0  0  0  0  0  0  0  0  0  0  0
  -13.9801   -7.8515    8.0934 C   0  0  0  0  0  0  0  0  0  0  0  0
  -15.2437   -8.3010    8.3751 C   0  0  0  0  0  0  0  0  0  0  0  0
  -16.2504   -8.2110    7.4347 C   0  0  0  0  0  0  0  0  0  0  0  0
  -17.5444   -8.6640    7.7042 O   0  0  0  0  0  0  0  0  0  0  0  0
  -16.0376   -7.6712    6.1804 C   0  0  0  0  0  0  0  0  0  0  0  0
  -14.7618   -7.2211    5.9057 C   0  0  0  0  0  0  0  0  0  0  0  0
  -13.7420   -7.3051    6.8398 C   0  0  0  0  0  0  0  0  0  0  0  0
  -12.5136   -6.8751    6.5842 N   0  0  0  0  0  0  0  0  0  0  0  0
  -11.4824   -6.9277    7.4449 C   0  0  0  0  0  0  0  0  0  0  0  0
   -7.8366   -6.0106    7.6196 C   0  0  0  0  0  0  0  0  0  0  0  0
   -5.7248   -5.5870    5.5195 H   0  0  0  0  0  0  0  0  0  0  0  0
  -18.2483   -8.0523    8.1082 H   0  0  0  0  0  0  0  0  0  0  0  0
  1  2  1  0  0  0
  2  3  2  0  0  0
  3  4  1  0  0  0
  4  5  2  0  0  0
  5  6  1  0  0  0
  6  7  1  0  0  0
  7  8  1  0  0  0
  8  9  1  0  0  0
  9 10  2  0  0  0
 10 11  1  0  0  0
 10 12  1  0  0  0
 12 13  2  0  0  0
 13 14  1  0  0  0
 14 15  1  0  0  0
 14 16  2  0  0  0
 16 17  1  0  0  0
 17 18  2  0  0  0
 18 19  1  0  0  0
 19 20  2  0  0  0
  6 21  2  0  0  0
 21  2  1  0  0  0
  5 20  1  0  0  0
 20  9  1  0  0  0
 18 12  1  0  0  0
  1 22  1  0  0  0
 15 23  1  0  0  0
M  END
> <minimizedAffinity>
8.79756

> <CNNscore>
0.4237001836

> <CNNaffinity>
5.8567137718

> <CNN_VS>
2.4814906120

> <CNNaffinity_variance>
1.0571848154

$$$$
[H]Oc1c([H])c([H])c2c(c1[H])OC([H])([H])c1c-2nc2c([H])c([H])c(O[H])c([H])c2c1Cl


 23 26  0  0  0  0  0  0  0  0999 V2000
   -1.3559   -4.6746    0.1924 O   0  0  0  0  0  0  0  0  0  0  0  0
   -1.5492   -4.6493    1.5862 C   0  0  0  0  0  0  0  0  0  0  0  0
   -1.9364   -3.4704    2.1959 C   0  0  0  0  0  0  0  0  0  0  0  0
   -2.1354   -3.4070    3.5589 C   0  0  0  0  0  0  0  0  0  0  0  0
   -1.9399   -4.5541    4.3188 C   0  0  0  0  0  0  0  0  0  0  0  0
   -1.5503   -5.7326    3.6917 C   0  0  0  0  0  0  0  0  0  0  0  0
   -1.3795   -6.8175    4.5164 O   0  0  0  0  0  0  0  0  0  0  0  0
   -1.5472   -6.8809    5.8919 C   0  0  0  0  0  0  0  0  0  0  0  0
   -1.9582   -5.6157    6.5115 C   0  0  0  0  0  0  0  0  0  0  0  0
   -2.1643   -5.5259    7.8763 C   0  0  0  0  0  0  0  0  0  0  0  0
   -1.9465   -6.9094    8.9288 Cl  0  0  0  0  0  0  0  0  0  0  0  0
   -2.5535   -4.3277    8.4623 C   0  0  0  0  0  0  0  0  0  0  0  0
   -2.7671   -4.2000    9.8099 C   0  0  0  0  0  0  0  0  0  0  0  0
   -3.1533   -2.9902   10.3513 C   0  0  0  0  0  0  0  0  0  0  0  0
   -3.3755   -2.8414   11.7227 O   0  0  0  0  0  0  0  0  0  0  0  0
   -3.3411   -1.8638    9.5731 C   0  0  0  0  0  0  0  0  0  0  0  0
   -3.1236   -2.0020    8.2169 C   0  0  0  0  0  0  0  0  0  0  0  0
   -2.7359   -3.2098    7.6599 C   0  0  0  0  0  0  0  0  0  0  0  0
   -2.5248   -3.3514    6.3581 N   0  0  0  0  0  0  0  0  0  0  0  0
   -2.1482   -4.4929    5.7565 C   0  0  0  0  0  0  0  0  0  0  0  0
   -1.3487   -5.8008    2.3194 C   0  0  0  0  0  0  0  0  0  0  0  0
   -2.1116   -4.8992   -0.4474 H   0  0  0  0  0  0  0  0  0  0  0  0
   -2.6285   -2.5691   12.3558 H   0  0  0  0  0  0  0  0  0  0  0  0
  1  2  1  0  0  0
  2  3  2  0  0  0
  3  4  1  0  0  0
  4  5  2  0  0  0
  5  6  1  0  0  0
  6  7  1  0  0  0
  7  8  1  0  0  0
  8  9  1  0  0  0
  9 10  2  0  0  0
 10 11  1  0  0  0
 10 12  1  0  0  0
 12 13  2  0  0  0
 13 14  1  0  0  0
 14 15  1  0  0  0
 14 16  2  0  0  0
 16 17  1  0  0  0
 17 18  2  0  0  0
 18 19  1  0  0  0
 19 20  2  0  0  0
  6 21  2  0  0  0
 21  2  1  0  0  0
  5 20  1  0  0  0
 20  9  1  0  0  0
 18 12  1  0  0  0
  1 22  1  0  0  0
 15 23  1  0  0  0
M  END
> <minimizedAffinity>
-3.80547

> <CNNscore>
0.3965907097

> <CNNaffinity>
4.4902658463

> <CNN_VS>
1.7807977200

> <CNNaffinity_variance>
0.5011648536

$$$$
[H]Oc1c([H])c([H])c2c(c1[H])OC([H])([H])c1c-2nc2c([H])c([H])c(O[H])c([H])c2c1Cl


 23 26  0  0  0  0  0  0  0  0999 V2000
  -13.7596   -7.3294    8.4844 O   0  0  0  0  0  0  0  0  0  0  0  0
  -12.3662   -7.3410    8.2864 C   0  0  0  0  0  0  0  0  0  0  0  0
  -11.8387   -8.0445    7.2195 C   0  0  0  0  0  0  0  0  0  0  0  0
  -10.4788   -8.0790    6.9936 C   0  0  0  0  0  0  0  0  0  0  0  0
   -9.6378   -7.3910    7.8602 C   0  0  0  0  0  0  0  0  0  0  0  0
  -10.1828   -6.6878    8.9289 C   0  0  0  0  0  0  0  0  0  0  0  0
   -9.2813   -6.0370    9.7351 O   0  0  0  0  0  0  0  0  0  0  0  0
   -7.9001   -5.9957    9.6141 C   0  0  0  0  0  0  0  0  0  0  0  0
   -7.3686   -6.7507    8.4735 C   0  0  0  0  0  0  0  0  0  0  0  0
   -6.0088   -6.8010    8.2251 C   0  0  0  0  0  0  0  0  0  0  0  0
   -4.8584   -5.9710    9.2531 Cl  0  0  0  0  0  0  0  0  0  0  0  0
   -5.5063   -7.5161    7.1450 C   0  0  0  0  0  0  0  0  0  0  0  0
   -4.1663   -7.5890    6.8669 C   0  0  0  0  0  0  0  0  0  0  0  0
   -3.7092   -8.3112    5.7828 C   0  0  0  0  0  0  0  0  0  0  0  0
   -2.3470   -8.3967    5.4840 O   0  0  0  0  0  0  0  0  0  0  0  0
   -4.5672   -8.9867    4.9358 C   0  0  0  0  0  0  0  0  0  0  0  0
   -5.9150   -8.9075    5.2237 C   0  0  0  0  0  0  0  0  0  0  0  0
   -6.3878   -8.1866    6.3083 C   0  0  0  0  0  0  0  0  0  0  0  0
   -7.6809   -8.1052    6.5921 N   0  0  0  0  0  0  0  0  0  0  0  0
   -8.2030   -7.4240    7.6266 C   0  0  0  0  0  0  0  0  0  0  0  0
  -11.5516   -6.6506    9.1601 C   0  0  0  0  0  0  0  0  0  0  0  0
  -14.3527   -6.6210    8.0633 H   0  0  0  0  0  0  0  0  0  0  0  0
   -1.7640   -9.1354    5.8680 H   0  0  0  0  0  0  0  0  0  0  0  0
  1  2  1  0  0  0
  2  3  2  0  0  0
  3  4  1  0  0  0
  4  5  2  0  0  0
  5  6  1  0  0  0
  6  7  1  0  0  0
  7  8  1  0  0  0
  8  9  1  0  0  0
  9 10  2  0  0  0
 10 11  1  0  0  0
 10 12  1  0  0  0
 12 13  2  0  0  0
 13 14  1  0  0  0
 14 15  1  0  0  0
 14 16  2  0  0  0
 16 17  1  0  0  0
 17 18  2  0  0  0
 18 19  1  0  0  0
 19 20  2  0  0  0
  6 21  2  0  0  0
 21  2  1  0  0  0
  5 20  1  0  0  0
 20  9  1  0  0  0
 18 12  1  0  0  0
  1 22  1  0  0  0
 15 23  1  0  0  0
M  END
> <minimizedAffinity>
4.37949

> <CNNscore>
0.3744936585

> <CNNaffinity>
5.2867269516

> <CNN_VS>
1.9798457623

> <CNNaffinity_variance>
0.7269428372

$$$$
[H]Oc1c([H])c([H])c2c(c1[H])OC([H])([H])c1c-2nc2c([H])c([H])c(O[H])c([H])c2c1Cl


 23 26  0  0  0  0  0  0  0  0999 V2000
  -16.3865   -9.1176    8.9413 O   0  0  0  0  0  0  0  0  0  0  0  0
  -15.0247   -8.8961    8.6637 C   0  0  0  0  0  0  0  0  0  0  0  0
  -14.1600   -9.9734    8.6079 C   0  0  0  0  0  0  0  0  0  0  0  0
  -12.8193   -9.7957    8.3387 C   0  0  0  0  0  0  0  0  0  0  0  0
  -12.3444   -8.5077    8.1220 C   0  0  0  0  0  0  0  0  0  0  0  0
  -13.2259   -7.4338    8.1813 C   0  0  0  0  0  0  0  0  0  0  0  0
  -12.6735   -6.1969    7.9553 O   0  0  0  0  0  0  0  0  0  0  0  0
  -11.3499   -5.8893    7.6765 C   0  0  0  0  0  0  0  0  0  0  0  0
  -10.4557   -7.0517    7.6235 C   0  0  0  0  0  0  0  0  0  0  0  0
   -9.1072   -6.9001    7.3554 C   0  0  0  0  0  0  0  0  0  0  0  0
   -8.4021   -5.3226    7.0670 Cl  0  0  0  0  0  0  0  0  0  0  0  0
   -8.2611   -8.0012    7.3054 C   0  0  0  0  0  0  0  0  0  0  0  0
   -6.9206   -7.8908    7.0428 C   0  0  0  0  0  0  0  0  0  0  0  0
   -6.1152   -9.0113    7.0024 C   0  0  0  0  0  0  0  0  0  0  0  0
   -4.7467   -8.9179    6.7363 O   0  0  0  0  0  0  0  0  0  0  0  0
   -6.6128  -10.2817    7.2215 C   0  0  0  0  0  0  0  0  0  0  0  0
   -7.9640  -10.3831    7.4852 C   0  0  0  0  0  0  0  0  0  0  0  0
   -8.7842   -9.2673    7.5288 C   0  0  0  0  0  0  0  0  0  0  0  0
  -10.0833   -9.3556    7.7814 N   0  0  0  0  0  0  0  0  0  0  0  0
  -10.9315   -8.3144    7.8377 C   0  0  0  0  0  0  0  0  0  0  0  0
  -14.5767   -7.6084    8.4523 C   0  0  0  0  0  0  0  0  0  0  0  0
  -17.0617   -9.2853    8.2019 H   0  0  0  0  0  0  0  0  0  0  0  0
   -4.0670   -8.7986    7.4825 H   0  0  0  0  0  0  0  0  0  0  0  0
  1  2  1  0  0  0
  2  3  2  0  0  0
  3  4  1  0  0  0
  4  5  2  0  0  0
  5  6  1  0  0  0
  6  7  1  0  0  0
  7  8  1  0  0  0
  8  9  1  0  0  0
  9 10  2  0  0  0
 10 11  1  0  0  0
 10 12  1  0  0  0
 12 13  2  0  0  0
 13 14  1  0  0  0
 14 15  1  0  0  0
 14 16  2  0  0  0
 16 17  1  0  0  0
 17 18  2  0  0  0
 18 19  1  0  0  0
 19 20  2  0  0  0
  6 21  2  0  0  0
 21  2  1  0  0  0
  5 20  1  0  0  0
 20  9  1  0  0  0
 18 12  1  0  0  0
  1 22  1  0  0  0
 15 23  1  0  0  0
M  END
> <minimizedAffinity>
1.76137

> <CNNscore>
0.3344181776

> <CNNaffinity>
5.6076912880

> <CNN_VS>
1.8753138781

> <CNNaffinity_variance>
0.4297518730

$$$$
[H]Oc1c([H])c([H])c2c(c1[H])OC([H])([H])c1c-2nc2c([H])c([H])c(O[H])c([H])c2c1Cl


 23 26  0  0  0  0  0  0  0  0999 V2000
  -14.1867   -5.5866   10.9066 O   0  0  0  0  0  0  0  0  0  0  0  0
  -13.0502   -6.0896   10.2463 C   0  0  0  0  0  0  0  0  0  0  0  0
  -11.8426   -5.4291   10.3763 C   0  0  0  0  0  0  0  0  0  0  0  0
  -10.7076   -5.8918    9.7444 C   0  0  0  0  0  0  0  0  0  0  0  0
  -10.7943   -7.0413    8.9681 C   0  0  0  0  0  0  0  0  0  0  0  0
  -12.0157   -7.6949    8.8465 C   0  0  0  0  0  0  0  0  0  0  0  0
  -12.0124   -8.8217    8.0613 O   0  0  0  0  0  0  0  0  0  0  0  0
  -10.9447   -9.3847    7.3779 C   0  0  0  0  0  0  0  0  0  0  0  0
   -9.6765   -8.6629    7.5341 C   0  0  0  0  0  0  0  0  0  0  0  0
   -8.5241   -9.1064    6.9108 C   0  0  0  0  0  0  0  0  0  0  0  0
   -8.5193  -10.5436    5.9091 Cl  0  0  0  0  0  0  0  0  0  0  0  0
   -7.3237   -8.4225    7.0592 C   0  0  0  0  0  0  0  0  0  0  0  0
   -6.1620   -8.8310    6.4578 C   0  0  0  0  0  0  0  0  0  0  0  0
   -4.9905   -8.1217    6.6317 C   0  0  0  0  0  0  0  0  0  0  0  0
   -3.7969   -8.5232    6.0265 O   0  0  0  0  0  0  0  0  0  0  0  0
   -4.9312   -6.9810    7.4096 C   0  0  0  0  0  0  0  0  0  0  0  0
   -6.1061   -6.5772    8.0113 C   0  0  0  0  0  0  0  0  0  0  0  0
   -7.2890   -7.2792    7.8456 C   0  0  0  0  0  0  0  0  0  0  0  0
   -8.4222   -6.8984    8.4201 N   0  0  0  0  0  0  0  0  0  0  0  0
   -9.6006   -7.5337    8.2995 C   0  0  0  0  0  0  0  0  0  0  0  0
  -13.1610   -7.2323    9.4811 C   0  0  0  0  0  0  0  0  0  0  0  0
  -14.4291   -5.8772   11.8487 H   0  0  0  0  0  0  0  0  0  0  0  0
   -3.5322   -8.1929    5.1024 H   0  0  0  0  0  0  0  0  0  0  0  0
  1  2  1  0  0  0
  2  3  2  0  0  0
  3  4  1  0  0  0
  4  5  2  0  0  0
  5  6  1  0  0  0
  6  7  1  0  0  0
  7  8  1  0  0  0
  8  9  1  0  0  0
  9 10  2  0  0  0
 10 11  1  0  0  0
 10 12  1  0  0  0
 12 13  2  0  0  0
 13 14  1  0  0  0
 14 15  1  0  0  0
 14 16  2  0  0  0
 16 17  1  0  0  0
 17 18  2  0  0  0
 18 19  1  0  0  0
 19 20  2  0  0  0
  6 21  2  0  0  0
 21  2  1  0  0  0
  5 20  1  0  0  0
 20  9  1  0  0  0
 18 12  1  0  0  0
  1 22  1  0  0  0
 15 23  1  0  0  0
M  END
> <minimizedAffinity>
-5.80801

> <CNNscore>
0.3281121552

> <CNNaffinity>
5.5141153336

> <CNN_VS>
1.8092482090

> <CNNaffinity_variance>
0.1112434119

$$$$
[H]Oc1c([H])c([H])c2c(c1[H])OC([H])([H])c1c-2nc2c([H])c([H])c(O[H])c([H])c2c1Cl


 23 26  0  0  0  0  0  0  0  0999 V2000
  -12.4547   -8.3017    8.0535 O   0  0  0  0  0  0  0  0  0  0  0  0
  -11.0662   -8.0749    8.0143 C   0  0  0  0  0  0  0  0  0  0  0  0
  -10.5247   -7.0512    8.7693 C   0  0  0  0  0  0  0  0  0  0  0  0
   -9.1691   -6.7988    8.7564 C   0  0  0  0  0  0  0  0  0  0  0  0
   -8.3468   -7.5943    7.9674 C   0  0  0  0  0  0  0  0  0  0  0  0
   -8.9057   -8.6203    7.2133 C   0  0  0  0  0  0  0  0  0  0  0  0
   -8.0223   -9.3569    6.4629 O   0  0  0  0  0  0  0  0  0  0  0  0
   -6.6471   -9.2031    6.3655 C   0  0  0  0  0  0  0  0  0  0  0  0
   -6.1006   -8.1095    7.1772 C   0  0  0  0  0  0  0  0  0  0  0  0
   -4.7447   -7.8360    7.1818 C   0  0  0  0  0  0  0  0  0  0  0  0
   -3.6174   -8.7752    6.2246 Cl  0  0  0  0  0  0  0  0  0  0  0  0
   -4.2278   -6.8004    7.9506 C   0  0  0  0  0  0  0  0  0  0  0  0
   -2.8912   -6.4994    7.9809 C   0  0  0  0  0  0  0  0  0  0  0  0
   -2.4194   -5.4613    8.7591 C   0  0  0  0  0  0  0  0  0  0  0  0
   -1.0603   -5.1400    8.8024 O   0  0  0  0  0  0  0  0  0  0  0  0
   -3.2589   -4.6849    9.5352 C   0  0  0  0  0  0  0  0  0  0  0  0
   -4.6035   -4.9955    9.4983 C   0  0  0  0  0  0  0  0  0  0  0  0
   -5.0909   -6.0344    8.7220 C   0  0  0  0  0  0  0  0  0  0  0  0
   -6.3810   -6.3396    8.6807 N   0  0  0  0  0  0  0  0  0  0  0  0
   -6.9166   -7.3326    7.9501 C   0  0  0  0  0  0  0  0  0  0  0  0
  -10.2703   -8.8778    7.2233 C   0  0  0  0  0  0  0  0  0  0  0  0
  -12.8737   -8.9324    8.7298 H   0  0  0  0  0  0  0  0  0  0  0  0
   -0.6513   -4.4713    8.1554 H   0  0  0  0  0  0  0  0  0  0  0  0
  1  2  1  0  0  0
  2  3  2  0  0  0
  3  4  1  0  0  0
  4  5  2  0  0  0
  5  6  1  0  0  0
  6  7  1  0  0  0
  7  8  1  0  0  0
  8  9  1  0  0  0
  9 10  2  0  0  0
 10 11  1  0  0  0
 10 12  1  0  0  0
 12 13  2  0  0  0
 13 14  1  0  0  0
 14 15  1  0  0  0
 14 16  2  0  0  0
 16 17  1  0  0  0
 17 18  2  0  0  0
 18 19  1  0  0  0
 19 20  2  0  0  0
  6 21  2  0  0  0
 21  2  1  0  0  0
  5 20  1  0  0  0
 20  9  1  0  0  0
 18 12  1  0  0  0
  1 22  1  0  0  0
 15 23  1  0  0  0
M  END
> <minimizedAffinity>
-4.70190

> <CNNscore>
0.2508616447

> <CNNaffinity>
4.9545674324

> <CNN_VS>
1.2429109812

> <CNNaffinity_variance>
0.1376058757

$$$$
[H]Oc1c([H])c([H])c2c(c1[H])C([H])([H])[C@@]([H])(C([H])([H])C([H])([H])C([H])([H])C([H])([H])C#Cc1c([H])c([H])c(-n3c([H])c([H])c([H])c3[H])c([H])c1[H])[C@]1([H])[C@]2([H])C([H])([H])C([H])([H])[C@]2(C([H])([H])[H])[C@@]([H])(O[H])C([H])([H])C([H])([H])[C@]21[H]


 39 44  0  0  0  0  0  0  0  0999 V2000
  -13.7393   -7.1589    5.3705 C   0  0  0  0  0  0  0  0  0  0  0  0
  -14.3014   -6.5594    6.6165 C   0  0  0  0  0  0  0  0  0  0  0  0
  -13.5798   -5.3199    6.9583 C   0  0  0  0  0  0  0  0  0  0  0  0
  -12.6651   -5.4018    8.1247 C   0  0  0  0  0  0  0  0  0  0  0  0
  -12.0341   -6.6956    8.3838 C   0  0  0  0  0  0  0  0  0  0  0  0
  -12.8242   -7.9191    7.9230 C   0  0  0  0  0  0  0  0  0  0  0  0
  -14.2348   -7.5300    7.8149 C   0  0  0  0  0  0  0  0  0  0  0  0
  -15.1683   -8.5972    7.3214 C   0  0  0  0  0  0  0  0  0  0  0  0
  -16.2401   -7.8504    6.5838 C   0  0  0  0  0  0  0  0  0  0  0  0
  -15.7969   -6.4056    6.5012 C   0  0  0  0  0  0  0  0  0  0  0  0
  -16.1696   -5.8356    5.3046 O   0  0  0  0  0  0  0  0  0  0  0  0
  -12.4231   -9.0436    8.7788 C   0  0  0  0  0  0  0  0  0  0  0  0
  -10.9285   -9.1407    8.8617 C   0  0  0  0  0  0  0  0  0  0  0  0
  -10.1709   -8.1768    8.0287 C   0  0  0  0  0  0  0  0  0  0  0  0
   -8.9163   -8.5321    7.5046 C   0  0  0  0  0  0  0  0  0  0  0  0
   -8.2023   -7.6407    6.7442 C   0  0  0  0  0  0  0  0  0  0  0  0
   -6.9401   -7.9934    6.2148 O   0  0  0  0  0  0  0  0  0  0  0  0
   -8.7373   -6.3935    6.5047 C   0  0  0  0  0  0  0  0  0  0  0  0
   -9.9863   -6.0518    7.0313 C   0  0  0  0  0  0  0  0  0  0  0  0
  -10.6966   -6.9246    7.7815 C   0  0  0  0  0  0  0  0  0  0  0  0
  -16.4635   -6.5272    4.6720 H   0  0  0  0  0  0  0  0  0  0  0  0
   -6.9794   -8.4256    5.2829 H   0  0  0  0  0  0  0  0  0  0  0  0
  -13.0689   -8.9718   10.1411 C   0  0  0  0  0  0  0  0  0  0  0  0
  -13.6501   -7.6013   10.4192 C   0  0  0  0  0  0  0  0  0  0  0  0
  -12.6069   -6.7649   11.1209 C   0  0  0  0  0  0  0  0  0  0  0  0
  -12.6980   -6.8221   12.6130 C   0  0  0  0  0  0  0  0  0  0  0  0
  -11.5170   -6.0890   13.1312 C   0  0  0  0  0  0  0  0  0  0  0  0
  -10.5560   -5.4937   13.5305 C   0  0  0  0  0  0  0  0  0  0  0  0
   -9.3892   -4.7736   13.9881 C   0  0  0  0  0  0  0  0  0  0  0  0
   -8.1140   -5.2941   13.8390 C   0  0  0  0  0  0  0  0  0  0  0  0
   -6.9879   -4.6474   14.2567 C   0  0  0  0  0  0  0  0  0  0  0  0
   -7.0796   -3.4156   14.8606 C   0  0  0  0  0  0  0  0  0  0  0  0
   -8.3510   -2.8779   15.0187 C   0  0  0  0  0  0  0  0  0  0  0  0
   -9.4869   -3.5350   14.5950 C   0  0  0  0  0  0  0  0  0  0  0  0
   -5.9317   -2.6998   15.3146 N   0  0  0  0  0  0  0  0  0  0  0  0
   -4.6657   -3.1702   15.2435 C   0  0  0  0  0  0  0  0  0  0  0  0
   -3.8041   -2.2313   15.7663 C   0  0  0  0  0  0  0  0  0  0  0  0
   -4.5662   -1.1561   16.1684 C   0  0  0  0  0  0  0  0  0  0  0  0
   -5.8723   -1.4814   15.8740 C   0  0  0  0  0  0  0  0  0  0  0  0
  2  1  1  0  0  0
  2  3  1  0  0  0
  3  4  1  0  0  0
  4  5  1  0  0  0
  5  6  1  0  0  0
  6  7  1  0  0  0
  7  8  1  0  0  0
  8  9  1  0  0  0
  9 10  1  0  0  0
 10 11  1  0  0  0
  6 12  1  0  0  0
 12 23  1  0  0  0
 23 24  1  0  0  0
 24 25  1  0  0  0
 25 26  1  0  0  0
 26 27  1  0  0  0
 27 28  3  0  0  0
 28 29  1  0  0  0
 29 30  2  0  0  0
 30 31  1  0  0  0
 31 32  2  0  0  0
 32 33  1  0  0  0
 33 34  2  0  0  0
 32 35  1  0  0  0
 35 36  1  0  0  0
 36 37  2  0  0  0
 37 38  1  0  0  0
 38 39  2  0  0  0
 12 13  1  0  0  0
 13 14  1  0  0  0
 14 15  2  0  0  0
 15 16  1  0  0  0
 16 17  1  0  0  0
 16 18  2  0  0  0
 18 19  1  0  0  0
 19 20  2  0  0  0
  7  2  1  0  0  0
 34 29  1  0  0  0
 39 35  1  0  0  0
 20 14  1  0  0  0
 10  2  1  0  0  0
 20  5  1  0  0  0
 11 21  1  0  0  0
 17 22  1  0  0  0
M  END
> <minimizedAffinity>
8.32455

> <CNNscore>
0.5160654783

> <CNNaffinity>
7.0419073105

> <CNN_VS>
3.6340851784

> <CNNaffinity_variance>
0.8715668917

$$$$
[H]Oc1c([H])c([H])c2c(c1[H])C([H])([H])[C@@]([H])(C([H])([H])C([H])([H])C([H])([H])C([H])([H])C#Cc1c([H])c([H])c(-n3c([H])c([H])c([H])c3[H])c([H])c1[H])[C@]1([H])[C@]2([H])C([H])([H])C([H])([H])[C@]2(C([H])([H])[H])[C@@]([H])(O[H])C([H])([H])C([H])([H])[C@]21[H]


 39 44  0  0  0  0  0  0  0  0999 V2000
  -18.1301   -5.0310    2.9368 C   0  0  0  0  0  0  0  0  0  0  0  0
  -18.3272   -5.3340    4.3851 C   0  0  0  0  0  0  0  0  0  0  0  0
  -17.6831   -4.3004    5.2161 C   0  0  0  0  0  0  0  0  0  0  0  0
  -16.4389   -4.7112    5.9142 C   0  0  0  0  0  0  0  0  0  0  0  0
  -15.6126   -5.7235    5.2573 C   0  0  0  0  0  0  0  0  0  0  0  0
  -16.3613   -6.7021    4.3544 C   0  0  0  0  0  0  0  0  0  0  0  0
  -17.7668   -6.7183    4.7752 C   0  0  0  0  0  0  0  0  0  0  0  0
  -18.6789   -7.5923    3.9641 C   0  0  0  0  0  0  0  0  0  0  0  0
  -20.0100   -6.9023    4.0177 C   0  0  0  0  0  0  0  0  0  0  0  0
  -19.7876   -5.5615    4.6835 C   0  0  0  0  0  0  0  0  0  0  0  0
  -20.5887   -4.5886    4.1290 O   0  0  0  0  0  0  0  0  0  0  0  0
  -15.5788   -7.9447    4.3161 C   0  0  0  0  0  0  0  0  0  0  0  0
  -14.1363   -7.6547    4.0243 C   0  0  0  0  0  0  0  0  0  0  0  0
  -13.8039   -6.2356    3.7546 C   0  0  0  0  0  0  0  0  0  0  0  0
  -12.7522   -5.9120    2.8806 C   0  0  0  0  0  0  0  0  0  0  0  0
  -12.4290   -4.6010    2.6365 C   0  0  0  0  0  0  0  0  0  0  0  0
  -11.3721   -4.2704    1.7581 O   0  0  0  0  0  0  0  0  0  0  0  0
  -13.1535   -3.6101    3.2630 C   0  0  0  0  0  0  0  0  0  0  0  0
  -14.1976   -3.9447    4.1301 C   0  0  0  0  0  0  0  0  0  0  0  0
  -14.5227   -5.2342    4.3760 C   0  0  0  0  0  0  0  0  0  0  0  0
  -20.9881   -4.9096    3.2909 H   0  0  0  0  0  0  0  0  0  0  0  0
  -11.6585   -4.1572    0.7773 H   0  0  0  0  0  0  0  0  0  0  0  0
  -15.7561   -8.7599    5.5740 C   0  0  0  0  0  0  0  0  0  0  0  0
  -14.6817   -8.4590    6.5982 C   0  0  0  0  0  0  0  0  0  0  0  0
  -13.5120   -9.3839    6.3605 C   0  0  0  0  0  0  0  0  0  0  0  0
  -12.8640   -9.8655    7.6200 C   0  0  0  0  0  0  0  0  0  0  0  0
  -11.4780   -9.3367    7.6043 C   0  0  0  0  0  0  0  0  0  0  0  0
  -10.3513   -8.9274    7.5835 C   0  0  0  0  0  0  0  0  0  0  0  0
   -8.9852   -8.4564    7.5496 C   0  0  0  0  0  0  0  0  0  0  0  0
   -8.6832   -7.1075    7.6416 C   0  0  0  0  0  0  0  0  0  0  0  0
   -7.4086   -6.6221    7.6136 C   0  0  0  0  0  0  0  0  0  0  0  0
   -6.3423   -7.4812    7.4890 C   0  0  0  0  0  0  0  0  0  0  0  0
   -6.6263   -8.8381    7.3954 C   0  0  0  0  0  0  0  0  0  0  0  0
   -7.9162   -9.3246    7.4241 C   0  0  0  0  0  0  0  0  0  0  0  0
   -4.9915   -7.0225    7.4549 N   0  0  0  0  0  0  0  0  0  0  0  0
   -4.0792   -7.4136    6.5362 C   0  0  0  0  0  0  0  0  0  0  0  0
   -2.8814   -6.7833    6.7912 C   0  0  0  0  0  0  0  0  0  0  0  0
   -3.0676   -5.9839    7.8980 C   0  0  0  0  0  0  0  0  0  0  0  0
   -4.3802   -6.1576    8.2790 C   0  0  0  0  0  0  0  0  0  0  0  0
  2  1  1  0  0  0
  2  3  1  0  0  0
  3  4  1  0  0  0
  4  5  1  0  0  0
  5  6  1  0  0  0
  6  7  1  0  0  0
  7  8  1  0  0  0
  8  9  1  0  0  0
  9 10  1  0  0  0
 10 11  1  0  0  0
  6 12  1  0  0  0
 12 23  1  0  0  0
 23 24  1  0  0  0
 24 25  1  0  0  0
 25 26  1  0  0  0
 26 27  1  0  0  0
 27 28  3  0  0  0
 28 29  1  0  0  0
 29 30  2  0  0  0
 30 31  1  0  0  0
 31 32  2  0  0  0
 32 33  1  0  0  0
 33 34  2  0  0  0
 32 35  1  0  0  0
 35 36  1  0  0  0
 36 37  2  0  0  0
 37 38  1  0  0  0
 38 39  2  0  0  0
 12 13  1  0  0  0
 13 14  1  0  0  0
 14 15  2  0  0  0
 15 16  1  0  0  0
 16 17  1  0  0  0
 16 18  2  0  0  0
 18 19  1  0  0  0
 19 20  2  0  0  0
  7  2  1  0  0  0
 34 29  1  0  0  0
 39 35  1  0  0  0
 20 14  1  0  0  0
 10  2  1  0  0  0
 20  5  1  0  0  0
 11 21  1  0  0  0
 17 22  1  0  0  0
M  END
> <minimizedAffinity>
12.82105

> <CNNscore>
0.4602864087

> <CNNaffinity>
7.3248872757

> <CNN_VS>
3.3715460300

> <CNNaffinity_variance>
0.7867139578

$$$$
[H]Oc1c([H])c([H])c2c(c1[H])C([H])([H])[C@@]([H])(C([H])([H])C([H])([H])C([H])([H])C([H])([H])C#Cc1c([H])c([H])c(-n3c([H])c([H])c([H])c3[H])c([H])c1[H])[C@]1([H])[C@]2([H])C([H])([H])C([H])([H])[C@]2(C([H])([H])[H])[C@@]([H])(O[H])C([H])([H])C([H])([H])[C@]21[H]


 39 44  0  0  0  0  0  0  0  0999 V2000
  -18.7773   -3.2310    3.5793 C   0  0  0  0  0  0  0  0  0  0  0  0
  -19.1415   -3.9434    4.8393 C   0  0  0  0  0  0  0  0  0  0  0  0
  -18.1987   -3.5913    5.9168 C   0  0  0  0  0  0  0  0  0  0  0  0
  -17.2318   -4.6490    6.3047 C   0  0  0  0  0  0  0  0  0  0  0  0
  -16.8122   -5.5807    5.2583 C   0  0  0  0  0  0  0  0  0  0  0  0
  -17.8280   -5.8216    4.1431 C   0  0  0  0  0  0  0  0  0  0  0  0
  -19.1565   -5.4767    4.6616 C   0  0  0  0  0  0  0  0  0  0  0  0
  -20.2891   -5.6017    3.6842 C   0  0  0  0  0  0  0  0  0  0  0  0
  -21.2681   -4.5448    4.1028 C   0  0  0  0  0  0  0  0  0  0  0  0
  -20.5938   -3.7157    5.1746 C   0  0  0  0  0  0  0  0  0  0  0  0
  -20.9475   -2.3886    5.0769 O   0  0  0  0  0  0  0  0  0  0  0  0
  -17.5640   -7.1589    3.5956 C   0  0  0  0  0  0  0  0  0  0  0  0
  -16.1053   -7.3289    3.2903 C   0  0  0  0  0  0  0  0  0  0  0  0
  -15.2556   -6.1342    3.5083 C   0  0  0  0  0  0  0  0  0  0  0  0
  -14.1189   -5.9225    2.7095 C   0  0  0  0  0  0  0  0  0  0  0  0
  -13.3193   -4.8263    2.9141 C   0  0  0  0  0  0  0  0  0  0  0  0
  -12.1750   -4.6091    2.1134 O   0  0  0  0  0  0  0  0  0  0  0  0
  -13.6511   -3.9391    3.9151 C   0  0  0  0  0  0  0  0  0  0  0  0
  -14.7845   -4.1604    4.7028 C   0  0  0  0  0  0  0  0  0  0  0  0
  -15.5780   -5.2381    4.5076 C   0  0  0  0  0  0  0  0  0  0  0  0
  -21.3975   -2.2156    4.2210 H   0  0  0  0  0  0  0  0  0  0  0  0
  -12.3519   -4.0528    1.2671 H   0  0  0  0  0  0  0  0  0  0  0  0
  -18.0917   -8.2494    4.4959 C   0  0  0  0  0  0  0  0  0  0  0  0
  -17.5503   -8.1296    5.9052 C   0  0  0  0  0  0  0  0  0  0  0  0
  -16.0827   -7.7813    5.8335 C   0  0  0  0  0  0  0  0  0  0  0  0
  -15.1895   -8.8284    6.4199 C   0  0  0  0  0  0  0  0  0  0  0  0
  -14.5218   -8.2010    7.5866 C   0  0  0  0  0  0  0  0  0  0  0  0
  -13.9658   -7.7065    8.5268 C   0  0  0  0  0  0  0  0  0  0  0  0
  -13.2765   -7.1268    9.6572 C   0  0  0  0  0  0  0  0  0  0  0  0
  -13.1209   -5.7561    9.7837 C   0  0  0  0  0  0  0  0  0  0  0  0
  -12.4776   -5.1693   10.8339 C   0  0  0  0  0  0  0  0  0  0  0  0
  -11.9426   -5.9415   11.8379 C   0  0  0  0  0  0  0  0  0  0  0  0
  -12.0892   -7.3187   11.7278 C   0  0  0  0  0  0  0  0  0  0  0  0
  -12.7402   -7.9078   10.6645 C   0  0  0  0  0  0  0  0  0  0  0  0
  -11.2609   -5.3753   12.9564 N   0  0  0  0  0  0  0  0  0  0  0  0
   -9.9734   -5.6397   13.2750 C   0  0  0  0  0  0  0  0  0  0  0  0
   -9.6325   -4.9313   14.4060 C   0  0  0  0  0  0  0  0  0  0  0  0
  -10.7443   -4.2133   14.7893 C   0  0  0  0  0  0  0  0  0  0  0  0
  -11.7279   -4.5124   13.8720 C   0  0  0  0  0  0  0  0  0  0  0  0
  2  1  1  0  0  0
  2  3  1  0  0  0
  3  4  1  0  0  0
  4  5  1  0  0  0
  5  6  1  0  0  0
  6  7  1  0  0  0
  7  8  1  0  0  0
  8  9  1  0  0  0
  9 10  1  0  0  0
 10 11  1  0  0  0
  6 12  1  0  0  0
 12 23  1  0  0  0
 23 24  1  0  0  0
 24 25  1  0  0  0
 25 26  1  0  0  0
 26 27  1  0  0  0
 27 28  3  0  0  0
 28 29  1  0  0  0
 29 30  2  0  0  0
 30 31  1  0  0  0
 31 32  2  0  0  0
 32 33  1  0  0  0
 33 34  2  0  0  0
 32 35  1  0  0  0
 35 36  1  0  0  0
 36 37  2  0  0  0
 37 38  1  0  0  0
 38 39  2  0  0  0
 12 13  1  0  0  0
 13 14  1  0  0  0
 14 15  2  0  0  0
 15 16  1  0  0  0
 16 17  1  0  0  0
 16 18  2  0  0  0
 18 19  1  0  0  0
 19 20  2  0  0  0
  7  2  1  0  0  0
 34 29  1  0  0  0
 39 35  1  0  0  0
 20 14  1  0  0  0
 10  2  1  0  0  0
 20  5  1  0  0  0
 11 21  1  0  0  0
 17 22  1  0  0  0
M  END
> <minimizedAffinity>
26.99398

> <CNNscore>
0.4595663548

> <CNNaffinity>
7.3327965736

> <CNN_VS>
3.3699066639

> <CNNaffinity_variance>
1.2344822884

$$$$
[H]Oc1c([H])c([H])c2c(c1[H])C([H])([H])[C@@]([H])(C([H])([H])C([H])([H])C([H])([H])C([H])([H])C#Cc1c([H])c([H])c(-n3c([H])c([H])c([H])c3[H])c([H])c1[H])[C@]1([H])[C@]2([H])C([H])([H])C([H])([H])[C@]2(C([H])([H])[H])[C@@]([H])(O[H])C([H])([H])C([H])([H])[C@]21[H]


 39 44  0  0  0  0  0  0  0  0999 V2000
  -14.5811   -8.7521    5.7176 C   0  0  0  0  0  0  0  0  0  0  0  0
  -14.9752   -7.3986    6.2083 C   0  0  0  0  0  0  0  0  0  0  0  0
  -14.0183   -6.3832    5.7319 C   0  0  0  0  0  0  0  0  0  0  0  0
  -13.0971   -5.8285    6.7555 C   0  0  0  0  0  0  0  0  0  0  0  0
  -12.7174   -6.7137    7.8562 C   0  0  0  0  0  0  0  0  0  0  0  0
  -13.7426   -7.7842    8.2257 C   0  0  0  0  0  0  0  0  0  0  0  0
  -15.0552   -7.3348    7.7485 C   0  0  0  0  0  0  0  0  0  0  0  0
  -16.1922   -8.2881    7.9772 C   0  0  0  0  0  0  0  0  0  0  0  0
  -17.1254   -8.0462    6.8277 C   0  0  0  0  0  0  0  0  0  0  0  0
  -16.4165   -7.1127    5.8703 C   0  0  0  0  0  0  0  0  0  0  0  0
  -16.7135   -7.4188    4.5612 O   0  0  0  0  0  0  0  0  0  0  0  0
  -13.5356   -8.1143    9.6420 C   0  0  0  0  0  0  0  0  0  0  0  0
  -12.0854   -8.3797    9.9187 C   0  0  0  0  0  0  0  0  0  0  0  0
  -11.1858   -8.3454    8.7412 C   0  0  0  0  0  0  0  0  0  0  0  0
  -10.0412   -9.1599    8.7048 C   0  0  0  0  0  0  0  0  0  0  0  0
   -9.1957   -9.1237    7.6247 C   0  0  0  0  0  0  0  0  0  0  0  0
   -8.0433   -9.9410    7.5834 O   0  0  0  0  0  0  0  0  0  0  0  0
   -9.4896   -8.2759    6.5787 C   0  0  0  0  0  0  0  0  0  0  0  0
  -10.6314   -7.4708    6.6264 C   0  0  0  0  0  0  0  0  0  0  0  0
  -11.4698   -7.5005    7.6871 C   0  0  0  0  0  0  0  0  0  0  0  0
  -17.1559   -8.2941    4.5054 H   0  0  0  0  0  0  0  0  0  0  0  0
   -8.1964  -10.8649    7.1594 H   0  0  0  0  0  0  0  0  0  0  0  0
  -14.1090   -7.0582   10.5552 C   0  0  0  0  0  0  0  0  0  0  0  0
  -13.2843   -5.7881   10.5378 C   0  0  0  0  0  0  0  0  0  0  0  0
  -11.9529   -6.0649   11.1943 C   0  0  0  0  0  0  0  0  0  0  0  0
  -11.9154   -5.7070   12.6463 C   0  0  0  0  0  0  0  0  0  0  0  0
  -10.4818   -5.5980   13.0120 C   0  0  0  0  0  0  0  0  0  0  0  0
   -9.3184   -5.5081   13.2874 C   0  0  0  0  0  0  0  0  0  0  0  0
   -7.9103   -5.3986   13.5947 C   0  0  0  0  0  0  0  0  0  0  0  0
   -6.9598   -6.1279   12.8993 C   0  0  0  0  0  0  0  0  0  0  0  0
   -5.6224   -6.0535   13.1579 C   0  0  0  0  0  0  0  0  0  0  0  0
   -5.1533   -5.2254   14.1502 C   0  0  0  0  0  0  0  0  0  0  0  0
   -6.0926   -4.4860   14.8583 C   0  0  0  0  0  0  0  0  0  0  0  0
   -7.4436   -4.5641   14.5937 C   0  0  0  0  0  0  0  0  0  0  0  0
   -3.7646   -5.1129   14.4584 N   0  0  0  0  0  0  0  0  0  0  0  0
   -3.1624   -5.7427   15.4928 C   0  0  0  0  0  0  0  0  0  0  0  0
   -1.8238   -5.4181   15.5027 C   0  0  0  0  0  0  0  0  0  0  0  0
   -1.6021   -4.5651   14.4435 C   0  0  0  0  0  0  0  0  0  0  0  0
   -2.8213   -4.4004   13.8232 C   0  0  0  0  0  0  0  0  0  0  0  0
  2  1  1  0  0  0
  2  3  1  0  0  0
  3  4  1  0  0  0
  4  5  1  0  0  0
  5  6  1  0  0  0
  6  7  1  0  0  0
  7  8  1  0  0  0
  8  9  1  0  0  0
  9 10  1  0  0  0
 10 11  1  0  0  0
  6 12  1  0  0  0
 12 23  1  0  0  0
 23 24  1  0  0  0
 24 25  1  0  0  0
 25 26  1  0  0  0
 26 27  1  0  0  0
 27 28  3  0  0  0
 28 29  1  0  0  0
 29 30  2  0  0  0
 30 31  1  0  0  0
 31 32  2  0  0  0
 32 33  1  0  0  0
 33 34  2  0  0  0
 32 35  1  0  0  0
 35 36  1  0  0  0
 36 37  2  0  0  0
 37 38  1  0  0  0
 38 39  2  0  0  0
 12 13  1  0  0  0
 13 14  1  0  0  0
 14 15  2  0  0  0
 15 16  1  0  0  0
 16 17  1  0  0  0
 16 18  2  0  0  0
 18 19  1  0  0  0
 19 20  2  0  0  0
  7  2  1  0  0  0
 34 29  1  0  0  0
 39 35  1  0  0  0
 20 14  1  0  0  0
 10  2  1  0  0  0
 20  5  1  0  0  0
 11 21  1  0  0  0
 17 22  1  0  0  0
M  END
> <minimizedAffinity>
1.51896

> <CNNscore>
0.4524366558

> <CNNaffinity>
7.0417184830

> <CNN_VS>
3.1859314442

> <CNNaffinity_variance>
0.9438647032

$$$$
[H]Oc1c([H])c([H])c2c(c1[H])C([H])([H])[C@@]([H])(C([H])([H])C([H])([H])C([H])([H])C([H])([H])C#Cc1c([H])c([H])c(-n3c([H])c([H])c([H])c3[H])c([H])c1[H])[C@]1([H])[C@]2([H])C([H])([H])C([H])([H])[C@]2(C([H])([H])[H])[C@@]([H])(O[H])C([H])([H])C([H])([H])[C@]21[H]


 39 44  0  0  0  0  0  0  0  0999 V2000
  -13.4321   -6.2427    4.6158 C   0  0  0  0  0  0  0  0  0  0  0  0
  -14.3914   -6.3870    5.7502 C   0  0  0  0  0  0  0  0  0  0  0  0
  -13.9806   -5.5325    6.8793 C   0  0  0  0  0  0  0  0  0  0  0  0
  -13.4123   -6.2391    8.0548 C   0  0  0  0  0  0  0  0  0  0  0  0
  -12.6900   -7.4842    7.7955 C   0  0  0  0  0  0  0  0  0  0  0  0
  -13.1364   -8.2605    6.5579 C   0  0  0  0  0  0  0  0  0  0  0  0
  -14.5072   -7.8472    6.2370 C   0  0  0  0  0  0  0  0  0  0  0  0
  -15.1044   -8.4711    5.0090 C   0  0  0  0  0  0  0  0  0  0  0  0
  -16.0362   -7.4265    4.4693 C   0  0  0  0  0  0  0  0  0  0  0  0
  -15.8062   -6.1675    5.2771 C   0  0  0  0  0  0  0  0  0  0  0  0
  -15.9230   -5.0417    4.4931 O   0  0  0  0  0  0  0  0  0  0  0  0
  -12.8188   -9.6752    6.7937 C   0  0  0  0  0  0  0  0  0  0  0  0
  -11.4045   -9.8294    7.2694 C   0  0  0  0  0  0  0  0  0  0  0  0
  -10.6020   -8.5846    7.3255 C   0  0  0  0  0  0  0  0  0  0  0  0
   -9.2143   -8.6303    7.1081 C   0  0  0  0  0  0  0  0  0  0  0  0
   -8.4620   -7.4845    7.1721 C   0  0  0  0  0  0  0  0  0  0  0  0
   -7.0661   -7.5254    6.9541 O   0  0  0  0  0  0  0  0  0  0  0  0
   -9.0914   -6.2911    7.4527 C   0  0  0  0  0  0  0  0  0  0  0  0
  -10.4724   -6.2583    7.6667 C   0  0  0  0  0  0  0  0  0  0  0  0
  -11.2211   -7.3829    7.6054 C   0  0  0  0  0  0  0  0  0  0  0  0
  -15.9297   -5.2855    3.5415 H   0  0  0  0  0  0  0  0  0  0  0  0
   -6.7884   -7.3952    5.9729 H   0  0  0  0  0  0  0  0  0  0  0  0
  -13.8110  -10.3265    7.7261 C   0  0  0  0  0  0  0  0  0  0  0  0
  -14.8869   -9.3584    8.1719 C   0  0  0  0  0  0  0  0  0  0  0  0
  -14.5438   -8.8539    9.5532 C   0  0  0  0  0  0  0  0  0  0  0  0
  -13.1339   -9.1413    9.9625 C   0  0  0  0  0  0  0  0  0  0  0  0
  -12.7236   -8.0291   10.8543 C   0  0  0  0  0  0  0  0  0  0  0  0
  -12.3721   -7.1337   11.5700 C   0  0  0  0  0  0  0  0  0  0  0  0
  -11.9243   -6.0596   12.4273 C   0  0  0  0  0  0  0  0  0  0  0  0
  -11.1319   -6.3031   13.5372 C   0  0  0  0  0  0  0  0  0  0  0  0
  -10.6885   -5.3187   14.3711 C   0  0  0  0  0  0  0  0  0  0  0  0
  -11.0224   -4.0063   14.1332 C   0  0  0  0  0  0  0  0  0  0  0  0
  -11.8168   -3.7431   13.0241 C   0  0  0  0  0  0  0  0  0  0  0  0
  -12.2629   -4.7412   12.1837 C   0  0  0  0  0  0  0  0  0  0  0  0
  -10.5836   -2.9415   14.9757 N   0  0  0  0  0  0  0  0  0  0  0  0
   -9.6110   -2.0619   14.6446 C   0  0  0  0  0  0  0  0  0  0  0  0
   -9.4376   -1.1687   15.6786 C   0  0  0  0  0  0  0  0  0  0  0  0
  -10.3304   -1.5128   16.6702 C   0  0  0  0  0  0  0  0  0  0  0  0
  -11.0193   -2.6098   16.2009 C   0  0  0  0  0  0  0  0  0  0  0  0
  2  1  1  0  0  0
  2  3  1  0  0  0
  3  4  1  0  0  0
  4  5  1  0  0  0
  5  6  1  0  0  0
  6  7  1  0  0  0
  7  8  1  0  0  0
  8  9  1  0  0  0
  9 10  1  0  0  0
 10 11  1  0  0  0
  6 12  1  0  0  0
 12 23  1  0  0  0
 23 24  1  0  0  0
 24 25  1  0  0  0
 25 26  1  0  0  0
 26 27  1  0  0  0
 27 28  3  0  0  0
 28 29  1  0  0  0
 29 30  2  0  0  0
 30 31  1  0  0  0
 31 32  2  0  0  0
 32 33  1  0  0  0
 33 34  2  0  0  0
 32 35  1  0  0  0
 35 36  1  0  0  0
 36 37  2  0  0  0
 37 38  1  0  0  0
 38 39  2  0  0  0
 12 13  1  0  0  0
 13 14  1  0  0  0
 14 15  2  0  0  0
 15 16  1  0  0  0
 16 17  1  0  0  0
 16 18  2  0  0  0
 18 19  1  0  0  0
 19 20  2  0  0  0
  7  2  1  0  0  0
 34 29  1  0  0  0
 39 35  1  0  0  0
 20 14  1  0  0  0
 10  2  1  0  0  0
 20  5  1  0  0  0
 11 21  1  0  0  0
 17 22  1  0  0  0
M  END
> <minimizedAffinity>
7.03384

> <CNNscore>
0.4178897440

> <CNNaffinity>
7.1282820702

> <CNN_VS>
2.9788360596

> <CNNaffinity_variance>
0.2658906579

$$$$
[H]Oc1c([H])c([H])c2c(c1[H])C([H])([H])[C@@]([H])(C([H])([H])C([H])([H])C([H])([H])C([H])([H])C#Cc1c([H])c([H])c(-n3c([H])c([H])c([H])c3[H])c([H])c1[H])[C@]1([H])[C@]2([H])C([H])([H])C([H])([H])[C@]2(C([H])([H])[H])[C@@]([H])(O[H])C([H])([H])C([H])([H])[C@]21[H]


 39 44  0  0  0  0  0  0  0  0999 V2000
  -13.5763   -6.8910    9.9209 C   0  0  0  0  0  0  0  0  0  0  0  0
  -14.0368   -8.2594    9.5425 C   0  0  0  0  0  0  0  0  0  0  0  0
  -13.0545   -9.2685    9.9790 C   0  0  0  0  0  0  0  0  0  0  0  0
  -12.2448   -9.8941    8.9033 C   0  0  0  0  0  0  0  0  0  0  0  0
  -11.9590   -9.0748    7.7260 C   0  0  0  0  0  0  0  0  0  0  0  0
  -12.9980   -8.0037    7.3993 C   0  0  0  0  0  0  0  0  0  0  0  0
  -14.2656   -8.4008    8.0226 C   0  0  0  0  0  0  0  0  0  0  0  0
  -15.4042   -7.4372    7.8528 C   0  0  0  0  0  0  0  0  0  0  0  0
  -16.2262   -7.6003    9.0972 C   0  0  0  0  0  0  0  0  0  0  0  0
  -15.4432   -8.4978   10.0311 C   0  0  0  0  0  0  0  0  0  0  0  0
  -15.6081   -8.1186   11.3444 O   0  0  0  0  0  0  0  0  0  0  0  0
  -12.9232   -7.7512    5.9542 C   0  0  0  0  0  0  0  0  0  0  0  0
  -11.5023   -7.5304    5.5270 C   0  0  0  0  0  0  0  0  0  0  0  0
  -10.4943   -7.5227    6.6135 C   0  0  0  0  0  0  0  0  0  0  0  0
   -9.3389   -6.7313    6.4974 C   0  0  0  0  0  0  0  0  0  0  0  0
   -8.3941   -6.7292    7.4925 C   0  0  0  0  0  0  0  0  0  0  0  0
   -7.2304   -5.9349    7.3803 O   0  0  0  0  0  0  0  0  0  0  0  0
   -8.5992   -7.5159    8.6053 C   0  0  0  0  0  0  0  0  0  0  0  0
   -9.7527   -8.2986    8.7094 C   0  0  0  0  0  0  0  0  0  0  0  0
  -10.6887   -8.3062    7.7333 C   0  0  0  0  0  0  0  0  0  0  0  0
  -16.0293   -7.2326   11.3954 H   0  0  0  0  0  0  0  0  0  0  0  0
   -7.3276   -4.9874    7.7672 H   0  0  0  0  0  0  0  0  0  0  0  0
  -13.5982   -8.8408    5.1572 C   0  0  0  0  0  0  0  0  0  0  0  0
  -13.3135   -8.7156    3.6750 C   0  0  0  0  0  0  0  0  0  0  0  0
  -14.4181   -9.4034    2.9088 C   0  0  0  0  0  0  0  0  0  0  0  0
  -15.5481   -9.8660    3.7732 C   0  0  0  0  0  0  0  0  0  0  0  0
  -16.4063   -8.6790    4.0082 C   0  0  0  0  0  0  0  0  0  0  0  0
  -17.0829   -7.7076    4.1980 C   0  0  0  0  0  0  0  0  0  0  0  0
  -17.8777   -6.5223    4.4275 C   0  0  0  0  0  0  0  0  0  0  0  0
  -17.4035   -5.4715    5.1957 C   0  0  0  0  0  0  0  0  0  0  0  0
  -18.1211   -4.3365    5.4363 C   0  0  0  0  0  0  0  0  0  0  0  0
  -19.3820   -4.1888    4.9084 C   0  0  0  0  0  0  0  0  0  0  0  0
  -19.8741   -5.2330    4.1351 C   0  0  0  0  0  0  0  0  0  0  0  0
  -19.1454   -6.3786    3.8943 C   0  0  0  0  0  0  0  0  0  0  0  0
  -20.1717   -3.0213    5.1313 N   0  0  0  0  0  0  0  0  0  0  0  0
  -19.9975   -2.1731    6.1703 C   0  0  0  0  0  0  0  0  0  0  0  0
  -20.9231   -1.1567    6.0847 C   0  0  0  0  0  0  0  0  0  0  0  0
  -21.6848   -1.3911    4.9606 C   0  0  0  0  0  0  0  0  0  0  0  0
  -21.1922   -2.5488    4.3991 C   0  0  0  0  0  0  0  0  0  0  0  0
  2  1  1  0  0  0
  2  3  1  0  0  0
  3  4  1  0  0  0
  4  5  1  0  0  0
  5  6  1  0  0  0
  6  7  1  0  0  0
  7  8  1  0  0  0
  8  9  1  0  0  0
  9 10  1  0  0  0
 10 11  1  0  0  0
  6 12  1  0  0  0
 12 23  1  0  0  0
 23 24  1  0  0  0
 24 25  1  0  0  0
 25 26  1  0  0  0
 26 27  1  0  0  0
 27 28  3  0  0  0
 28 29  1  0  0  0
 29 30  2  0  0  0
 30 31  1  0  0  0
 31 32  2  0  0  0
 32 33  1  0  0  0
 33 34  2  0  0  0
 32 35  1  0  0  0
 35 36  1  0  0  0
 36 37  2  0  0  0
 37 38  1  0  0  0
 38 39  2  0  0  0
 12 13  1  0  0  0
 13 14  1  0  0  0
 14 15  2  0  0  0
 15 16  1  0  0  0
 16 17  1  0  0  0
 16 18  2  0  0  0
 18 19  1  0  0  0
 19 20  2  0  0  0
  7  2  1  0  0  0
 34 29  1  0  0  0
 39 35  1  0  0  0
 20 14  1  0  0  0
 10  2  1  0  0  0
 20  5  1  0  0  0
 11 21  1  0  0  0
 17 22  1  0  0  0
M  END
> <minimizedAffinity>
13.60482

> <CNNscore>
0.4106428027

> <CNNaffinity>
7.3300409317

> <CNN_VS>
3.0100286007

> <CNNaffinity_variance>
0.5569220781

$$$$
[H]Oc1c([H])c([H])c2c(c1[H])C([H])([H])[C@@]([H])(C([H])([H])C([H])([H])C([H])([H])C([H])([H])C#Cc1c([H])c([H])c(-n3c([H])c([H])c([H])c3[H])c([H])c1[H])[C@]1([H])[C@]2([H])C([H])([H])C([H])([H])[C@]2(C([H])([H])[H])[C@@]([H])(O[H])C([H])([H])C([H])([H])[C@]21[H]


 39 44  0  0  0  0  0  0  0  0999 V2000
   -4.3146   -6.4144    8.5435 C   0  0  0  0  0  0  0  0  0  0  0  0
   -2.9297   -6.8107    8.1526 C   0  0  0  0  0  0  0  0  0  0  0  0
   -2.0269   -6.7291    9.3154 C   0  0  0  0  0  0  0  0  0  0  0  0
   -1.0625   -5.6004    9.3106 C   0  0  0  0  0  0  0  0  0  0  0  0
   -1.4831   -4.3709    8.6395 C   0  0  0  0  0  0  0  0  0  0  0  0
   -2.4808   -4.5510    7.4968 C   0  0  0  0  0  0  0  0  0  0  0  0
   -2.3686   -5.9321    7.0142 C   0  0  0  0  0  0  0  0  0  0  0  0
   -3.3160   -6.3163    5.9149 C   0  0  0  0  0  0  0  0  0  0  0  0
   -3.5774   -7.7772    6.1345 C   0  0  0  0  0  0  0  0  0  0  0  0
   -2.9393   -8.1478    7.4559 C   0  0  0  0  0  0  0  0  0  0  0  0
   -3.6938   -9.0803    8.1318 O   0  0  0  0  0  0  0  0  0  0  0  0
   -2.2968   -3.4210    6.5764 C   0  0  0  0  0  0  0  0  0  0  0  0
   -2.2873   -2.1219    7.3263 C   0  0  0  0  0  0  0  0  0  0  0  0
   -2.5423   -2.2147    8.7834 C   0  0  0  0  0  0  0  0  0  0  0  0
   -3.1858   -1.1611    9.4548 C   0  0  0  0  0  0  0  0  0  0  0  0
   -3.4129   -1.2331   10.8061 C   0  0  0  0  0  0  0  0  0  0  0  0
   -4.0598   -0.1760   11.4858 O   0  0  0  0  0  0  0  0  0  0  0  0
   -2.9993   -2.3553   11.4907 C   0  0  0  0  0  0  0  0  0  0  0  0
   -2.3605   -3.3968   10.8117 C   0  0  0  0  0  0  0  0  0  0  0  0
   -2.1329   -3.3339    9.4801 C   0  0  0  0  0  0  0  0  0  0  0  0
   -4.5828   -9.1643    7.7223 H   0  0  0  0  0  0  0  0  0  0  0  0
   -5.0831   -0.2651   11.5275 H   0  0  0  0  0  0  0  0  0  0  0  0
   -1.0709   -3.5929    5.7129 C   0  0  0  0  0  0  0  0  0  0  0  0
   -1.4010   -3.4972    4.2379 C   0  0  0  0  0  0  0  0  0  0  0  0
   -2.8869   -3.2751    4.0865 C   0  0  0  0  0  0  0  0  0  0  0  0
   -3.5671   -4.3194    3.2590 C   0  0  0  0  0  0  0  0  0  0  0  0
   -4.6903   -4.8352    4.0795 C   0  0  0  0  0  0  0  0  0  0  0  0
   -5.5999   -5.2681    4.7296 C   0  0  0  0  0  0  0  0  0  0  0  0
   -6.6990   -5.8090    5.4967 C   0  0  0  0  0  0  0  0  0  0  0  0
   -6.4814   -6.6008    6.6124 C   0  0  0  0  0  0  0  0  0  0  0  0
   -7.4899   -7.1302    7.3631 C   0  0  0  0  0  0  0  0  0  0  0  0
   -8.8020   -6.8900    7.0294 C   0  0  0  0  0  0  0  0  0  0  0  0
   -9.0394   -6.0977    5.9129 C   0  0  0  0  0  0  0  0  0  0  0  0
   -8.0169   -5.5644    5.1569 C   0  0  0  0  0  0  0  0  0  0  0  0
   -9.8915   -7.4211    7.7825 N   0  0  0  0  0  0  0  0  0  0  0  0
  -10.5938   -6.7194    8.7010 C   0  0  0  0  0  0  0  0  0  0  0  0
  -11.5707   -7.5283    9.2380 C   0  0  0  0  0  0  0  0  0  0  0  0
  -11.4618   -8.7599    8.6297 C   0  0  0  0  0  0  0  0  0  0  0  0
  -10.4161   -8.6555    7.7388 C   0  0  0  0  0  0  0  0  0  0  0  0
  2  1  1  0  0  0
  2  3  1  0  0  0
  3  4  1  0  0  0
  4  5  1  0  0  0
  5  6  1  0  0  0
  6  7  1  0  0  0
  7  8  1  0  0  0
  8  9  1  0  0  0
  9 10  1  0  0  0
 10 11  1  0  0  0
  6 12  1  0  0  0
 12 23  1  0  0  0
 23 24  1  0  0  0
 24 25  1  0  0  0
 25 26  1  0  0  0
 26 27  1  0  0  0
 27 28  3  0  0  0
 28 29  1  0  0  0
 29 30  2  0  0  0
 30 31  1  0  0  0
 31 32  2  0  0  0
 32 33  1  0  0  0
 33 34  2  0  0  0
 32 35  1  0  0  0
 35 36  1  0  0  0
 36 37  2  0  0  0
 37 38  1  0  0  0
 38 39  2  0  0  0
 12 13  1  0  0  0
 13 14  1  0  0  0
 14 15  2  0  0  0
 15 16  1  0  0  0
 16 17  1  0  0  0
 16 18  2  0  0  0
 18 19  1  0  0  0
 19 20  2  0  0  0
  7  2  1  0  0  0
 34 29  1  0  0  0
 39 35  1  0  0  0
 20 14  1  0  0  0
 10  2  1  0  0  0
 20  5  1  0  0  0
 11 21  1  0  0  0
 17 22  1  0  0  0
M  END
> <minimizedAffinity>
1.21664

> <CNNscore>
0.3902556002

> <CNNaffinity>
6.5028915405

> <CNN_VS>
2.5377898216

> <CNNaffinity_variance>
1.5843938589

$$$$
[H]Oc1c([H])c([H])c2c(c1[H])C([H])([H])[C@@]([H])(C([H])([H])C([H])([H])C([H])([H])C([H])([H])C#Cc1c([H])c([H])c(-n3c([H])c([H])c([H])c3[H])c([H])c1[H])[C@]1([H])[C@]2([H])C([H])([H])C([H])([H])[C@]2(C([H])([H])[H])[C@@]([H])(O[H])C([H])([H])C([H])([H])[C@]21[H]


 39 44  0  0  0  0  0  0  0  0999 V2000
  -14.9647   -8.5460    3.1142 C   0  0  0  0  0  0  0  0  0  0  0  0
  -15.8007   -8.9762    4.2734 C   0  0  0  0  0  0  0  0  0  0  0  0
  -17.1792   -8.4750    4.1238 C   0  0  0  0  0  0  0  0  0  0  0  0
  -17.5664   -7.3612    5.0258 C   0  0  0  0  0  0  0  0  0  0  0  0
  -16.5070   -6.4397    5.4353 C   0  0  0  0  0  0  0  0  0  0  0  0
  -15.0999   -7.0324    5.4851 C   0  0  0  0  0  0  0  0  0  0  0  0
  -15.2285   -8.4876    5.6212 C   0  0  0  0  0  0  0  0  0  0  0  0
  -13.9391   -9.2563    5.6361 C   0  0  0  0  0  0  0  0  0  0  0  0
  -14.2796  -10.5779    5.0131 C   0  0  0  0  0  0  0  0  0  0  0  0
  -15.6916  -10.4658    4.4799 C   0  0  0  0  0  0  0  0  0  0  0  0
  -15.8391  -11.1654    3.3033 O   0  0  0  0  0  0  0  0  0  0  0  0
  -14.3350   -6.2549    6.4691 C   0  0  0  0  0  0  0  0  0  0  0  0
  -14.4886   -4.7840    6.2186 C   0  0  0  0  0  0  0  0  0  0  0  0
  -15.2799   -4.4111    5.0221 C   0  0  0  0  0  0  0  0  0  0  0  0
  -14.9818   -3.2311    4.3196 C   0  0  0  0  0  0  0  0  0  0  0  0
  -15.7185   -2.8716    3.2192 C   0  0  0  0  0  0  0  0  0  0  0  0
  -15.4226   -1.6857    2.5094 O   0  0  0  0  0  0  0  0  0  0  0  0
  -16.7536   -3.6876    2.8169 C   0  0  0  0  0  0  0  0  0  0  0  0
  -17.0402   -4.8591    3.5236 C   0  0  0  0  0  0  0  0  0  0  0  0
  -16.3190   -5.2207    4.6090 C   0  0  0  0  0  0  0  0  0  0  0  0
  -14.9615  -11.4234    2.9453 H   0  0  0  0  0  0  0  0  0  0  0  0
  -14.7442   -1.8088    1.7468 H   0  0  0  0  0  0  0  0  0  0  0  0
  -14.6912   -6.6349    7.8858 C   0  0  0  0  0  0  0  0  0  0  0  0
  -13.5353   -6.4110    8.8383 C   0  0  0  0  0  0  0  0  0  0  0  0
  -13.3564   -7.6492    9.6840 C   0  0  0  0  0  0  0  0  0  0  0  0
  -12.9270   -8.8507    8.9029 C   0  0  0  0  0  0  0  0  0  0  0  0
  -11.5245   -8.5998    8.4894 C   0  0  0  0  0  0  0  0  0  0  0  0
  -10.3953   -8.3768    8.1540 C   0  0  0  0  0  0  0  0  0  0  0  0
   -9.0397   -8.0833    7.7473 C   0  0  0  0  0  0  0  0  0  0  0  0
   -8.6302   -6.7876    7.4781 C   0  0  0  0  0  0  0  0  0  0  0  0
   -7.3613   -6.4684    7.0920 C   0  0  0  0  0  0  0  0  0  0  0  0
   -6.4114   -7.4525    6.9511 C   0  0  0  0  0  0  0  0  0  0  0  0
   -6.8043   -8.7584    7.2170 C   0  0  0  0  0  0  0  0  0  0  0  0
   -8.0880   -9.0767    7.6070 C   0  0  0  0  0  0  0  0  0  0  0  0
   -5.0716   -7.1693    6.5498 N   0  0  0  0  0  0  0  0  0  0  0  0
   -4.6927   -6.0395    5.9102 C   0  0  0  0  0  0  0  0  0  0  0  0
   -3.3369   -6.0876    5.6720 C   0  0  0  0  0  0  0  0  0  0  0  0
   -2.8744   -7.2815    6.1811 C   0  0  0  0  0  0  0  0  0  0  0  0
   -3.9722   -7.9211    6.7141 C   0  0  0  0  0  0  0  0  0  0  0  0
  2  1  1  0  0  0
  2  3  1  0  0  0
  3  4  1  0  0  0
  4  5  1  0  0  0
  5  6  1  0  0  0
  6  7  1  0  0  0
  7  8  1  0  0  0
  8  9  1  0  0  0
  9 10  1  0  0  0
 10 11  1  0  0  0
  6 12  1  0  0  0
 12 23  1  0  0  0
 23 24  1  0  0  0
 24 25  1  0  0  0
 25 26  1  0  0  0
 26 27  1  0  0  0
 27 28  3  0  0  0
 28 29  1  0  0  0
 29 30  2  0  0  0
 30 31  1  0  0  0
 31 32  2  0  0  0
 32 33  1  0  0  0
 33 34  2  0  0  0
 32 35  1  0  0  0
 35 36  1  0  0  0
 36 37  2  0  0  0
 37 38  1  0  0  0
 38 39  2  0  0  0
 12 13  1  0  0  0
 13 14  1  0  0  0
 14 15  2  0  0  0
 15 16  1  0  0  0
 16 17  1  0  0  0
 16 18  2  0  0  0
 18 19  1  0  0  0
 19 20  2  0  0  0
  7  2  1  0  0  0
 34 29  1  0  0  0
 39 35  1  0  0  0
 20 14  1  0  0  0
 10  2  1  0  0  0
 20  5  1  0  0  0
 11 21  1  0  0  0
 17 22  1  0  0  0
M  END
> <minimizedAffinity>
2.39141

> <CNNscore>
0.3609829545

> <CNNaffinity>
7.5349526405

> <CNN_VS>
2.7199895382

> <CNNaffinity_variance>
0.4921711385

$$$$
[H]Oc1c([H])c([H])c2c(c1[H])C([H])([H])[C@@]([H])(C([H])([H])C([H])([H])C([H])([H])C([H])([H])C#Cc1c([H])c([H])c(-n3c([H])c([H])c([H])c3[H])c([H])c1[H])[C@]1([H])[C@]2([H])C([H])([H])C([H])([H])[C@]2(C([H])([H])[H])[C@@]([H])(O[H])C([H])([H])C([H])([H])[C@]21[H]


 39 44  0  0  0  0  0  0  0  0999 V2000
  -14.2051   -9.8316    8.9040 C   0  0  0  0  0  0  0  0  0  0  0  0
  -14.4998   -8.4752    8.3550 C   0  0  0  0  0  0  0  0  0  0  0  0
  -14.3141   -8.4641    6.8924 C   0  0  0  0  0  0  0  0  0  0  0  0
  -13.1123   -7.7475    6.3961 C   0  0  0  0  0  0  0  0  0  0  0  0
  -11.9395   -7.7344    7.2698 C   0  0  0  0  0  0  0  0  0  0  0  0
  -12.2304   -7.8285    8.7664 C   0  0  0  0  0  0  0  0  0  0  0  0
  -13.6109   -7.3824    8.9860 C   0  0  0  0  0  0  0  0  0  0  0  0
  -14.1000   -7.4531   10.4036 C   0  0  0  0  0  0  0  0  0  0  0  0
  -15.5705   -7.7248   10.2830 C   0  0  0  0  0  0  0  0  0  0  0  0
  -15.8522   -7.9986    8.8213 C   0  0  0  0  0  0  0  0  0  0  0  0
  -16.8231   -8.9632    8.6711 O   0  0  0  0  0  0  0  0  0  0  0  0
  -11.1152   -7.1792    9.4682 C   0  0  0  0  0  0  0  0  0  0  0  0
   -9.7993   -7.6863    8.9569 C   0  0  0  0  0  0  0  0  0  0  0  0
   -9.8719   -8.7654    7.9435 C   0  0  0  0  0  0  0  0  0  0  0  0
   -8.8552   -9.7327    7.8699 C   0  0  0  0  0  0  0  0  0  0  0  0
   -8.9078  -10.7268    6.9256 C   0  0  0  0  0  0  0  0  0  0  0  0
   -7.8876  -11.7020    6.8476 O   0  0  0  0  0  0  0  0  0  0  0  0
   -9.9739  -10.7587    6.0529 C   0  0  0  0  0  0  0  0  0  0  0  0
  -10.9793   -9.7911    6.1362 C   0  0  0  0  0  0  0  0  0  0  0  0
  -10.9351   -8.8082    7.0640 C   0  0  0  0  0  0  0  0  0  0  0  0
  -16.9893   -9.4186    9.5255 H   0  0  0  0  0  0  0  0  0  0  0  0
   -8.0572  -12.5367    7.4232 H   0  0  0  0  0  0  0  0  0  0  0  0
  -11.2120   -5.6742    9.4068 C   0  0  0  0  0  0  0  0  0  0  0  0
  -10.9240   -5.0344   10.7489 C   0  0  0  0  0  0  0  0  0  0  0  0
  -10.5924   -6.1212   11.7435 C   0  0  0  0  0  0  0  0  0  0  0  0
   -9.3167   -5.8829   12.4876 C   0  0  0  0  0  0  0  0  0  0  0  0
   -8.2180   -6.1391   11.5243 C   0  0  0  0  0  0  0  0  0  0  0  0
   -7.3440   -6.3471   10.7304 C   0  0  0  0  0  0  0  0  0  0  0  0
   -6.3077   -6.5999    9.7549 C   0  0  0  0  0  0  0  0  0  0  0  0
   -5.1014   -5.9197    9.7891 C   0  0  0  0  0  0  0  0  0  0  0  0
   -4.0985   -6.1284    8.8882 C   0  0  0  0  0  0  0  0  0  0  0  0
   -4.2528   -7.0510    7.8805 C   0  0  0  0  0  0  0  0  0  0  0  0
   -5.4566   -7.7429    7.8307 C   0  0  0  0  0  0  0  0  0  0  0  0
   -6.4679   -7.5289    8.7434 C   0  0  0  0  0  0  0  0  0  0  0  0
   -3.2337   -7.3051    6.9146 N   0  0  0  0  0  0  0  0  0  0  0  0
   -2.6128   -6.3435    6.1942 C   0  0  0  0  0  0  0  0  0  0  0  0
   -1.6875   -6.9300    5.3593 C   0  0  0  0  0  0  0  0  0  0  0  0
   -1.7450   -8.2895    5.5762 C   0  0  0  0  0  0  0  0  0  0  0  0
   -2.7092   -8.4826    6.5413 C   0  0  0  0  0  0  0  0  0  0  0  0
  2  1  1  0  0  0
  2  3  1  0  0  0
  3  4  1  0  0  0
  4  5  1  0  0  0
  5  6  1  0  0  0
  6  7  1  0  0  0
  7  8  1  0  0  0
  8  9  1  0  0  0
  9 10  1  0  0  0
 10 11  1  0  0  0
  6 12  1  0  0  0
 12 23  1  0  0  0
 23 24  1  0  0  0
 24 25  1  0  0  0
 25 26  1  0  0  0
 26 27  1  0  0  0
 27 28  3  0  0  0
 28 29  1  0  0  0
 29 30  2  0  0  0
 30 31  1  0  0  0
 31 32  2  0  0  0
 32 33  1  0  0  0
 33 34  2  0  0  0
 32 35  1  0  0  0
 35 36  1  0  0  0
 36 37  2  0  0  0
 37 38  1  0  0  0
 38 39  2  0  0  0
 12 13  1  0  0  0
 13 14  1  0  0  0
 14 15  2  0  0  0
 15 16  1  0  0  0
 16 17  1  0  0  0
 16 18  2  0  0  0
 18 19  1  0  0  0
 19 20  2  0  0  0
  7  2  1  0  0  0
 34 29  1  0  0  0
 39 35  1  0  0  0
 20 14  1  0  0  0
 10  2  1  0  0  0
 20  5  1  0  0  0
 11 21  1  0  0  0
 17 22  1  0  0  0
M  END
> <minimizedAffinity>
9.81746

> <CNNscore>
0.3604420722

> <CNNaffinity>
6.8133912086

> <CNN_VS>
2.4558329582

> <CNNaffinity_variance>
0.4784059525

$$$$
[H]OC(=O)C([H])([H])N1C(=O)S/C(=C(/[H])c2c([H])c([H])c3c(c(C([H])([H])[H])nn3C([H])([H])c3c([H])c([H])c(Cl)c([H])c3C(F)(F)F)c2[H])C1=O


 35 38  0  0  0  0  0  0  0  0999 V2000
  -14.7581   -8.9267   10.5530 C   0  0  0  0  0  0  0  0  0  0  0  0
  -14.0078   -8.0619    9.6263 C   0  0  0  0  0  0  0  0  0  0  0  0
  -14.1770   -7.9728    8.3139 N   0  0  0  0  0  0  0  0  0  0  0  0
  -13.3108   -7.0705    7.7726 N   0  0  0  0  0  0  0  0  0  0  0  0
  -12.5819   -6.5871    8.7779 C   0  0  0  0  0  0  0  0  0  0  0  0
  -11.5308   -5.6809    8.8506 C   0  0  0  0  0  0  0  0  0  0  0  0
  -10.9236   -5.3898   10.0427 C   0  0  0  0  0  0  0  0  0  0  0  0
  -11.3135   -5.9732   11.2371 C   0  0  0  0  0  0  0  0  0  0  0  0
  -12.3549   -6.8665   11.1409 C   0  0  0  0  0  0  0  0  0  0  0  0
  -12.9935   -7.1876    9.9529 C   0  0  0  0  0  0  0  0  0  0  0  0
  -10.6268   -5.6080   12.4622 C   0  0  0  0  0  0  0  0  0  0  0  0
   -9.3119   -5.6907   12.5183 C   0  0  0  0  0  0  0  0  0  0  0  0
   -8.2446   -6.2253   11.1909 S   0  0  0  0  0  0  0  0  0  0  0  0
   -6.7234   -6.1799   12.1228 C   0  0  0  0  0  0  0  0  0  0  0  0
   -5.6130   -6.5644   11.6758 O   0  0  0  0  0  0  0  0  0  0  0  0
   -7.0635   -5.6463   13.3813 N   0  0  0  0  0  0  0  0  0  0  0  0
   -8.4045   -5.3835   13.6105 C   0  0  0  0  0  0  0  0  0  0  0  0
   -8.8763   -4.8963   14.7077 O   0  0  0  0  0  0  0  0  0  0  0  0
   -6.0084   -5.3866   14.3895 C   0  0  0  0  0  0  0  0  0  0  0  0
   -4.7942   -6.1329   14.0576 C   0  0  0  0  0  0  0  0  0  0  0  0
   -3.7383   -5.5028   13.4255 O   0  0  0  0  0  0  0  0  0  0  0  0
   -4.7091   -7.3466   14.3472 O   0  0  0  0  0  0  0  0  0  0  0  0
   -3.3850   -4.6569   13.8730 H   0  0  0  0  0  0  0  0  0  0  0  0
  -13.3827   -6.7937    6.3767 C   0  0  0  0  0  0  0  0  0  0  0  0
  -14.6770   -6.8292    5.7068 C   0  0  0  0  0  0  0  0  0  0  0  0
  -15.4687   -7.9857    5.9980 C   0  0  0  0  0  0  0  0  0  0  0  0
  -16.6910   -8.1546    5.4443 C   0  0  0  0  0  0  0  0  0  0  0  0
  -17.2337   -7.2400    4.5849 C   0  0  0  0  0  0  0  0  0  0  0  0
  -18.8280   -7.5454    3.9149 Cl  0  0  0  0  0  0  0  0  0  0  0  0
  -16.5069   -6.1237    4.2839 C   0  0  0  0  0  0  0  0  0  0  0  0
  -15.2322   -5.9311    4.8508 C   0  0  0  0  0  0  0  0  0  0  0  0
  -14.5471   -4.6684    4.4610 C   0  0  0  0  0  0  0  0  0  0  0  0
  -13.4290   -4.8374    3.7153 F   0  0  0  0  0  0  0  0  0  0  0  0
  -15.4314   -4.0293    3.4987 F   0  0  0  0  0  0  0  0  0  0  0  0
  -14.4494   -3.7333    5.4205 F   0  0  0  0  0  0  0  0  0  0  0  0
  1  2  1  0  0  0
  2  3  2  0  0  0
  3  4  1  0  0  0
  4 24  1  0  0  0
 24 25  1  0  0  0
 25 26  2  0  0  0
 26 27  1  0  0  0
 27 28  2  0  0  0
 28 29  1  0  0  0
 28 30  1  0  0  0
 30 31  2  0  0  0
 31 32  1  0  0  0
 32 33  1  0  0  0
 32 34  1  0  0  0
 32 35  1  0  0  0
  4  5  1  0  0  0
  5  6  2  0  0  0
  6  7  1  0  0  0
  7  8  2  0  0  0
  8 11  1  0  0  0
 11 12  2  0  0  0
 12 13  1  0  0  0
 13 14  1  0  0  0
 14 15  2  0  0  0
 14 16  1  0  0  0
 16 19  1  0  0  0
 19 20  1  0  0  0
 20 21  1  0  0  0
 20 22  2  0  0  0
 16 17  1  0  0  0
 17 18  2  0  0  0
  8  9  1  0  0  0
  9 10  2  0  0  0
 10  2  1  0  0  0
 31 25  1  0  0  0
 10  5  1  0  0  0
 17 12  1  0  0  0
 21 23  1  0  0  0
M  END
> <minimizedAffinity>
6.16593

> <CNNscore>
0.5186175108

> <CNNaffinity>
6.6870374680

> <CNN_VS>
3.4680147171

> <CNNaffinity_variance>
0.7198092341

$$$$
[H]OC(=O)C([H])([H])N1C(=O)S/C(=C(/[H])c2c([H])c([H])c3c(c(C([H])([H])[H])nn3C([H])([H])c3c([H])c([H])c(Cl)c([H])c3C(F)(F)F)c2[H])C1=O


 35 38  0  0  0  0  0  0  0  0999 V2000
  -10.6204   -7.5716    7.9476 C   0  0  0  0  0  0  0  0  0  0  0  0
   -9.7395   -8.4900    7.2060 C   0  0  0  0  0  0  0  0  0  0  0  0
  -10.0039   -9.7470    6.8758 N   0  0  0  0  0  0  0  0  0  0  0  0
   -8.9633  -10.2983    6.1900 N   0  0  0  0  0  0  0  0  0  0  0  0
   -8.0252   -9.3568    6.0934 C   0  0  0  0  0  0  0  0  0  0  0  0
   -6.7467   -9.3297    5.5493 C   0  0  0  0  0  0  0  0  0  0  0  0
   -5.9638   -8.2093    5.6277 C   0  0  0  0  0  0  0  0  0  0  0  0
   -6.3911   -7.0461    6.2470 C   0  0  0  0  0  0  0  0  0  0  0  0
   -7.6588   -7.0962    6.7782 C   0  0  0  0  0  0  0  0  0  0  0  0
   -8.4801   -8.2117    6.7197 C   0  0  0  0  0  0  0  0  0  0  0  0
   -5.5070   -5.8960    6.2831 C   0  0  0  0  0  0  0  0  0  0  0  0
   -4.9270   -5.5587    7.4184 C   0  0  0  0  0  0  0  0  0  0  0  0
   -5.1223   -6.4040    8.9787 S   0  0  0  0  0  0  0  0  0  0  0  0
   -4.1621   -5.2573    9.9522 C   0  0  0  0  0  0  0  0  0  0  0  0
   -4.0367   -5.3280   11.2012 O   0  0  0  0  0  0  0  0  0  0  0  0
   -3.6274   -4.3327    9.0339 N   0  0  0  0  0  0  0  0  0  0  0  0
   -4.0109   -4.4694    7.7094 C   0  0  0  0  0  0  0  0  0  0  0  0
   -3.6113   -3.7048    6.7505 O   0  0  0  0  0  0  0  0  0  0  0  0
   -2.6963   -3.2766    9.4975 C   0  0  0  0  0  0  0  0  0  0  0  0
   -2.0314   -3.6924   10.7330 C   0  0  0  0  0  0  0  0  0  0  0  0
   -1.1284   -4.7394   10.7216 O   0  0  0  0  0  0  0  0  0  0  0  0
   -2.2794   -3.0985   11.8053 O   0  0  0  0  0  0  0  0  0  0  0  0
   -0.3637   -4.6676   10.0502 H   0  0  0  0  0  0  0  0  0  0  0  0
   -9.0868  -11.6297    5.6976 C   0  0  0  0  0  0  0  0  0  0  0  0
   -8.6847  -11.9253    4.3279 C   0  0  0  0  0  0  0  0  0  0  0  0
   -8.3643  -10.7753    3.5381 C   0  0  0  0  0  0  0  0  0  0  0  0
   -7.9788  -10.8979    2.2475 C   0  0  0  0  0  0  0  0  0  0  0  0
   -7.8741  -12.1140    1.6313 C   0  0  0  0  0  0  0  0  0  0  0  0
   -7.3660  -12.1742   -0.0486 Cl  0  0  0  0  0  0  0  0  0  0  0  0
   -8.1718  -13.2338    2.3541 C   0  0  0  0  0  0  0  0  0  0  0  0
   -8.5751  -13.1254    3.6990 C   0  0  0  0  0  0  0  0  0  0  0  0
   -8.8536  -14.4165    4.3854 C   0  0  0  0  0  0  0  0  0  0  0  0
   -9.5252  -15.3232    3.6360 F   0  0  0  0  0  0  0  0  0  0  0  0
   -7.5606  -15.0691    4.5221 F   0  0  0  0  0  0  0  0  0  0  0  0
   -9.2618  -14.3264    5.6620 F   0  0  0  0  0  0  0  0  0  0  0  0
  1  2  1  0  0  0
  2  3  2  0  0  0
  3  4  1  0  0  0
  4 24  1  0  0  0
 24 25  1  0  0  0
 25 26  2  0  0  0
 26 27  1  0  0  0
 27 28  2  0  0  0
 28 29  1  0  0  0
 28 30  1  0  0  0
 30 31  2  0  0  0
 31 32  1  0  0  0
 32 33  1  0  0  0
 32 34  1  0  0  0
 32 35  1  0  0  0
  4  5  1  0  0  0
  5  6  2  0  0  0
  6  7  1  0  0  0
  7  8  2  0  0  0
  8 11  1  0  0  0
 11 12  2  0  0  0
 12 13  1  0  0  0
 13 14  1  0  0  0
 14 15  2  0  0  0
 14 16  1  0  0  0
 16 19  1  0  0  0
 19 20  1  0  0  0
 20 21  1  0  0  0
 20 22  2  0  0  0
 16 17  1  0  0  0
 17 18  2  0  0  0
  8  9  1  0  0  0
  9 10  2  0  0  0
 10  2  1  0  0  0
 31 25  1  0  0  0
 10  5  1  0  0  0
 17 12  1  0  0  0
 21 23  1  0  0  0
M  END
> <minimizedAffinity>
7.95819

> <CNNscore>
0.4711676538

> <CNNaffinity>
6.1436986923

> <CNN_VS>
2.8947122097

> <CNNaffinity_variance>
0.8006479144

$$$$
[H]OC(=O)C([H])([H])N1C(=O)S/C(=C(/[H])c2c([H])c([H])c3c(c(C([H])([H])[H])nn3C([H])([H])c3c([H])c([H])c(Cl)c([H])c3C(F)(F)F)c2[H])C1=O


 35 38  0  0  0  0  0  0  0  0999 V2000
  -13.0670   -5.4722   10.1799 C   0  0  0  0  0  0  0  0  0  0  0  0
  -13.0889   -6.5871    9.2177 C   0  0  0  0  0  0  0  0  0  0  0  0
  -14.1625   -7.1332    8.6627 N   0  0  0  0  0  0  0  0  0  0  0  0
  -13.8120   -8.1432    7.8175 N   0  0  0  0  0  0  0  0  0  0  0  0
  -12.4826   -8.2274    7.8503 C   0  0  0  0  0  0  0  0  0  0  0  0
  -11.5603   -9.0713    7.2431 C   0  0  0  0  0  0  0  0  0  0  0  0
  -10.2189   -8.9561    7.4922 C   0  0  0  0  0  0  0  0  0  0  0  0
   -9.7026   -8.0030    8.3548 C   0  0  0  0  0  0  0  0  0  0  0  0
  -10.6334   -7.1797    8.9440 C   0  0  0  0  0  0  0  0  0  0  0  0
  -11.9986   -7.2664    8.7179 C   0  0  0  0  0  0  0  0  0  0  0  0
   -8.2678   -7.9371    8.5620 C   0  0  0  0  0  0  0  0  0  0  0  0
   -7.5112   -7.3248    7.6723 C   0  0  0  0  0  0  0  0  0  0  0  0
   -8.0906   -6.5350    6.1798 S   0  0  0  0  0  0  0  0  0  0  0  0
   -6.4805   -6.1215    5.5308 C   0  0  0  0  0  0  0  0  0  0  0  0
   -6.2892   -5.6035    4.4013 O   0  0  0  0  0  0  0  0  0  0  0  0
   -5.5600   -6.4950    6.5295 N   0  0  0  0  0  0  0  0  0  0  0  0
   -6.0727   -7.1228    7.6533 C   0  0  0  0  0  0  0  0  0  0  0  0
   -5.3634   -7.5256    8.6526 O   0  0  0  0  0  0  0  0  0  0  0  0
   -4.1158   -6.2103    6.3547 C   0  0  0  0  0  0  0  0  0  0  0  0
   -3.8274   -4.8178    6.6999 C   0  0  0  0  0  0  0  0  0  0  0  0
   -4.0951   -3.8050    5.7977 O   0  0  0  0  0  0  0  0  0  0  0  0
   -3.3370   -4.5405    7.8165 O   0  0  0  0  0  0  0  0  0  0  0  0
   -5.0459   -3.7688    5.4298 H   0  0  0  0  0  0  0  0  0  0  0  0
  -14.8306   -8.8137    7.0804 C   0  0  0  0  0  0  0  0  0  0  0  0
  -15.7062   -8.0420    6.2069 C   0  0  0  0  0  0  0  0  0  0  0  0
  -16.5967   -7.1524    6.8886 C   0  0  0  0  0  0  0  0  0  0  0  0
  -17.4687   -6.3761    6.2058 C   0  0  0  0  0  0  0  0  0  0  0  0
  -17.5479   -6.3968    4.8409 C   0  0  0  0  0  0  0  0  0  0  0  0
  -18.7123   -5.3532    4.0416 Cl  0  0  0  0  0  0  0  0  0  0  0  0
  -16.7132   -7.2335    4.1567 C   0  0  0  0  0  0  0  0  0  0  0  0
  -15.7988   -8.0492    4.8508 C   0  0  0  0  0  0  0  0  0  0  0  0
  -14.9312   -8.9032    3.9943 C   0  0  0  0  0  0  0  0  0  0  0  0
  -15.5614   -9.9566    3.4215 F   0  0  0  0  0  0  0  0  0  0  0  0
  -14.6224   -8.0928    2.8263 F   0  0  0  0  0  0  0  0  0  0  0  0
  -13.7092   -9.1740    4.4822 F   0  0  0  0  0  0  0  0  0  0  0  0
  1  2  1  0  0  0
  2  3  2  0  0  0
  3  4  1  0  0  0
  4 24  1  0  0  0
 24 25  1  0  0  0
 25 26  2  0  0  0
 26 27  1  0  0  0
 27 28  2  0  0  0
 28 29  1  0  0  0
 28 30  1  0  0  0
 30 31  2  0  0  0
 31 32  1  0  0  0
 32 33  1  0  0  0
 32 34  1  0  0  0
 32 35  1  0  0  0
  4  5  1  0  0  0
  5  6  2  0  0  0
  6  7  1  0  0  0
  7  8  2  0  0  0
  8 11  1  0  0  0
 11 12  2  0  0  0
 12 13  1  0  0  0
 13 14  1  0  0  0
 14 15  2  0  0  0
 14 16  1  0  0  0
 16 19  1  0  0  0
 19 20  1  0  0  0
 20 21  1  0  0  0
 20 22  2  0  0  0
 16 17  1  0  0  0
 17 18  2  0  0  0
  8  9  1  0  0  0
  9 10  2  0  0  0
 10  2  1  0  0  0
 31 25  1  0  0  0
 10  5  1  0  0  0
 17 12  1  0  0  0
 21 23  1  0  0  0
M  END
> <minimizedAffinity>
-9.01573

> <CNNscore>
0.4285713136

> <CNNaffinity>
7.0992164612

> <CNN_VS>
3.0425205231

> <CNNaffinity_variance>
0.0986255556

$$$$
[H]OC(=O)C([H])([H])N1C(=O)S/C(=C(/[H])c2c([H])c([H])c3c(c(C([H])([H])[H])nn3C([H])([H])c3c([H])c([H])c(Cl)c([H])c3C(F)(F)F)c2[H])C1=O


 35 38  0  0  0  0  0  0  0  0999 V2000
  -11.6139   -8.0114    7.5066 C   0  0  0  0  0  0  0  0  0  0  0  0
  -10.5512   -8.9881    7.2133 C   0  0  0  0  0  0  0  0  0  0  0  0
  -10.7049  -10.1828    6.6583 N   0  0  0  0  0  0  0  0  0  0  0  0
   -9.5058  -10.8185    6.5337 N   0  0  0  0  0  0  0  0  0  0  0  0
   -8.5816   -9.9951    7.0271 C   0  0  0  0  0  0  0  0  0  0  0  0
   -7.2072  -10.0946    7.2075 C   0  0  0  0  0  0  0  0  0  0  0  0
   -6.4915   -9.0846    7.7925 C   0  0  0  0  0  0  0  0  0  0  0  0
   -7.0848   -7.9142    8.2365 C   0  0  0  0  0  0  0  0  0  0  0  0
   -8.4450   -7.8381    8.0479 C   0  0  0  0  0  0  0  0  0  0  0  0
   -9.2035   -8.8395    7.4612 C   0  0  0  0  0  0  0  0  0  0  0  0
   -6.2585   -6.8848    8.8395 C   0  0  0  0  0  0  0  0  0  0  0  0
   -5.3456   -6.2750    8.1090 C   0  0  0  0  0  0  0  0  0  0  0  0
   -5.0068   -6.5949    6.3857 S   0  0  0  0  0  0  0  0  0  0  0  0
   -3.6054   -5.4987    6.2475 C   0  0  0  0  0  0  0  0  0  0  0  0
   -2.8926   -5.3948    5.2171 O   0  0  0  0  0  0  0  0  0  0  0  0
   -3.5154   -4.8375    7.4880 N   0  0  0  0  0  0  0  0  0  0  0  0
   -4.4104   -5.2243    8.4725 C   0  0  0  0  0  0  0  0  0  0  0  0
   -4.4564   -4.7179    9.6579 O   0  0  0  0  0  0  0  0  0  0  0  0
   -2.4996   -3.7779    7.6948 C   0  0  0  0  0  0  0  0  0  0  0  0
   -3.0997   -2.4561    7.5097 C   0  0  0  0  0  0  0  0  0  0  0  0
   -3.0731   -1.5277    8.5339 O   0  0  0  0  0  0  0  0  0  0  0  0
   -3.6391   -2.1628    6.4201 O   0  0  0  0  0  0  0  0  0  0  0  0
   -2.1566   -1.3214    8.9314 H   0  0  0  0  0  0  0  0  0  0  0  0
   -9.4617  -12.0953    5.9026 C   0  0  0  0  0  0  0  0  0  0  0  0
   -8.9341  -12.2050    4.5481 C   0  0  0  0  0  0  0  0  0  0  0  0
   -8.7489  -10.9548    3.8761 C   0  0  0  0  0  0  0  0  0  0  0  0
   -8.2695  -10.9037    2.6124 C   0  0  0  0  0  0  0  0  0  0  0  0
   -7.9381  -12.0311    1.9133 C   0  0  0  0  0  0  0  0  0  0  0  0
   -7.3235  -11.8658    0.2766 Cl  0  0  0  0  0  0  0  0  0  0  0  0
   -8.1014  -13.2422    2.5228 C   0  0  0  0  0  0  0  0  0  0  0  0
   -8.5994  -13.3148    3.8380 C   0  0  0  0  0  0  0  0  0  0  0  0
   -8.7150  -14.6885    4.3994 C   0  0  0  0  0  0  0  0  0  0  0  0
   -8.8419  -14.7411    5.7469 F   0  0  0  0  0  0  0  0  0  0  0  0
  -10.0205  -15.1711    3.9762 F   0  0  0  0  0  0  0  0  0  0  0  0
   -7.8890  -15.6086    3.8741 F   0  0  0  0  0  0  0  0  0  0  0  0
  1  2  1  0  0  0
  2  3  2  0  0  0
  3  4  1  0  0  0
  4 24  1  0  0  0
 24 25  1  0  0  0
 25 26  2  0  0  0
 26 27  1  0  0  0
 27 28  2  0  0  0
 28 29  1  0  0  0
 28 30  1  0  0  0
 30 31  2  0  0  0
 31 32  1  0  0  0
 32 33  1  0  0  0
 32 34  1  0  0  0
 32 35  1  0  0  0
  4  5  1  0  0  0
  5  6  2  0  0  0
  6  7  1  0  0  0
  7  8  2  0  0  0
  8 11  1  0  0  0
 11 12  2  0  0  0
 12 13  1  0  0  0
 13 14  1  0  0  0
 14 15  2  0  0  0
 14 16  1  0  0  0
 16 19  1  0  0  0
 19 20  1  0  0  0
 20 21  1  0  0  0
 20 22  2  0  0  0
 16 17  1  0  0  0
 17 18  2  0  0  0
  8  9  1  0  0  0
  9 10  2  0  0  0
 10  2  1  0  0  0
 31 25  1  0  0  0
 10  5  1  0  0  0
 17 12  1  0  0  0
 21 23  1  0  0  0
M  END
> <minimizedAffinity>
6.94714

> <CNNscore>
0.4040184319

> <CNNaffinity>
6.2029790878

> <CNN_VS>
2.5061178207

> <CNNaffinity_variance>
0.8010158539

$$$$
[H]OC(=O)C([H])([H])N1C(=O)S/C(=C(/[H])c2c([H])c([H])c3c(c(C([H])([H])[H])nn3C([H])([H])c3c([H])c([H])c(Cl)c([H])c3C(F)(F)F)c2[H])C1=O


 35 38  0  0  0  0  0  0  0  0999 V2000
   -8.8796  -11.5391    6.1068 C   0  0  0  0  0  0  0  0  0  0  0  0
   -9.8915  -10.5975    6.6156 C   0  0  0  0  0  0  0  0  0  0  0  0
  -11.2085  -10.7270    6.5283 N   0  0  0  0  0  0  0  0  0  0  0  0
  -11.8403   -9.6681    7.1086 N   0  0  0  0  0  0  0  0  0  0  0  0
  -10.8878   -8.8573    7.5679 C   0  0  0  0  0  0  0  0  0  0  0  0
  -10.9055   -7.6243    8.2088 C   0  0  0  0  0  0  0  0  0  0  0  0
   -9.7448   -6.9787    8.5415 C   0  0  0  0  0  0  0  0  0  0  0  0
   -8.4948   -7.5071    8.2634 C   0  0  0  0  0  0  0  0  0  0  0  0
   -8.5019   -8.7274    7.6289 C   0  0  0  0  0  0  0  0  0  0  0  0
   -9.6554   -9.4105    7.2752 C   0  0  0  0  0  0  0  0  0  0  0  0
   -7.3092   -6.7673    8.6543 C   0  0  0  0  0  0  0  0  0  0  0  0
   -6.1585   -7.0271    8.0649 C   0  0  0  0  0  0  0  0  0  0  0  0
   -5.8960   -8.2419    6.7833 S   0  0  0  0  0  0  0  0  0  0  0  0
   -4.1254   -8.0455    6.6773 C   0  0  0  0  0  0  0  0  0  0  0  0
   -3.3808   -8.7565    5.9557 O   0  0  0  0  0  0  0  0  0  0  0  0
   -3.8084   -6.9774    7.5392 N   0  0  0  0  0  0  0  0  0  0  0  0
   -4.8499   -6.4310    8.2718 C   0  0  0  0  0  0  0  0  0  0  0  0
   -4.7240   -5.4523    9.1024 O   0  0  0  0  0  0  0  0  0  0  0  0
   -2.4138   -6.4833    7.6304 C   0  0  0  0  0  0  0  0  0  0  0  0
   -1.7775   -6.9812    8.8505 C   0  0  0  0  0  0  0  0  0  0  0  0
   -1.7377   -6.1958    9.9877 O   0  0  0  0  0  0  0  0  0  0  0  0
   -1.2673   -8.1229    8.8668 O   0  0  0  0  0  0  0  0  0  0  0  0
   -2.6325   -5.8316   10.3154 H   0  0  0  0  0  0  0  0  0  0  0  0
  -13.2641   -9.6582    7.1656 C   0  0  0  0  0  0  0  0  0  0  0  0
  -13.9944   -8.5353    6.5905 C   0  0  0  0  0  0  0  0  0  0  0  0
  -14.1167   -8.5697    5.1647 C   0  0  0  0  0  0  0  0  0  0  0  0
  -14.7661   -7.5910    4.4942 C   0  0  0  0  0  0  0  0  0  0  0  0
  -15.3365   -6.5253    5.1334 C   0  0  0  0  0  0  0  0  0  0  0  0
  -16.1589   -5.3025    4.1782 Cl  0  0  0  0  0  0  0  0  0  0  0  0
  -15.2399   -6.4591    6.4940 C   0  0  0  0  0  0  0  0  0  0  0  0
  -14.5674   -7.4689    7.2089 C   0  0  0  0  0  0  0  0  0  0  0  0
  -14.5453   -7.2946    8.6870 C   0  0  0  0  0  0  0  0  0  0  0  0
  -15.6735   -7.6938    9.3214 F   0  0  0  0  0  0  0  0  0  0  0  0
  -13.5870   -8.2729    9.1779 F   0  0  0  0  0  0  0  0  0  0  0  0
  -14.0252   -6.1395    9.1341 F   0  0  0  0  0  0  0  0  0  0  0  0
  1  2  1  0  0  0
  2  3  2  0  0  0
  3  4  1  0  0  0
  4 24  1  0  0  0
 24 25  1  0  0  0
 25 26  2  0  0  0
 26 27  1  0  0  0
 27 28  2  0  0  0
 28 29  1  0  0  0
 28 30  1  0  0  0
 30 31  2  0  0  0
 31 32  1  0  0  0
 32 33  1  0  0  0
 32 34  1  0  0  0
 32 35  1  0  0  0
  4  5  1  0  0  0
  5  6  2  0  0  0
  6  7  1  0  0  0
  7  8  2  0  0  0
  8 11  1  0  0  0
 11 12  2  0  0  0
 12 13  1  0  0  0
 13 14  1  0  0  0
 14 15  2  0  0  0
 14 16  1  0  0  0
 16 19  1  0  0  0
 19 20  1  0  0  0
 20 21  1  0  0  0
 20 22  2  0  0  0
 16 17  1  0  0  0
 17 18  2  0  0  0
  8  9  1  0  0  0
  9 10  2  0  0  0
 10  2  1  0  0  0
 31 25  1  0  0  0
 10  5  1  0  0  0
 17 12  1  0  0  0
 21 23  1  0  0  0
M  END
> <minimizedAffinity>
-6.92611

> <CNNscore>
0.3945411146

> <CNNaffinity>
6.8159332275

> <CNN_VS>
2.6891658306

> <CNNaffinity_variance>
0.1776880920

$$$$
[H]OC(=O)C([H])([H])N1C(=O)S/C(=C(/[H])c2c([H])c([H])c3c(c(C([H])([H])[H])nn3C([H])([H])c3c([H])c([H])c(Cl)c([H])c3C(F)(F)F)c2[H])C1=O


 35 38  0  0  0  0  0  0  0  0999 V2000
  -10.9248   -6.0207    9.3719 C   0  0  0  0  0  0  0  0  0  0  0  0
  -11.1007   -7.2602    8.5960 C   0  0  0  0  0  0  0  0  0  0  0  0
  -12.2516   -7.8197    8.2478 N   0  0  0  0  0  0  0  0  0  0  0  0
  -12.0405   -8.9596    7.5312 N   0  0  0  0  0  0  0  0  0  0  0  0
  -10.7204   -9.1127    7.4335 C   0  0  0  0  0  0  0  0  0  0  0  0
   -9.9078  -10.0860    6.8645 C   0  0  0  0  0  0  0  0  0  0  0  0
   -8.5433  -10.0114    6.9480 C   0  0  0  0  0  0  0  0  0  0  0  0
   -7.8942   -8.9739    7.5973 C   0  0  0  0  0  0  0  0  0  0  0  0
   -8.7182   -8.0230    8.1526 C   0  0  0  0  0  0  0  0  0  0  0  0
  -10.1026   -8.0648    8.0899 C   0  0  0  0  0  0  0  0  0  0  0  0
   -6.4437   -8.9594    7.6370 C   0  0  0  0  0  0  0  0  0  0  0  0
   -5.7892   -7.9620    7.0750 C   0  0  0  0  0  0  0  0  0  0  0  0
   -6.5306   -6.5705    6.2377 S   0  0  0  0  0  0  0  0  0  0  0  0
   -5.0042   -5.8295    5.6851 C   0  0  0  0  0  0  0  0  0  0  0  0
   -4.9424   -4.8206    4.9373 O   0  0  0  0  0  0  0  0  0  0  0  0
   -3.9759   -6.6037    6.2571 N   0  0  0  0  0  0  0  0  0  0  0  0
   -4.3598   -7.7186    6.9850 C   0  0  0  0  0  0  0  0  0  0  0  0
   -3.5417   -8.5273    7.5685 O   0  0  0  0  0  0  0  0  0  0  0  0
   -2.5583   -6.2122    6.0719 C   0  0  0  0  0  0  0  0  0  0  0  0
   -2.2115   -5.1167    6.9780 C   0  0  0  0  0  0  0  0  0  0  0  0
   -2.4087   -3.8034    6.5932 O   0  0  0  0  0  0  0  0  0  0  0  0
   -1.7351   -5.3677    8.1068 O   0  0  0  0  0  0  0  0  0  0  0  0
   -3.3476   -3.5632    6.2748 H   0  0  0  0  0  0  0  0  0  0  0  0
  -13.1625   -9.6715    7.0169 C   0  0  0  0  0  0  0  0  0  0  0  0
  -14.1790   -8.9522    6.2590 C   0  0  0  0  0  0  0  0  0  0  0  0
  -14.0009   -8.9861    4.8390 C   0  0  0  0  0  0  0  0  0  0  0  0
  -14.8660   -8.3587    4.0100 C   0  0  0  0  0  0  0  0  0  0  0  0
  -15.9478   -7.6646    4.4763 C   0  0  0  0  0  0  0  0  0  0  0  0
  -17.0161   -6.8814    3.3233 Cl  0  0  0  0  0  0  0  0  0  0  0  0
  -16.1498   -7.6107    5.8259 C   0  0  0  0  0  0  0  0  0  0  0  0
  -15.2594   -8.2577    6.7043 C   0  0  0  0  0  0  0  0  0  0  0  0
  -15.5958   -8.1425    8.1497 C   0  0  0  0  0  0  0  0  0  0  0  0
  -14.9971   -7.1100    8.7902 F   0  0  0  0  0  0  0  0  0  0  0  0
  -16.9894   -7.7270    8.1908 F   0  0  0  0  0  0  0  0  0  0  0  0
  -15.6233   -9.2948    8.8397 F   0  0  0  0  0  0  0  0  0  0  0  0
  1  2  1  0  0  0
  2  3  2  0  0  0
  3  4  1  0  0  0
  4 24  1  0  0  0
 24 25  1  0  0  0
 25 26  2  0  0  0
 26 27  1  0  0  0
 27 28  2  0  0  0
 28 29  1  0  0  0
 28 30  1  0  0  0
 30 31  2  0  0  0
 31 32  1  0  0  0
 32 33  1  0  0  0
 32 34  1  0  0  0
 32 35  1  0  0  0
  4  5  1  0  0  0
  5  6  2  0  0  0
  6  7  1  0  0  0
  7  8  2  0  0  0
  8 11  1  0  0  0
 11 12  2  0  0  0
 12 13  1  0  0  0
 13 14  1  0  0  0
 14 15  2  0  0  0
 14 16  1  0  0  0
 16 19  1  0  0  0
 19 20  1  0  0  0
 20 21  1  0  0  0
 20 22  2  0  0  0
 16 17  1  0  0  0
 17 18  2  0  0  0
  8  9  1  0  0  0
  9 10  2  0  0  0
 10  2  1  0  0  0
 31 25  1  0  0  0
 10  5  1  0  0  0
 17 12  1  0  0  0
 21 23  1  0  0  0
M  END
> <minimizedAffinity>
-9.51021

> <CNNscore>
0.3699077368

> <CNNaffinity>
6.9787979126

> <CNN_VS>
2.5815112591

> <CNNaffinity_variance>
0.2569282055

$$$$
[H]OC(=O)C([H])([H])N1C(=O)S/C(=C(/[H])c2c([H])c([H])c3c(c(C([H])([H])[H])nn3C([H])([H])c3c([H])c([H])c(Cl)c([H])c3C(F)(F)F)c2[H])C1=O


 35 38  0  0  0  0  0  0  0  0999 V2000
   -6.5761   -7.5930    7.0295 C   0  0  0  0  0  0  0  0  0  0  0  0
   -8.0274   -7.6871    7.2630 C   0  0  0  0  0  0  0  0  0  0  0  0
   -8.8199   -6.7265    7.7190 N   0  0  0  0  0  0  0  0  0  0  0  0
  -10.1081   -7.1618    7.8100 N   0  0  0  0  0  0  0  0  0  0  0  0
  -10.1149   -8.4297    7.4001 C   0  0  0  0  0  0  0  0  0  0  0  0
  -11.1046   -9.4005    7.3031 C   0  0  0  0  0  0  0  0  0  0  0  0
  -10.8174  -10.6688    6.8748 C   0  0  0  0  0  0  0  0  0  0  0  0
   -9.5379  -11.0599    6.5157 C   0  0  0  0  0  0  0  0  0  0  0  0
   -8.5752  -10.0832    6.6199 C   0  0  0  0  0  0  0  0  0  0  0  0
   -8.8270   -8.7895    7.0503 C   0  0  0  0  0  0  0  0  0  0  0  0
   -9.3129  -12.4203    6.0634 C   0  0  0  0  0  0  0  0  0  0  0  0
   -8.9055  -12.6342    4.8276 C   0  0  0  0  0  0  0  0  0  0  0  0
   -8.5873  -11.3743    3.6034 S   0  0  0  0  0  0  0  0  0  0  0  0
   -8.2435  -12.4873    2.2515 C   0  0  0  0  0  0  0  0  0  0  0  0
   -8.0326  -12.1142    1.0695 O   0  0  0  0  0  0  0  0  0  0  0  0
   -8.2679  -13.7812    2.8077 N   0  0  0  0  0  0  0  0  0  0  0  0
   -8.6097  -13.8829    4.1467 C   0  0  0  0  0  0  0  0  0  0  0  0
   -8.6778  -14.9925    4.8010 O   0  0  0  0  0  0  0  0  0  0  0  0
   -7.9338  -14.9579    1.9705 C   0  0  0  0  0  0  0  0  0  0  0  0
   -6.6654  -15.5454    2.4035 C   0  0  0  0  0  0  0  0  0  0  0  0
   -6.5790  -16.2041    3.6160 O   0  0  0  0  0  0  0  0  0  0  0  0
   -5.6537  -15.4530    1.6740 O   0  0  0  0  0  0  0  0  0  0  0  0
   -7.2552  -16.9518    3.7719 H   0  0  0  0  0  0  0  0  0  0  0  0
  -11.1195   -6.2485    8.2265 C   0  0  0  0  0  0  0  0  0  0  0  0
  -12.3051   -6.7564    8.9059 C   0  0  0  0  0  0  0  0  0  0  0  0
  -12.1437   -6.9656   10.3128 C   0  0  0  0  0  0  0  0  0  0  0  0
  -13.1594   -7.4373   11.0712 C   0  0  0  0  0  0  0  0  0  0  0  0
  -14.3843   -7.7371   10.5428 C   0  0  0  0  0  0  0  0  0  0  0  0
  -15.6426   -8.3451   11.6063 Cl  0  0  0  0  0  0  0  0  0  0  0  0
  -14.5751   -7.5498    9.2036 C   0  0  0  0  0  0  0  0  0  0  0  0
  -13.5290   -7.0597    8.3982 C   0  0  0  0  0  0  0  0  0  0  0  0
  -13.8647   -6.8808    6.9591 C   0  0  0  0  0  0  0  0  0  0  0  0
  -12.9288   -7.3451    6.0970 F   0  0  0  0  0  0  0  0  0  0  0  0
  -14.9632   -7.7990    6.7008 F   0  0  0  0  0  0  0  0  0  0  0  0
  -14.4015   -5.6957    6.6245 F   0  0  0  0  0  0  0  0  0  0  0  0
  1  2  1  0  0  0
  2  3  2  0  0  0
  3  4  1  0  0  0
  4 24  1  0  0  0
 24 25  1  0  0  0
 25 26  2  0  0  0
 26 27  1  0  0  0
 27 28  2  0  0  0
 28 29  1  0  0  0
 28 30  1  0  0  0
 30 31  2  0  0  0
 31 32  1  0  0  0
 32 33  1  0  0  0
 32 34  1  0  0  0
 32 35  1  0  0  0
  4  5  1  0  0  0
  5  6  2  0  0  0
  6  7  1  0  0  0
  7  8  2  0  0  0
  8 11  1  0  0  0
 11 12  2  0  0  0
 12 13  1  0  0  0
 13 14  1  0  0  0
 14 15  2  0  0  0
 14 16  1  0  0  0
 16 19  1  0  0  0
 19 20  1  0  0  0
 20 21  1  0  0  0
 20 22  2  0  0  0
 16 17  1  0  0  0
 17 18  2  0  0  0
  8  9  1  0  0  0
  9 10  2  0  0  0
 10  2  1  0  0  0
 31 25  1  0  0  0
 10  5  1  0  0  0
 17 12  1  0  0  0
 21 23  1  0  0  0
M  END
> <minimizedAffinity>
9.41607

> <CNNscore>
0.3360677361

> <CNNaffinity>
6.2824668884

> <CNN_VS>
2.1113343239

> <CNNaffinity_variance>
0.8384728432

$$$$
[H]OC(=O)C([H])([H])N1C(=O)S/C(=C(/[H])c2c([H])c([H])c3c(c(C([H])([H])[H])nn3C([H])([H])c3c([H])c([H])c(Cl)c([H])c3C(F)(F)F)c2[H])C1=O


 35 38  0  0  0  0  0  0  0  0999 V2000
  -12.6866   -9.7394   10.1462 C   0  0  0  0  0  0  0  0  0  0  0  0
  -11.7709   -9.2090    9.1217 C   0  0  0  0  0  0  0  0  0  0  0  0
  -10.4896   -9.5160    8.9696 N   0  0  0  0  0  0  0  0  0  0  0  0
   -9.9495   -8.8389    7.9173 N   0  0  0  0  0  0  0  0  0  0  0  0
  -10.9233   -8.0889    7.4028 C   0  0  0  0  0  0  0  0  0  0  0  0
  -10.9771   -7.1702    6.3613 C   0  0  0  0  0  0  0  0  0  0  0  0
  -12.1315   -6.4956    6.0667 C   0  0  0  0  0  0  0  0  0  0  0  0
  -13.3043   -6.6833    6.7796 C   0  0  0  0  0  0  0  0  0  0  0  0
  -13.2274   -7.5964    7.8053 C   0  0  0  0  0  0  0  0  0  0  0  0
  -12.0774   -8.2975    8.1343 C   0  0  0  0  0  0  0  0  0  0  0  0
  -14.4905   -5.9372    6.4026 C   0  0  0  0  0  0  0  0  0  0  0  0
  -15.4955   -6.5652    5.8240 C   0  0  0  0  0  0  0  0  0  0  0  0
  -15.5526   -8.3081    5.4419 S   0  0  0  0  0  0  0  0  0  0  0  0
  -17.1178   -8.2767    4.5852 C   0  0  0  0  0  0  0  0  0  0  0  0
  -17.6208   -9.2708    4.0026 O   0  0  0  0  0  0  0  0  0  0  0  0
  -17.6002   -6.9604    4.7215 N   0  0  0  0  0  0  0  0  0  0  0  0
  -16.7737   -6.0517    5.3627 C   0  0  0  0  0  0  0  0  0  0  0  0
  -17.0687   -4.8124    5.5653 O   0  0  0  0  0  0  0  0  0  0  0  0
  -18.9378   -6.5994    4.1944 C   0  0  0  0  0  0  0  0  0  0  0  0
  -18.9704   -5.1860    3.8169 C   0  0  0  0  0  0  0  0  0  0  0  0
  -17.9734   -4.6528    3.0211 O   0  0  0  0  0  0  0  0  0  0  0  0
  -19.9043   -4.4553    4.2145 O   0  0  0  0  0  0  0  0  0  0  0  0
  -17.7963   -5.1327    2.1385 H   0  0  0  0  0  0  0  0  0  0  0  0
   -8.5920   -9.0838    7.5602 C   0  0  0  0  0  0  0  0  0  0  0  0
   -7.5725   -8.1028    7.9116 C   0  0  0  0  0  0  0  0  0  0  0  0
   -7.2365   -8.0625    9.3025 C   0  0  0  0  0  0  0  0  0  0  0  0
   -6.3090   -7.1983    9.7737 C   0  0  0  0  0  0  0  0  0  0  0  0
   -5.6468   -6.3242    8.9569 C   0  0  0  0  0  0  0  0  0  0  0  0
   -4.4587   -5.2387    9.6597 Cl  0  0  0  0  0  0  0  0  0  0  0  0
   -5.9413   -6.3344    7.6234 C   0  0  0  0  0  0  0  0  0  0  0  0
   -6.9045   -7.2271    7.1150 C   0  0  0  0  0  0  0  0  0  0  0  0
   -7.1240   -7.1558    5.6444 C   0  0  0  0  0  0  0  0  0  0  0  0
   -8.1577   -6.3678    5.2635 F   0  0  0  0  0  0  0  0  0  0  0  0
   -5.9927   -6.4064    5.1201 F   0  0  0  0  0  0  0  0  0  0  0  0
   -7.0261   -8.3189    4.9793 F   0  0  0  0  0  0  0  0  0  0  0  0
  1  2  1  0  0  0
  2  3  2  0  0  0
  3  4  1  0  0  0
  4 24  1  0  0  0
 24 25  1  0  0  0
 25 26  2  0  0  0
 26 27  1  0  0  0
 27 28  2  0  0  0
 28 29  1  0  0  0
 28 30  1  0  0  0
 30 31  2  0  0  0
 31 32  1  0  0  0
 32 33  1  0  0  0
 32 34  1  0  0  0
 32 35  1  0  0  0
  4  5  1  0  0  0
  5  6  2  0  0  0
  6  7  1  0  0  0
  7  8  2  0  0  0
  8 11  1  0  0  0
 11 12  2  0  0  0
 12 13  1  0  0  0
 13 14  1  0  0  0
 14 15  2  0  0  0
 14 16  1  0  0  0
 16 19  1  0  0  0
 19 20  1  0  0  0
 20 21  1  0  0  0
 20 22  2  0  0  0
 16 17  1  0  0  0
 17 18  2  0  0  0
  8  9  1  0  0  0
  9 10  2  0  0  0
 10  2  1  0  0  0
 31 25  1  0  0  0
 10  5  1  0  0  0
 17 12  1  0  0  0
 21 23  1  0  0  0
M  END
> <minimizedAffinity>
3.24250

> <CNNscore>
0.3350105286

> <CNNaffinity>
6.6296372414

> <CNN_VS>
2.2209982872

> <CNNaffinity_variance>
2.0845966339

$$$$
[H]OC(=O)C([H])([H])N1C(=O)S/C(=C(/[H])c2c([H])c([H])c3c(c(C([H])([H])[H])nn3C([H])([H])c3c([H])c([H])c(Cl)c([H])c3C(F)(F)F)c2[H])C1=O


 35 38  0  0  0  0  0  0  0  0999 V2000
   -8.9290  -11.5844    6.0945 C   0  0  0  0  0  0  0  0  0  0  0  0
   -9.4674  -10.3854    6.7592 C   0  0  0  0  0  0  0  0  0  0  0  0
  -10.6109  -10.2952    7.4249 N   0  0  0  0  0  0  0  0  0  0  0  0
  -10.7919   -9.0350    7.9111 N   0  0  0  0  0  0  0  0  0  0  0  0
   -9.7309   -8.3221    7.5347 C   0  0  0  0  0  0  0  0  0  0  0  0
   -9.3656   -6.9906    7.6929 C   0  0  0  0  0  0  0  0  0  0  0  0
   -8.2054   -6.5024    7.1541 C   0  0  0  0  0  0  0  0  0  0  0  0
   -7.3333   -7.2949    6.4258 C   0  0  0  0  0  0  0  0  0  0  0  0
   -7.7154   -8.6083    6.2821 C   0  0  0  0  0  0  0  0  0  0  0  0
   -8.8819   -9.1386    6.8114 C   0  0  0  0  0  0  0  0  0  0  0  0
   -6.1183   -6.7074    5.8925 C   0  0  0  0  0  0  0  0  0  0  0  0
   -5.1631   -6.3295    6.7195 C   0  0  0  0  0  0  0  0  0  0  0  0
   -5.2093   -6.4721    8.4984 S   0  0  0  0  0  0  0  0  0  0  0  0
   -3.6662   -5.6314    8.8094 C   0  0  0  0  0  0  0  0  0  0  0  0
   -3.2319   -5.3604    9.9578 O   0  0  0  0  0  0  0  0  0  0  0  0
   -3.1104   -5.3739    7.5410 N   0  0  0  0  0  0  0  0  0  0  0  0
   -3.8707   -5.7284    6.4383 C   0  0  0  0  0  0  0  0  0  0  0  0
   -3.5046   -5.5584    5.2132 O   0  0  0  0  0  0  0  0  0  0  0  0
   -1.7686   -4.7541    7.4282 C   0  0  0  0  0  0  0  0  0  0  0  0
   -1.8922   -3.3158    7.1887 C   0  0  0  0  0  0  0  0  0  0  0  0
   -2.0193   -2.8309    5.9001 O   0  0  0  0  0  0  0  0  0  0  0  0
   -1.8839   -2.5197    8.1532 O   0  0  0  0  0  0  0  0  0  0  0  0
   -2.7709   -3.2328    5.3395 H   0  0  0  0  0  0  0  0  0  0  0  0
  -11.9409   -8.7588    8.7072 C   0  0  0  0  0  0  0  0  0  0  0  0
  -13.0907   -8.1008    8.0987 C   0  0  0  0  0  0  0  0  0  0  0  0
  -13.7326   -8.8551    7.0652 C   0  0  0  0  0  0  0  0  0  0  0  0
  -14.8104   -8.3677    6.4095 C   0  0  0  0  0  0  0  0  0  0  0  0
  -15.3421   -7.1405    6.6940 C   0  0  0  0  0  0  0  0  0  0  0  0
  -16.7432   -6.5911    5.7889 Cl  0  0  0  0  0  0  0  0  0  0  0  0
  -14.7558   -6.3925    7.6746 C   0  0  0  0  0  0  0  0  0  0  0  0
  -13.6327   -6.8837    8.3679 C   0  0  0  0  0  0  0  0  0  0  0  0
  -13.0953   -5.9850    9.4257 C   0  0  0  0  0  0  0  0  0  0  0  0
  -13.8570   -4.8952    9.6841 F   0  0  0  0  0  0  0  0  0  0  0  0
  -13.2346   -6.7254   10.6702 F   0  0  0  0  0  0  0  0  0  0  0  0
  -11.7730   -5.7517    9.3816 F   0  0  0  0  0  0  0  0  0  0  0  0
  1  2  1  0  0  0
  2  3  2  0  0  0
  3  4  1  0  0  0
  4 24  1  0  0  0
 24 25  1  0  0  0
 25 26  2  0  0  0
 26 27  1  0  0  0
 27 28  2  0  0  0
 28 29  1  0  0  0
 28 30  1  0  0  0
 30 31  2  0  0  0
 31 32  1  0  0  0
 32 33  1  0  0  0
 32 34  1  0  0  0
 32 35  1  0  0  0
  4  5  1  0  0  0
  5  6  2  0  0  0
  6  7  1  0  0  0
  7  8  2  0  0  0
  8 11  1  0  0  0
 11 12  2  0  0  0
 12 13  1  0  0  0
 13 14  1  0  0  0
 14 15  2  0  0  0
 14 16  1  0  0  0
 16 19  1  0  0  0
 19 20  1  0  0  0
 20 21  1  0  0  0
 20 22  2  0  0  0
 16 17  1  0  0  0
 17 18  2  0  0  0
  8  9  1  0  0  0
  9 10  2  0  0  0
 10  2  1  0  0  0
 31 25  1  0  0  0
 10  5  1  0  0  0
 17 12  1  0  0  0
 21 23  1  0  0  0
M  END
> <minimizedAffinity>
-6.60024

> <CNNscore>
0.2852572203

> <CNNaffinity>
6.7384147644

> <CNN_VS>
1.9221814871

> <CNNaffinity_variance>
0.3111480772

$$$$
[H]Oc1c([H])c([H])c(-c2c([H])oc3c([H])c(O[H])c([H])c(O[H])c3c2=O)c([H])c1[H]


 23 25  0  0  0  0  0  0  0  0999 V2000
   -2.8215   -7.1323    5.6187 C   0  0  0  0  0  0  0  0  0  0  0  0
   -3.8698   -6.6567    6.3764 C   0  0  0  0  0  0  0  0  0  0  0  0
   -4.3106   -5.4132    6.2486 O   0  0  0  0  0  0  0  0  0  0  0  0
   -3.7739   -4.5649    5.3937 C   0  0  0  0  0  0  0  0  0  0  0  0
   -4.2353   -3.2684    5.2621 C   0  0  0  0  0  0  0  0  0  0  0  0
   -3.6934   -2.3591    4.3763 C   0  0  0  0  0  0  0  0  0  0  0  0
   -4.1962   -1.0506    4.2776 O   0  0  0  0  0  0  0  0  0  0  0  0
   -2.6438   -2.7891    3.5980 C   0  0  0  0  0  0  0  0  0  0  0  0
   -2.1548   -4.0748    3.6997 C   0  0  0  0  0  0  0  0  0  0  0  0
   -1.1019   -4.5117    2.9213 O   0  0  0  0  0  0  0  0  0  0  0  0
   -2.7188   -4.9668    4.5983 C   0  0  0  0  0  0  0  0  0  0  0  0
   -2.2411   -6.2668    4.7165 C   0  0  0  0  0  0  0  0  0  0  0  0
   -1.2802   -6.6275    3.9901 O   0  0  0  0  0  0  0  0  0  0  0  0
   -4.9533   -0.8811    3.6040 H   0  0  0  0  0  0  0  0  0  0  0  0
   -0.6848   -3.8701    2.2646 H   0  0  0  0  0  0  0  0  0  0  0  0
   -1.0729  -12.4491    6.3082 O   0  0  0  0  0  0  0  0  0  0  0  0
   -1.5108  -11.1288    6.1262 C   0  0  0  0  0  0  0  0  0  0  0  0
   -1.4037  -10.1932    7.1408 C   0  0  0  0  0  0  0  0  0  0  0  0
   -1.8245   -8.8884    6.9936 C   0  0  0  0  0  0  0  0  0  0  0  0
   -2.3739   -8.4967    5.7905 C   0  0  0  0  0  0  0  0  0  0  0  0
   -2.4885   -9.4266    4.7599 C   0  0  0  0  0  0  0  0  0  0  0  0
   -2.0619  -10.7256    4.9271 C   0  0  0  0  0  0  0  0  0  0  0  0
   -1.6706  -13.1749    6.6584 H   0  0  0  0  0  0  0  0  0  0  0  0
 16 17  1  0  0  0
 17 18  2  0  0  0
 18 19  1  0  0  0
 19 20  2  0  0  0
 20 21  1  0  0  0
 21 22  2  0  0  0
 20  1  1  0  0  0
  1  2  2  0  0  0
  2  3  1  0  0  0
  3  4  1  0  0  0
  4  5  2  0  0  0
  5  6  1  0  0  0
  6  7  1  0  0  0
  6  8  2  0  0  0
  8  9  1  0  0  0
  9 10  1  0  0  0
  9 11  2  0  0  0
 11 12  1  0  0  0
 12 13  2  0  0  0
 22 17  1  0  0  0
 12  1  1  0  0  0
 11  4  1  0  0  0
 16 23  1  0  0  0
  7 14  1  0  0  0
 10 15  1  0  0  0
M  END
> <minimizedAffinity>
-2.29793

> <CNNscore>
0.5015249252

> <CNNaffinity>
4.4527921677

> <CNN_VS>
2.2331862450

> <CNNaffinity_variance>
0.7557956576

$$$$
[H]Oc1c([H])c([H])c(-c2c([H])oc3c([H])c(O[H])c([H])c(O[H])c3c2=O)c([H])c1[H]


 23 25  0  0  0  0  0  0  0  0999 V2000
  -17.2757   -8.2682    5.1130 C   0  0  0  0  0  0  0  0  0  0  0  0
  -16.4317   -8.9727    4.2820 C   0  0  0  0  0  0  0  0  0  0  0  0
  -15.3893   -8.3961    3.7007 O   0  0  0  0  0  0  0  0  0  0  0  0
  -15.1022   -7.1222    3.8835 C   0  0  0  0  0  0  0  0  0  0  0  0
  -14.0144   -6.5230    3.2762 C   0  0  0  0  0  0  0  0  0  0  0  0
  -13.6897   -5.1927    3.4490 C   0  0  0  0  0  0  0  0  0  0  0  0
  -12.5732   -4.6269    2.8104 O   0  0  0  0  0  0  0  0  0  0  0  0
  -14.5044   -4.4487    4.2707 C   0  0  0  0  0  0  0  0  0  0  0  0
  -15.5990   -5.0100    4.8947 C   0  0  0  0  0  0  0  0  0  0  0  0
  -16.4199   -4.2683    5.7203 O   0  0  0  0  0  0  0  0  0  0  0  0
  -15.9011   -6.3490    4.7028 C   0  0  0  0  0  0  0  0  0  0  0  0
  -16.9994   -6.9342    5.3221 C   0  0  0  0  0  0  0  0  0  0  0  0
  -17.7236   -6.2256    6.0669 O   0  0  0  0  0  0  0  0  0  0  0  0
  -11.6749   -4.6549    3.3085 H   0  0  0  0  0  0  0  0  0  0  0  0
  -16.2084   -3.2932    5.8662 H   0  0  0  0  0  0  0  0  0  0  0  0
  -21.6640  -10.8655    7.5211 O   0  0  0  0  0  0  0  0  0  0  0  0
  -20.5724  -10.2268    6.9138 C   0  0  0  0  0  0  0  0  0  0  0  0
  -19.9808   -9.1169    7.4917 C   0  0  0  0  0  0  0  0  0  0  0  0
  -18.9072   -8.4669    6.9204 C   0  0  0  0  0  0  0  0  0  0  0  0
  -18.4007   -8.9381    5.7270 C   0  0  0  0  0  0  0  0  0  0  0  0
  -18.9853  -10.0540    5.1329 C   0  0  0  0  0  0  0  0  0  0  0  0
  -20.0574  -10.6893    5.7200 C   0  0  0  0  0  0  0  0  0  0  0  0
  -22.6154  -10.6093    7.3322 H   0  0  0  0  0  0  0  0  0  0  0  0
 16 17  1  0  0  0
 17 18  2  0  0  0
 18 19  1  0  0  0
 19 20  2  0  0  0
 20 21  1  0  0  0
 21 22  2  0  0  0
 20  1  1  0  0  0
  1  2  2  0  0  0
  2  3  1  0  0  0
  3  4  1  0  0  0
  4  5  2  0  0  0
  5  6  1  0  0  0
  6  7  1  0  0  0
  6  8  2  0  0  0
  8  9  1  0  0  0
  9 10  1  0  0  0
  9 11  2  0  0  0
 11 12  1  0  0  0
 12 13  2  0  0  0
 22 17  1  0  0  0
 12  1  1  0  0  0
 11  4  1  0  0  0
 16 23  1  0  0  0
  7 14  1  0  0  0
 10 15  1  0  0  0
M  END
> <minimizedAffinity>
8.25335

> <CNNscore>
0.4843223393

> <CNNaffinity>
5.7074599266

> <CNN_VS>
2.7642502785

> <CNNaffinity_variance>
2.1976902485

$$$$
[H]Oc1c([H])c([H])c(-c2c([H])oc3c([H])c(O[H])c([H])c(O[H])c3c2=O)c([H])c1[H]


 23 25  0  0  0  0  0  0  0  0999 V2000
  -10.0446   -7.3343    8.1291 C   0  0  0  0  0  0  0  0  0  0  0  0
  -10.6675   -6.2945    8.7847 C   0  0  0  0  0  0  0  0  0  0  0  0
  -11.9688   -6.3125    9.0360 O   0  0  0  0  0  0  0  0  0  0  0  0
  -12.7374   -7.3211    8.6747 C   0  0  0  0  0  0  0  0  0  0  0  0
  -14.0944   -7.3378    8.9378 C   0  0  0  0  0  0  0  0  0  0  0  0
  -14.9229   -8.3792    8.5718 C   0  0  0  0  0  0  0  0  0  0  0  0
  -16.2978   -8.3519    8.8610 O   0  0  0  0  0  0  0  0  0  0  0  0
  -14.3452   -9.4404    7.9142 C   0  0  0  0  0  0  0  0  0  0  0  0
  -12.9950   -9.4613    7.6333 C   0  0  0  0  0  0  0  0  0  0  0  0
  -12.4099  -10.5234    6.9738 O   0  0  0  0  0  0  0  0  0  0  0  0
  -12.1868   -8.4012    8.0130 C   0  0  0  0  0  0  0  0  0  0  0  0
  -10.8240   -8.4023    7.7396 C   0  0  0  0  0  0  0  0  0  0  0  0
  -10.3278   -9.3880    7.1367 O   0  0  0  0  0  0  0  0  0  0  0  0
  -16.6039   -8.7503    9.7573 H   0  0  0  0  0  0  0  0  0  0  0  0
  -12.9896  -11.2995    6.6934 H   0  0  0  0  0  0  0  0  0  0  0  0
   -4.4936   -7.1074    7.1610 O   0  0  0  0  0  0  0  0  0  0  0  0
   -5.8764   -7.1583    7.3924 C   0  0  0  0  0  0  0  0  0  0  0  0
   -6.3900   -7.7607    8.5279 C   0  0  0  0  0  0  0  0  0  0  0  0
   -7.7432   -7.8271    8.7844 C   0  0  0  0  0  0  0  0  0  0  0  0
   -8.6218   -7.2730    7.8768 C   0  0  0  0  0  0  0  0  0  0  0  0
   -8.1203   -6.6632    6.7293 C   0  0  0  0  0  0  0  0  0  0  0  0
   -6.7647   -6.6073    6.4916 C   0  0  0  0  0  0  0  0  0  0  0  0
   -4.0010   -7.8248    6.6617 H   0  0  0  0  0  0  0  0  0  0  0  0
 16 17  1  0  0  0
 17 18  2  0  0  0
 18 19  1  0  0  0
 19 20  2  0  0  0
 20 21  1  0  0  0
 21 22  2  0  0  0
 20  1  1  0  0  0
  1  2  2  0  0  0
  2  3  1  0  0  0
  3  4  1  0  0  0
  4  5  2  0  0  0
  5  6  1  0  0  0
  6  7  1  0  0  0
  6  8  2  0  0  0
  8  9  1  0  0  0
  9 10  1  0  0  0
  9 11  2  0  0  0
 11 12  1  0  0  0
 12 13  2  0  0  0
 22 17  1  0  0  0
 12  1  1  0  0  0
 11  4  1  0  0  0
 16 23  1  0  0  0
  7 14  1  0  0  0
 10 15  1  0  0  0
M  END
> <minimizedAffinity>
-8.29024

> <CNNscore>
0.4131904244

> <CNNaffinity>
5.5025720596

> <CNN_VS>
2.2736101151

> <CNNaffinity_variance>
0.0122825922

$$$$
[H]Oc1c([H])c([H])c(-c2c([H])oc3c([H])c(O[H])c([H])c(O[H])c3c2=O)c([H])c1[H]


 23 25  0  0  0  0  0  0  0  0999 V2000
   -9.7892   -8.5285    7.6241 C   0  0  0  0  0  0  0  0  0  0  0  0
  -10.3742   -9.6758    7.1336 C   0  0  0  0  0  0  0  0  0  0  0  0
  -11.6772   -9.8924    7.2439 O   0  0  0  0  0  0  0  0  0  0  0  0
  -12.4836   -9.0269    7.8262 C   0  0  0  0  0  0  0  0  0  0  0  0
  -13.8424   -9.2550    7.9400 C   0  0  0  0  0  0  0  0  0  0  0  0
  -14.7101   -8.3676    8.5439 C   0  0  0  0  0  0  0  0  0  0  0  0
  -16.0850   -8.6427    8.6364 O   0  0  0  0  0  0  0  0  0  0  0  0
  -14.1711   -7.2071    9.0491 C   0  0  0  0  0  0  0  0  0  0  0  0
  -12.8207   -6.9430    8.9551 C   0  0  0  0  0  0  0  0  0  0  0  0
  -12.2744   -5.7802    9.4602 O   0  0  0  0  0  0  0  0  0  0  0  0
  -11.9726   -7.8525    8.3431 C   0  0  0  0  0  0  0  0  0  0  0  0
  -10.6088   -7.6058    8.2380 C   0  0  0  0  0  0  0  0  0  0  0  0
  -10.1486   -6.5352    8.7105 O   0  0  0  0  0  0  0  0  0  0  0  0
  -16.6871   -8.3242    7.8671 H   0  0  0  0  0  0  0  0  0  0  0  0
  -12.8833   -5.1121    9.9073 H   0  0  0  0  0  0  0  0  0  0  0  0
   -4.2283   -7.7618    7.0852 O   0  0  0  0  0  0  0  0  0  0  0  0
   -5.6122   -7.9563    7.2088 C   0  0  0  0  0  0  0  0  0  0  0  0
   -6.2791   -7.6291    8.3768 C   0  0  0  0  0  0  0  0  0  0  0  0
   -7.6378   -7.8080    8.5299 C   0  0  0  0  0  0  0  0  0  0  0  0
   -8.3634   -8.3330    7.4809 C   0  0  0  0  0  0  0  0  0  0  0  0
   -7.7067   -8.6674    6.2990 C   0  0  0  0  0  0  0  0  0  0  0  0
   -6.3483   -8.4807    6.1661 C   0  0  0  0  0  0  0  0  0  0  0  0
   -3.5579   -8.4657    7.3333 H   0  0  0  0  0  0  0  0  0  0  0  0
 16 17  1  0  0  0
 17 18  2  0  0  0
 18 19  1  0  0  0
 19 20  2  0  0  0
 20 21  1  0  0  0
 21 22  2  0  0  0
 20  1  1  0  0  0
  1  2  2  0  0  0
  2  3  1  0  0  0
  3  4  1  0  0  0
  4  5  2  0  0  0
  5  6  1  0  0  0
  6  7  1  0  0  0
  6  8  2  0  0  0
  8  9  1  0  0  0
  9 10  1  0  0  0
  9 11  2  0  0  0
 11 12  1  0  0  0
 12 13  2  0  0  0
 22 17  1  0  0  0
 12  1  1  0  0  0
 11  4  1  0  0  0
 16 23  1  0  0  0
  7 14  1  0  0  0
 10 15  1  0  0  0
M  END
> <minimizedAffinity>
-8.87826

> <CNNscore>
0.4062570035

> <CNNaffinity>
5.4095029831

> <CNN_VS>
2.1976485252

> <CNNaffinity_variance>
0.0229064375

$$$$
[H]Oc1c([H])c([H])c(-c2c([H])oc3c([H])c(O[H])c([H])c(O[H])c3c2=O)c([H])c1[H]


 23 25  0  0  0  0  0  0  0  0999 V2000
   -7.6537   -7.7691    7.1715 C   0  0  0  0  0  0  0  0  0  0  0  0
   -7.6445   -9.0727    6.7247 C   0  0  0  0  0  0  0  0  0  0  0  0
   -8.7286   -9.8334    6.7805 O   0  0  0  0  0  0  0  0  0  0  0  0
   -9.8715   -9.3883    7.2643 C   0  0  0  0  0  0  0  0  0  0  0  0
  -11.0010  -10.1834    7.3215 C   0  0  0  0  0  0  0  0  0  0  0  0
  -12.2100   -9.7448    7.8222 C   0  0  0  0  0  0  0  0  0  0  0  0
  -13.3320  -10.5900    7.8602 O   0  0  0  0  0  0  0  0  0  0  0  0
  -12.2674   -8.4490    8.2804 C   0  0  0  0  0  0  0  0  0  0  0  0
  -11.1625   -7.6243    8.2404 C   0  0  0  0  0  0  0  0  0  0  0  0
  -11.2143   -6.3232    8.6987 O   0  0  0  0  0  0  0  0  0  0  0  0
   -9.9609   -8.0918    7.7319 C   0  0  0  0  0  0  0  0  0  0  0  0
   -8.8356   -7.2773    7.6825 C   0  0  0  0  0  0  0  0  0  0  0  0
   -8.9223   -6.0978    8.1098 O   0  0  0  0  0  0  0  0  0  0  0  0
  -13.9536  -10.5932    7.0421 H   0  0  0  0  0  0  0  0  0  0  0  0
  -12.0841   -5.9738    9.0705 H   0  0  0  0  0  0  0  0  0  0  0  0
   -2.9551   -4.6687    6.8365 O   0  0  0  0  0  0  0  0  0  0  0  0
   -4.1226   -5.4409    6.9308 C   0  0  0  0  0  0  0  0  0  0  0  0
   -4.8620   -5.7602    5.8051 C   0  0  0  0  0  0  0  0  0  0  0  0
   -6.0133   -6.5168    5.8642 C   0  0  0  0  0  0  0  0  0  0  0  0
   -6.4478   -6.9750    7.0905 C   0  0  0  0  0  0  0  0  0  0  0  0
   -5.7145   -6.6621    8.2327 C   0  0  0  0  0  0  0  0  0  0  0  0
   -4.5667   -5.9047    8.1522 C   0  0  0  0  0  0  0  0  0  0  0  0
   -2.9609   -3.6675    6.9009 H   0  0  0  0  0  0  0  0  0  0  0  0
 16 17  1  0  0  0
 17 18  2  0  0  0
 18 19  1  0  0  0
 19 20  2  0  0  0
 20 21  1  0  0  0
 21 22  2  0  0  0
 20  1  1  0  0  0
  1  2  2  0  0  0
  2  3  1  0  0  0
  3  4  1  0  0  0
  4  5  2  0  0  0
  5  6  1  0  0  0
  6  7  1  0  0  0
  6  8  2  0  0  0
  8  9  1  0  0  0
  9 10  1  0  0  0
  9 11  2  0  0  0
 11 12  1  0  0  0
 12 13  2  0  0  0
 22 17  1  0  0  0
 12  1  1  0  0  0
 11  4  1  0  0  0
 16 23  1  0  0  0
  7 14  1  0  0  0
 10 15  1  0  0  0
M  END
> <minimizedAffinity>
-7.02655

> <CNNscore>
0.4045594335

> <CNNaffinity>
4.9924921989

> <CNN_VS>
2.0197598934

> <CNNaffinity_variance>
0.0263667013

$$$$
[H]Oc1c([H])c([H])c(-c2c([H])oc3c([H])c(O[H])c([H])c(O[H])c3c2=O)c([H])c1[H]


 23 25  0  0  0  0  0  0  0  0999 V2000
   -9.8081   -8.5362    7.6374 C   0  0  0  0  0  0  0  0  0  0  0  0
  -10.4031   -9.6728    7.1340 C   0  0  0  0  0  0  0  0  0  0  0  0
  -11.7085   -9.8776    7.2390 O   0  0  0  0  0  0  0  0  0  0  0  0
  -12.5078   -9.0101    7.8282 C   0  0  0  0  0  0  0  0  0  0  0  0
  -13.8690   -9.2259    7.9366 C   0  0  0  0  0  0  0  0  0  0  0  0
  -14.7293   -8.3362    8.5474 C   0  0  0  0  0  0  0  0  0  0  0  0
  -16.1071   -8.5986    8.6339 O   0  0  0  0  0  0  0  0  0  0  0  0
  -14.1803   -7.1862    9.0656 C   0  0  0  0  0  0  0  0  0  0  0  0
  -12.8270   -6.9345    8.9775 C   0  0  0  0  0  0  0  0  0  0  0  0
  -12.2706   -5.7823    9.4955 O   0  0  0  0  0  0  0  0  0  0  0  0
  -11.9865   -7.8461    8.3582 C   0  0  0  0  0  0  0  0  0  0  0  0
  -10.6200   -7.6118    8.2588 C   0  0  0  0  0  0  0  0  0  0  0  0
  -10.1505   -6.5506    8.7432 O   0  0  0  0  0  0  0  0  0  0  0  0
  -16.7042   -8.2664    7.8665 H   0  0  0  0  0  0  0  0  0  0  0  0
  -12.8739   -5.1128    9.9480 H   0  0  0  0  0  0  0  0  0  0  0  0
   -4.2412   -7.8286    7.0803 O   0  0  0  0  0  0  0  0  0  0  0  0
   -5.6255   -8.0006    7.2292 C   0  0  0  0  0  0  0  0  0  0  0  0
   -6.3917   -8.5480    6.2146 C   0  0  0  0  0  0  0  0  0  0  0  0
   -7.7537   -8.7301    6.3297 C   0  0  0  0  0  0  0  0  0  0  0  0
   -8.3801   -8.3534    7.4995 C   0  0  0  0  0  0  0  0  0  0  0  0
   -7.6228   -7.8011    8.5297 C   0  0  0  0  0  0  0  0  0  0  0  0
   -6.2629   -7.6275    8.3948 C   0  0  0  0  0  0  0  0  0  0  0  0
   -3.8365   -6.9909    6.7048 H   0  0  0  0  0  0  0  0  0  0  0  0
 16 17  1  0  0  0
 17 18  2  0  0  0
 18 19  1  0  0  0
 19 20  2  0  0  0
 20 21  1  0  0  0
 21 22  2  0  0  0
 20  1  1  0  0  0
  1  2  2  0  0  0
  2  3  1  0  0  0
  3  4  1  0  0  0
  4  5  2  0  0  0
  5  6  1  0  0  0
  6  7  1  0  0  0
  6  8  2  0  0  0
  8  9  1  0  0  0
  9 10  1  0  0  0
  9 11  2  0  0  0
 11 12  1  0  0  0
 12 13  2  0  0  0
 22 17  1  0  0  0
 12  1  1  0  0  0
 11  4  1  0  0  0
 16 23  1  0  0  0
  7 14  1  0  0  0
 10 15  1  0  0  0
M  END
> <minimizedAffinity>
-8.88877

> <CNNscore>
0.4035955369

> <CNNaffinity>
5.3996095657

> <CNN_VS>
2.1792583466

> <CNNaffinity_variance>
0.0258778296

$$$$
[H]Oc1c([H])c([H])c(-c2c([H])oc3c([H])c(O[H])c([H])c(O[H])c3c2=O)c([H])c1[H]


 23 25  0  0  0  0  0  0  0  0999 V2000
  -11.1616   -8.6904    7.6058 C   0  0  0  0  0  0  0  0  0  0  0  0
  -10.5929   -9.9286    7.3995 C   0  0  0  0  0  0  0  0  0  0  0  0
   -9.2902  -10.0694    7.1992 O   0  0  0  0  0  0  0  0  0  0  0  0
   -8.4687   -9.0382    7.1860 C   0  0  0  0  0  0  0  0  0  0  0  0
   -7.1103   -9.1875    6.9769 C   0  0  0  0  0  0  0  0  0  0  0  0
   -6.2271   -8.1271    6.9579 C   0  0  0  0  0  0  0  0  0  0  0  0
   -4.8532   -8.3278    6.7414 O   0  0  0  0  0  0  0  0  0  0  0  0
   -6.7495   -6.8706    7.1594 C   0  0  0  0  0  0  0  0  0  0  0  0
   -8.0990   -6.6802    7.3714 C   0  0  0  0  0  0  0  0  0  0  0  0
   -8.6288   -5.4217    7.5742 O   0  0  0  0  0  0  0  0  0  0  0  0
   -8.9629   -7.7640    7.3854 C   0  0  0  0  0  0  0  0  0  0  0  0
  -10.3261   -7.5942    7.5972 C   0  0  0  0  0  0  0  0  0  0  0  0
  -10.7709   -6.4320    7.7779 O   0  0  0  0  0  0  0  0  0  0  0  0
   -4.2596   -8.4863    7.5650 H   0  0  0  0  0  0  0  0  0  0  0  0
   -8.0083   -4.6268    7.5658 H   0  0  0  0  0  0  0  0  0  0  0  0
  -16.7256   -8.2794    8.4274 O   0  0  0  0  0  0  0  0  0  0  0  0
  -15.3397   -8.3795    8.2338 C   0  0  0  0  0  0  0  0  0  0  0  0
  -14.8088   -8.6312    6.9805 C   0  0  0  0  0  0  0  0  0  0  0  0
  -13.4521   -8.7354    6.7572 C   0  0  0  0  0  0  0  0  0  0  0  0
  -12.5877   -8.5834    7.8214 C   0  0  0  0  0  0  0  0  0  0  0  0
  -13.1066   -8.3298    9.0888 C   0  0  0  0  0  0  0  0  0  0  0  0
  -14.4655   -8.2293    9.2908 C   0  0  0  0  0  0  0  0  0  0  0  0
  -17.2999   -9.0707    8.6524 H   0  0  0  0  0  0  0  0  0  0  0  0
 16 17  1  0  0  0
 17 18  2  0  0  0
 18 19  1  0  0  0
 19 20  2  0  0  0
 20 21  1  0  0  0
 21 22  2  0  0  0
 20  1  1  0  0  0
  1  2  2  0  0  0
  2  3  1  0  0  0
  3  4  1  0  0  0
  4  5  2  0  0  0
  5  6  1  0  0  0
  6  7  1  0  0  0
  6  8  2  0  0  0
  8  9  1  0  0  0
  9 10  1  0  0  0
  9 11  2  0  0  0
 11 12  1  0  0  0
 12 13  2  0  0  0
 22 17  1  0  0  0
 12  1  1  0  0  0
 11  4  1  0  0  0
 16 23  1  0  0  0
  7 14  1  0  0  0
 10 15  1  0  0  0
M  END
> <minimizedAffinity>
-8.12526

> <CNNscore>
0.3691632450

> <CNNaffinity>
5.4591207504

> <CNN_VS>
2.0153067112

> <CNNaffinity_variance>
0.0410774015

$$$$
[H]Oc1c([H])c([H])c(-c2c([H])oc3c([H])c(O[H])c([H])c(O[H])c3c2=O)c([H])c1[H]


 23 25  0  0  0  0  0  0  0  0999 V2000
  -11.1592   -8.7043    7.5613 C   0  0  0  0  0  0  0  0  0  0  0  0
  -10.5896   -9.9401    7.3434 C   0  0  0  0  0  0  0  0  0  0  0  0
   -9.2859  -10.0788    7.1480 O   0  0  0  0  0  0  0  0  0  0  0  0
   -8.4642   -9.0476    7.1508 C   0  0  0  0  0  0  0  0  0  0  0  0
   -7.1049   -9.1947    6.9468 C   0  0  0  0  0  0  0  0  0  0  0  0
   -6.2214   -8.1343    6.9446 C   0  0  0  0  0  0  0  0  0  0  0  0
   -4.8465   -8.3326    6.7326 O   0  0  0  0  0  0  0  0  0  0  0  0
   -6.7447   -6.8801    7.1581 C   0  0  0  0  0  0  0  0  0  0  0  0
   -8.0953   -6.6920    7.3656 C   0  0  0  0  0  0  0  0  0  0  0  0
   -8.6259   -5.4359    7.5803 O   0  0  0  0  0  0  0  0  0  0  0  0
   -8.9593   -7.7758    7.3626 C   0  0  0  0  0  0  0  0  0  0  0  0
  -10.3235   -7.6082    7.5696 C   0  0  0  0  0  0  0  0  0  0  0  0
  -10.7691   -6.4481    7.7616 O   0  0  0  0  0  0  0  0  0  0  0  0
   -4.2570   -8.5009    7.5571 H   0  0  0  0  0  0  0  0  0  0  0  0
   -8.0053   -4.6410    7.5843 H   0  0  0  0  0  0  0  0  0  0  0  0
  -16.7208   -8.2908    8.3979 O   0  0  0  0  0  0  0  0  0  0  0  0
  -15.3390   -8.3953    8.1790 C   0  0  0  0  0  0  0  0  0  0  0  0
  -14.4393   -8.2994    9.2266 C   0  0  0  0  0  0  0  0  0  0  0  0
  -13.0760   -8.3978    9.0446 C   0  0  0  0  0  0  0  0  0  0  0  0
  -12.5863   -8.5996    7.7710 C   0  0  0  0  0  0  0  0  0  0  0  0
  -13.4789   -8.6982    6.7063 C   0  0  0  0  0  0  0  0  0  0  0  0
  -14.8376   -8.5972    6.9093 C   0  0  0  0  0  0  0  0  0  0  0  0
  -17.2095   -7.4152    8.3674 H   0  0  0  0  0  0  0  0  0  0  0  0
 16 17  1  0  0  0
 17 18  2  0  0  0
 18 19  1  0  0  0
 19 20  2  0  0  0
 20 21  1  0  0  0
 21 22  2  0  0  0
 20  1  1  0  0  0
  1  2  2  0  0  0
  2  3  1  0  0  0
  3  4  1  0  0  0
  4  5  2  0  0  0
  5  6  1  0  0  0
  6  7  1  0  0  0
  6  8  2  0  0  0
  8  9  1  0  0  0
  9 10  1  0  0  0
  9 11  2  0  0  0
 11 12  1  0  0  0
 12 13  2  0  0  0
 22 17  1  0  0  0
 12  1  1  0  0  0
 11  4  1  0  0  0
 16 23  1  0  0  0
  7 14  1  0  0  0
 10 15  1  0  0  0
M  END
> <minimizedAffinity>
-8.10361

> <CNNscore>
0.3682813942

> <CNNaffinity>
5.4458980560

> <CNN_VS>
2.0056228638

> <CNNaffinity_variance>
0.0375696495

$$$$
[H]Oc1c([H])c([H])c(-c2c([H])oc3c([H])c(O[H])c([H])c(O[H])c3c2=O)c([H])c1[H]


 23 25  0  0  0  0  0  0  0  0999 V2000
   -8.5700   -7.2470    7.6430 C   0  0  0  0  0  0  0  0  0  0  0  0
   -9.3328   -6.2423    8.1976 C   0  0  0  0  0  0  0  0  0  0  0  0
  -10.6272   -6.4030    8.4334 O   0  0  0  0  0  0  0  0  0  0  0  0
  -11.2554   -7.5276    8.1519 C   0  0  0  0  0  0  0  0  0  0  0  0
  -12.6055   -7.6930    8.3987 C   0  0  0  0  0  0  0  0  0  0  0  0
  -13.2890   -8.8579    8.1147 C   0  0  0  0  0  0  0  0  0  0  0  0
  -14.6629   -8.9799    8.3834 O   0  0  0  0  0  0  0  0  0  0  0  0
  -12.5683   -9.8898    7.5594 C   0  0  0  0  0  0  0  0  0  0  0  0
  -11.2199   -9.7638    7.2981 C   0  0  0  0  0  0  0  0  0  0  0  0
  -10.4918  -10.7958    6.7410 O   0  0  0  0  0  0  0  0  0  0  0  0
  -10.5592   -8.5818    7.5938 C   0  0  0  0  0  0  0  0  0  0  0  0
   -9.2009   -8.4341    7.3385 C   0  0  0  0  0  0  0  0  0  0  0  0
   -8.5719   -9.3969    6.8300 O   0  0  0  0  0  0  0  0  0  0  0  0
  -14.9377   -9.3362    9.3071 H   0  0  0  0  0  0  0  0  0  0  0  0
  -10.9635  -11.6598    6.5223 H   0  0  0  0  0  0  0  0  0  0  0  0
   -3.0698   -6.4021    6.7288 O   0  0  0  0  0  0  0  0  0  0  0  0
   -4.4403   -6.6092    6.9458 C   0  0  0  0  0  0  0  0  0  0  0  0
   -4.9146   -7.0267    8.1773 C   0  0  0  0  0  0  0  0  0  0  0  0
   -6.2548   -7.2390    8.4226 C   0  0  0  0  0  0  0  0  0  0  0  0
   -7.1605   -7.0283    7.4039 C   0  0  0  0  0  0  0  0  0  0  0  0
   -6.6988   -6.6081    6.1588 C   0  0  0  0  0  0  0  0  0  0  0  0
   -5.3555   -6.4015    5.9342 C   0  0  0  0  0  0  0  0  0  0  0  0
   -2.4570   -7.1271    6.4042 H   0  0  0  0  0  0  0  0  0  0  0  0
 16 17  1  0  0  0
 17 18  2  0  0  0
 18 19  1  0  0  0
 19 20  2  0  0  0
 20 21  1  0  0  0
 21 22  2  0  0  0
 20  1  1  0  0  0
  1  2  2  0  0  0
  2  3  1  0  0  0
  3  4  1  0  0  0
  4  5  2  0  0  0
  5  6  1  0  0  0
  6  7  1  0  0  0
  6  8  2  0  0  0
  8  9  1  0  0  0
  9 10  1  0  0  0
  9 11  2  0  0  0
 11 12  1  0  0  0
 12 13  2  0  0  0
 22 17  1  0  0  0
 12  1  1  0  0  0
 11  4  1  0  0  0
 16 23  1  0  0  0
  7 14  1  0  0  0
 10 15  1  0  0  0
M  END
> <minimizedAffinity>
-7.19615

> <CNNscore>
0.3670704365

> <CNNaffinity>
5.2116227150

> <CNN_VS>
1.9130326509

> <CNNaffinity_variance>
0.0392518602

$$$$
[H]OC1=NC(=O)C(=C([H])c2c([H])c([H])c(Oc3c([H])c([H])c(C(=O)OC([H])([H])[H])c4c([H])c([H])c([H])c([H])c34)c(OC([H])([H])[H])c2[H])S1


 32 35  0  0  0  0  0  0  0  0999 V2000
  -10.2913   -9.8889    6.6867 C   0  0  0  0  0  0  0  0  0  0  0  0
  -10.8600  -10.7909    5.7985 C   0  0  0  0  0  0  0  0  0  0  0  0
  -10.2796  -11.9959    5.4958 C   0  0  0  0  0  0  0  0  0  0  0  0
   -9.0879  -12.4087    6.0483 C   0  0  0  0  0  0  0  0  0  0  0  0
   -8.5211  -11.4876    6.9457 C   0  0  0  0  0  0  0  0  0  0  0  0
   -9.0828  -10.2865    7.2580 C   0  0  0  0  0  0  0  0  0  0  0  0
   -8.4574  -13.6711    5.7851 C   0  0  0  0  0  0  0  0  0  0  0  0
   -8.0436  -14.0594    4.6243 C   0  0  0  0  0  0  0  0  0  0  0  0
   -7.2299  -15.6766    4.3053 S   0  0  0  0  0  0  0  0  0  0  0  0
   -7.0423  -15.4248    2.5566 C   0  0  0  0  0  0  0  0  0  0  0  0
   -6.4460  -16.3616    1.7017 O   0  0  0  0  0  0  0  0  0  0  0  0
   -7.5309  -14.2990    2.2866 N   0  0  0  0  0  0  0  0  0  0  0  0
   -8.0759  -13.5132    3.2782 C   0  0  0  0  0  0  0  0  0  0  0  0
   -8.5849  -12.3581    2.9995 O   0  0  0  0  0  0  0  0  0  0  0  0
   -6.2688  -16.1528    0.7461 H   0  0  0  0  0  0  0  0  0  0  0  0
   -8.5175   -9.3795    8.1465 O   0  0  0  0  0  0  0  0  0  0  0  0
   -7.2548   -9.7160    8.6972 C   0  0  0  0  0  0  0  0  0  0  0  0
  -10.8870   -8.7233    6.9553 O   0  0  0  0  0  0  0  0  0  0  0  0
  -14.7668   -7.2048    6.9675 C   0  0  0  0  0  0  0  0  0  0  0  0
  -14.2560   -8.0504    5.9647 C   0  0  0  0  0  0  0  0  0  0  0  0
  -12.9946   -8.5092    6.0143 C   0  0  0  0  0  0  0  0  0  0  0  0
  -12.0959   -8.1916    7.0496 C   0  0  0  0  0  0  0  0  0  0  0  0
  -12.5819   -7.3730    8.0266 C   0  0  0  0  0  0  0  0  0  0  0  0
  -11.7472   -7.0239    9.0864 C   0  0  0  0  0  0  0  0  0  0  0  0
  -12.2542   -6.2061   10.0670 C   0  0  0  0  0  0  0  0  0  0  0  0
  -13.5313   -5.7265   10.0440 C   0  0  0  0  0  0  0  0  0  0  0  0
  -14.3724   -6.0612    9.0015 C   0  0  0  0  0  0  0  0  0  0  0  0
  -13.9123   -6.8777    7.9928 C   0  0  0  0  0  0  0  0  0  0  0  0
  -16.1279   -6.7231    6.8152 C   0  0  0  0  0  0  0  0  0  0  0  0
  -16.3963   -5.9416    5.8105 O   0  0  0  0  0  0  0  0  0  0  0  0
  -18.1667   -7.9778    7.4027 C   0  0  0  0  0  0  0  0  0  0  0  0
  -17.2187   -6.9657    7.5939 O   0  0  0  0  0  0  0  0  0  0  0  0
 31 32  1  0  0  0
 32 29  1  0  0  0
 29 30  2  0  0  0
 29 19  1  0  0  0
 19 20  2  0  0  0
 20 21  1  0  0  0
 21 22  2  0  0  0
 22 18  1  0  0  0
 18  1  1  0  0  0
  1  2  2  0  0  0
  2  3  1  0  0  0
  3  4  2  0  0  0
  4  7  1  0  0  0
  7  8  2  0  0  0
  8  9  1  0  0  0
  9 10  1  0  0  0
 10 11  1  0  0  0
 10 12  2  0  0  0
 12 13  1  0  0  0
 13 14  2  0  0  0
  4  5  1  0  0  0
  5  6  2  0  0  0
  6 16  1  0  0  0
 16 17  1  0  0  0
 22 23  1  0  0  0
 23 24  2  0  0  0
 24 25  1  0  0  0
 25 26  2  0  0  0
 26 27  1  0  0  0
 27 28  2  0  0  0
 28 19  1  0  0  0
  6  1  1  0  0  0
 28 23  1  0  0  0
 13  8  1  0  0  0
 11 15  1  0  0  0
M  END
> <minimizedAffinity>
14.15321

> <CNNscore>
0.5034884214

> <CNNaffinity>
6.1762237549

> <CNN_VS>
3.1096570492

> <CNNaffinity_variance>
1.3016501665

$$$$
[H]OC1=NC(=O)C(=C([H])c2c([H])c([H])c(Oc3c([H])c([H])c(C(=O)OC([H])([H])[H])c4c([H])c([H])c([H])c([H])c34)c(OC([H])([H])[H])c2[H])S1


 32 35  0  0  0  0  0  0  0  0999 V2000
  -11.7529   -7.0913    8.5055 C   0  0  0  0  0  0  0  0  0  0  0  0
  -12.4834   -8.1107    7.9113 C   0  0  0  0  0  0  0  0  0  0  0  0
  -13.7621   -7.9313    7.4495 C   0  0  0  0  0  0  0  0  0  0  0  0
  -14.4239   -6.7270    7.5370 C   0  0  0  0  0  0  0  0  0  0  0  0
  -13.6749   -5.7024    8.1405 C   0  0  0  0  0  0  0  0  0  0  0  0
  -12.4043   -5.8622    8.6051 C   0  0  0  0  0  0  0  0  0  0  0  0
  -15.7492   -6.4835    7.0424 C   0  0  0  0  0  0  0  0  0  0  0  0
  -16.7523   -7.2821    7.2011 C   0  0  0  0  0  0  0  0  0  0  0  0
  -18.4465   -6.9515    6.5687 S   0  0  0  0  0  0  0  0  0  0  0  0
  -19.1413   -8.4794    7.1513 C   0  0  0  0  0  0  0  0  0  0  0  0
  -20.4847   -8.8346    6.9704 O   0  0  0  0  0  0  0  0  0  0  0  0
  -18.2190   -9.1169    7.7188 N   0  0  0  0  0  0  0  0  0  0  0  0
  -16.9478   -8.5922    7.7987 C   0  0  0  0  0  0  0  0  0  0  0  0
  -15.9973   -9.2510    8.3763 O   0  0  0  0  0  0  0  0  0  0  0  0
  -20.8665   -9.6509    7.3902 H   0  0  0  0  0  0  0  0  0  0  0  0
  -11.6685   -4.8450    9.2012 O   0  0  0  0  0  0  0  0  0  0  0  0
  -11.1052   -5.1155   10.4740 C   0  0  0  0  0  0  0  0  0  0  0  0
  -10.5089   -7.3055    8.9443 O   0  0  0  0  0  0  0  0  0  0  0  0
   -6.6294   -8.2602    7.7627 C   0  0  0  0  0  0  0  0  0  0  0  0
   -7.2417   -8.7578    8.9284 C   0  0  0  0  0  0  0  0  0  0  0  0
   -8.4974   -8.4138    9.2585 C   0  0  0  0  0  0  0  0  0  0  0  0
   -9.2908   -7.5465    8.4848 C   0  0  0  0  0  0  0  0  0  0  0  0
   -8.7063   -7.0593    7.3526 C   0  0  0  0  0  0  0  0  0  0  0  0
   -9.4385   -6.2002    6.5356 C   0  0  0  0  0  0  0  0  0  0  0  0
   -8.8390   -5.7253    5.3944 C   0  0  0  0  0  0  0  0  0  0  0  0
   -7.5664   -6.0587    5.0328 C   0  0  0  0  0  0  0  0  0  0  0  0
   -6.8256   -6.9081    5.8304 C   0  0  0  0  0  0  0  0  0  0  0  0
   -7.3804   -7.4111    6.9859 C   0  0  0  0  0  0  0  0  0  0  0  0
   -5.2558   -8.6517    7.5023 C   0  0  0  0  0  0  0  0  0  0  0  0
   -5.0390   -9.6073    6.6467 O   0  0  0  0  0  0  0  0  0  0  0  0
   -2.8029   -8.5759    7.7341 C   0  0  0  0  0  0  0  0  0  0  0  0
   -4.1044   -8.1594    8.0379 O   0  0  0  0  0  0  0  0  0  0  0  0
 31 32  1  0  0  0
 32 29  1  0  0  0
 29 30  2  0  0  0
 29 19  1  0  0  0
 19 20  2  0  0  0
 20 21  1  0  0  0
 21 22  2  0  0  0
 22 18  1  0  0  0
 18  1  1  0  0  0
  1  2  2  0  0  0
  2  3  1  0  0  0
  3  4  2  0  0  0
  4  7  1  0  0  0
  7  8  2  0  0  0
  8  9  1  0  0  0
  9 10  1  0  0  0
 10 11  1  0  0  0
 10 12  2  0  0  0
 12 13  1  0  0  0
 13 14  2  0  0  0
  4  5  1  0  0  0
  5  6  2  0  0  0
  6 16  1  0  0  0
 16 17  1  0  0  0
 22 23  1  0  0  0
 23 24  2  0  0  0
 24 25  1  0  0  0
 25 26  2  0  0  0
 26 27  1  0  0  0
 27 28  2  0  0  0
 28 19  1  0  0  0
  6  1  1  0  0  0
 28 23  1  0  0  0
 13  8  1  0  0  0
 11 15  1  0  0  0
M  END
> <minimizedAffinity>
10.11570

> <CNNscore>
0.4794627130

> <CNNaffinity>
6.6498169899

> <CNN_VS>
3.1883392334

> <CNNaffinity_variance>
3.1905767918

$$$$
[H]OC1=NC(=O)C(=C([H])c2c([H])c([H])c(Oc3c([H])c([H])c(C(=O)OC([H])([H])[H])c4c([H])c([H])c([H])c([H])c34)c(OC([H])([H])[H])c2[H])S1


 32 35  0  0  0  0  0  0  0  0999 V2000
   -9.2936   -6.8876    7.1893 C   0  0  0  0  0  0  0  0  0  0  0  0
   -9.3261   -7.3522    8.4966 C   0  0  0  0  0  0  0  0  0  0  0  0
   -8.2293   -7.3218    9.3192 C   0  0  0  0  0  0  0  0  0  0  0  0
   -7.0089   -6.8280    8.9160 C   0  0  0  0  0  0  0  0  0  0  0  0
   -6.9876   -6.3608    7.5907 C   0  0  0  0  0  0  0  0  0  0  0  0
   -8.0665   -6.3833    6.7594 C   0  0  0  0  0  0  0  0  0  0  0  0
   -5.8424   -6.7487    9.7487 C   0  0  0  0  0  0  0  0  0  0  0  0
   -4.7948   -6.0410    9.4824 C   0  0  0  0  0  0  0  0  0  0  0  0
   -3.3115   -5.9434   10.5641 S   0  0  0  0  0  0  0  0  0  0  0  0
   -2.3970   -4.8604    9.4929 C   0  0  0  0  0  0  0  0  0  0  0  0
   -1.1109   -4.3886    9.7881 O   0  0  0  0  0  0  0  0  0  0  0  0
   -3.1165   -4.6341    8.4877 N   0  0  0  0  0  0  0  0  0  0  0  0
   -4.3701   -5.1950    8.3800 C   0  0  0  0  0  0  0  0  0  0  0  0
   -5.1074   -4.9679    7.3427 O   0  0  0  0  0  0  0  0  0  0  0  0
   -0.6637   -3.7092    9.2165 H   0  0  0  0  0  0  0  0  0  0  0  0
   -8.0394   -5.9196    5.4495 O   0  0  0  0  0  0  0  0  0  0  0  0
   -7.0685   -6.4845    4.5841 C   0  0  0  0  0  0  0  0  0  0  0  0
  -10.3837   -6.9351    6.4178 O   0  0  0  0  0  0  0  0  0  0  0  0
  -14.5184   -7.4474    6.4343 C   0  0  0  0  0  0  0  0  0  0  0  0
  -13.8389   -6.5611    5.5775 C   0  0  0  0  0  0  0  0  0  0  0  0
  -12.5020   -6.4383    5.6181 C   0  0  0  0  0  0  0  0  0  0  0  0
  -11.6843   -7.1687    6.5003 C   0  0  0  0  0  0  0  0  0  0  0  0
  -12.3337   -8.0309    7.3345 C   0  0  0  0  0  0  0  0  0  0  0  0
  -11.5840   -8.7915    8.2294 C   0  0  0  0  0  0  0  0  0  0  0  0
  -12.2518   -9.6618    9.0565 C   0  0  0  0  0  0  0  0  0  0  0  0
  -13.6081   -9.8089    9.0364 C   0  0  0  0  0  0  0  0  0  0  0  0
  -14.3673   -9.0630    8.1569 C   0  0  0  0  0  0  0  0  0  0  0  0
  -13.7460   -8.1756    7.3069 C   0  0  0  0  0  0  0  0  0  0  0  0
  -15.9673   -7.4885    6.3513 C   0  0  0  0  0  0  0  0  0  0  0  0
  -16.5679   -8.6127    6.6112 O   0  0  0  0  0  0  0  0  0  0  0  0
  -16.5322   -5.3120    5.3412 C   0  0  0  0  0  0  0  0  0  0  0  0
  -16.8391   -6.4940    6.0255 O   0  0  0  0  0  0  0  0  0  0  0  0
 31 32  1  0  0  0
 32 29  1  0  0  0
 29 30  2  0  0  0
 29 19  1  0  0  0
 19 20  2  0  0  0
 20 21  1  0  0  0
 21 22  2  0  0  0
 22 18  1  0  0  0
 18  1  1  0  0  0
  1  2  2  0  0  0
  2  3  1  0  0  0
  3  4  2  0  0  0
  4  7  1  0  0  0
  7  8  2  0  0  0
  8  9  1  0  0  0
  9 10  1  0  0  0
 10 11  1  0  0  0
 10 12  2  0  0  0
 12 13  1  0  0  0
 13 14  2  0  0  0
  4  5  1  0  0  0
  5  6  2  0  0  0
  6 16  1  0  0  0
 16 17  1  0  0  0
 22 23  1  0  0  0
 23 24  2  0  0  0
 24 25  1  0  0  0
 25 26  2  0  0  0
 26 27  1  0  0  0
 27 28  2  0  0  0
 28 19  1  0  0  0
  6  1  1  0  0  0
 28 23  1  0  0  0
 13  8  1  0  0  0
 11 15  1  0  0  0
M  END
> <minimizedAffinity>
4.19300

> <CNNscore>
0.4617249370

> <CNNaffinity>
6.0510201454

> <CNN_VS>
2.7939069271

> <CNNaffinity_variance>
1.4834791422

$$$$
[H]OC1=NC(=O)C(=C([H])c2c([H])c([H])c(Oc3c([H])c([H])c(C(=O)OC([H])([H])[H])c4c([H])c([H])c([H])c([H])c34)c(OC([H])([H])[H])c2[H])S1


 32 35  0  0  0  0  0  0  0  0999 V2000
  -12.8177   -6.6416    8.4382 C   0  0  0  0  0  0  0  0  0  0  0  0
  -13.6511   -6.0032    9.3457 C   0  0  0  0  0  0  0  0  0  0  0  0
  -13.2466   -5.6697   10.6129 C   0  0  0  0  0  0  0  0  0  0  0  0
  -11.9824   -5.9401   11.0869 C   0  0  0  0  0  0  0  0  0  0  0  0
  -11.1474   -6.5868   10.1597 C   0  0  0  0  0  0  0  0  0  0  0  0
  -11.5320   -6.9258    8.8976 C   0  0  0  0  0  0  0  0  0  0  0  0
  -11.5046   -5.5850   12.3930 C   0  0  0  0  0  0  0  0  0  0  0  0
  -10.2618   -5.5817   12.7463 C   0  0  0  0  0  0  0  0  0  0  0  0
   -9.6652   -5.1158   14.4215 S   0  0  0  0  0  0  0  0  0  0  0  0
   -7.9485   -5.4139   14.0742 C   0  0  0  0  0  0  0  0  0  0  0  0
   -6.9264   -5.2206   15.0132 O   0  0  0  0  0  0  0  0  0  0  0  0
   -7.8712   -5.8077   12.8833 N   0  0  0  0  0  0  0  0  0  0  0  0
   -9.0038   -5.9323   12.1092 C   0  0  0  0  0  0  0  0  0  0  0  0
   -8.9251   -6.3441   10.8864 O   0  0  0  0  0  0  0  0  0  0  0  0
   -5.9682   -5.3035   14.7615 H   0  0  0  0  0  0  0  0  0  0  0  0
  -10.7015   -7.5654    7.9850 O   0  0  0  0  0  0  0  0  0  0  0  0
   -9.5036   -6.8982    7.6236 C   0  0  0  0  0  0  0  0  0  0  0  0
  -13.2490   -6.9513    7.2119 O   0  0  0  0  0  0  0  0  0  0  0  0
  -16.8338   -7.6069    5.1925 C   0  0  0  0  0  0  0  0  0  0  0  0
  -16.2730   -8.5114    6.1139 C   0  0  0  0  0  0  0  0  0  0  0  0
  -15.1123   -8.2453    6.7351 C   0  0  0  0  0  0  0  0  0  0  0  0
  -14.3740   -7.0661    6.5233 C   0  0  0  0  0  0  0  0  0  0  0  0
  -14.9097   -6.1828    5.6323 C   0  0  0  0  0  0  0  0  0  0  0  0
  -14.2340   -4.9905    5.3804 C   0  0  0  0  0  0  0  0  0  0  0  0
  -14.7909   -4.1075    4.4875 C   0  0  0  0  0  0  0  0  0  0  0  0
  -15.9689   -4.3500    3.8432 C   0  0  0  0  0  0  0  0  0  0  0  0
  -16.6520   -5.5263    4.0797 C   0  0  0  0  0  0  0  0  0  0  0  0
  -16.1357   -6.4453    4.9656 C   0  0  0  0  0  0  0  0  0  0  0  0
  -18.0709   -7.9915    4.5371 C   0  0  0  0  0  0  0  0  0  0  0  0
  -18.7623   -8.9671    5.0493 O   0  0  0  0  0  0  0  0  0  0  0  0
  -18.1872   -7.6157    2.1037 C   0  0  0  0  0  0  0  0  0  0  0  0
  -18.6487   -7.4737    3.4176 O   0  0  0  0  0  0  0  0  0  0  0  0
 31 32  1  0  0  0
 32 29  1  0  0  0
 29 30  2  0  0  0
 29 19  1  0  0  0
 19 20  2  0  0  0
 20 21  1  0  0  0
 21 22  2  0  0  0
 22 18  1  0  0  0
 18  1  1  0  0  0
  1  2  2  0  0  0
  2  3  1  0  0  0
  3  4  2  0  0  0
  4  7  1  0  0  0
  7  8  2  0  0  0
  8  9  1  0  0  0
  9 10  1  0  0  0
 10 11  1  0  0  0
 10 12  2  0  0  0
 12 13  1  0  0  0
 13 14  2  0  0  0
  4  5  1  0  0  0
  5  6  2  0  0  0
  6 16  1  0  0  0
 16 17  1  0  0  0
 22 23  1  0  0  0
 23 24  2  0  0  0
 24 25  1  0  0  0
 25 26  2  0  0  0
 26 27  1  0  0  0
 27 28  2  0  0  0
 28 19  1  0  0  0
  6  1  1  0  0  0
 28 23  1  0  0  0
 13  8  1  0  0  0
 11 15  1  0  0  0
M  END
> <minimizedAffinity>
3.31601

> <CNNscore>
0.4300774634

> <CNNaffinity>
6.4621863365

> <CNN_VS>
2.7792406082

> <CNNaffinity_variance>
1.1369967461

$$$$
[H]OC1=NC(=O)C(=C([H])c2c([H])c([H])c(Oc3c([H])c([H])c(C(=O)OC([H])([H])[H])c4c([H])c([H])c([H])c([H])c34)c(OC([H])([H])[H])c2[H])S1


 32 35  0  0  0  0  0  0  0  0999 V2000
  -13.8364   -6.1764    6.4158 C   0  0  0  0  0  0  0  0  0  0  0  0
  -13.0653   -6.3271    5.2719 C   0  0  0  0  0  0  0  0  0  0  0  0
  -11.7465   -6.7008    5.3134 C   0  0  0  0  0  0  0  0  0  0  0  0
  -11.0815   -6.9573    6.4914 C   0  0  0  0  0  0  0  0  0  0  0  0
  -11.8718   -6.8013    7.6430 C   0  0  0  0  0  0  0  0  0  0  0  0
  -13.1824   -6.4307    7.6210 C   0  0  0  0  0  0  0  0  0  0  0  0
   -9.7124   -7.3787    6.5835 C   0  0  0  0  0  0  0  0  0  0  0  0
   -9.1971   -7.9900    7.5985 C   0  0  0  0  0  0  0  0  0  0  0  0
   -7.4430   -8.5309    7.6974 S   0  0  0  0  0  0  0  0  0  0  0  0
   -7.5688   -9.1998    9.3385 C   0  0  0  0  0  0  0  0  0  0  0  0
   -6.4965   -9.8012   10.0109 O   0  0  0  0  0  0  0  0  0  0  0  0
   -8.7512   -9.0215    9.7250 N   0  0  0  0  0  0  0  0  0  0  0  0
   -9.6726   -8.4052    8.9073 C   0  0  0  0  0  0  0  0  0  0  0  0
  -10.8871   -8.2155    9.3074 O   0  0  0  0  0  0  0  0  0  0  0  0
   -6.6212  -10.2511   10.8886 H   0  0  0  0  0  0  0  0  0  0  0  0
  -13.9590   -6.2781    8.7635 O   0  0  0  0  0  0  0  0  0  0  0  0
  -14.3732   -7.4615    9.4260 C   0  0  0  0  0  0  0  0  0  0  0  0
  -15.1188   -5.8095    6.3345 O   0  0  0  0  0  0  0  0  0  0  0  0
  -18.8610   -6.8231    4.8090 C   0  0  0  0  0  0  0  0  0  0  0  0
  -18.5048   -5.5253    5.2217 C   0  0  0  0  0  0  0  0  0  0  0  0
  -17.2810   -5.2582    5.7065 C   0  0  0  0  0  0  0  0  0  0  0  0
  -16.2726   -6.2306    5.8401 C   0  0  0  0  0  0  0  0  0  0  0  0
  -16.6080   -7.4917    5.4422 C   0  0  0  0  0  0  0  0  0  0  0  0
  -15.6540   -8.5025    5.5404 C   0  0  0  0  0  0  0  0  0  0  0  0
  -16.0042   -9.7650    5.1272 C   0  0  0  0  0  0  0  0  0  0  0  0
  -17.2384  -10.0653    4.6292 C   0  0  0  0  0  0  0  0  0  0  0  0
  -18.1967   -9.0767    4.5252 C   0  0  0  0  0  0  0  0  0  0  0  0
  -17.8960   -7.7943    4.9267 C   0  0  0  0  0  0  0  0  0  0  0  0
  -20.2171   -7.0319    4.3346 C   0  0  0  0  0  0  0  0  0  0  0  0
  -20.9802   -5.9911    4.1717 O   0  0  0  0  0  0  0  0  0  0  0  0
  -21.5369   -9.0326    4.9108 C   0  0  0  0  0  0  0  0  0  0  0  0
  -20.8497   -8.1970    4.0224 O   0  0  0  0  0  0  0  0  0  0  0  0
 31 32  1  0  0  0
 32 29  1  0  0  0
 29 30  2  0  0  0
 29 19  1  0  0  0
 19 20  2  0  0  0
 20 21  1  0  0  0
 21 22  2  0  0  0
 22 18  1  0  0  0
 18  1  1  0  0  0
  1  2  2  0  0  0
  2  3  1  0  0  0
  3  4  2  0  0  0
  4  7  1  0  0  0
  7  8  2  0  0  0
  8  9  1  0  0  0
  9 10  1  0  0  0
 10 11  1  0  0  0
 10 12  2  0  0  0
 12 13  1  0  0  0
 13 14  2  0  0  0
  4  5  1  0  0  0
  5  6  2  0  0  0
  6 16  1  0  0  0
 16 17  1  0  0  0
 22 23  1  0  0  0
 23 24  2  0  0  0
 24 25  1  0  0  0
 25 26  2  0  0  0
 26 27  1  0  0  0
 27 28  2  0  0  0
 28 19  1  0  0  0
  6  1  1  0  0  0
 28 23  1  0  0  0
 13  8  1  0  0  0
 11 15  1  0  0  0
M  END
> <minimizedAffinity>
39.46320

> <CNNscore>
0.4246661961

> <CNNaffinity>
6.3154745102

> <CNN_VS>
2.6819684505

> <CNNaffinity_variance>
2.6255521774

$$$$
[H]OC1=NC(=O)C(=C([H])c2c([H])c([H])c(Oc3c([H])c([H])c(C(=O)OC([H])([H])[H])c4c([H])c([H])c([H])c([H])c34)c(OC([H])([H])[H])c2[H])S1


 32 35  0  0  0  0  0  0  0  0999 V2000
  -11.6884   -5.5289   12.5050 C   0  0  0  0  0  0  0  0  0  0  0  0
  -10.7110   -6.2194   13.2076 C   0  0  0  0  0  0  0  0  0  0  0  0
   -9.7686   -5.5873   13.9777 C   0  0  0  0  0  0  0  0  0  0  0  0
   -9.7162   -4.2184   14.1169 C   0  0  0  0  0  0  0  0  0  0  0  0
  -10.7102   -3.5297   13.4009 C   0  0  0  0  0  0  0  0  0  0  0  0
  -11.6536   -4.1404   12.6311 C   0  0  0  0  0  0  0  0  0  0  0  0
   -8.7685   -3.5144   14.9334 C   0  0  0  0  0  0  0  0  0  0  0  0
   -7.4867   -3.6614   14.8662 C   0  0  0  0  0  0  0  0  0  0  0  0
   -6.2854   -2.7453   15.9137 S   0  0  0  0  0  0  0  0  0  0  0  0
   -4.8435   -3.5361   15.2413 C   0  0  0  0  0  0  0  0  0  0  0  0
   -3.5376   -3.2404   15.6551 O   0  0  0  0  0  0  0  0  0  0  0  0
   -5.2373   -4.3579   14.3760 N   0  0  0  0  0  0  0  0  0  0  0  0
   -6.5800   -4.5043   14.1053 C   0  0  0  0  0  0  0  0  0  0  0  0
   -6.9857   -5.3546   13.2202 O   0  0  0  0  0  0  0  0  0  0  0  0
   -2.7470   -3.6288   15.1943 H   0  0  0  0  0  0  0  0  0  0  0  0
  -12.6344   -3.4538   11.9253 O   0  0  0  0  0  0  0  0  0  0  0  0
  -12.5219   -3.4382   10.5119 C   0  0  0  0  0  0  0  0  0  0  0  0
  -12.5893   -6.1808   11.7639 O   0  0  0  0  0  0  0  0  0  0  0  0
  -13.1967   -8.3579    8.2639 C   0  0  0  0  0  0  0  0  0  0  0  0
  -14.1409   -8.2599    9.3034 C   0  0  0  0  0  0  0  0  0  0  0  0
  -13.8884   -7.5422   10.4103 C   0  0  0  0  0  0  0  0  0  0  0  0
  -12.6859   -6.8422   10.6210 C   0  0  0  0  0  0  0  0  0  0  0  0
  -11.7646   -6.9306    9.6188 C   0  0  0  0  0  0  0  0  0  0  0  0
  -10.5538   -6.2555    9.7588 C   0  0  0  0  0  0  0  0  0  0  0  0
   -9.6401   -6.3470    8.7369 C   0  0  0  0  0  0  0  0  0  0  0  0
   -9.8696   -7.0668    7.6008 C   0  0  0  0  0  0  0  0  0  0  0  0
  -11.0633   -7.7428    7.4450 C   0  0  0  0  0  0  0  0  0  0  0  0
  -12.0124   -7.6838    8.4408 C   0  0  0  0  0  0  0  0  0  0  0  0
  -13.5352   -9.1866    7.1209 C   0  0  0  0  0  0  0  0  0  0  0  0
  -13.6818  -10.4655    7.3086 O   0  0  0  0  0  0  0  0  0  0  0  0
  -14.7723   -9.2446    4.9895 C   0  0  0  0  0  0  0  0  0  0  0  0
  -13.7286   -8.8240    5.8223 O   0  0  0  0  0  0  0  0  0  0  0  0
 31 32  1  0  0  0
 32 29  1  0  0  0
 29 30  2  0  0  0
 29 19  1  0  0  0
 19 20  2  0  0  0
 20 21  1  0  0  0
 21 22  2  0  0  0
 22 18  1  0  0  0
 18  1  1  0  0  0
  1  2  2  0  0  0
  2  3  1  0  0  0
  3  4  2  0  0  0
  4  7  1  0  0  0
  7  8  2  0  0  0
  8  9  1  0  0  0
  9 10  1  0  0  0
 10 11  1  0  0  0
 10 12  2  0  0  0
 12 13  1  0  0  0
 13 14  2  0  0  0
  4  5  1  0  0  0
  5  6  2  0  0  0
  6 16  1  0  0  0
 16 17  1  0  0  0
 22 23  1  0  0  0
 23 24  2  0  0  0
 24 25  1  0  0  0
 25 26  2  0  0  0
 26 27  1  0  0  0
 27 28  2  0  0  0
 28 19  1  0  0  0
  6  1  1  0  0  0
 28 23  1  0  0  0
 13  8  1  0  0  0
 11 15  1  0  0  0
M  END
> <minimizedAffinity>
10.51894

> <CNNscore>
0.4170351028

> <CNNaffinity>
5.6757111549

> <CNN_VS>
2.3669707775

> <CNNaffinity_variance>
0.6908429861

$$$$
[H]OC1=NC(=O)C(=C([H])c2c([H])c([H])c(Oc3c([H])c([H])c(C(=O)OC([H])([H])[H])c4c([H])c([H])c([H])c([H])c34)c(OC([H])([H])[H])c2[H])S1


 32 35  0  0  0  0  0  0  0  0999 V2000
  -13.2345   -7.1410    7.5800 C   0  0  0  0  0  0  0  0  0  0  0  0
  -14.0119   -6.5045    8.5372 C   0  0  0  0  0  0  0  0  0  0  0  0
  -13.6614   -6.4577    9.8622 C   0  0  0  0  0  0  0  0  0  0  0  0
  -12.5113   -7.0368   10.3497 C   0  0  0  0  0  0  0  0  0  0  0  0
  -11.7323   -7.6787    9.3718 C   0  0  0  0  0  0  0  0  0  0  0  0
  -12.0646   -7.7355    8.0519 C   0  0  0  0  0  0  0  0  0  0  0  0
  -12.0883   -6.9892   11.7205 C   0  0  0  0  0  0  0  0  0  0  0  0
  -12.5532   -7.7436   12.6608 C   0  0  0  0  0  0  0  0  0  0  0  0
  -11.9946   -7.6760   14.4109 S   0  0  0  0  0  0  0  0  0  0  0  0
  -13.1092   -8.9332   14.9886 C   0  0  0  0  0  0  0  0  0  0  0  0
  -13.1628   -9.3638   16.3211 O   0  0  0  0  0  0  0  0  0  0  0  0
  -13.7850   -9.3160   14.0007 N   0  0  0  0  0  0  0  0  0  0  0  0
  -13.5808   -8.7667   12.7540 C   0  0  0  0  0  0  0  0  0  0  0  0
  -14.2809   -9.1554   11.7392 O   0  0  0  0  0  0  0  0  0  0  0  0
  -13.7281  -10.1343   16.5949 H   0  0  0  0  0  0  0  0  0  0  0  0
  -11.2899   -8.3717    7.0892 O   0  0  0  0  0  0  0  0  0  0  0  0
  -10.0724   -8.9555    7.5221 C   0  0  0  0  0  0  0  0  0  0  0  0
  -13.6104   -7.1661    6.2978 O   0  0  0  0  0  0  0  0  0  0  0  0
  -17.0946   -7.1260    4.0136 C   0  0  0  0  0  0  0  0  0  0  0  0
  -16.6305   -8.2510    4.7211 C   0  0  0  0  0  0  0  0  0  0  0  0
  -15.4980   -8.2041    5.4417 C   0  0  0  0  0  0  0  0  0  0  0  0
  -14.6965   -7.0524    5.5492 C   0  0  0  0  0  0  0  0  0  0  0  0
  -15.1383   -5.9565    4.8674 C   0  0  0  0  0  0  0  0  0  0  0  0
  -14.3962   -4.7791    4.9362 C   0  0  0  0  0  0  0  0  0  0  0  0
  -14.8590   -3.6817    4.2514 C   0  0  0  0  0  0  0  0  0  0  0  0
  -16.0063   -3.6993    3.5132 C   0  0  0  0  0  0  0  0  0  0  0  0
  -16.7541   -4.8572    3.4329 C   0  0  0  0  0  0  0  0  0  0  0  0
  -16.3329   -5.9855    4.1004 C   0  0  0  0  0  0  0  0  0  0  0  0
  -18.3065   -7.2754    3.2283 C   0  0  0  0  0  0  0  0  0  0  0  0
  -19.4475   -7.2926    3.8528 O   0  0  0  0  0  0  0  0  0  0  0  0
  -17.7640   -6.6859    0.8971 C   0  0  0  0  0  0  0  0  0  0  0  0
  -18.4471   -7.4113    1.8803 O   0  0  0  0  0  0  0  0  0  0  0  0
 31 32  1  0  0  0
 32 29  1  0  0  0
 29 30  2  0  0  0
 29 19  1  0  0  0
 19 20  2  0  0  0
 20 21  1  0  0  0
 21 22  2  0  0  0
 22 18  1  0  0  0
 18  1  1  0  0  0
  1  2  2  0  0  0
  2  3  1  0  0  0
  3  4  2  0  0  0
  4  7  1  0  0  0
  7  8  2  0  0  0
  8  9  1  0  0  0
  9 10  1  0  0  0
 10 11  1  0  0  0
 10 12  2  0  0  0
 12 13  1  0  0  0
 13 14  2  0  0  0
  4  5  1  0  0  0
  5  6  2  0  0  0
  6 16  1  0  0  0
 16 17  1  0  0  0
 22 23  1  0  0  0
 23 24  2  0  0  0
 24 25  1  0  0  0
 25 26  2  0  0  0
 26 27  1  0  0  0
 27 28  2  0  0  0
 28 19  1  0  0  0
  6  1  1  0  0  0
 28 23  1  0  0  0
 13  8  1  0  0  0
 11 15  1  0  0  0
M  END
> <minimizedAffinity>
18.77838

> <CNNscore>
0.3926532567

> <CNNaffinity>
6.2777051926

> <CNN_VS>
2.4649612904

> <CNNaffinity_variance>
0.8305698633

$$$$
[H]OC1=NC(=O)C(=C([H])c2c([H])c([H])c(Oc3c([H])c([H])c(C(=O)OC([H])([H])[H])c4c([H])c([H])c([H])c([H])c34)c(OC([H])([H])[H])c2[H])S1


 32 35  0  0  0  0  0  0  0  0999 V2000
  -12.4818   -7.4281    7.3662 C   0  0  0  0  0  0  0  0  0  0  0  0
  -12.9897   -6.5381    8.3021 C   0  0  0  0  0  0  0  0  0  0  0  0
  -12.2887   -6.1591    9.4182 C   0  0  0  0  0  0  0  0  0  0  0  0
  -11.0256   -6.6293    9.7001 C   0  0  0  0  0  0  0  0  0  0  0  0
  -10.5216   -7.5298    8.7460 C   0  0  0  0  0  0  0  0  0  0  0  0
  -11.2034   -7.9178    7.6323 C   0  0  0  0  0  0  0  0  0  0  0  0
  -10.2424   -6.2400   10.8382 C   0  0  0  0  0  0  0  0  0  0  0  0
  -10.7235   -5.7280   11.9224 C   0  0  0  0  0  0  0  0  0  0  0  0
   -9.7073   -5.2424   13.3753 S   0  0  0  0  0  0  0  0  0  0  0  0
  -11.0719   -4.6296   14.3339 C   0  0  0  0  0  0  0  0  0  0  0  0
  -10.9322   -4.0972   15.6226 O   0  0  0  0  0  0  0  0  0  0  0  0
  -12.1101   -4.7738   13.6407 N   0  0  0  0  0  0  0  0  0  0  0  0
  -12.0430   -5.3277   12.3812 C   0  0  0  0  0  0  0  0  0  0  0  0
  -13.1099   -5.4697   11.6652 O   0  0  0  0  0  0  0  0  0  0  0  0
  -11.7240   -3.8512   16.1710 H   0  0  0  0  0  0  0  0  0  0  0  0
  -10.6996   -8.8087    6.6921 O   0  0  0  0  0  0  0  0  0  0  0  0
  -10.4542  -10.1361    7.1264 C   0  0  0  0  0  0  0  0  0  0  0  0
  -13.1963   -7.7741    6.2913 O   0  0  0  0  0  0  0  0  0  0  0  0
  -16.8649   -7.2316    4.3925 C   0  0  0  0  0  0  0  0  0  0  0  0
  -15.6189   -7.0624    3.7598 C   0  0  0  0  0  0  0  0  0  0  0  0
  -14.4672   -7.2514    4.4244 C   0  0  0  0  0  0  0  0  0  0  0  0
  -14.4084   -7.6267    5.7795 C   0  0  0  0  0  0  0  0  0  0  0  0
  -15.6110   -7.7937    6.4014 C   0  0  0  0  0  0  0  0  0  0  0  0
  -15.6263   -8.1724    7.7423 C   0  0  0  0  0  0  0  0  0  0  0  0
  -16.8453   -8.3453    8.3518 C   0  0  0  0  0  0  0  0  0  0  0  0
  -18.0308   -8.1623    7.7018 C   0  0  0  0  0  0  0  0  0  0  0  0
  -18.0351   -7.7863    6.3733 C   0  0  0  0  0  0  0  0  0  0  0  0
  -16.8395   -7.5991    5.7164 C   0  0  0  0  0  0  0  0  0  0  0  0
  -18.0598   -6.9683    3.6110 C   0  0  0  0  0  0  0  0  0  0  0  0
  -18.4186   -7.8449    2.7193 O   0  0  0  0  0  0  0  0  0  0  0  0
  -18.7067   -4.7213    4.3911 C   0  0  0  0  0  0  0  0  0  0  0  0
  -18.9024   -5.8993    3.6607 O   0  0  0  0  0  0  0  0  0  0  0  0
 31 32  1  0  0  0
 32 29  1  0  0  0
 29 30  2  0  0  0
 29 19  1  0  0  0
 19 20  2  0  0  0
 20 21  1  0  0  0
 21 22  2  0  0  0
 22 18  1  0  0  0
 18  1  1  0  0  0
  1  2  2  0  0  0
  2  3  1  0  0  0
  3  4  2  0  0  0
  4  7  1  0  0  0
  7  8  2  0  0  0
  8  9  1  0  0  0
  9 10  1  0  0  0
 10 11  1  0  0  0
 10 12  2  0  0  0
 12 13  1  0  0  0
 13 14  2  0  0  0
  4  5  1  0  0  0
  5  6  2  0  0  0
  6 16  1  0  0  0
 16 17  1  0  0  0
 22 23  1  0  0  0
 23 24  2  0  0  0
 24 25  1  0  0  0
 25 26  2  0  0  0
 26 27  1  0  0  0
 27 28  2  0  0  0
 28 19  1  0  0  0
  6  1  1  0  0  0
 28 23  1  0  0  0
 13  8  1  0  0  0
 11 15  1  0  0  0
M  END
> <minimizedAffinity>
2.67394

> <CNNscore>
0.3849461675

> <CNNaffinity>
6.4705934525

> <CNN_VS>
2.4908301830

> <CNNaffinity_variance>
1.2103111744

$$$$
[H]OC1=NC(=O)C(=C([H])c2c([H])c([H])c(Oc3c([H])c([H])c(C(=O)OC([H])([H])[H])c4c([H])c([H])c([H])c([H])c34)c(OC([H])([H])[H])c2[H])S1


 32 35  0  0  0  0  0  0  0  0999 V2000
  -11.1159   -6.8320    8.6358 C   0  0  0  0  0  0  0  0  0  0  0  0
  -10.2337   -6.1845    9.4892 C   0  0  0  0  0  0  0  0  0  0  0  0
   -8.9089   -6.5269    9.5813 C   0  0  0  0  0  0  0  0  0  0  0  0
   -8.3472   -7.5388    8.8354 C   0  0  0  0  0  0  0  0  0  0  0  0
   -9.2496   -8.1874    7.9752 C   0  0  0  0  0  0  0  0  0  0  0  0
  -10.5682   -7.8613    7.8706 C   0  0  0  0  0  0  0  0  0  0  0  0
   -6.9622   -7.9136    8.8759 C   0  0  0  0  0  0  0  0  0  0  0  0
   -6.0936   -7.6212    7.9652 C   0  0  0  0  0  0  0  0  0  0  0  0
   -4.3206   -8.1016    8.0361 S   0  0  0  0  0  0  0  0  0  0  0  0
   -3.8921   -7.3834    6.4686 C   0  0  0  0  0  0  0  0  0  0  0  0
   -2.5977   -7.4165    5.9327 O   0  0  0  0  0  0  0  0  0  0  0  0
   -4.9388   -6.8785    5.9903 N   0  0  0  0  0  0  0  0  0  0  0  0
   -6.1301   -6.9467    6.6786 C   0  0  0  0  0  0  0  0  0  0  0  0
   -7.2083   -6.4335    6.1836 O   0  0  0  0  0  0  0  0  0  0  0  0
   -2.3681   -6.9239    5.1003 H   0  0  0  0  0  0  0  0  0  0  0  0
  -11.4559   -8.5065    7.0179 O   0  0  0  0  0  0  0  0  0  0  0  0
  -11.8106   -9.8403    7.3434 C   0  0  0  0  0  0  0  0  0  0  0  0
  -12.4008   -6.4700    8.5749 O   0  0  0  0  0  0  0  0  0  0  0  0
  -15.9372   -7.5981    6.6829 C   0  0  0  0  0  0  0  0  0  0  0  0
  -14.9144   -6.8570    6.0616 C   0  0  0  0  0  0  0  0  0  0  0  0
  -13.7947   -6.5218    6.7235 C   0  0  0  0  0  0  0  0  0  0  0  0
  -13.5532   -6.8750    8.0641 C   0  0  0  0  0  0  0  0  0  0  0  0
  -14.5387   -7.5941    8.6748 C   0  0  0  0  0  0  0  0  0  0  0  0
  -14.3617   -7.9836   10.0009 C   0  0  0  0  0  0  0  0  0  0  0  0
  -15.3591   -8.7149   10.5989 C   0  0  0  0  0  0  0  0  0  0  0  0
  -16.5059   -9.0713    9.9513 C   0  0  0  0  0  0  0  0  0  0  0  0
  -16.6989   -8.6936    8.6374 C   0  0  0  0  0  0  0  0  0  0  0  0
  -15.7294   -7.9586    7.9925 C   0  0  0  0  0  0  0  0  0  0  0  0
  -17.1307   -7.8830    5.9068 C   0  0  0  0  0  0  0  0  0  0  0  0
  -18.2881   -7.7551    6.4867 O   0  0  0  0  0  0  0  0  0  0  0  0
  -17.0566   -7.4868    3.4750 C   0  0  0  0  0  0  0  0  0  0  0  0
  -17.2382   -8.2857    4.6101 O   0  0  0  0  0  0  0  0  0  0  0  0
 31 32  1  0  0  0
 32 29  1  0  0  0
 29 30  2  0  0  0
 29 19  1  0  0  0
 19 20  2  0  0  0
 20 21  1  0  0  0
 21 22  2  0  0  0
 22 18  1  0  0  0
 18  1  1  0  0  0
  1  2  2  0  0  0
  2  3  1  0  0  0
  3  4  2  0  0  0
  4  7  1  0  0  0
  7  8  2  0  0  0
  8  9  1  0  0  0
  9 10  1  0  0  0
 10 11  1  0  0  0
 10 12  2  0  0  0
 12 13  1  0  0  0
 13 14  2  0  0  0
  4  5  1  0  0  0
  5  6  2  0  0  0
  6 16  1  0  0  0
 16 17  1  0  0  0
 22 23  1  0  0  0
 23 24  2  0  0  0
 24 25  1  0  0  0
 25 26  2  0  0  0
 26 27  1  0  0  0
 27 28  2  0  0  0
 28 19  1  0  0  0
  6  1  1  0  0  0
 28 23  1  0  0  0
 13  8  1  0  0  0
 11 15  1  0  0  0
M  END
> <minimizedAffinity>
-0.55118

> <CNNscore>
0.3408772051

> <CNNaffinity>
6.1416916847

> <CNN_VS>
2.0935626030

> <CNNaffinity_variance>
0.8022786975

$$$$
[H]/C(=C1/SC(=O)N(C([H])([H])C(=O)N([H])S(=O)(=O)N2C([H])([H])C([H])([H])C([H])([H])C2([H])[H])C1=O)c1c([H])c([H])c2c(c(C([H])([H])[H])nn2C([H])([H])c2c([H])c([H])c(Cl)c([H])c2C(F)(F)F)c1[H]


 43 47  0  0  0  0  0  0  0  0999 V2000
   -9.7009   -7.9742    7.7973 C   0  0  0  0  0  0  0  0  0  0  0  0
  -11.0724   -7.4223    8.0306 C   0  0  0  0  0  0  0  0  0  0  0  0
  -12.1571   -7.4471    7.2732 N   0  0  0  0  0  0  0  0  0  0  0  0
  -13.1774   -6.8498    7.8271 N   0  0  0  0  0  0  0  0  0  0  0  0
  -12.7518   -6.3987    9.0241 C   0  0  0  0  0  0  0  0  0  0  0  0
  -13.3535   -5.7037   10.0522 C   0  0  0  0  0  0  0  0  0  0  0  0
  -12.6442   -5.3723   11.1938 C   0  0  0  0  0  0  0  0  0  0  0  0
  -11.3019   -5.7156   11.3691 C   0  0  0  0  0  0  0  0  0  0  0  0
  -10.7192   -6.4077   10.3332 C   0  0  0  0  0  0  0  0  0  0  0  0
  -11.4257   -6.7368    9.1980 C   0  0  0  0  0  0  0  0  0  0  0  0
  -10.6512   -5.3156   12.5906 C   0  0  0  0  0  0  0  0  0  0  0  0
   -9.3806   -5.5557   12.8240 C   0  0  0  0  0  0  0  0  0  0  0  0
   -8.2083   -6.4027   11.7261 S   0  0  0  0  0  0  0  0  0  0  0  0
   -6.7458   -5.7981   12.5555 C   0  0  0  0  0  0  0  0  0  0  0  0
   -5.6023   -5.7939   12.0618 O   0  0  0  0  0  0  0  0  0  0  0  0
   -7.1945   -5.3603   13.8198 N   0  0  0  0  0  0  0  0  0  0  0  0
   -8.5629   -5.2275   13.9809 C   0  0  0  0  0  0  0  0  0  0  0  0
   -9.1340   -4.8413   15.0656 O   0  0  0  0  0  0  0  0  0  0  0  0
   -6.2222   -5.0643   14.8937 C   0  0  0  0  0  0  0  0  0  0  0  0
   -4.8654   -4.8491   14.3399 C   0  0  0  0  0  0  0  0  0  0  0  0
   -4.0082   -5.7516   14.4622 O   0  0  0  0  0  0  0  0  0  0  0  0
   -4.5211   -3.6518   13.6796 N   0  0  0  0  0  0  0  0  0  0  0  0
   -5.2523   -2.9027   13.5847 H   0  0  0  0  0  0  0  0  0  0  0  0
   -2.9290   -3.4514   13.0533 S   0  0  0  0  0  0  0  0  0  0  0  0
   -2.5520   -2.0041   13.1092 O   0  0  0  0  0  0  0  0  0  0  0  0
   -1.9368   -4.2858   13.8471 O   0  0  0  0  0  0  0  0  0  0  0  0
   -2.8669   -3.9868   11.4205 N   0  0  0  0  0  0  0  0  0  0  0  0
   -1.7666   -4.9112   11.2685 C   0  0  0  0  0  0  0  0  0  0  0  0
   -1.5170   -4.8857    9.7835 C   0  0  0  0  0  0  0  0  0  0  0  0
   -1.7915   -3.4548    9.4133 C   0  0  0  0  0  0  0  0  0  0  0  0
   -2.5764   -2.8623   10.5662 C   0  0  0  0  0  0  0  0  0  0  0  0
  -14.5363   -6.6858    7.2795 C   0  0  0  0  0  0  0  0  0  0  0  0
  -14.6792   -7.4463    6.0258 C   0  0  0  0  0  0  0  0  0  0  0  0
  -14.1575   -8.7149    5.8916 C   0  0  0  0  0  0  0  0  0  0  0  0
  -14.2843   -9.4476    4.7132 C   0  0  0  0  0  0  0  0  0  0  0  0
  -14.9416   -8.9020    3.6573 C   0  0  0  0  0  0  0  0  0  0  0  0
  -15.1609   -9.7353    2.1264 Cl  0  0  0  0  0  0  0  0  0  0  0  0
  -15.4755   -7.6381    3.7546 C   0  0  0  0  0  0  0  0  0  0  0  0
  -15.3411   -6.9085    4.9487 C   0  0  0  0  0  0  0  0  0  0  0  0
  -15.9131   -5.5591    5.0481 C   0  0  0  0  0  0  0  0  0  0  0  0
  -16.3800   -5.0341    3.8795 F   0  0  0  0  0  0  0  0  0  0  0  0
  -15.0476   -4.6776    5.7028 F   0  0  0  0  0  0  0  0  0  0  0  0
  -17.0237   -5.6326    5.9020 F   0  0  0  0  0  0  0  0  0  0  0  0
  1  2  1  0  0  0
  2  3  2  0  0  0
  3  4  1  0  0  0
  4 32  1  0  0  0
 32 33  1  0  0  0
 33 34  2  0  0  0
 34 35  1  0  0  0
 35 36  2  0  0  0
 36 37  1  0  0  0
 36 38  1  0  0  0
 38 39  2  0  0  0
 39 40  1  0  0  0
 40 41  1  0  0  0
 40 42  1  0  0  0
 40 43  1  0  0  0
  4  5  1  0  0  0
  5  6  2  0  0  0
  6  7  1  0  0  0
  7  8  2  0  0  0
  8 11  1  0  0  0
 11 12  2  0  0  0
 12 13  1  0  0  0
 13 14  1  0  0  0
 14 15  2  0  0  0
 14 16  1  0  0  0
 16 19  1  0  0  0
 19 20  1  0  0  0
 20 21  2  0  0  0
 20 22  1  0  0  0
 22 24  1  0  0  0
 24 25  2  0  0  0
 24 26  2  0  0  0
 24 27  1  0  0  0
 27 28  1  0  0  0
 28 29  1  0  0  0
 29 30  1  0  0  0
 30 31  1  0  0  0
 16 17  1  0  0  0
 17 18  2  0  0  0
  8  9  1  0  0  0
  9 10  2  0  0  0
 10  2  1  0  0  0
 39 33  1  0  0  0
 10  5  1  0  0  0
 17 12  1  0  0  0
 31 27  1  0  0  0
 22 23  1  0  0  0
M  END
> <minimizedAffinity>
2.65408

> <CNNscore>
0.4429877400

> <CNNaffinity>
7.1312737465

> <CNN_VS>
3.1590669155

> <CNNaffinity_variance>
0.7293004990

$$$$
[H]/C(=C1/SC(=O)N(C([H])([H])C(=O)N([H])S(=O)(=O)N2C([H])([H])C([H])([H])C([H])([H])C2([H])[H])C1=O)c1c([H])c([H])c2c(c(C([H])([H])[H])nn2C([H])([H])c2c([H])c([H])c(Cl)c([H])c2C(F)(F)F)c1[H]


 43 47  0  0  0  0  0  0  0  0999 V2000
   -9.4480   -7.9662    7.6500 C   0  0  0  0  0  0  0  0  0  0  0  0
  -10.9142   -7.7506    7.8595 C   0  0  0  0  0  0  0  0  0  0  0  0
  -11.9543   -8.0778    7.1100 N   0  0  0  0  0  0  0  0  0  0  0  0
  -13.0933   -7.7161    7.6355 N   0  0  0  0  0  0  0  0  0  0  0  0
  -12.7995   -7.1115    8.8040 C   0  0  0  0  0  0  0  0  0  0  0  0
  -13.5600   -6.5283    9.7958 C   0  0  0  0  0  0  0  0  0  0  0  0
  -12.9615   -5.9740   10.9142 C   0  0  0  0  0  0  0  0  0  0  0  0
  -11.5776   -5.9726   11.1014 C   0  0  0  0  0  0  0  0  0  0  0  0
  -10.8362   -6.5580   10.1018 C   0  0  0  0  0  0  0  0  0  0  0  0
  -11.4325   -7.1090    8.9897 C   0  0  0  0  0  0  0  0  0  0  0  0
  -11.0532   -5.3617   12.2961 C   0  0  0  0  0  0  0  0  0  0  0  0
   -9.8167   -5.5489   12.6994 C   0  0  0  0  0  0  0  0  0  0  0  0
   -8.5462   -6.5660   11.8941 S   0  0  0  0  0  0  0  0  0  0  0  0
   -7.1713   -5.8164   12.7544 C   0  0  0  0  0  0  0  0  0  0  0  0
   -5.9825   -5.8904   12.3899 O   0  0  0  0  0  0  0  0  0  0  0  0
   -7.7443   -5.1684   13.8694 N   0  0  0  0  0  0  0  0  0  0  0  0
   -9.1204   -5.0189   13.8609 C   0  0  0  0  0  0  0  0  0  0  0  0
   -9.7970   -4.4538   14.7961 O   0  0  0  0  0  0  0  0  0  0  0  0
   -6.8859   -4.6835   14.9714 C   0  0  0  0  0  0  0  0  0  0  0  0
   -5.4545   -4.7339   14.5938 C   0  0  0  0  0  0  0  0  0  0  0  0
   -4.7551   -5.6932   14.9874 O   0  0  0  0  0  0  0  0  0  0  0  0
   -4.8659   -3.7264   13.8024 N   0  0  0  0  0  0  0  0  0  0  0  0
   -5.4666   -2.9267   13.4793 H   0  0  0  0  0  0  0  0  0  0  0  0
   -3.1965   -3.8322   13.3910 S   0  0  0  0  0  0  0  0  0  0  0  0
   -2.8855   -2.8366   12.3177 O   0  0  0  0  0  0  0  0  0  0  0  0
   -2.3307   -3.5769   14.6140 O   0  0  0  0  0  0  0  0  0  0  0  0
   -2.8304   -5.4114   12.8175 N   0  0  0  0  0  0  0  0  0  0  0  0
   -1.8455   -6.0128   13.6873 C   0  0  0  0  0  0  0  0  0  0  0  0
   -1.2636   -7.1010   12.8239 C   0  0  0  0  0  0  0  0  0  0  0  0
   -1.2702   -6.4904   11.4502 C   0  0  0  0  0  0  0  0  0  0  0  0
   -2.2184   -5.3103   11.5160 C   0  0  0  0  0  0  0  0  0  0  0  0
  -14.4469   -7.9154    7.0864 C   0  0  0  0  0  0  0  0  0  0  0  0
  -14.7811   -6.8355    6.1416 C   0  0  0  0  0  0  0  0  0  0  0  0
  -13.8196   -5.9643    5.6768 C   0  0  0  0  0  0  0  0  0  0  0  0
  -14.1191   -4.9381    4.7829 C   0  0  0  0  0  0  0  0  0  0  0  0
  -15.3973   -4.7838    4.3503 C   0  0  0  0  0  0  0  0  0  0  0  0
  -15.8861   -3.5268    3.2246 Cl  0  0  0  0  0  0  0  0  0  0  0  0
  -16.3834   -5.6345    4.7926 C   0  0  0  0  0  0  0  0  0  0  0  0
  -16.0692   -6.6660    5.6945 C   0  0  0  0  0  0  0  0  0  0  0  0
  -17.1257   -7.5724    6.1641 C   0  0  0  0  0  0  0  0  0  0  0  0
  -17.3182   -7.5968    7.5137 F   0  0  0  0  0  0  0  0  0  0  0  0
  -16.9741   -8.8592    5.6389 F   0  0  0  0  0  0  0  0  0  0  0  0
  -18.3381   -7.1284    5.6155 F   0  0  0  0  0  0  0  0  0  0  0  0
  1  2  1  0  0  0
  2  3  2  0  0  0
  3  4  1  0  0  0
  4 32  1  0  0  0
 32 33  1  0  0  0
 33 34  2  0  0  0
 34 35  1  0  0  0
 35 36  2  0  0  0
 36 37  1  0  0  0
 36 38  1  0  0  0
 38 39  2  0  0  0
 39 40  1  0  0  0
 40 41  1  0  0  0
 40 42  1  0  0  0
 40 43  1  0  0  0
  4  5  1  0  0  0
  5  6  2  0  0  0
  6  7  1  0  0  0
  7  8  2  0  0  0
  8 11  1  0  0  0
 11 12  2  0  0  0
 12 13  1  0  0  0
 13 14  1  0  0  0
 14 15  2  0  0  0
 14 16  1  0  0  0
 16 19  1  0  0  0
 19 20  1  0  0  0
 20 21  2  0  0  0
 20 22  1  0  0  0
 22 24  1  0  0  0
 24 25  2  0  0  0
 24 26  2  0  0  0
 24 27  1  0  0  0
 27 28  1  0  0  0
 28 29  1  0  0  0
 29 30  1  0  0  0
 30 31  1  0  0  0
 16 17  1  0  0  0
 17 18  2  0  0  0
  8  9  1  0  0  0
  9 10  2  0  0  0
 10  2  1  0  0  0
 39 33  1  0  0  0
 10  5  1  0  0  0
 17 12  1  0  0  0
 31 27  1  0  0  0
 22 23  1  0  0  0
M  END
> <minimizedAffinity>
2.45659

> <CNNscore>
0.3582340777

> <CNNaffinity>
7.0017251968

> <CNN_VS>
2.5082566738

> <CNNaffinity_variance>
0.8431396484

$$$$
[H]/C(=C1/SC(=O)N(C([H])([H])C(=O)N([H])S(=O)(=O)N2C([H])([H])C([H])([H])C([H])([H])C2([H])[H])C1=O)c1c([H])c([H])c2c(c(C([H])([H])[H])nn2C([H])([H])c2c([H])c([H])c(Cl)c([H])c2C(F)(F)F)c1[H]


 43 47  0  0  0  0  0  0  0  0999 V2000
  -11.5712   -9.4549    8.6208 C   0  0  0  0  0  0  0  0  0  0  0  0
  -12.3427   -8.1939    8.3860 C   0  0  0  0  0  0  0  0  0  0  0  0
  -13.1404   -7.8381    7.3921 N   0  0  0  0  0  0  0  0  0  0  0  0
  -13.6382   -6.6408    7.5438 N   0  0  0  0  0  0  0  0  0  0  0  0
  -13.1455   -6.1671    8.7057 C   0  0  0  0  0  0  0  0  0  0  0  0
  -13.2998   -4.9838    9.3973 C   0  0  0  0  0  0  0  0  0  0  0  0
  -12.6502   -4.7773   10.6021 C   0  0  0  0  0  0  0  0  0  0  0  0
  -11.8154   -5.7371   11.1784 C   0  0  0  0  0  0  0  0  0  0  0  0
  -11.6735   -6.9099   10.4740 C   0  0  0  0  0  0  0  0  0  0  0  0
  -12.3201   -7.1142    9.2756 C   0  0  0  0  0  0  0  0  0  0  0  0
  -11.1782   -5.4208   12.4311 C   0  0  0  0  0  0  0  0  0  0  0  0
   -9.9096   -5.6747   12.6609 C   0  0  0  0  0  0  0  0  0  0  0  0
   -8.7243   -6.4431   11.5200 S   0  0  0  0  0  0  0  0  0  0  0  0
   -7.2717   -5.8949   12.4042 C   0  0  0  0  0  0  0  0  0  0  0  0
   -6.1231   -5.8555   11.9241 O   0  0  0  0  0  0  0  0  0  0  0  0
   -7.7345   -5.5452   13.6907 N   0  0  0  0  0  0  0  0  0  0  0  0
   -9.1047   -5.4255   13.8462 C   0  0  0  0  0  0  0  0  0  0  0  0
   -9.6878   -5.1152   14.9487 O   0  0  0  0  0  0  0  0  0  0  0  0
   -6.7740   -5.3222   14.7926 C   0  0  0  0  0  0  0  0  0  0  0  0
   -5.3911   -5.1964   14.2770 C   0  0  0  0  0  0  0  0  0  0  0  0
   -4.5515   -6.0770   14.5665 O   0  0  0  0  0  0  0  0  0  0  0  0
   -5.0028   -4.1080   13.4691 N   0  0  0  0  0  0  0  0  0  0  0  0
   -5.7197   -3.3761   13.2345 H   0  0  0  0  0  0  0  0  0  0  0  0
   -3.3818   -4.0086   12.8949 S   0  0  0  0  0  0  0  0  0  0  0  0
   -2.9058   -5.3750   12.5125 O   0  0  0  0  0  0  0  0  0  0  0  0
   -3.2968   -3.0681   11.7038 O   0  0  0  0  0  0  0  0  0  0  0  0
   -2.3587   -3.3799   14.1256 N   0  0  0  0  0  0  0  0  0  0  0  0
   -3.1628   -2.6561   15.0837 C   0  0  0  0  0  0  0  0  0  0  0  0
   -2.1506   -1.7706   15.7616 C   0  0  0  0  0  0  0  0  0  0  0  0
   -1.2052   -1.4141   14.6485 C   0  0  0  0  0  0  0  0  0  0  0  0
   -1.4549   -2.4197   13.5428 C   0  0  0  0  0  0  0  0  0  0  0  0
  -14.5585   -5.9230    6.6431 C   0  0  0  0  0  0  0  0  0  0  0  0
  -15.7392   -6.7534    6.3484 C   0  0  0  0  0  0  0  0  0  0  0  0
  -16.2528   -7.6289    7.2807 C   0  0  0  0  0  0  0  0  0  0  0  0
  -17.3687   -8.4208    7.0179 C   0  0  0  0  0  0  0  0  0  0  0  0
  -17.9765   -8.3339    5.8064 C   0  0  0  0  0  0  0  0  0  0  0  0
  -19.3883   -9.2835    5.3687 Cl  0  0  0  0  0  0  0  0  0  0  0  0
  -17.4920   -7.4712    4.8511 C   0  0  0  0  0  0  0  0  0  0  0  0
  -16.3654   -6.6772    5.1278 C   0  0  0  0  0  0  0  0  0  0  0  0
  -15.8515   -5.7570    4.1045 C   0  0  0  0  0  0  0  0  0  0  0  0
  -14.5478   -5.9436    3.7516 F   0  0  0  0  0  0  0  0  0  0  0  0
  -16.1143   -4.4229    4.4300 F   0  0  0  0  0  0  0  0  0  0  0  0
  -16.5957   -5.9680    2.9342 F   0  0  0  0  0  0  0  0  0  0  0  0
  1  2  1  0  0  0
  2  3  2  0  0  0
  3  4  1  0  0  0
  4 32  1  0  0  0
 32 33  1  0  0  0
 33 34  2  0  0  0
 34 35  1  0  0  0
 35 36  2  0  0  0
 36 37  1  0  0  0
 36 38  1  0  0  0
 38 39  2  0  0  0
 39 40  1  0  0  0
 40 41  1  0  0  0
 40 42  1  0  0  0
 40 43  1  0  0  0
  4  5  1  0  0  0
  5  6  2  0  0  0
  6  7  1  0  0  0
  7  8  2  0  0  0
  8 11  1  0  0  0
 11 12  2  0  0  0
 12 13  1  0  0  0
 13 14  1  0  0  0
 14 15  2  0  0  0
 14 16  1  0  0  0
 16 19  1  0  0  0
 19 20  1  0  0  0
 20 21  2  0  0  0
 20 22  1  0  0  0
 22 24  1  0  0  0
 24 25  2  0  0  0
 24 26  2  0  0  0
 24 27  1  0  0  0
 27 28  1  0  0  0
 28 29  1  0  0  0
 29 30  1  0  0  0
 30 31  1  0  0  0
 16 17  1  0  0  0
 17 18  2  0  0  0
  8  9  1  0  0  0
  9 10  2  0  0  0
 10  2  1  0  0  0
 39 33  1  0  0  0
 10  5  1  0  0  0
 17 12  1  0  0  0
 31 27  1  0  0  0
 22 23  1  0  0  0
M  END
> <minimizedAffinity>
4.68656

> <CNNscore>
0.3306090832

> <CNNaffinity>
6.8282270432

> <CNN_VS>
2.2574739456

> <CNNaffinity_variance>
0.8533137441

$$$$
[H]/C(=C1/SC(=O)N(C([H])([H])C(=O)N([H])S(=O)(=O)N2C([H])([H])C([H])([H])C([H])([H])C2([H])[H])C1=O)c1c([H])c([H])c2c(c(C([H])([H])[H])nn2C([H])([H])c2c([H])c([H])c(Cl)c([H])c2C(F)(F)F)c1[H]


 43 47  0  0  0  0  0  0  0  0999 V2000
   -8.9269  -11.5829    6.0153 C   0  0  0  0  0  0  0  0  0  0  0  0
   -9.5159  -10.4143    6.7418 C   0  0  0  0  0  0  0  0  0  0  0  0
  -10.6315  -10.3033    7.4445 N   0  0  0  0  0  0  0  0  0  0  0  0
  -10.8073   -9.1054    7.9330 N   0  0  0  0  0  0  0  0  0  0  0  0
   -9.7489   -8.3717    7.5346 C   0  0  0  0  0  0  0  0  0  0  0  0
   -9.3683   -7.0603    7.7278 C   0  0  0  0  0  0  0  0  0  0  0  0
   -8.1923   -6.5759    7.1813 C   0  0  0  0  0  0  0  0  0  0  0  0
   -7.3371   -7.3716    6.4160 C   0  0  0  0  0  0  0  0  0  0  0  0
   -7.7337   -8.6759    6.2338 C   0  0  0  0  0  0  0  0  0  0  0  0
   -8.9037   -9.1567    6.7778 C   0  0  0  0  0  0  0  0  0  0  0  0
   -6.1414   -6.7693    5.8841 C   0  0  0  0  0  0  0  0  0  0  0  0
   -5.2168   -6.2393    6.6528 C   0  0  0  0  0  0  0  0  0  0  0  0
   -5.2257   -6.1432    8.4660 S   0  0  0  0  0  0  0  0  0  0  0  0
   -3.4749   -5.8207    8.6183 C   0  0  0  0  0  0  0  0  0  0  0  0
   -2.8164   -5.9661    9.6655 O   0  0  0  0  0  0  0  0  0  0  0  0
   -3.0673   -5.3911    7.3374 N   0  0  0  0  0  0  0  0  0  0  0  0
   -3.9595   -5.5995    6.2998 C   0  0  0  0  0  0  0  0  0  0  0  0
   -3.7441   -5.2680    5.0769 O   0  0  0  0  0  0  0  0  0  0  0  0
   -1.7446   -4.7573    7.1503 C   0  0  0  0  0  0  0  0  0  0  0  0
   -1.8632   -3.2818    7.0979 C   0  0  0  0  0  0  0  0  0  0  0  0
   -1.8079   -2.7061    5.9889 O   0  0  0  0  0  0  0  0  0  0  0  0
   -2.0366   -2.5151    8.2684 N   0  0  0  0  0  0  0  0  0  0  0  0
   -2.0811   -3.0132    9.1928 H   0  0  0  0  0  0  0  0  0  0  0  0
   -2.1693   -0.8015    8.1528 S   0  0  0  0  0  0  0  0  0  0  0  0
   -1.0656   -0.2751    7.2899 O   0  0  0  0  0  0  0  0  0  0  0  0
   -3.5208   -0.4109    7.5769 O   0  0  0  0  0  0  0  0  0  0  0  0
   -2.0481   -0.0948    9.7156 N   0  0  0  0  0  0  0  0  0  0  0  0
   -2.2612   -1.1176   10.7139 C   0  0  0  0  0  0  0  0  0  0  0  0
   -2.6344   -0.3160   11.9331 C   0  0  0  0  0  0  0  0  0  0  0  0
   -3.4277    0.8269   11.3635 C   0  0  0  0  0  0  0  0  0  0  0  0
   -3.1099    0.8661    9.8824 C   0  0  0  0  0  0  0  0  0  0  0  0
  -11.9278   -8.6210    8.7596 C   0  0  0  0  0  0  0  0  0  0  0  0
  -12.9546   -7.9898    7.9125 C   0  0  0  0  0  0  0  0  0  0  0  0
  -13.3259   -8.5387    6.7040 C   0  0  0  0  0  0  0  0  0  0  0  0
  -14.2954   -7.9546    5.8913 C   0  0  0  0  0  0  0  0  0  0  0  0
  -14.8994   -6.8070    6.2949 C   0  0  0  0  0  0  0  0  0  0  0  0
  -16.1335   -5.9867    5.3514 Cl  0  0  0  0  0  0  0  0  0  0  0  0
  -14.5544   -6.2304    7.4951 C   0  0  0  0  0  0  0  0  0  0  0  0
  -13.5749   -6.8289    8.3064 C   0  0  0  0  0  0  0  0  0  0  0  0
  -13.2098   -6.2096    9.5876 C   0  0  0  0  0  0  0  0  0  0  0  0
  -11.8763   -5.9958    9.7750 F   0  0  0  0  0  0  0  0  0  0  0  0
  -13.7836   -6.8836   10.6698 F   0  0  0  0  0  0  0  0  0  0  0  0
  -13.8074   -4.9411    9.6293 F   0  0  0  0  0  0  0  0  0  0  0  0
  1  2  1  0  0  0
  2  3  2  0  0  0
  3  4  1  0  0  0
  4 32  1  0  0  0
 32 33  1  0  0  0
 33 34  2  0  0  0
 34 35  1  0  0  0
 35 36  2  0  0  0
 36 37  1  0  0  0
 36 38  1  0  0  0
 38 39  2  0  0  0
 39 40  1  0  0  0
 40 41  1  0  0  0
 40 42  1  0  0  0
 40 43  1  0  0  0
  4  5  1  0  0  0
  5  6  2  0  0  0
  6  7  1  0  0  0
  7  8  2  0  0  0
  8 11  1  0  0  0
 11 12  2  0  0  0
 12 13  1  0  0  0
 13 14  1  0  0  0
 14 15  2  0  0  0
 14 16  1  0  0  0
 16 19  1  0  0  0
 19 20  1  0  0  0
 20 21  2  0  0  0
 20 22  1  0  0  0
 22 24  1  0  0  0
 24 25  2  0  0  0
 24 26  2  0  0  0
 24 27  1  0  0  0
 27 28  1  0  0  0
 28 29  1  0  0  0
 29 30  1  0  0  0
 30 31  1  0  0  0
 16 17  1  0  0  0
 17 18  2  0  0  0
  8  9  1  0  0  0
  9 10  2  0  0  0
 10  2  1  0  0  0
 39 33  1  0  0  0
 10  5  1  0  0  0
 17 12  1  0  0  0
 31 27  1  0  0  0
 22 23  1  0  0  0
M  END
> <minimizedAffinity>
-6.98772

> <CNNscore>
0.3109268844

> <CNNaffinity>
7.1619186401

> <CNN_VS>
2.2268331051

> <CNNaffinity_variance>
0.4137818217

$$$$
[H]/C(=C1/SC(=O)N(C([H])([H])C(=O)N([H])S(=O)(=O)N2C([H])([H])C([H])([H])C([H])([H])C2([H])[H])C1=O)c1c([H])c([H])c2c(c(C([H])([H])[H])nn2C([H])([H])c2c([H])c([H])c(Cl)c([H])c2C(F)(F)F)c1[H]


 43 47  0  0  0  0  0  0  0  0999 V2000
   -9.1231   -6.9584    7.8332 C   0  0  0  0  0  0  0  0  0  0  0  0
  -10.4847   -6.8974    8.4518 C   0  0  0  0  0  0  0  0  0  0  0  0
  -11.6789   -7.1602    7.9463 N   0  0  0  0  0  0  0  0  0  0  0  0
  -12.6444   -6.9889    8.8083 N   0  0  0  0  0  0  0  0  0  0  0  0
  -12.0638   -6.5880    9.9570 C   0  0  0  0  0  0  0  0  0  0  0  0
  -12.5454   -6.2561   11.2059 C   0  0  0  0  0  0  0  0  0  0  0  0
  -11.6835   -5.8721   12.2188 C   0  0  0  0  0  0  0  0  0  0  0  0
  -10.3005   -5.7993   12.0394 C   0  0  0  0  0  0  0  0  0  0  0  0
   -9.8392   -6.1334   10.7875 C   0  0  0  0  0  0  0  0  0  0  0  0
  -10.6974   -6.5151    9.7807 C   0  0  0  0  0  0  0  0  0  0  0  0
   -9.4909   -5.3794   13.1547 C   0  0  0  0  0  0  0  0  0  0  0  0
   -8.1883   -5.5493   13.1840 C   0  0  0  0  0  0  0  0  0  0  0  0
   -7.1561   -6.3125   11.8997 S   0  0  0  0  0  0  0  0  0  0  0  0
   -5.6178   -5.6364   12.5072 C   0  0  0  0  0  0  0  0  0  0  0  0
   -4.5667   -5.5599   11.8433 O   0  0  0  0  0  0  0  0  0  0  0  0
   -5.8881   -5.2426   13.8350 N   0  0  0  0  0  0  0  0  0  0  0  0
   -7.2201   -5.1907   14.2081 C   0  0  0  0  0  0  0  0  0  0  0  0
   -7.6362   -4.8529   15.3763 O   0  0  0  0  0  0  0  0  0  0  0  0
   -4.7786   -4.9061   14.7526 C   0  0  0  0  0  0  0  0  0  0  0  0
   -3.5634   -4.5179   13.9998 C   0  0  0  0  0  0  0  0  0  0  0  0
   -2.7409   -5.4022   13.6747 O   0  0  0  0  0  0  0  0  0  0  0  0
   -3.3155   -3.1765   13.6432 N   0  0  0  0  0  0  0  0  0  0  0  0
   -4.0160   -2.4448   13.9235 H   0  0  0  0  0  0  0  0  0  0  0  0
   -1.8868   -2.7778   12.7673 S   0  0  0  0  0  0  0  0  0  0  0  0
   -1.0638   -1.8190   13.5695 O   0  0  0  0  0  0  0  0  0  0  0  0
   -1.0847   -4.0319   12.4596 O   0  0  0  0  0  0  0  0  0  0  0  0
   -2.3007   -2.0463   11.2672 N   0  0  0  0  0  0  0  0  0  0  0  0
   -2.5493   -0.6389   11.4811 C   0  0  0  0  0  0  0  0  0  0  0  0
   -3.3651   -0.2606   10.2731 C   0  0  0  0  0  0  0  0  0  0  0  0
   -4.2013   -1.4853   10.0257 C   0  0  0  0  0  0  0  0  0  0  0  0
   -3.5389   -2.6120   10.7924 C   0  0  0  0  0  0  0  0  0  0  0  0
  -14.0901   -7.1870    8.5985 C   0  0  0  0  0  0  0  0  0  0  0  0
  -14.3542   -7.6066    7.2111 C   0  0  0  0  0  0  0  0  0  0  0  0
  -14.8131   -6.7148    6.2658 C   0  0  0  0  0  0  0  0  0  0  0  0
  -15.0674   -7.0954    4.9497 C   0  0  0  0  0  0  0  0  0  0  0  0
  -14.8592   -8.3848    4.5773 C   0  0  0  0  0  0  0  0  0  0  0  0
  -15.1455   -8.9729    2.9468 Cl  0  0  0  0  0  0  0  0  0  0  0  0
  -14.4016   -9.3028    5.4936 C   0  0  0  0  0  0  0  0  0  0  0  0
  -14.1487   -8.9071    6.8186 C   0  0  0  0  0  0  0  0  0  0  0  0
  -13.6599   -9.8910    7.7938 C   0  0  0  0  0  0  0  0  0  0  0  0
  -14.3822  -11.0447    7.8730 F   0  0  0  0  0  0  0  0  0  0  0  0
  -13.4615   -9.3165    9.0529 F   0  0  0  0  0  0  0  0  0  0  0  0
  -12.3711  -10.2764    7.3957 F   0  0  0  0  0  0  0  0  0  0  0  0
  1  2  1  0  0  0
  2  3  2  0  0  0
  3  4  1  0  0  0
  4 32  1  0  0  0
 32 33  1  0  0  0
 33 34  2  0  0  0
 34 35  1  0  0  0
 35 36  2  0  0  0
 36 37  1  0  0  0
 36 38  1  0  0  0
 38 39  2  0  0  0
 39 40  1  0  0  0
 40 41  1  0  0  0
 40 42  1  0  0  0
 40 43  1  0  0  0
  4  5  1  0  0  0
  5  6  2  0  0  0
  6  7  1  0  0  0
  7  8  2  0  0  0
  8 11  1  0  0  0
 11 12  2  0  0  0
 12 13  1  0  0  0
 13 14  1  0  0  0
 14 15  2  0  0  0
 14 16  1  0  0  0
 16 19  1  0  0  0
 19 20  1  0  0  0
 20 21  2  0  0  0
 20 22  1  0  0  0
 22 24  1  0  0  0
 24 25  2  0  0  0
 24 26  2  0  0  0
 24 27  1  0  0  0
 27 28  1  0  0  0
 28 29  1  0  0  0
 29 30  1  0  0  0
 30 31  1  0  0  0
 16 17  1  0  0  0
 17 18  2  0  0  0
  8  9  1  0  0  0
  9 10  2  0  0  0
 10  2  1  0  0  0
 39 33  1  0  0  0
 10  5  1  0  0  0
 17 12  1  0  0  0
 31 27  1  0  0  0
 22 23  1  0  0  0
M  END
> <minimizedAffinity>
1.92007

> <CNNscore>
0.3010240197

> <CNNaffinity>
6.7275190353

> <CNN_VS>
2.0251448154

> <CNNaffinity_variance>
0.4845987856

$$$$
[H]/C(=C1/SC(=O)N(C([H])([H])C(=O)N([H])S(=O)(=O)N2C([H])([H])C([H])([H])C([H])([H])C2([H])[H])C1=O)c1c([H])c([H])c2c(c(C([H])([H])[H])nn2C([H])([H])c2c([H])c([H])c(Cl)c([H])c2C(F)(F)F)c1[H]


 43 47  0  0  0  0  0  0  0  0999 V2000
   -8.6729  -11.1856    5.9689 C   0  0  0  0  0  0  0  0  0  0  0  0
   -9.5527  -10.2475    6.7344 C   0  0  0  0  0  0  0  0  0  0  0  0
  -10.7876  -10.3919    7.1870 N   0  0  0  0  0  0  0  0  0  0  0  0
  -11.2244   -9.3357    7.8179 N   0  0  0  0  0  0  0  0  0  0  0  0
  -10.2249   -8.4317    7.7861 C   0  0  0  0  0  0  0  0  0  0  0  0
  -10.0807   -7.1492    8.2725 C   0  0  0  0  0  0  0  0  0  0  0  0
   -8.9027   -6.4474    8.0822 C   0  0  0  0  0  0  0  0  0  0  0  0
   -7.8105   -6.9864    7.3990 C   0  0  0  0  0  0  0  0  0  0  0  0
   -7.9734   -8.2657    6.9210 C   0  0  0  0  0  0  0  0  0  0  0  0
   -9.1456   -8.9629    7.1108 C   0  0  0  0  0  0  0  0  0  0  0  0
   -6.6331   -6.1704    7.2467 C   0  0  0  0  0  0  0  0  0  0  0  0
   -5.4289   -6.6840    7.1334 C   0  0  0  0  0  0  0  0  0  0  0  0
   -4.9860   -8.4449    7.1431 S   0  0  0  0  0  0  0  0  0  0  0  0
   -3.3697   -8.2080    6.4195 C   0  0  0  0  0  0  0  0  0  0  0  0
   -2.6936   -9.1080    5.8862 O   0  0  0  0  0  0  0  0  0  0  0  0
   -3.0840   -6.8376    6.5982 N   0  0  0  0  0  0  0  0  0  0  0  0
   -4.1421   -6.0264    6.9701 C   0  0  0  0  0  0  0  0  0  0  0  0
   -4.0525   -4.7605    7.1732 O   0  0  0  0  0  0  0  0  0  0  0  0
   -1.7119   -6.3290    6.3863 C   0  0  0  0  0  0  0  0  0  0  0  0
   -1.7280   -5.0388    5.6589 C   0  0  0  0  0  0  0  0  0  0  0  0
   -1.0746   -4.0749    6.1155 O   0  0  0  0  0  0  0  0  0  0  0  0
   -2.4621   -4.8751    4.4664 N   0  0  0  0  0  0  0  0  0  0  0  0
   -3.0062   -5.6942    4.0953 H   0  0  0  0  0  0  0  0  0  0  0  0
   -2.4476   -3.3536    3.6588 S   0  0  0  0  0  0  0  0  0  0  0  0
   -1.0663   -3.0713    3.1564 O   0  0  0  0  0  0  0  0  0  0  0  0
   -3.4381   -3.3546    2.5057 O   0  0  0  0  0  0  0  0  0  0  0  0
   -2.9177   -2.1061    4.7447 N   0  0  0  0  0  0  0  0  0  0  0  0
   -4.3590   -2.0892    4.8487 C   0  0  0  0  0  0  0  0  0  0  0  0
   -4.6358   -0.7047    5.3729 C   0  0  0  0  0  0  0  0  0  0  0  0
   -3.5862    0.1343    4.6988 C   0  0  0  0  0  0  0  0  0  0  0  0
   -2.5332   -0.8308    4.1929 C   0  0  0  0  0  0  0  0  0  0  0  0
  -12.5415   -9.1403    8.4508 C   0  0  0  0  0  0  0  0  0  0  0  0
  -13.3848   -8.2637    7.6195 C   0  0  0  0  0  0  0  0  0  0  0  0
  -13.7061   -8.5964    6.3213 C   0  0  0  0  0  0  0  0  0  0  0  0
  -14.5027   -7.7789    5.5221 C   0  0  0  0  0  0  0  0  0  0  0  0
  -14.9825   -6.6144    6.0305 C   0  0  0  0  0  0  0  0  0  0  0  0
  -15.9951   -5.5098    5.1136 Cl  0  0  0  0  0  0  0  0  0  0  0  0
  -14.6826   -6.2496    7.3223 C   0  0  0  0  0  0  0  0  0  0  0  0
  -13.8779   -7.0826    8.1190 C   0  0  0  0  0  0  0  0  0  0  0  0
  -13.5603   -6.6889    9.4983 C   0  0  0  0  0  0  0  0  0  0  0  0
  -12.2595   -6.8581    9.8701 F   0  0  0  0  0  0  0  0  0  0  0  0
  -14.4412   -7.2676   10.4169 F   0  0  0  0  0  0  0  0  0  0  0  0
  -13.8127   -5.3139    9.6141 F   0  0  0  0  0  0  0  0  0  0  0  0
  1  2  1  0  0  0
  2  3  2  0  0  0
  3  4  1  0  0  0
  4 32  1  0  0  0
 32 33  1  0  0  0
 33 34  2  0  0  0
 34 35  1  0  0  0
 35 36  2  0  0  0
 36 37  1  0  0  0
 36 38  1  0  0  0
 38 39  2  0  0  0
 39 40  1  0  0  0
 40 41  1  0  0  0
 40 42  1  0  0  0
 40 43  1  0  0  0
  4  5  1  0  0  0
  5  6  2  0  0  0
  6  7  1  0  0  0
  7  8  2  0  0  0
  8 11  1  0  0  0
 11 12  2  0  0  0
 12 13  1  0  0  0
 13 14  1  0  0  0
 14 15  2  0  0  0
 14 16  1  0  0  0
 16 19  1  0  0  0
 19 20  1  0  0  0
 20 21  2  0  0  0
 20 22  1  0  0  0
 22 24  1  0  0  0
 24 25  2  0  0  0
 24 26  2  0  0  0
 24 27  1  0  0  0
 27 28  1  0  0  0
 28 29  1  0  0  0
 29 30  1  0  0  0
 30 31  1  0  0  0
 16 17  1  0  0  0
 17 18  2  0  0  0
  8  9  1  0  0  0
  9 10  2  0  0  0
 10  2  1  0  0  0
 39 33  1  0  0  0
 10  5  1  0  0  0
 17 12  1  0  0  0
 31 27  1  0  0  0
 22 23  1  0  0  0
M  END
> <minimizedAffinity>
-6.93344

> <CNNscore>
0.2912646532

> <CNNaffinity>
7.3924775124

> <CNN_VS>
2.1531674862

> <CNNaffinity_variance>
0.2507956922

$$$$
[H]/C(=C1/SC(=O)N(C([H])([H])C(=O)N([H])S(=O)(=O)N2C([H])([H])C([H])([H])C([H])([H])C2([H])[H])C1=O)c1c([H])c([H])c2c(c(C([H])([H])[H])nn2C([H])([H])c2c([H])c([H])c(Cl)c([H])c2C(F)(F)F)c1[H]


 43 47  0  0  0  0  0  0  0  0999 V2000
   -8.7867   -6.8832    7.9605 C   0  0  0  0  0  0  0  0  0  0  0  0
  -10.1214   -6.7279    8.6198 C   0  0  0  0  0  0  0  0  0  0  0  0
  -11.3464   -6.8833    8.1444 N   0  0  0  0  0  0  0  0  0  0  0  0
  -12.2709   -6.6550    9.0375 N   0  0  0  0  0  0  0  0  0  0  0  0
  -11.6285   -6.3275   10.1765 C   0  0  0  0  0  0  0  0  0  0  0  0
  -12.0473   -5.9863   11.4455 C   0  0  0  0  0  0  0  0  0  0  0  0
  -11.1298   -5.6950   12.4402 C   0  0  0  0  0  0  0  0  0  0  0  0
   -9.7508   -5.7286   12.2219 C   0  0  0  0  0  0  0  0  0  0  0  0
   -9.3525   -6.0702   10.9506 C   0  0  0  0  0  0  0  0  0  0  0  0
  -10.2661   -6.3597    9.9619 C   0  0  0  0  0  0  0  0  0  0  0  0
   -8.8797   -5.3996   13.3212 C   0  0  0  0  0  0  0  0  0  0  0  0
   -7.5751   -5.5413   13.2539 C   0  0  0  0  0  0  0  0  0  0  0  0
   -6.6132   -6.1527   11.8403 S   0  0  0  0  0  0  0  0  0  0  0  0
   -5.0515   -5.5028   12.4157 C   0  0  0  0  0  0  0  0  0  0  0  0
   -4.0459   -5.3380   11.6994 O   0  0  0  0  0  0  0  0  0  0  0  0
   -5.2440   -5.2454   13.7897 N   0  0  0  0  0  0  0  0  0  0  0  0
   -6.5504   -5.2608   14.2470 C   0  0  0  0  0  0  0  0  0  0  0  0
   -6.8976   -5.0472   15.4659 O   0  0  0  0  0  0  0  0  0  0  0  0
   -4.0846   -4.9733   14.6662 C   0  0  0  0  0  0  0  0  0  0  0  0
   -3.1382   -4.0336   14.0218 C   0  0  0  0  0  0  0  0  0  0  0  0
   -1.9155   -4.2970   14.0352 O   0  0  0  0  0  0  0  0  0  0  0  0
   -3.5853   -2.8523   13.3954 N   0  0  0  0  0  0  0  0  0  0  0  0
   -4.6157   -2.6448   13.3924 H   0  0  0  0  0  0  0  0  0  0  0  0
   -2.4433   -1.7927   12.6603 S   0  0  0  0  0  0  0  0  0  0  0  0
   -1.1098   -2.4690   12.5937 O   0  0  0  0  0  0  0  0  0  0  0  0
   -2.9048   -1.3984   11.2666 O   0  0  0  0  0  0  0  0  0  0  0  0
   -2.2978   -0.3506   13.5853 N   0  0  0  0  0  0  0  0  0  0  0  0
   -1.0631   -0.3934   14.3350 C   0  0  0  0  0  0  0  0  0  0  0  0
   -1.3069    0.6116   15.4299 C   0  0  0  0  0  0  0  0  0  0  0  0
   -2.7688    0.4394   15.7353 C   0  0  0  0  0  0  0  0  0  0  0  0
   -3.3631   -0.3030   14.5556 C   0  0  0  0  0  0  0  0  0  0  0  0
  -13.7331   -6.7325    8.8662 C   0  0  0  0  0  0  0  0  0  0  0  0
  -14.0662   -7.2150    7.5146 C   0  0  0  0  0  0  0  0  0  0  0  0
  -14.5120   -6.3550    6.5343 C   0  0  0  0  0  0  0  0  0  0  0  0
  -14.8308   -6.7951    5.2512 C   0  0  0  0  0  0  0  0  0  0  0  0
  -14.7012   -8.1125    4.9477 C   0  0  0  0  0  0  0  0  0  0  0  0
  -15.0735   -8.7756    3.3640 Cl  0  0  0  0  0  0  0  0  0  0  0  0
  -14.2590   -9.0003    5.9007 C   0  0  0  0  0  0  0  0  0  0  0  0
  -13.9405   -8.5445    7.1918 C   0  0  0  0  0  0  0  0  0  0  0  0
  -13.4684   -9.4964    8.2063 C   0  0  0  0  0  0  0  0  0  0  0  0
  -13.8152   -9.2013    9.4915 F   0  0  0  0  0  0  0  0  0  0  0  0
  -12.0981   -9.7455    8.0836 F   0  0  0  0  0  0  0  0  0  0  0  0
  -14.0597  -10.7378    7.9288 F   0  0  0  0  0  0  0  0  0  0  0  0
  1  2  1  0  0  0
  2  3  2  0  0  0
  3  4  1  0  0  0
  4 32  1  0  0  0
 32 33  1  0  0  0
 33 34  2  0  0  0
 34 35  1  0  0  0
 35 36  2  0  0  0
 36 37  1  0  0  0
 36 38  1  0  0  0
 38 39  2  0  0  0
 39 40  1  0  0  0
 40 41  1  0  0  0
 40 42  1  0  0  0
 40 43  1  0  0  0
  4  5  1  0  0  0
  5  6  2  0  0  0
  6  7  1  0  0  0
  7  8  2  0  0  0
  8 11  1  0  0  0
 11 12  2  0  0  0
 12 13  1  0  0  0
 13 14  1  0  0  0
 14 15  2  0  0  0
 14 16  1  0  0  0
 16 19  1  0  0  0
 19 20  1  0  0  0
 20 21  2  0  0  0
 20 22  1  0  0  0
 22 24  1  0  0  0
 24 25  2  0  0  0
 24 26  2  0  0  0
 24 27  1  0  0  0
 27 28  1  0  0  0
 28 29  1  0  0  0
 29 30  1  0  0  0
 30 31  1  0  0  0
 16 17  1  0  0  0
 17 18  2  0  0  0
  8  9  1  0  0  0
  9 10  2  0  0  0
 10  2  1  0  0  0
 39 33  1  0  0  0
 10  5  1  0  0  0
 17 12  1  0  0  0
 31 27  1  0  0  0
 22 23  1  0  0  0
M  END
> <minimizedAffinity>
1.24648

> <CNNscore>
0.2837097049

> <CNNaffinity>
6.5759706497

> <CNN_VS>
1.8656667471

> <CNNaffinity_variance>
0.5761844516

$$$$
[H]/C(=C1/SC(=O)N(C([H])([H])C(=O)N([H])S(=O)(=O)N2C([H])([H])C([H])([H])C([H])([H])C2([H])[H])C1=O)c1c([H])c([H])c2c(c(C([H])([H])[H])nn2C([H])([H])c2c([H])c([H])c(Cl)c([H])c2C(F)(F)F)c1[H]


 43 47  0  0  0  0  0  0  0  0999 V2000
  -11.0834   -5.8088    9.3962 C   0  0  0  0  0  0  0  0  0  0  0  0
  -11.3797   -7.0773    8.6590 C   0  0  0  0  0  0  0  0  0  0  0  0
  -12.5311   -7.6420    8.3336 N   0  0  0  0  0  0  0  0  0  0  0  0
  -12.3810   -8.7630    7.6814 N   0  0  0  0  0  0  0  0  0  0  0  0
  -11.0528   -8.9608    7.5633 C   0  0  0  0  0  0  0  0  0  0  0  0
  -10.2813   -9.9477    6.9864 C   0  0  0  0  0  0  0  0  0  0  0  0
   -8.8992   -9.8782    7.0217 C   0  0  0  0  0  0  0  0  0  0  0  0
   -8.2165   -8.8240    7.6322 C   0  0  0  0  0  0  0  0  0  0  0  0
   -9.0026   -7.8501    8.2024 C   0  0  0  0  0  0  0  0  0  0  0  0
  -10.3773   -7.9202    8.1668 C   0  0  0  0  0  0  0  0  0  0  0  0
   -6.7761   -8.8499    7.6227 C   0  0  0  0  0  0  0  0  0  0  0  0
   -6.0609   -8.0287    6.8874 C   0  0  0  0  0  0  0  0  0  0  0  0
   -6.6818   -6.7395    5.7696 S   0  0  0  0  0  0  0  0  0  0  0  0
   -5.1344   -5.8513    5.6736 C   0  0  0  0  0  0  0  0  0  0  0  0
   -5.0167   -4.6736    5.2854 O   0  0  0  0  0  0  0  0  0  0  0  0
   -4.1569   -6.7663    6.1195 N   0  0  0  0  0  0  0  0  0  0  0  0
   -4.6179   -7.9068    6.7540 C   0  0  0  0  0  0  0  0  0  0  0  0
   -3.8625   -8.8373    7.2182 O   0  0  0  0  0  0  0  0  0  0  0  0
   -2.7211   -6.4855    5.9052 C   0  0  0  0  0  0  0  0  0  0  0  0
   -2.1972   -5.5663    6.9418 C   0  0  0  0  0  0  0  0  0  0  0  0
   -1.0600   -5.0671    6.7936 O   0  0  0  0  0  0  0  0  0  0  0  0
   -2.9514   -5.2433    8.0884 N   0  0  0  0  0  0  0  0  0  0  0  0
   -3.9052   -5.6707    8.1988 H   0  0  0  0  0  0  0  0  0  0  0  0
   -2.2961   -4.1686    9.2645 S   0  0  0  0  0  0  0  0  0  0  0  0
   -1.0600   -4.7719    9.8544 O   0  0  0  0  0  0  0  0  0  0  0  0
   -1.9770   -2.8224    8.6348 O   0  0  0  0  0  0  0  0  0  0  0  0
   -3.4425   -3.8962   10.5168 N   0  0  0  0  0  0  0  0  0  0  0  0
   -2.7676   -3.9461   11.7936 C   0  0  0  0  0  0  0  0  0  0  0  0
   -3.8975   -4.2087   12.7540 C   0  0  0  0  0  0  0  0  0  0  0  0
   -4.8099   -5.1124   11.9726 C   0  0  0  0  0  0  0  0  0  0  0  0
   -4.4021   -4.9723   10.5199 C   0  0  0  0  0  0  0  0  0  0  0  0
  -13.4333   -9.6561    7.1633 C   0  0  0  0  0  0  0  0  0  0  0  0
  -14.2941   -8.9350    6.2096 C   0  0  0  0  0  0  0  0  0  0  0  0
  -14.0314   -8.9427    4.8567 C   0  0  0  0  0  0  0  0  0  0  0  0
  -14.8357   -8.2664    3.9417 C   0  0  0  0  0  0  0  0  0  0  0  0
  -15.9157   -7.5745    4.3883 C   0  0  0  0  0  0  0  0  0  0  0  0
  -16.9969   -6.6879    3.3246 Cl  0  0  0  0  0  0  0  0  0  0  0  0
  -16.2091   -7.5444    5.7318 C   0  0  0  0  0  0  0  0  0  0  0  0
  -15.3902   -8.2305    6.6454 C   0  0  0  0  0  0  0  0  0  0  0  0
  -15.7076   -8.1957    8.0794 C   0  0  0  0  0  0  0  0  0  0  0  0
  -15.0255   -7.2659    8.8070 F   0  0  0  0  0  0  0  0  0  0  0  0
  -15.6280   -9.4662    8.6575 F   0  0  0  0  0  0  0  0  0  0  0  0
  -17.0629   -7.8562    8.2042 F   0  0  0  0  0  0  0  0  0  0  0  0
  1  2  1  0  0  0
  2  3  2  0  0  0
  3  4  1  0  0  0
  4 32  1  0  0  0
 32 33  1  0  0  0
 33 34  2  0  0  0
 34 35  1  0  0  0
 35 36  2  0  0  0
 36 37  1  0  0  0
 36 38  1  0  0  0
 38 39  2  0  0  0
 39 40  1  0  0  0
 40 41  1  0  0  0
 40 42  1  0  0  0
 40 43  1  0  0  0
  4  5  1  0  0  0
  5  6  2  0  0  0
  6  7  1  0  0  0
  7  8  2  0  0  0
  8 11  1  0  0  0
 11 12  2  0  0  0
 12 13  1  0  0  0
 13 14  1  0  0  0
 14 15  2  0  0  0
 14 16  1  0  0  0
 16 19  1  0  0  0
 19 20  1  0  0  0
 20 21  2  0  0  0
 20 22  1  0  0  0
 22 24  1  0  0  0
 24 25  2  0  0  0
 24 26  2  0  0  0
 24 27  1  0  0  0
 27 28  1  0  0  0
 28 29  1  0  0  0
 29 30  1  0  0  0
 30 31  1  0  0  0
 16 17  1  0  0  0
 17 18  2  0  0  0
  8  9  1  0  0  0
  9 10  2  0  0  0
 10  2  1  0  0  0
 39 33  1  0  0  0
 10  5  1  0  0  0
 17 12  1  0  0  0
 31 27  1  0  0  0
 22 23  1  0  0  0
M  END
> <minimizedAffinity>
-9.82763

> <CNNscore>
0.2768705785

> <CNNaffinity>
7.5377335548

> <CNN_VS>
2.0869767666

> <CNNaffinity_variance>
0.0857110620

$$$$
[H]/C(=C1/SC(=O)N(C([H])([H])C(=O)N([H])S(=O)(=O)N2C([H])([H])C([H])([H])C([H])([H])C2([H])[H])C1=O)c1c([H])c([H])c2c(c(C([H])([H])[H])nn2C([H])([H])c2c([H])c([H])c(Cl)c([H])c2C(F)(F)F)c1[H]


 43 47  0  0  0  0  0  0  0  0999 V2000
  -10.6271   -5.8620    9.4536 C   0  0  0  0  0  0  0  0  0  0  0  0
  -11.0664   -7.1206    8.7730 C   0  0  0  0  0  0  0  0  0  0  0  0
  -12.2666   -7.6622    8.6429 N   0  0  0  0  0  0  0  0  0  0  0  0
  -12.2488   -8.7820    7.9721 N   0  0  0  0  0  0  0  0  0  0  0  0
  -10.9629   -9.0036    7.6335 C   0  0  0  0  0  0  0  0  0  0  0  0
  -10.3174  -10.0013    6.9334 C   0  0  0  0  0  0  0  0  0  0  0  0
   -8.9478   -9.9575    6.7377 C   0  0  0  0  0  0  0  0  0  0  0  0
   -8.1527   -8.9195    7.2284 C   0  0  0  0  0  0  0  0  0  0  0  0
   -8.8140   -7.9345    7.9242 C   0  0  0  0  0  0  0  0  0  0  0  0
  -10.1765   -7.9791    8.1183 C   0  0  0  0  0  0  0  0  0  0  0  0
   -6.7349   -8.9719    6.9786 C   0  0  0  0  0  0  0  0  0  0  0  0
   -5.9306   -7.9739    7.2676 C   0  0  0  0  0  0  0  0  0  0  0  0
   -6.3882   -6.3798    8.0071 S   0  0  0  0  0  0  0  0  0  0  0  0
   -4.7275   -5.9533    8.5096 C   0  0  0  0  0  0  0  0  0  0  0  0
   -4.4450   -5.0877    9.3595 O   0  0  0  0  0  0  0  0  0  0  0  0
   -3.8859   -6.7918    7.7479 N   0  0  0  0  0  0  0  0  0  0  0  0
   -4.4922   -7.8499    7.0930 C   0  0  0  0  0  0  0  0  0  0  0  0
   -3.8716   -8.7041    6.3601 O   0  0  0  0  0  0  0  0  0  0  0  0
   -2.4333   -6.5247    7.6790 C   0  0  0  0  0  0  0  0  0  0  0  0
   -2.0807   -5.8140    6.4282 C   0  0  0  0  0  0  0  0  0  0  0  0
   -1.0600   -6.1649    5.7961 O   0  0  0  0  0  0  0  0  0  0  0  0
   -2.8693   -4.7536    5.9366 N   0  0  0  0  0  0  0  0  0  0  0  0
   -3.7239   -4.4703    6.4789 H   0  0  0  0  0  0  0  0  0  0  0  0
   -2.4156   -3.9598    4.4767 S   0  0  0  0  0  0  0  0  0  0  0  0
   -1.1400   -3.2082    4.6959 O   0  0  0  0  0  0  0  0  0  0  0  0
   -2.2461   -4.9697    3.3533 O   0  0  0  0  0  0  0  0  0  0  0  0
   -3.6447   -2.8559    4.0001 N   0  0  0  0  0  0  0  0  0  0  0  0
   -3.0857   -1.8983    3.0735 C   0  0  0  0  0  0  0  0  0  0  0  0
   -4.0631   -0.7551    3.1507 C   0  0  0  0  0  0  0  0  0  0  0  0
   -4.4764   -0.7532    4.5961 C   0  0  0  0  0  0  0  0  0  0  0  0
   -4.0767   -2.1048    5.1525 C   0  0  0  0  0  0  0  0  0  0  0  0
  -13.3896   -9.6527    7.6346 C   0  0  0  0  0  0  0  0  0  0  0  0
  -14.1927   -9.0506    6.5561 C   0  0  0  0  0  0  0  0  0  0  0  0
  -13.8314   -9.1814    5.2325 C   0  0  0  0  0  0  0  0  0  0  0  0
  -14.5800   -8.6186    4.2008 C   0  0  0  0  0  0  0  0  0  0  0  0
  -15.7037   -7.9167    4.4997 C   0  0  0  0  0  0  0  0  0  0  0  0
  -16.7218   -7.1667    3.2802 Cl  0  0  0  0  0  0  0  0  0  0  0  0
  -16.0953   -7.7654    5.8095 C   0  0  0  0  0  0  0  0  0  0  0  0
  -15.3319   -8.3377    6.8418 C   0  0  0  0  0  0  0  0  0  0  0  0
  -15.7542   -8.1736    8.2393 C   0  0  0  0  0  0  0  0  0  0  0  0
  -15.0492   -7.2552    8.9594 F   0  0  0  0  0  0  0  0  0  0  0  0
  -15.8341   -9.4017    8.9028 F   0  0  0  0  0  0  0  0  0  0  0  0
  -17.0790   -7.7126    8.2292 F   0  0  0  0  0  0  0  0  0  0  0  0
  1  2  1  0  0  0
  2  3  2  0  0  0
  3  4  1  0  0  0
  4 32  1  0  0  0
 32 33  1  0  0  0
 33 34  2  0  0  0
 34 35  1  0  0  0
 35 36  2  0  0  0
 36 37  1  0  0  0
 36 38  1  0  0  0
 38 39  2  0  0  0
 39 40  1  0  0  0
 40 41  1  0  0  0
 40 42  1  0  0  0
 40 43  1  0  0  0
  4  5  1  0  0  0
  5  6  2  0  0  0
  6  7  1  0  0  0
  7  8  2  0  0  0
  8 11  1  0  0  0
 11 12  2  0  0  0
 12 13  1  0  0  0
 13 14  1  0  0  0
 14 15  2  0  0  0
 14 16  1  0  0  0
 16 19  1  0  0  0
 19 20  1  0  0  0
 20 21  2  0  0  0
 20 22  1  0  0  0
 22 24  1  0  0  0
 24 25  2  0  0  0
 24 26  2  0  0  0
 24 27  1  0  0  0
 27 28  1  0  0  0
 28 29  1  0  0  0
 29 30  1  0  0  0
 30 31  1  0  0  0
 16 17  1  0  0  0
 17 18  2  0  0  0
  8  9  1  0  0  0
  9 10  2  0  0  0
 10  2  1  0  0  0
 39 33  1  0  0  0
 10  5  1  0  0  0
 17 12  1  0  0  0
 31 27  1  0  0  0
 22 23  1  0  0  0
M  END
> <minimizedAffinity>
-9.78003

> <CNNscore>
0.2589096427

> <CNNaffinity>
7.2961816788

> <CNN_VS>
1.8890517950

> <CNNaffinity_variance>
0.0697700679

$$$$
[H]Oc1c([H])c([H])c2c(c1[H])OC([H])([H])c1c-2nc2c([H])c([H])c(O[H])c([H])c2c1-c1c([H])c([H])c(OC([H])([H])[H])c([H])c1[H]


 30 34  0  0  0  0  0  0  0  0999 V2000
  -13.4042   -7.2993    9.2461 C   0  0  0  0  0  0  0  0  0  0  0  0
  -13.9591   -7.4507    7.9508 C   0  0  0  0  0  0  0  0  0  0  0  0
  -14.3687   -8.7456    7.4989 C   0  0  0  0  0  0  0  0  0  0  0  0
  -14.8525   -8.7560    6.2077 O   0  0  0  0  0  0  0  0  0  0  0  0
  -14.9820   -7.6260    5.4461 C   0  0  0  0  0  0  0  0  0  0  0  0
  -15.5104   -7.7083    4.1506 C   0  0  0  0  0  0  0  0  0  0  0  0
  -15.6506   -6.5861    3.3646 C   0  0  0  0  0  0  0  0  0  0  0  0
  -16.1761   -6.6272    2.0600 O   0  0  0  0  0  0  0  0  0  0  0  0
  -15.2766   -5.3363    3.8212 C   0  0  0  0  0  0  0  0  0  0  0  0
  -14.7461   -5.2361    5.1147 C   0  0  0  0  0  0  0  0  0  0  0  0
  -14.6169   -6.3744    5.8791 C   0  0  0  0  0  0  0  0  0  0  0  0
  -14.0622   -6.3006    7.2436 C   0  0  0  0  0  0  0  0  0  0  0  0
  -13.6711   -5.0692    7.7135 N   0  0  0  0  0  0  0  0  0  0  0  0
  -13.1526   -4.9851    8.9477 C   0  0  0  0  0  0  0  0  0  0  0  0
  -12.7385   -3.7694    9.4801 C   0  0  0  0  0  0  0  0  0  0  0  0
  -12.2060   -3.6864   10.7485 C   0  0  0  0  0  0  0  0  0  0  0  0
  -12.0648   -4.8255   11.5425 C   0  0  0  0  0  0  0  0  0  0  0  0
  -11.5309   -4.7601   12.8206 O   0  0  0  0  0  0  0  0  0  0  0  0
  -12.4581   -6.0115   11.0492 C   0  0  0  0  0  0  0  0  0  0  0  0
  -12.9998   -6.0911    9.7570 C   0  0  0  0  0  0  0  0  0  0  0  0
  -17.1782   -6.5221    1.9039 H   0  0  0  0  0  0  0  0  0  0  0  0
  -11.2169   -3.8821   13.2424 H   0  0  0  0  0  0  0  0  0  0  0  0
  -13.0027  -10.7395   11.7368 C   0  0  0  0  0  0  0  0  0  0  0  0
  -13.3720   -9.4938   12.2297 C   0  0  0  0  0  0  0  0  0  0  0  0
  -13.4886   -8.4117   11.3858 C   0  0  0  0  0  0  0  0  0  0  0  0
  -13.2583   -8.4772   10.0480 C   0  0  0  0  0  0  0  0  0  0  0  0
  -12.8956   -9.6897    9.5498 C   0  0  0  0  0  0  0  0  0  0  0  0
  -12.7749  -10.7806   10.3806 C   0  0  0  0  0  0  0  0  0  0  0  0
  -12.2673  -11.8506   13.8263 C   0  0  0  0  0  0  0  0  0  0  0  0
  -12.8835  -11.8350   12.5823 O   0  0  0  0  0  0  0  0  0  0  0  0
 29 30  1  0  0  0
 30 23  1  0  0  0
 23 24  2  0  0  0
 24 25  1  0  0  0
 25 26  2  0  0  0
 26 27  1  0  0  0
 27 28  2  0  0  0
 26  1  1  0  0  0
  1  2  2  0  0  0
  2  3  1  0  0  0
  3  4  1  0  0  0
  4  5  1  0  0  0
  5  6  2  0  0  0
  6  7  1  0  0  0
  7  8  1  0  0  0
  7  9  2  0  0  0
  9 10  1  0  0  0
 10 11  2  0  0  0
 11 12  1  0  0  0
 12 13  2  0  0  0
 13 14  1  0  0  0
 14 15  2  0  0  0
 15 16  1  0  0  0
 16 17  2  0  0  0
 17 18  1  0  0  0
 17 19  1  0  0  0
 19 20  2  0  0  0
 28 23  1  0  0  0
 20  1  1  0  0  0
 12  2  1  0  0  0
 20 14  1  0  0  0
 11  5  1  0  0  0
  8 21  1  0  0  0
 18 22  1  0  0  0
M  END
> <minimizedAffinity>
19.53509

> <CNNscore>
0.5033651590

> <CNNaffinity>
6.5698518753

> <CNN_VS>
3.3070344925

> <CNNaffinity_variance>
2.0320596695

$$$$
[H]Oc1c([H])c([H])c2c(c1[H])OC([H])([H])c1c-2nc2c([H])c([H])c(O[H])c([H])c2c1-c1c([H])c([H])c(OC([H])([H])[H])c([H])c1[H]


 30 34  0  0  0  0  0  0  0  0999 V2000
  -12.6407   -7.1960    8.2556 C   0  0  0  0  0  0  0  0  0  0  0  0
  -11.6596   -8.1537    7.8963 C   0  0  0  0  0  0  0  0  0  0  0  0
  -11.9722   -9.1660    6.9339 C   0  0  0  0  0  0  0  0  0  0  0  0
  -10.9424  -10.0547    6.7081 O   0  0  0  0  0  0  0  0  0  0  0  0
   -9.7154   -9.9484    7.3054 C   0  0  0  0  0  0  0  0  0  0  0  0
   -8.7050  -10.8720    7.0049 C   0  0  0  0  0  0  0  0  0  0  0  0
   -7.4624  -10.7866    7.5927 C   0  0  0  0  0  0  0  0  0  0  0  0
   -6.4225  -11.6937    7.3175 O   0  0  0  0  0  0  0  0  0  0  0  0
   -7.1628   -9.7886    8.5007 C   0  0  0  0  0  0  0  0  0  0  0  0
   -8.1621   -8.8566    8.8129 C   0  0  0  0  0  0  0  0  0  0  0  0
   -9.3958   -8.9655    8.2104 C   0  0  0  0  0  0  0  0  0  0  0  0
  -10.4670   -7.9999    8.5187 C   0  0  0  0  0  0  0  0  0  0  0  0
  -10.1953   -7.0065    9.4294 N   0  0  0  0  0  0  0  0  0  0  0  0
  -11.1619   -6.1268    9.7314 C   0  0  0  0  0  0  0  0  0  0  0  0
  -10.9498   -5.0999   10.6441 C   0  0  0  0  0  0  0  0  0  0  0  0
  -11.9450   -4.1978   10.9524 C   0  0  0  0  0  0  0  0  0  0  0  0
  -13.2034   -4.2872   10.3553 C   0  0  0  0  0  0  0  0  0  0  0  0
  -14.2162   -3.3883   10.6541 O   0  0  0  0  0  0  0  0  0  0  0  0
  -13.4317   -5.2714    9.4701 C   0  0  0  0  0  0  0  0  0  0  0  0
  -12.4151   -6.1876    9.1593 C   0  0  0  0  0  0  0  0  0  0  0  0
   -5.7682  -11.5132    6.5568 H   0  0  0  0  0  0  0  0  0  0  0  0
  -14.0935   -2.6213   11.3205 H   0  0  0  0  0  0  0  0  0  0  0  0
  -16.4374   -7.4468    6.3264 C   0  0  0  0  0  0  0  0  0  0  0  0
  -15.3573   -6.7687    5.7745 C   0  0  0  0  0  0  0  0  0  0  0  0
  -14.1503   -6.7152    6.4355 C   0  0  0  0  0  0  0  0  0  0  0  0
  -13.9300   -7.3031    7.6409 C   0  0  0  0  0  0  0  0  0  0  0  0
  -14.9775   -7.9708    8.1948 C   0  0  0  0  0  0  0  0  0  0  0  0
  -16.1901   -8.0332    7.5463 C   0  0  0  0  0  0  0  0  0  0  0  0
  -18.1027   -8.5363    4.8496 C   0  0  0  0  0  0  0  0  0  0  0  0
  -17.6574   -7.5048    5.6650 O   0  0  0  0  0  0  0  0  0  0  0  0
 29 30  1  0  0  0
 30 23  1  0  0  0
 23 24  2  0  0  0
 24 25  1  0  0  0
 25 26  2  0  0  0
 26 27  1  0  0  0
 27 28  2  0  0  0
 26  1  1  0  0  0
  1  2  2  0  0  0
  2  3  1  0  0  0
  3  4  1  0  0  0
  4  5  1  0  0  0
  5  6  2  0  0  0
  6  7  1  0  0  0
  7  8  1  0  0  0
  7  9  2  0  0  0
  9 10  1  0  0  0
 10 11  2  0  0  0
 11 12  1  0  0  0
 12 13  2  0  0  0
 13 14  1  0  0  0
 14 15  2  0  0  0
 15 16  1  0  0  0
 16 17  2  0  0  0
 17 18  1  0  0  0
 17 19  1  0  0  0
 19 20  2  0  0  0
 28 23  1  0  0  0
 20  1  1  0  0  0
 12  2  1  0  0  0
 20 14  1  0  0  0
 11  5  1  0  0  0
  8 21  1  0  0  0
 18 22  1  0  0  0
M  END
> <minimizedAffinity>
4.13174

> <CNNscore>
0.4879986048

> <CNNaffinity>
6.4835443497

> <CNN_VS>
3.1639606953

> <CNNaffinity_variance>
1.1046835184

$$$$
[H]Oc1c([H])c([H])c2c(c1[H])OC([H])([H])c1c-2nc2c([H])c([H])c(O[H])c([H])c2c1-c1c([H])c([H])c(OC([H])([H])[H])c([H])c1[H]


 30 34  0  0  0  0  0  0  0  0999 V2000
   -7.4898   -8.3657    6.5550 C   0  0  0  0  0  0  0  0  0  0  0  0
   -6.1965   -7.8904    6.8868 C   0  0  0  0  0  0  0  0  0  0  0  0
   -5.0809   -8.2219    6.0534 C   0  0  0  0  0  0  0  0  0  0  0  0
   -3.8780   -7.7294    6.5136 O   0  0  0  0  0  0  0  0  0  0  0  0
   -3.7658   -6.9491    7.6326 C   0  0  0  0  0  0  0  0  0  0  0  0
   -2.5129   -6.4582    8.0245 C   0  0  0  0  0  0  0  0  0  0  0  0
   -2.3738   -5.6715    9.1463 C   0  0  0  0  0  0  0  0  0  0  0  0
   -1.1342   -5.1599    9.5725 O   0  0  0  0  0  0  0  0  0  0  0  0
   -3.4622   -5.3352    9.9290 C   0  0  0  0  0  0  0  0  0  0  0  0
   -4.7228   -5.8179    9.5515 C   0  0  0  0  0  0  0  0  0  0  0  0
   -4.8332   -6.6027    8.4250 C   0  0  0  0  0  0  0  0  0  0  0  0
   -6.1461   -7.1252    8.0028 C   0  0  0  0  0  0  0  0  0  0  0  0
   -7.2408   -6.8142    8.7741 N   0  0  0  0  0  0  0  0  0  0  0  0
   -8.4410   -7.2913    8.4121 C   0  0  0  0  0  0  0  0  0  0  0  0
   -9.5859   -7.0126    9.1499 C   0  0  0  0  0  0  0  0  0  0  0  0
  -10.8176   -7.5045    8.7754 C   0  0  0  0  0  0  0  0  0  0  0  0
  -10.9552   -8.3019    7.6381 C   0  0  0  0  0  0  0  0  0  0  0  0
  -12.1867   -8.8053    7.2471 O   0  0  0  0  0  0  0  0  0  0  0  0
   -9.8628   -8.5846    6.9094 C   0  0  0  0  0  0  0  0  0  0  0  0
   -8.6106   -8.0813    7.2947 C   0  0  0  0  0  0  0  0  0  0  0  0
   -0.8068   -4.2546    9.2368 H   0  0  0  0  0  0  0  0  0  0  0  0
  -13.0485   -8.6193    7.7669 H   0  0  0  0  0  0  0  0  0  0  0  0
   -7.9556  -10.8847    3.1437 C   0  0  0  0  0  0  0  0  0  0  0  0
   -8.6876  -11.0588    4.3120 C   0  0  0  0  0  0  0  0  0  0  0  0
   -8.5021  -10.2194    5.3879 C   0  0  0  0  0  0  0  0  0  0  0  0
   -7.6162   -9.1887    5.3895 C   0  0  0  0  0  0  0  0  0  0  0  0
   -6.8916   -9.0050    4.2532 C   0  0  0  0  0  0  0  0  0  0  0  0
   -7.0658   -9.8357    3.1695 C   0  0  0  0  0  0  0  0  0  0  0  0
   -7.7819  -13.0675    1.9832 C   0  0  0  0  0  0  0  0  0  0  0  0
   -8.1380  -11.7276    2.0548 O   0  0  0  0  0  0  0  0  0  0  0  0
 29 30  1  0  0  0
 30 23  1  0  0  0
 23 24  2  0  0  0
 24 25  1  0  0  0
 25 26  2  0  0  0
 26 27  1  0  0  0
 27 28  2  0  0  0
 26  1  1  0  0  0
  1  2  2  0  0  0
  2  3  1  0  0  0
  3  4  1  0  0  0
  4  5  1  0  0  0
  5  6  2  0  0  0
  6  7  1  0  0  0
  7  8  1  0  0  0
  7  9  2  0  0  0
  9 10  1  0  0  0
 10 11  2  0  0  0
 11 12  1  0  0  0
 12 13  2  0  0  0
 13 14  1  0  0  0
 14 15  2  0  0  0
 15 16  1  0  0  0
 16 17  2  0  0  0
 17 18  1  0  0  0
 17 19  1  0  0  0
 19 20  2  0  0  0
 28 23  1  0  0  0
 20  1  1  0  0  0
 12  2  1  0  0  0
 20 14  1  0  0  0
 11  5  1  0  0  0
  8 21  1  0  0  0
 18 22  1  0  0  0
M  END
> <minimizedAffinity>
5.27803

> <CNNscore>
0.4661891162

> <CNNaffinity>
5.8333730698

> <CNN_VS>
2.7194550037

> <CNNaffinity_variance>
0.8308911324

$$$$
[H]Oc1c([H])c([H])c2c(c1[H])OC([H])([H])c1c-2nc2c([H])c([H])c(O[H])c([H])c2c1-c1c([H])c([H])c(OC([H])([H])[H])c([H])c1[H]


 30 34  0  0  0  0  0  0  0  0999 V2000
   -7.0587   -7.1731    8.5650 C   0  0  0  0  0  0  0  0  0  0  0  0
   -8.4569   -7.1665    8.7972 C   0  0  0  0  0  0  0  0  0  0  0  0
   -8.9802   -6.5383    9.9721 C   0  0  0  0  0  0  0  0  0  0  0  0
  -10.3499   -6.6404   10.0933 O   0  0  0  0  0  0  0  0  0  0  0  0
  -11.1438   -7.2376    9.1516 C   0  0  0  0  0  0  0  0  0  0  0  0
  -12.5337   -7.2781    9.3274 C   0  0  0  0  0  0  0  0  0  0  0  0
  -13.3538   -7.8733    8.3947 C   0  0  0  0  0  0  0  0  0  0  0  0
  -14.7525   -7.9345    8.5347 O   0  0  0  0  0  0  0  0  0  0  0  0
  -12.8399   -8.4534    7.2502 C   0  0  0  0  0  0  0  0  0  0  0  0
  -11.4517   -8.4220    7.0589 C   0  0  0  0  0  0  0  0  0  0  0  0
  -10.6550   -7.8202    8.0076 C   0  0  0  0  0  0  0  0  0  0  0  0
   -9.1913   -7.7716    7.8339 C   0  0  0  0  0  0  0  0  0  0  0  0
   -8.6570   -8.3542    6.7092 N   0  0  0  0  0  0  0  0  0  0  0  0
   -7.3265   -8.3304    6.5409 C   0  0  0  0  0  0  0  0  0  0  0  0
   -6.7253   -8.9020    5.4253 C   0  0  0  0  0  0  0  0  0  0  0  0
   -5.3579   -8.8760    5.2555 C   0  0  0  0  0  0  0  0  0  0  0  0
   -4.5294   -8.2724    6.2027 C   0  0  0  0  0  0  0  0  0  0  0  0
   -3.1518   -8.2375    6.0478 O   0  0  0  0  0  0  0  0  0  0  0  0
   -5.0878   -7.7135    7.2891 C   0  0  0  0  0  0  0  0  0  0  0  0
   -6.4807   -7.7423    7.4577 C   0  0  0  0  0  0  0  0  0  0  0  0
  -15.3410   -7.1876    8.1668 H   0  0  0  0  0  0  0  0  0  0  0  0
   -2.6775   -8.6481    5.2392 H   0  0  0  0  0  0  0  0  0  0  0  0
   -4.6254   -5.3948   11.5843 C   0  0  0  0  0  0  0  0  0  0  0  0
   -5.6858   -6.2438   11.8771 C   0  0  0  0  0  0  0  0  0  0  0  0
   -6.4434   -6.7944   10.8674 C   0  0  0  0  0  0  0  0  0  0  0  0
   -6.2192   -6.5566    9.5482 C   0  0  0  0  0  0  0  0  0  0  0  0
   -5.1847   -5.7272    9.2448 C   0  0  0  0  0  0  0  0  0  0  0  0
   -4.4183   -5.1694   10.2430 C   0  0  0  0  0  0  0  0  0  0  0  0
   -4.3211   -4.3745   13.8221 C   0  0  0  0  0  0  0  0  0  0  0  0
   -3.8572   -4.8365   12.5979 O   0  0  0  0  0  0  0  0  0  0  0  0
 29 30  1  0  0  0
 30 23  1  0  0  0
 23 24  2  0  0  0
 24 25  1  0  0  0
 25 26  2  0  0  0
 26 27  1  0  0  0
 27 28  2  0  0  0
 26  1  1  0  0  0
  1  2  2  0  0  0
  2  3  1  0  0  0
  3  4  1  0  0  0
  4  5  1  0  0  0
  5  6  2  0  0  0
  6  7  1  0  0  0
  7  8  1  0  0  0
  7  9  2  0  0  0
  9 10  1  0  0  0
 10 11  2  0  0  0
 11 12  1  0  0  0
 12 13  2  0  0  0
 13 14  1  0  0  0
 14 15  2  0  0  0
 15 16  1  0  0  0
 16 17  2  0  0  0
 17 18  1  0  0  0
 17 19  1  0  0  0
 19 20  2  0  0  0
 28 23  1  0  0  0
 20  1  1  0  0  0
 12  2  1  0  0  0
 20 14  1  0  0  0
 11  5  1  0  0  0
  8 21  1  0  0  0
 18 22  1  0  0  0
M  END
> <minimizedAffinity>
-0.07407

> <CNNscore>
0.4097032547

> <CNNaffinity>
5.7402968407

> <CNN_VS>
2.3518183231

> <CNNaffinity_variance>
0.3782636523

$$$$
[H]Oc1c([H])c([H])c2c(c1[H])OC([H])([H])c1c-2nc2c([H])c([H])c(O[H])c([H])c2c1-c1c([H])c([H])c(OC([H])([H])[H])c([H])c1[H]


 30 34  0  0  0  0  0  0  0  0999 V2000
  -12.6774   -7.4773    7.5020 C   0  0  0  0  0  0  0  0  0  0  0  0
  -11.2973   -7.2541    7.2689 C   0  0  0  0  0  0  0  0  0  0  0  0
  -10.8492   -6.8664    5.9660 C   0  0  0  0  0  0  0  0  0  0  0  0
   -9.4813   -6.7224    5.8690 O   0  0  0  0  0  0  0  0  0  0  0  0
   -8.6333   -6.8805    6.9318 C   0  0  0  0  0  0  0  0  0  0  0  0
   -7.2549   -6.6887    6.7657 C   0  0  0  0  0  0  0  0  0  0  0  0
   -6.3811   -6.8420    7.8192 C   0  0  0  0  0  0  0  0  0  0  0  0
   -4.9918   -6.6586    7.6930 O   0  0  0  0  0  0  0  0  0  0  0  0
   -6.8278   -7.1906    9.0799 C   0  0  0  0  0  0  0  0  0  0  0  0
   -8.2035   -7.3865    9.2634 C   0  0  0  0  0  0  0  0  0  0  0  0
   -9.0548   -7.2265    8.1926 C   0  0  0  0  0  0  0  0  0  0  0  0
  -10.5070   -7.4258    8.3549 C   0  0  0  0  0  0  0  0  0  0  0  0
  -10.9722   -7.7860    9.5975 N   0  0  0  0  0  0  0  0  0  0  0  0
  -12.2889   -7.9838    9.7605 C   0  0  0  0  0  0  0  0  0  0  0  0
  -12.8214   -8.3492   10.9916 C   0  0  0  0  0  0  0  0  0  0  0  0
  -14.1746   -8.5518   11.1557 C   0  0  0  0  0  0  0  0  0  0  0  0
  -15.0576   -8.3960   10.0861 C   0  0  0  0  0  0  0  0  0  0  0  0
  -16.4218   -8.5961   10.2335 O   0  0  0  0  0  0  0  0  0  0  0  0
  -14.5660   -8.0433    8.8867 C   0  0  0  0  0  0  0  0  0  0  0  0
  -13.1872   -7.8380    8.7244 C   0  0  0  0  0  0  0  0  0  0  0  0
   -4.5768   -5.7397    7.8445 H   0  0  0  0  0  0  0  0  0  0  0  0
  -16.8462   -8.8651   11.1251 H   0  0  0  0  0  0  0  0  0  0  0  0
  -15.3559   -6.8890    4.2341 C   0  0  0  0  0  0  0  0  0  0  0  0
  -15.0091   -5.8711    5.1142 C   0  0  0  0  0  0  0  0  0  0  0  0
  -14.1396   -6.1094    6.1552 C   0  0  0  0  0  0  0  0  0  0  0  0
  -13.5719   -7.3209    6.3943 C   0  0  0  0  0  0  0  0  0  0  0  0
  -13.9013   -8.3281    5.5418 C   0  0  0  0  0  0  0  0  0  0  0  0
  -14.7689   -8.1054    4.4965 C   0  0  0  0  0  0  0  0  0  0  0  0
  -17.6055   -6.8566    3.1953 C   0  0  0  0  0  0  0  0  0  0  0  0
  -16.2320   -6.6553    3.1820 O   0  0  0  0  0  0  0  0  0  0  0  0
 29 30  1  0  0  0
 30 23  1  0  0  0
 23 24  2  0  0  0
 24 25  1  0  0  0
 25 26  2  0  0  0
 26 27  1  0  0  0
 27 28  2  0  0  0
 26  1  1  0  0  0
  1  2  2  0  0  0
  2  3  1  0  0  0
  3  4  1  0  0  0
  4  5  1  0  0  0
  5  6  2  0  0  0
  6  7  1  0  0  0
  7  8  1  0  0  0
  7  9  2  0  0  0
  9 10  1  0  0  0
 10 11  2  0  0  0
 11 12  1  0  0  0
 12 13  2  0  0  0
 13 14  1  0  0  0
 14 15  2  0  0  0
 15 16  1  0  0  0
 16 17  2  0  0  0
 17 18  1  0  0  0
 17 19  1  0  0  0
 19 20  2  0  0  0
 28 23  1  0  0  0
 20  1  1  0  0  0
 12  2  1  0  0  0
 20 14  1  0  0  0
 11  5  1  0  0  0
  8 21  1  0  0  0
 18 22  1  0  0  0
M  END
> <minimizedAffinity>
4.25942

> <CNNscore>
0.4041466713

> <CNNaffinity>
6.3197135925

> <CNN_VS>
2.5540912151

> <CNNaffinity_variance>
0.5749725103

$$$$
[H]Oc1c([H])c([H])c2c(c1[H])OC([H])([H])c1c-2nc2c([H])c([H])c(O[H])c([H])c2c1-c1c([H])c([H])c(OC([H])([H])[H])c([H])c1[H]


 30 34  0  0  0  0  0  0  0  0999 V2000
   -5.9988   -7.3183    8.0502 C   0  0  0  0  0  0  0  0  0  0  0  0
   -5.3315   -6.6842    9.1280 C   0  0  0  0  0  0  0  0  0  0  0  0
   -6.0906   -6.1258   10.2053 C   0  0  0  0  0  0  0  0  0  0  0  0
   -5.3193   -5.5048   11.1649 O   0  0  0  0  0  0  0  0  0  0  0  0
   -3.9516   -5.4723   11.1222 C   0  0  0  0  0  0  0  0  0  0  0  0
   -3.2310   -4.8481   12.1496 C   0  0  0  0  0  0  0  0  0  0  0  0
   -1.8547   -4.8018   12.1296 C   0  0  0  0  0  0  0  0  0  0  0  0
   -1.0956   -4.1850   13.1411 O   0  0  0  0  0  0  0  0  0  0  0  0
   -1.1305   -5.3681   11.0975 C   0  0  0  0  0  0  0  0  0  0  0  0
   -1.8355   -5.9962   10.0616 C   0  0  0  0  0  0  0  0  0  0  0  0
   -3.2117   -6.0279   10.1069 C   0  0  0  0  0  0  0  0  0  0  0  0
   -3.9809   -6.6816    9.0317 C   0  0  0  0  0  0  0  0  0  0  0  0
   -3.2815   -7.2400    7.9881 N   0  0  0  0  0  0  0  0  0  0  0  0
   -3.9653   -7.8277    6.9950 C   0  0  0  0  0  0  0  0  0  0  0  0
   -3.3165   -8.4103    5.9123 C   0  0  0  0  0  0  0  0  0  0  0  0
   -4.0220   -9.0132    4.8934 C   0  0  0  0  0  0  0  0  0  0  0  0
   -5.4169   -9.0581    4.9164 C   0  0  0  0  0  0  0  0  0  0  0  0
   -6.1424   -9.6603    3.8996 O   0  0  0  0  0  0  0  0  0  0  0  0
   -6.0656   -8.5016    5.9526 C   0  0  0  0  0  0  0  0  0  0  0  0
   -5.3429   -7.8889    6.9879 C   0  0  0  0  0  0  0  0  0  0  0  0
   -0.7889   -4.7186   13.9539 H   0  0  0  0  0  0  0  0  0  0  0  0
   -5.6965  -10.0984    3.0892 H   0  0  0  0  0  0  0  0  0  0  0  0
  -10.2573   -7.5407    8.1744 C   0  0  0  0  0  0  0  0  0  0  0  0
   -9.4403   -8.6414    8.4023 C   0  0  0  0  0  0  0  0  0  0  0  0
   -8.0694   -8.5203    8.3514 C   0  0  0  0  0  0  0  0  0  0  0  0
   -7.4304   -7.3513    8.0825 C   0  0  0  0  0  0  0  0  0  0  0  0
   -8.2161   -6.2642    7.8569 C   0  0  0  0  0  0  0  0  0  0  0  0
   -9.5878   -6.3695    7.9044 C   0  0  0  0  0  0  0  0  0  0  0  0
  -12.4647   -7.2285    9.2566 C   0  0  0  0  0  0  0  0  0  0  0  0
  -11.6406   -7.6559    8.2245 O   0  0  0  0  0  0  0  0  0  0  0  0
 29 30  1  0  0  0
 30 23  1  0  0  0
 23 24  2  0  0  0
 24 25  1  0  0  0
 25 26  2  0  0  0
 26 27  1  0  0  0
 27 28  2  0  0  0
 26  1  1  0  0  0
  1  2  2  0  0  0
  2  3  1  0  0  0
  3  4  1  0  0  0
  4  5  1  0  0  0
  5  6  2  0  0  0
  6  7  1  0  0  0
  7  8  1  0  0  0
  7  9  2  0  0  0
  9 10  1  0  0  0
 10 11  2  0  0  0
 11 12  1  0  0  0
 12 13  2  0  0  0
 13 14  1  0  0  0
 14 15  2  0  0  0
 15 16  1  0  0  0
 16 17  2  0  0  0
 17 18  1  0  0  0
 17 19  1  0  0  0
 19 20  2  0  0  0
 28 23  1  0  0  0
 20  1  1  0  0  0
 12  2  1  0  0  0
 20 14  1  0  0  0
 11  5  1  0  0  0
  8 21  1  0  0  0
 18 22  1  0  0  0
M  END
> <minimizedAffinity>
3.14226

> <CNNscore>
0.4024807215

> <CNNaffinity>
5.5884046555

> <CNN_VS>
2.2492251396

> <CNNaffinity_variance>
1.3348262310

$$$$
[H]Oc1c([H])c([H])c2c(c1[H])OC([H])([H])c1c-2nc2c([H])c([H])c(O[H])c([H])c2c1-c1c([H])c([H])c(OC([H])([H])[H])c([H])c1[H]


 30 34  0  0  0  0  0  0  0  0999 V2000
   -5.2323   -6.0783    8.4558 C   0  0  0  0  0  0  0  0  0  0  0  0
   -6.2717   -7.0415    8.4303 C   0  0  0  0  0  0  0  0  0  0  0  0
   -6.6742   -7.6866    9.6430 C   0  0  0  0  0  0  0  0  0  0  0  0
   -7.6656   -8.6288    9.4684 O   0  0  0  0  0  0  0  0  0  0  0  0
   -8.2514   -8.8858    8.2583 C   0  0  0  0  0  0  0  0  0  0  0  0
   -9.2757   -9.8375    8.1612 C   0  0  0  0  0  0  0  0  0  0  0  0
   -9.8807  -10.1142    6.9553 C   0  0  0  0  0  0  0  0  0  0  0  0
  -10.9114  -11.0618    6.8167 O   0  0  0  0  0  0  0  0  0  0  0  0
   -9.5025   -9.4656    5.7948 C   0  0  0  0  0  0  0  0  0  0  0  0
   -8.4792   -8.5110    5.8740 C   0  0  0  0  0  0  0  0  0  0  0  0
   -7.8916   -8.2539    7.0928 C   0  0  0  0  0  0  0  0  0  0  0  0
   -6.8127   -7.2550    7.2075 C   0  0  0  0  0  0  0  0  0  0  0  0
   -6.4112   -6.6071    6.0633 N   0  0  0  0  0  0  0  0  0  0  0  0
   -5.4226   -5.7045    6.1467 C   0  0  0  0  0  0  0  0  0  0  0  0
   -4.9714   -5.0160    5.0264 C   0  0  0  0  0  0  0  0  0  0  0  0
   -3.9553   -4.0893    5.1153 C   0  0  0  0  0  0  0  0  0  0  0  0
   -3.3439   -3.8113    6.3389 C   0  0  0  0  0  0  0  0  0  0  0  0
   -2.3201   -2.8822    6.4464 O   0  0  0  0  0  0  0  0  0  0  0  0
   -3.7631   -4.4643    7.4354 C   0  0  0  0  0  0  0  0  0  0  0  0
   -4.7983   -5.4071    7.3398 C   0  0  0  0  0  0  0  0  0  0  0  0
  -11.8862  -10.7835    6.9256 H   0  0  0  0  0  0  0  0  0  0  0  0
   -1.9647   -2.3582    5.6424 H   0  0  0  0  0  0  0  0  0  0  0  0
   -3.2660   -5.2463   12.1492 C   0  0  0  0  0  0  0  0  0  0  0  0
   -2.6210   -5.1706   10.9207 C   0  0  0  0  0  0  0  0  0  0  0  0
   -3.2982   -5.4486    9.7543 C   0  0  0  0  0  0  0  0  0  0  0  0
   -4.6085   -5.8075    9.7165 C   0  0  0  0  0  0  0  0  0  0  0  0
   -5.2544   -5.8864   10.9109 C   0  0  0  0  0  0  0  0  0  0  0  0
   -4.5910   -5.6114   12.0853 C   0  0  0  0  0  0  0  0  0  0  0  0
   -1.3906   -4.2759   13.4463 C   0  0  0  0  0  0  0  0  0  0  0  0
   -2.5889   -4.9670   13.3294 O   0  0  0  0  0  0  0  0  0  0  0  0
 29 30  1  0  0  0
 30 23  1  0  0  0
 23 24  2  0  0  0
 24 25  1  0  0  0
 25 26  2  0  0  0
 26 27  1  0  0  0
 27 28  2  0  0  0
 26  1  1  0  0  0
  1  2  2  0  0  0
  2  3  1  0  0  0
  3  4  1  0  0  0
  4  5  1  0  0  0
  5  6  2  0  0  0
  6  7  1  0  0  0
  7  8  1  0  0  0
  7  9  2  0  0  0
  9 10  1  0  0  0
 10 11  2  0  0  0
 11 12  1  0  0  0
 12 13  2  0  0  0
 13 14  1  0  0  0
 14 15  2  0  0  0
 15 16  1  0  0  0
 16 17  2  0  0  0
 17 18  1  0  0  0
 17 19  1  0  0  0
 19 20  2  0  0  0
 28 23  1  0  0  0
 20  1  1  0  0  0
 12  2  1  0  0  0
 20 14  1  0  0  0
 11  5  1  0  0  0
  8 21  1  0  0  0
 18 22  1  0  0  0
M  END
> <minimizedAffinity>
1.48270

> <CNNscore>
0.3861679733

> <CNNaffinity>
5.3413219452

> <CNN_VS>
2.0626475811

> <CNNaffinity_variance>
0.6611911058

$$$$
[H]Oc1c([H])c([H])c2c(c1[H])OC([H])([H])c1c-2nc2c([H])c([H])c(O[H])c([H])c2c1-c1c([H])c([H])c(OC([H])([H])[H])c([H])c1[H]


 30 34  0  0  0  0  0  0  0  0999 V2000
   -6.9081   -7.9241    7.1283 C   0  0  0  0  0  0  0  0  0  0  0  0
   -8.2708   -7.5793    7.3103 C   0  0  0  0  0  0  0  0  0  0  0  0
   -8.7437   -6.2974    6.8838 C   0  0  0  0  0  0  0  0  0  0  0  0
  -10.0772   -6.0781    7.1573 O   0  0  0  0  0  0  0  0  0  0  0  0
  -10.8893   -7.0179    7.7326 C   0  0  0  0  0  0  0  0  0  0  0  0
  -12.2441   -6.7354    7.9538 C   0  0  0  0  0  0  0  0  0  0  0  0
  -13.0816   -7.6639    8.5312 C   0  0  0  0  0  0  0  0  0  0  0  0
  -14.4464   -7.4186    8.7698 O   0  0  0  0  0  0  0  0  0  0  0  0
  -12.6202   -8.9090    8.9148 C   0  0  0  0  0  0  0  0  0  0  0  0
  -11.2676   -9.2079    8.7010 C   0  0  0  0  0  0  0  0  0  0  0  0
  -10.4525   -8.2609    8.1217 C   0  0  0  0  0  0  0  0  0  0  0  0
   -9.0252   -8.5463    7.8841 C   0  0  0  0  0  0  0  0  0  0  0  0
   -8.5415   -9.7739    8.2701 N   0  0  0  0  0  0  0  0  0  0  0  0
   -7.2430  -10.0461    8.0731 C   0  0  0  0  0  0  0  0  0  0  0  0
   -6.6933  -11.2688    8.4414 C   0  0  0  0  0  0  0  0  0  0  0  0
   -5.3587  -11.5454    8.2379 C   0  0  0  0  0  0  0  0  0  0  0  0
   -4.5124  -10.6021    7.6528 C   0  0  0  0  0  0  0  0  0  0  0  0
   -3.1672  -10.8636    7.4409 O   0  0  0  0  0  0  0  0  0  0  0  0
   -5.0211   -9.4134    7.2887 C   0  0  0  0  0  0  0  0  0  0  0  0
   -6.3809   -9.1364    7.4979 C   0  0  0  0  0  0  0  0  0  0  0  0
  -15.1427   -7.6428    8.0597 H   0  0  0  0  0  0  0  0  0  0  0  0
   -2.7311  -11.7526    7.6998 H   0  0  0  0  0  0  0  0  0  0  0  0
   -4.4466   -4.9252    5.3542 C   0  0  0  0  0  0  0  0  0  0  0  0
   -5.7882   -4.7175    5.6511 C   0  0  0  0  0  0  0  0  0  0  0  0
   -6.5429   -5.7168    6.2242 C   0  0  0  0  0  0  0  0  0  0  0  0
   -6.0489   -6.9446    6.5332 C   0  0  0  0  0  0  0  0  0  0  0  0
   -4.7371   -7.1640    6.2486 C   0  0  0  0  0  0  0  0  0  0  0  0
   -3.9698   -6.1750    5.6759 C   0  0  0  0  0  0  0  0  0  0  0  0
   -4.1437   -2.8976    3.9620 C   0  0  0  0  0  0  0  0  0  0  0  0
   -3.6797   -3.9216    4.7765 O   0  0  0  0  0  0  0  0  0  0  0  0
 29 30  1  0  0  0
 30 23  1  0  0  0
 23 24  2  0  0  0
 24 25  1  0  0  0
 25 26  2  0  0  0
 26 27  1  0  0  0
 27 28  2  0  0  0
 26  1  1  0  0  0
  1  2  2  0  0  0
  2  3  1  0  0  0
  3  4  1  0  0  0
  4  5  1  0  0  0
  5  6  2  0  0  0
  6  7  1  0  0  0
  7  8  1  0  0  0
  7  9  2  0  0  0
  9 10  1  0  0  0
 10 11  2  0  0  0
 11 12  1  0  0  0
 12 13  2  0  0  0
 13 14  1  0  0  0
 14 15  2  0  0  0
 15 16  1  0  0  0
 16 17  2  0  0  0
 17 18  1  0  0  0
 17 19  1  0  0  0
 19 20  2  0  0  0
 28 23  1  0  0  0
 20  1  1  0  0  0
 12  2  1  0  0  0
 20 14  1  0  0  0
 11  5  1  0  0  0
  8 21  1  0  0  0
 18 22  1  0  0  0
M  END
> <minimizedAffinity>
14.22155

> <CNNscore>
0.3315706849

> <CNNaffinity>
5.6212339401

> <CNN_VS>
1.8638364077

> <CNNaffinity_variance>
0.5562731624

$$$$
[H]Oc1c([H])c([H])c2c(c1[H])OC([H])([H])c1c-2nc2c([H])c([H])c(O[H])c([H])c2c1-c1c([H])c([H])c(OC([H])([H])[H])c([H])c1[H]


 30 34  0  0  0  0  0  0  0  0999 V2000
  -13.3211   -8.5980    7.4307 C   0  0  0  0  0  0  0  0  0  0  0  0
  -14.0715   -8.4504    6.2374 C   0  0  0  0  0  0  0  0  0  0  0  0
  -13.4298   -8.6139    4.9684 C   0  0  0  0  0  0  0  0  0  0  0  0
  -14.2656   -8.4032    3.8921 O   0  0  0  0  0  0  0  0  0  0  0  0
  -15.5983   -8.1189    4.0217 C   0  0  0  0  0  0  0  0  0  0  0  0
  -16.3943   -7.9466    2.8812 C   0  0  0  0  0  0  0  0  0  0  0  0
  -17.7373   -7.6598    2.9851 C   0  0  0  0  0  0  0  0  0  0  0  0
  -18.5696   -7.4796    1.8649 O   0  0  0  0  0  0  0  0  0  0  0  0
  -18.3526   -7.5306    4.2160 C   0  0  0  0  0  0  0  0  0  0  0  0
  -17.5709   -7.6996    5.3671 C   0  0  0  0  0  0  0  0  0  0  0  0
  -16.2303   -7.9859    5.2342 C   0  0  0  0  0  0  0  0  0  0  0  0
  -15.3824   -8.1692    6.4268 C   0  0  0  0  0  0  0  0  0  0  0  0
  -15.9705   -8.0321    7.6618 N   0  0  0  0  0  0  0  0  0  0  0  0
  -15.2118   -8.1830    8.7576 C   0  0  0  0  0  0  0  0  0  0  0  0
  -15.7470   -8.0567   10.0345 C   0  0  0  0  0  0  0  0  0  0  0  0
  -14.9647   -8.2122   11.1583 C   0  0  0  0  0  0  0  0  0  0  0  0
  -13.6038   -8.5025   11.0497 C   0  0  0  0  0  0  0  0  0  0  0  0
  -12.8020   -8.6618   12.1699 O   0  0  0  0  0  0  0  0  0  0  0  0
  -13.0643   -8.6290    9.8260 C   0  0  0  0  0  0  0  0  0  0  0  0
  -13.8650   -8.4700    8.6845 C   0  0  0  0  0  0  0  0  0  0  0  0
  -19.0553   -8.2742    1.4500 H   0  0  0  0  0  0  0  0  0  0  0  0
  -13.1638   -8.5759   13.1233 H   0  0  0  0  0  0  0  0  0  0  0  0
   -9.1344   -9.3471    7.0985 C   0  0  0  0  0  0  0  0  0  0  0  0
   -9.6481   -8.1315    7.5337 C   0  0  0  0  0  0  0  0  0  0  0  0
  -11.0084   -7.9368    7.6246 C   0  0  0  0  0  0  0  0  0  0  0  0
  -11.9241   -8.8889    7.3052 C   0  0  0  0  0  0  0  0  0  0  0  0
  -11.4374  -10.0846    6.8772 C   0  0  0  0  0  0  0  0  0  0  0  0
  -10.0803  -10.2944    6.7811 C   0  0  0  0  0  0  0  0  0  0  0  0
   -6.8217   -8.6222    6.5818 C   0  0  0  0  0  0  0  0  0  0  0  0
   -7.7636   -9.5501    7.0048 O   0  0  0  0  0  0  0  0  0  0  0  0
 29 30  1  0  0  0
 30 23  1  0  0  0
 23 24  2  0  0  0
 24 25  1  0  0  0
 25 26  2  0  0  0
 26 27  1  0  0  0
 27 28  2  0  0  0
 26  1  1  0  0  0
  1  2  2  0  0  0
  2  3  1  0  0  0
  3  4  1  0  0  0
  4  5  1  0  0  0
  5  6  2  0  0  0
  6  7  1  0  0  0
  7  8  1  0  0  0
  7  9  2  0  0  0
  9 10  1  0  0  0
 10 11  2  0  0  0
 11 12  1  0  0  0
 12 13  2  0  0  0
 13 14  1  0  0  0
 14 15  2  0  0  0
 15 16  1  0  0  0
 16 17  2  0  0  0
 17 18  1  0  0  0
 17 19  1  0  0  0
 19 20  2  0  0  0
 28 23  1  0  0  0
 20  1  1  0  0  0
 12  2  1  0  0  0
 20 14  1  0  0  0
 11  5  1  0  0  0
  8 21  1  0  0  0
 18 22  1  0  0  0
M  END
> <minimizedAffinity>
-1.11310

> <CNNscore>
0.3124783337

> <CNNaffinity>
6.5802445412

> <CNN_VS>
2.0561838150

> <CNNaffinity_variance>
0.5985512137

$$$$
[H]/C(=C1/SC(=O)N(C([H])([H])C([H])([H])N2C([H])([H])C([H])([H])C([H])([H])C2([H])[H])C1=O)c1c([H])c([H])c2c(c([H])nn2C([H])([H])c2c([H])c([H])c(Cl)c([H])c2C(F)(F)F)c1[H]


 36 40  0  0  0  0  0  0  0  0999 V2000
   -8.0321  -10.3457    4.1269 N   0  0  0  0  0  0  0  0  0  0  0  0
   -7.1041   -9.9690    3.1886 N   0  0  0  0  0  0  0  0  0  0  0  0
   -6.2678   -9.0700    3.6590 C   0  0  0  0  0  0  0  0  0  0  0  0
   -6.6172   -8.8108    4.9653 C   0  0  0  0  0  0  0  0  0  0  0  0
   -6.1277   -7.9508    5.9384 C   0  0  0  0  0  0  0  0  0  0  0  0
   -6.7427   -7.8955    7.1682 C   0  0  0  0  0  0  0  0  0  0  0  0
   -7.8372   -8.6919    7.4213 C   0  0  0  0  0  0  0  0  0  0  0  0
   -8.2897   -9.5270    6.4418 C   0  0  0  0  0  0  0  0  0  0  0  0
   -7.7216   -9.6328    5.1993 C   0  0  0  0  0  0  0  0  0  0  0  0
   -6.1905   -6.9975    8.1743 C   0  0  0  0  0  0  0  0  0  0  0  0
   -4.9190   -6.7744    8.3852 C   0  0  0  0  0  0  0  0  0  0  0  0
   -3.5709   -7.5215    7.4937 S   0  0  0  0  0  0  0  0  0  0  0  0
   -2.2783   -6.4871    8.2232 C   0  0  0  0  0  0  0  0  0  0  0  0
   -1.0645   -6.4480    7.8593 O   0  0  0  0  0  0  0  0  0  0  0  0
   -2.9192   -5.7627    9.2501 N   0  0  0  0  0  0  0  0  0  0  0  0
   -4.2951   -5.8992    9.3499 C   0  0  0  0  0  0  0  0  0  0  0  0
   -5.0110   -5.3019   10.2297 O   0  0  0  0  0  0  0  0  0  0  0  0
   -2.1206   -4.9106   10.1617 C   0  0  0  0  0  0  0  0  0  0  0  0
   -2.7722   -5.0399   11.5001 C   0  0  0  0  0  0  0  0  0  0  0  0
   -2.2931   -6.0517   12.3672 N   0  0  0  0  0  0  0  0  0  0  0  0
   -3.2037   -6.5453   13.3430 C   0  0  0  0  0  0  0  0  0  0  0  0
   -2.6430   -6.2688   14.7067 C   0  0  0  0  0  0  0  0  0  0  0  0
   -1.1925   -6.0209   14.4589 C   0  0  0  0  0  0  0  0  0  0  0  0
   -1.1111   -5.5481   13.0477 C   0  0  0  0  0  0  0  0  0  0  0  0
   -9.0026  -11.3831    3.8312 C   0  0  0  0  0  0  0  0  0  0  0  0
   -7.9960  -13.2051    2.3818 C   0  0  0  0  0  0  0  0  0  0  0  0
   -7.5406  -14.5427    2.2893 C   0  0  0  0  0  0  0  0  0  0  0  0
   -7.5535  -15.3319    3.4159 C   0  0  0  0  0  0  0  0  0  0  0  0
   -6.9901  -16.9855    3.2883 Cl  0  0  0  0  0  0  0  0  0  0  0  0
   -7.9972  -14.8469    4.6290 C   0  0  0  0  0  0  0  0  0  0  0  0
   -8.4258  -13.5640    4.6822 C   0  0  0  0  0  0  0  0  0  0  0  0
   -8.4380  -12.6992    3.5484 C   0  0  0  0  0  0  0  0  0  0  0  0
   -9.1909  -12.6304    0.4732 F   0  0  0  0  0  0  0  0  0  0  0  0
   -7.9535  -12.3996    1.1473 C   0  0  0  0  0  0  0  0  0  0  0  0
   -6.9865  -12.6794    0.2608 F   0  0  0  0  0  0  0  0  0  0  0  0
   -8.1024  -11.0169    1.4128 F   0  0  0  0  0  0  0  0  0  0  0  0
 33 34  1  0  0  0
 34 35  1  0  0  0
 34 36  1  0  0  0
 34 26  1  0  0  0
 26 27  2  0  0  0
 27 28  1  0  0  0
 28 29  1  0  0  0
 28 30  2  0  0  0
 30 31  1  0  0  0
 31 32  2  0  0  0
 32 25  1  0  0  0
 25  1  1  0  0  0
  1  2  1  0  0  0
  2  3  2  0  0  0
  3  4  1  0  0  0
  4  5  2  0  0  0
  5  6  1  0  0  0
  6 10  1  0  0  0
 10 11  2  0  0  0
 11 12  1  0  0  0
 12 13  1  0  0  0
 13 14  2  0  0  0
 13 15  1  0  0  0
 15 18  1  0  0  0
 18 19  1  0  0  0
 19 20  1  0  0  0
 20 21  1  0  0  0
 21 22  1  0  0  0
 22 23  1  0  0  0
 23 24  1  0  0  0
 15 16  1  0  0  0
 16 17  2  0  0  0
  6  7  2  0  0  0
  7  8  1  0  0  0
  8  9  2  0  0  0
 32 26  1  0  0  0
  9  1  1  0  0  0
  9  4  1  0  0  0
 16 11  1  0  0  0
 24 20  1  0  0  0
M  END
> <minimizedAffinity>
9.21226

> <CNNscore>
0.5163571239

> <CNNaffinity>
6.2085494995

> <CNN_VS>
3.2058286667

> <CNNaffinity_variance>
1.1529766321

$$$$
[H]/C(=C1/SC(=O)N(C([H])([H])C([H])([H])N2C([H])([H])C([H])([H])C([H])([H])C2([H])[H])C1=O)c1c([H])c([H])c2c(c([H])nn2C([H])([H])c2c([H])c([H])c(Cl)c([H])c2C(F)(F)F)c1[H]


 36 40  0  0  0  0  0  0  0  0999 V2000
  -11.3632   -9.5741    7.4005 N   0  0  0  0  0  0  0  0  0  0  0  0
  -10.9853  -10.6269    6.6054 N   0  0  0  0  0  0  0  0  0  0  0  0
   -9.6837  -10.6603    6.4214 C   0  0  0  0  0  0  0  0  0  0  0  0
   -9.1326   -9.6026    7.1093 C   0  0  0  0  0  0  0  0  0  0  0  0
   -7.8391   -9.1224    7.2580 C   0  0  0  0  0  0  0  0  0  0  0  0
   -7.6176   -7.9837    7.9984 C   0  0  0  0  0  0  0  0  0  0  0  0
   -8.6801   -7.3316    8.5832 C   0  0  0  0  0  0  0  0  0  0  0  0
   -9.9381   -7.8334    8.4177 C   0  0  0  0  0  0  0  0  0  0  0  0
  -10.2260   -8.9629    7.6972 C   0  0  0  0  0  0  0  0  0  0  0  0
   -6.2452   -7.5186    8.1522 C   0  0  0  0  0  0  0  0  0  0  0  0
   -5.5807   -6.7969    7.2870 C   0  0  0  0  0  0  0  0  0  0  0  0
   -6.2000   -6.2217    5.7199 S   0  0  0  0  0  0  0  0  0  0  0  0
   -4.7917   -5.1465    5.3542 C   0  0  0  0  0  0  0  0  0  0  0  0
   -4.7170   -4.3206    4.3953 O   0  0  0  0  0  0  0  0  0  0  0  0
   -3.8372   -5.4342    6.3523 N   0  0  0  0  0  0  0  0  0  0  0  0
   -4.2301   -6.2918    7.3681 C   0  0  0  0  0  0  0  0  0  0  0  0
   -3.4730   -6.6415    8.3416 O   0  0  0  0  0  0  0  0  0  0  0  0
   -2.4863   -4.8305    6.2779 C   0  0  0  0  0  0  0  0  0  0  0  0
   -1.6981   -5.7281    5.3803 C   0  0  0  0  0  0  0  0  0  0  0  0
   -1.0606   -5.1399    4.2610 N   0  0  0  0  0  0  0  0  0  0  0  0
   -1.2556   -3.7430    4.0718 C   0  0  0  0  0  0  0  0  0  0  0  0
   -1.9348   -3.5273    2.7517 C   0  0  0  0  0  0  0  0  0  0  0  0
   -1.7002   -4.8012    2.0108 C   0  0  0  0  0  0  0  0  0  0  0  0
   -1.5034   -5.8370    3.0645 C   0  0  0  0  0  0  0  0  0  0  0  0
  -12.7514   -9.4001    7.7855 C   0  0  0  0  0  0  0  0  0  0  0  0
  -13.7812   -7.0840    7.6918 C   0  0  0  0  0  0  0  0  0  0  0  0
  -14.5059   -6.1286    6.9388 C   0  0  0  0  0  0  0  0  0  0  0  0
  -14.8554   -6.4263    5.6420 C   0  0  0  0  0  0  0  0  0  0  0  0
  -15.7540   -5.2375    4.7214 Cl  0  0  0  0  0  0  0  0  0  0  0  0
  -14.5130   -7.6309    5.0630 C   0  0  0  0  0  0  0  0  0  0  0  0
  -13.8205   -8.5215    5.8110 C   0  0  0  0  0  0  0  0  0  0  0  0
  -13.4322   -8.2704    7.1601 C   0  0  0  0  0  0  0  0  0  0  0  0
  -13.9010   -5.3803    9.2679 F   0  0  0  0  0  0  0  0  0  0  0  0
  -13.4243   -6.7121    9.0735 C   0  0  0  0  0  0  0  0  0  0  0  0
  -12.1210   -6.6931    9.3904 F   0  0  0  0  0  0  0  0  0  0  0  0
  -14.2342   -7.3766   10.0259 F   0  0  0  0  0  0  0  0  0  0  0  0
 33 34  1  0  0  0
 34 35  1  0  0  0
 34 36  1  0  0  0
 34 26  1  0  0  0
 26 27  2  0  0  0
 27 28  1  0  0  0
 28 29  1  0  0  0
 28 30  2  0  0  0
 30 31  1  0  0  0
 31 32  2  0  0  0
 32 25  1  0  0  0
 25  1  1  0  0  0
  1  2  1  0  0  0
  2  3  2  0  0  0
  3  4  1  0  0  0
  4  5  2  0  0  0
  5  6  1  0  0  0
  6 10  1  0  0  0
 10 11  2  0  0  0
 11 12  1  0  0  0
 12 13  1  0  0  0
 13 14  2  0  0  0
 13 15  1  0  0  0
 15 18  1  0  0  0
 18 19  1  0  0  0
 19 20  1  0  0  0
 20 21  1  0  0  0
 21 22  1  0  0  0
 22 23  1  0  0  0
 23 24  1  0  0  0
 15 16  1  0  0  0
 16 17  2  0  0  0
  6  7  2  0  0  0
  7  8  1  0  0  0
  8  9  2  0  0  0
 32 26  1  0  0  0
  9  1  1  0  0  0
  9  4  1  0  0  0
 16 11  1  0  0  0
 24 20  1  0  0  0
M  END
> <minimizedAffinity>
-8.32211

> <CNNscore>
0.4477119446

> <CNNaffinity>
7.2060470581

> <CNN_VS>
3.2262332439

> <CNNaffinity_variance>
0.1737808138

$$$$
[H]/C(=C1/SC(=O)N(C([H])([H])C([H])([H])N2C([H])([H])C([H])([H])C([H])([H])C2([H])[H])C1=O)c1c([H])c([H])c2c(c([H])nn2C([H])([H])c2c([H])c([H])c(Cl)c([H])c2C(F)(F)F)c1[H]


 36 40  0  0  0  0  0  0  0  0999 V2000
  -15.2668   -7.5127    7.2961 N   0  0  0  0  0  0  0  0  0  0  0  0
  -14.3317   -7.1288    6.3679 N   0  0  0  0  0  0  0  0  0  0  0  0
  -13.1608   -6.8950    6.9188 C   0  0  0  0  0  0  0  0  0  0  0  0
  -13.2772   -7.1241    8.2714 C   0  0  0  0  0  0  0  0  0  0  0  0
  -12.4021   -7.0161    9.3431 C   0  0  0  0  0  0  0  0  0  0  0  0
  -12.8503   -7.2840   10.6163 C   0  0  0  0  0  0  0  0  0  0  0  0
  -14.1614   -7.6551   10.8152 C   0  0  0  0  0  0  0  0  0  0  0  0
  -14.9930   -7.7532    9.7379 C   0  0  0  0  0  0  0  0  0  0  0  0
  -14.6095   -7.5045    8.4461 C   0  0  0  0  0  0  0  0  0  0  0  0
  -11.9002   -7.1816   11.7165 C   0  0  0  0  0  0  0  0  0  0  0  0
  -11.4949   -6.0711   12.2763 C   0  0  0  0  0  0  0  0  0  0  0  0
  -12.0082   -4.4288   11.8184 S   0  0  0  0  0  0  0  0  0  0  0  0
  -11.2114   -3.5964   13.2131 C   0  0  0  0  0  0  0  0  0  0  0  0
  -11.3492   -2.3758   13.5269 O   0  0  0  0  0  0  0  0  0  0  0  0
  -10.4341   -4.5909   13.8429 N   0  0  0  0  0  0  0  0  0  0  0  0
  -10.5688   -5.8866   13.3690 C   0  0  0  0  0  0  0  0  0  0  0  0
   -9.9299   -6.8916   13.8435 O   0  0  0  0  0  0  0  0  0  0  0  0
   -9.5243   -4.2239   14.9531 C   0  0  0  0  0  0  0  0  0  0  0  0
   -8.2229   -3.8804   14.3041 C   0  0  0  0  0  0  0  0  0  0  0  0
   -7.1214   -4.7351   14.5519 N   0  0  0  0  0  0  0  0  0  0  0  0
   -5.9465   -4.1312   15.0811 C   0  0  0  0  0  0  0  0  0  0  0  0
   -4.8222   -4.3346   14.1088 C   0  0  0  0  0  0  0  0  0  0  0  0
   -5.2899   -5.4567   13.2434 C   0  0  0  0  0  0  0  0  0  0  0  0
   -6.7782   -5.4095   13.3105 C   0  0  0  0  0  0  0  0  0  0  0  0
  -16.6064   -7.8882    6.8835 C   0  0  0  0  0  0  0  0  0  0  0  0
  -17.3944   -6.4621    4.9396 C   0  0  0  0  0  0  0  0  0  0  0  0
  -17.7188   -6.3935    3.5630 C   0  0  0  0  0  0  0  0  0  0  0  0
  -17.5541   -7.5136    2.7815 C   0  0  0  0  0  0  0  0  0  0  0  0
  -17.9612   -7.4170    1.0806 Cl  0  0  0  0  0  0  0  0  0  0  0  0
  -17.0790   -8.6961    3.3101 C   0  0  0  0  0  0  0  0  0  0  0  0
  -16.7788   -8.7272    4.6297 C   0  0  0  0  0  0  0  0  0  0  0  0
  -16.9305   -7.5998    5.4898 C   0  0  0  0  0  0  0  0  0  0  0  0
  -16.3803   -4.4731    5.5847 F   0  0  0  0  0  0  0  0  0  0  0  0
  -17.5812   -5.2316    5.7305 C   0  0  0  0  0  0  0  0  0  0  0  0
  -17.7785   -5.3701    7.0501 F   0  0  0  0  0  0  0  0  0  0  0  0
  -18.4840   -4.3354    5.1090 F   0  0  0  0  0  0  0  0  0  0  0  0
 33 34  1  0  0  0
 34 35  1  0  0  0
 34 36  1  0  0  0
 34 26  1  0  0  0
 26 27  2  0  0  0
 27 28  1  0  0  0
 28 29  1  0  0  0
 28 30  2  0  0  0
 30 31  1  0  0  0
 31 32  2  0  0  0
 32 25  1  0  0  0
 25  1  1  0  0  0
  1  2  1  0  0  0
  2  3  2  0  0  0
  3  4  1  0  0  0
  4  5  2  0  0  0
  5  6  1  0  0  0
  6 10  1  0  0  0
 10 11  2  0  0  0
 11 12  1  0  0  0
 12 13  1  0  0  0
 13 14  2  0  0  0
 13 15  1  0  0  0
 15 18  1  0  0  0
 18 19  1  0  0  0
 19 20  1  0  0  0
 20 21  1  0  0  0
 21 22  1  0  0  0
 22 23  1  0  0  0
 23 24  1  0  0  0
 15 16  1  0  0  0
 16 17  2  0  0  0
  6  7  2  0  0  0
  7  8  1  0  0  0
  8  9  2  0  0  0
 32 26  1  0  0  0
  9  1  1  0  0  0
  9  4  1  0  0  0
 16 11  1  0  0  0
 24 20  1  0  0  0
M  END
> <minimizedAffinity>
16.17250

> <CNNscore>
0.4332410693

> <CNNaffinity>
6.5496416092

> <CNN_VS>
2.8375737667

> <CNNaffinity_variance>
0.8459480405

$$$$
[H]/C(=C1/SC(=O)N(C([H])([H])C([H])([H])N2C([H])([H])C([H])([H])C([H])([H])C2([H])[H])C1=O)c1c([H])c([H])c2c(c([H])nn2C([H])([H])c2c([H])c([H])c(Cl)c([H])c2C(F)(F)F)c1[H]


 36 40  0  0  0  0  0  0  0  0999 V2000
  -14.4572   -7.7712    7.0864 N   0  0  0  0  0  0  0  0  0  0  0  0
  -13.7710   -7.3350    5.9808 N   0  0  0  0  0  0  0  0  0  0  0  0
  -12.5634   -6.9146    6.2872 C   0  0  0  0  0  0  0  0  0  0  0  0
  -12.3965   -7.0628    7.6458 C   0  0  0  0  0  0  0  0  0  0  0  0
  -11.3636   -6.7690    8.5249 C   0  0  0  0  0  0  0  0  0  0  0  0
  -11.5289   -7.0038    9.8707 C   0  0  0  0  0  0  0  0  0  0  0  0
  -12.7164   -7.5264   10.3323 C   0  0  0  0  0  0  0  0  0  0  0  0
  -13.7094   -7.8051    9.4391 C   0  0  0  0  0  0  0  0  0  0  0  0
  -13.6078   -7.5988    8.0882 C   0  0  0  0  0  0  0  0  0  0  0  0
  -10.4169   -6.7041   10.7636 C   0  0  0  0  0  0  0  0  0  0  0  0
  -10.4667   -5.9230   11.8116 C   0  0  0  0  0  0  0  0  0  0  0  0
  -11.9046   -5.0427   12.3845 S   0  0  0  0  0  0  0  0  0  0  0  0
  -11.1657   -4.4845   13.9386 C   0  0  0  0  0  0  0  0  0  0  0  0
  -11.7777   -3.9069   14.8868 O   0  0  0  0  0  0  0  0  0  0  0  0
   -9.8020   -4.8336   13.8468 N   0  0  0  0  0  0  0  0  0  0  0  0
   -9.4189   -5.5837   12.7458 C   0  0  0  0  0  0  0  0  0  0  0  0
   -8.2175   -5.9755   12.5305 O   0  0  0  0  0  0  0  0  0  0  0  0
   -8.8550   -4.3944   14.8981 C   0  0  0  0  0  0  0  0  0  0  0  0
   -8.9613   -2.9043   14.9320 C   0  0  0  0  0  0  0  0  0  0  0  0
   -8.3169   -2.2254   15.9945 N   0  0  0  0  0  0  0  0  0  0  0  0
   -8.8081   -0.9302   16.3206 C   0  0  0  0  0  0  0  0  0  0  0  0
   -7.7058    0.0669   16.1173 C   0  0  0  0  0  0  0  0  0  0  0  0
   -6.4646   -0.7615   16.1097 C   0  0  0  0  0  0  0  0  0  0  0  0
   -6.9020   -2.1192   15.6773 C   0  0  0  0  0  0  0  0  0  0  0  0
  -15.7838   -8.3440    6.9541 C   0  0  0  0  0  0  0  0  0  0  0  0
  -17.1826   -7.0633    5.2698 C   0  0  0  0  0  0  0  0  0  0  0  0
  -17.7958   -7.0459    3.9936 C   0  0  0  0  0  0  0  0  0  0  0  0
  -17.6204   -8.1212    3.1538 C   0  0  0  0  0  0  0  0  0  0  0  0
  -18.3860   -8.0891    1.5786 Cl  0  0  0  0  0  0  0  0  0  0  0  0
  -16.8601   -9.2100    3.5282 C   0  0  0  0  0  0  0  0  0  0  0  0
  -16.2883   -9.1942    4.7550 C   0  0  0  0  0  0  0  0  0  0  0  0
  -16.4359   -8.1098    5.6693 C   0  0  0  0  0  0  0  0  0  0  0  0
  -16.2025   -5.1025    6.0415 F   0  0  0  0  0  0  0  0  0  0  0  0
  -17.3952   -5.8828    6.1276 C   0  0  0  0  0  0  0  0  0  0  0  0
  -17.6071   -6.0995    7.4343 F   0  0  0  0  0  0  0  0  0  0  0  0
  -18.3017   -4.9634    5.5467 F   0  0  0  0  0  0  0  0  0  0  0  0
 33 34  1  0  0  0
 34 35  1  0  0  0
 34 36  1  0  0  0
 34 26  1  0  0  0
 26 27  2  0  0  0
 27 28  1  0  0  0
 28 29  1  0  0  0
 28 30  2  0  0  0
 30 31  1  0  0  0
 31 32  2  0  0  0
 32 25  1  0  0  0
 25  1  1  0  0  0
  1  2  1  0  0  0
  2  3  2  0  0  0
  3  4  1  0  0  0
  4  5  2  0  0  0
  5  6  1  0  0  0
  6 10  1  0  0  0
 10 11  2  0  0  0
 11 12  1  0  0  0
 12 13  1  0  0  0
 13 14  2  0  0  0
 13 15  1  0  0  0
 15 18  1  0  0  0
 18 19  1  0  0  0
 19 20  1  0  0  0
 20 21  1  0  0  0
 21 22  1  0  0  0
 22 23  1  0  0  0
 23 24  1  0  0  0
 15 16  1  0  0  0
 16 17  2  0  0  0
  6  7  2  0  0  0
  7  8  1  0  0  0
  8  9  2  0  0  0
 32 26  1  0  0  0
  9  1  1  0  0  0
  9  4  1  0  0  0
 16 11  1  0  0  0
 24 20  1  0  0  0
M  END
> <minimizedAffinity>
14.37187

> <CNNscore>
0.4031366706

> <CNNaffinity>
6.5011849403

> <CNN_VS>
2.6208660603

> <CNNaffinity_variance>
1.4487690926

$$$$
[H]/C(=C1/SC(=O)N(C([H])([H])C([H])([H])N2C([H])([H])C([H])([H])C([H])([H])C2([H])[H])C1=O)c1c([H])c([H])c2c(c([H])nn2C([H])([H])c2c([H])c([H])c(Cl)c([H])c2C(F)(F)F)c1[H]


 36 40  0  0  0  0  0  0  0  0999 V2000
  -10.5202   -9.2733    7.7057 N   0  0  0  0  0  0  0  0  0  0  0  0
  -10.0733  -10.5075    7.3051 N   0  0  0  0  0  0  0  0  0  0  0  0
   -8.8795  -10.4432    6.7578 C   0  0  0  0  0  0  0  0  0  0  0  0
   -8.4761   -9.1269    6.7776 C   0  0  0  0  0  0  0  0  0  0  0  0
   -7.3463   -8.4611    6.3235 C   0  0  0  0  0  0  0  0  0  0  0  0
   -7.2623   -7.0942    6.4591 C   0  0  0  0  0  0  0  0  0  0  0  0
   -8.2991   -6.4005    7.0423 C   0  0  0  0  0  0  0  0  0  0  0  0
   -9.3936   -7.0881    7.4791 C   0  0  0  0  0  0  0  0  0  0  0  0
   -9.5381   -8.4470    7.3778 C   0  0  0  0  0  0  0  0  0  0  0  0
   -6.0532   -6.4289    5.9911 C   0  0  0  0  0  0  0  0  0  0  0  0
   -5.0619   -6.0261    6.7433 C   0  0  0  0  0  0  0  0  0  0  0  0
   -4.9653   -6.1942    8.5133 S   0  0  0  0  0  0  0  0  0  0  0  0
   -3.2453   -5.6504    8.6515 C   0  0  0  0  0  0  0  0  0  0  0  0
   -2.5335   -5.6969    9.6996 O   0  0  0  0  0  0  0  0  0  0  0  0
   -2.9000   -5.1838    7.3659 N   0  0  0  0  0  0  0  0  0  0  0  0
   -3.8336   -5.3712    6.3584 C   0  0  0  0  0  0  0  0  0  0  0  0
   -3.6582   -5.0021    5.1433 O   0  0  0  0  0  0  0  0  0  0  0  0
   -1.5914   -4.5248    7.1465 C   0  0  0  0  0  0  0  0  0  0  0  0
   -1.6674   -3.2315    7.8910 C   0  0  0  0  0  0  0  0  0  0  0  0
   -1.9257   -2.0581    7.1415 N   0  0  0  0  0  0  0  0  0  0  0  0
   -3.2688   -1.5881    7.1272 C   0  0  0  0  0  0  0  0  0  0  0  0
   -3.7680   -1.6032    5.7125 C   0  0  0  0  0  0  0  0  0  0  0  0
   -2.5243   -1.6595    4.8898 C   0  0  0  0  0  0  0  0  0  0  0  0
   -1.4996   -2.2886    5.7707 C   0  0  0  0  0  0  0  0  0  0  0  0
  -11.7869   -9.1357    8.4001 C   0  0  0  0  0  0  0  0  0  0  0  0
  -13.2846   -7.1000    8.1851 C   0  0  0  0  0  0  0  0  0  0  0  0
  -14.2773   -6.4211    7.4377 C   0  0  0  0  0  0  0  0  0  0  0  0
  -14.7061   -6.9642    6.2488 C   0  0  0  0  0  0  0  0  0  0  0  0
  -15.9364   -6.1164    5.3345 Cl  0  0  0  0  0  0  0  0  0  0  0  0
  -14.1883   -8.1507    5.7717 C   0  0  0  0  0  0  0  0  0  0  0  0
  -13.2410   -8.7738    6.5112 C   0  0  0  0  0  0  0  0  0  0  0  0
  -12.7587   -8.2608    7.7513 C   0  0  0  0  0  0  0  0  0  0  0  0
  -13.7361   -5.3703    9.6701 F   0  0  0  0  0  0  0  0  0  0  0  0
  -12.8543   -6.4711    9.4476 C   0  0  0  0  0  0  0  0  0  0  0  0
  -11.6109   -5.9701    9.4952 F   0  0  0  0  0  0  0  0  0  0  0  0
  -13.1965   -7.2580   10.5738 F   0  0  0  0  0  0  0  0  0  0  0  0
 33 34  1  0  0  0
 34 35  1  0  0  0
 34 36  1  0  0  0
 34 26  1  0  0  0
 26 27  2  0  0  0
 27 28  1  0  0  0
 28 29  1  0  0  0
 28 30  2  0  0  0
 30 31  1  0  0  0
 31 32  2  0  0  0
 32 25  1  0  0  0
 25  1  1  0  0  0
  1  2  1  0  0  0
  2  3  2  0  0  0
  3  4  1  0  0  0
  4  5  2  0  0  0
  5  6  1  0  0  0
  6 10  1  0  0  0
 10 11  2  0  0  0
 11 12  1  0  0  0
 12 13  1  0  0  0
 13 14  2  0  0  0
 13 15  1  0  0  0
 15 18  1  0  0  0
 18 19  1  0  0  0
 19 20  1  0  0  0
 20 21  1  0  0  0
 21 22  1  0  0  0
 22 23  1  0  0  0
 23 24  1  0  0  0
 15 16  1  0  0  0
 16 17  2  0  0  0
  6  7  2  0  0  0
  7  8  1  0  0  0
  8  9  2  0  0  0
 32 26  1  0  0  0
  9  1  1  0  0  0
  9  4  1  0  0  0
 16 11  1  0  0  0
 24 20  1  0  0  0
M  END
> <minimizedAffinity>
-8.58388

> <CNNscore>
0.4021890461

> <CNNaffinity>
7.1427154541

> <CNN_VS>
2.8727219105

> <CNNaffinity_variance>
0.0857621431

$$$$
[H]/C(=C1/SC(=O)N(C([H])([H])C([H])([H])N2C([H])([H])C([H])([H])C([H])([H])C2([H])[H])C1=O)c1c([H])c([H])c2c(c([H])nn2C([H])([H])c2c([H])c([H])c(Cl)c([H])c2C(F)(F)F)c1[H]


 36 40  0  0  0  0  0  0  0  0999 V2000
   -9.2997   -9.2519    7.3696 N   0  0  0  0  0  0  0  0  0  0  0  0
   -8.6542  -10.2583    8.0433 N   0  0  0  0  0  0  0  0  0  0  0  0
   -7.3620  -10.0347    8.1389 C   0  0  0  0  0  0  0  0  0  0  0  0
   -7.0937   -8.8359    7.5171 C   0  0  0  0  0  0  0  0  0  0  0  0
   -5.9317   -8.1149    7.2806 C   0  0  0  0  0  0  0  0  0  0  0  0
   -5.9948   -6.9374    6.5712 C   0  0  0  0  0  0  0  0  0  0  0  0
   -7.2085   -6.4864    6.1023 C   0  0  0  0  0  0  0  0  0  0  0  0
   -8.3308   -7.2201    6.3554 C   0  0  0  0  0  0  0  0  0  0  0  0
   -8.3372   -8.3969    7.0575 C   0  0  0  0  0  0  0  0  0  0  0  0
   -4.7594   -6.1943    6.3590 C   0  0  0  0  0  0  0  0  0  0  0  0
   -4.0932   -5.5403    7.2752 C   0  0  0  0  0  0  0  0  0  0  0  0
   -4.5468   -5.4040    8.9916 S   0  0  0  0  0  0  0  0  0  0  0  0
   -3.0097   -4.6100    9.5208 C   0  0  0  0  0  0  0  0  0  0  0  0
   -2.6639   -4.3860   10.7197 O   0  0  0  0  0  0  0  0  0  0  0  0
   -2.3161   -4.3144    8.3285 N   0  0  0  0  0  0  0  0  0  0  0  0
   -2.8649   -4.7913    7.1483 C   0  0  0  0  0  0  0  0  0  0  0  0
   -2.3462   -4.6032    5.9912 O   0  0  0  0  0  0  0  0  0  0  0  0
   -1.0645   -3.5233    8.3793 C   0  0  0  0  0  0  0  0  0  0  0  0
   -1.4400   -2.1541    7.9135 C   0  0  0  0  0  0  0  0  0  0  0  0
   -2.6384   -1.5952    8.4200 N   0  0  0  0  0  0  0  0  0  0  0  0
   -3.4858   -0.9376    7.4848 C   0  0  0  0  0  0  0  0  0  0  0  0
   -3.6218    0.5008    7.8885 C   0  0  0  0  0  0  0  0  0  0  0  0
   -3.2005    0.5170    9.3200 C   0  0  0  0  0  0  0  0  0  0  0  0
   -2.2943   -0.6562    9.4752 C   0  0  0  0  0  0  0  0  0  0  0  0
  -10.7427   -9.2710    7.2186 C   0  0  0  0  0  0  0  0  0  0  0  0
  -12.7893   -8.2886    8.3500 C   0  0  0  0  0  0  0  0  0  0  0  0
  -13.3238   -7.2722    9.1783 C   0  0  0  0  0  0  0  0  0  0  0  0
  -12.4732   -6.3376    9.7217 C   0  0  0  0  0  0  0  0  0  0  0  0
  -13.1466   -5.0837   10.7427 Cl  0  0  0  0  0  0  0  0  0  0  0  0
  -11.1156   -6.3727    9.4784 C   0  0  0  0  0  0  0  0  0  0  0  0
  -10.6379   -7.3576    8.6819 C   0  0  0  0  0  0  0  0  0  0  0  0
  -11.4702   -8.3524    8.0890 C   0  0  0  0  0  0  0  0  0  0  0  0
  -13.5423   -9.2769    6.3860 F   0  0  0  0  0  0  0  0  0  0  0  0
  -13.7426   -9.2701    7.7997 C   0  0  0  0  0  0  0  0  0  0  0  0
  -15.0494   -9.0357    7.9915 F   0  0  0  0  0  0  0  0  0  0  0  0
  -13.3535  -10.6015    8.0833 F   0  0  0  0  0  0  0  0  0  0  0  0
 33 34  1  0  0  0
 34 35  1  0  0  0
 34 36  1  0  0  0
 34 26  1  0  0  0
 26 27  2  0  0  0
 27 28  1  0  0  0
 28 29  1  0  0  0
 28 30  2  0  0  0
 30 31  1  0  0  0
 31 32  2  0  0  0
 32 25  1  0  0  0
 25  1  1  0  0  0
  1  2  1  0  0  0
  2  3  2  0  0  0
  3  4  1  0  0  0
  4  5  2  0  0  0
  5  6  1  0  0  0
  6 10  1  0  0  0
 10 11  2  0  0  0
 11 12  1  0  0  0
 12 13  1  0  0  0
 13 14  2  0  0  0
 13 15  1  0  0  0
 15 18  1  0  0  0
 18 19  1  0  0  0
 19 20  1  0  0  0
 20 21  1  0  0  0
 21 22  1  0  0  0
 22 23  1  0  0  0
 23 24  1  0  0  0
 15 16  1  0  0  0
 16 17  2  0  0  0
  6  7  2  0  0  0
  7  8  1  0  0  0
  8  9  2  0  0  0
 32 26  1  0  0  0
  9  1  1  0  0  0
  9  4  1  0  0  0
 16 11  1  0  0  0
 24 20  1  0  0  0
M  END
> <minimizedAffinity>
-8.58529

> <CNNscore>
0.3845252991

> <CNNaffinity>
6.6299896240

> <CNN_VS>
2.5493986607

> <CNNaffinity_variance>
0.1945669502

$$$$
[H]/C(=C1/SC(=O)N(C([H])([H])C([H])([H])N2C([H])([H])C([H])([H])C([H])([H])C2([H])[H])C1=O)c1c([H])c([H])c2c(c([H])nn2C([H])([H])c2c([H])c([H])c(Cl)c([H])c2C(F)(F)F)c1[H]


 36 40  0  0  0  0  0  0  0  0999 V2000
  -11.1852   -9.6660    7.3316 N   0  0  0  0  0  0  0  0  0  0  0  0
  -10.7125  -10.6830    6.5406 N   0  0  0  0  0  0  0  0  0  0  0  0
   -9.4032  -10.6469    6.4253 C   0  0  0  0  0  0  0  0  0  0  0  0
   -8.9440   -9.5759    7.1587 C   0  0  0  0  0  0  0  0  0  0  0  0
   -7.6864   -9.0337    7.3837 C   0  0  0  0  0  0  0  0  0  0  0  0
   -7.5629   -7.8997    8.1534 C   0  0  0  0  0  0  0  0  0  0  0  0
   -8.6867   -7.3135    8.6916 C   0  0  0  0  0  0  0  0  0  0  0  0
   -9.9068   -7.8752    8.4514 C   0  0  0  0  0  0  0  0  0  0  0  0
  -10.0980   -9.0038    7.6983 C   0  0  0  0  0  0  0  0  0  0  0  0
   -6.2262   -7.3687    8.3874 C   0  0  0  0  0  0  0  0  0  0  0  0
   -5.5079   -6.6975    7.5245 C   0  0  0  0  0  0  0  0  0  0  0  0
   -5.9976   -6.2834    5.8635 S   0  0  0  0  0  0  0  0  0  0  0  0
   -4.5967   -5.1880    5.5313 C   0  0  0  0  0  0  0  0  0  0  0  0
   -4.4600   -4.4446    4.5135 O   0  0  0  0  0  0  0  0  0  0  0  0
   -3.7299   -5.3511    6.6322 N   0  0  0  0  0  0  0  0  0  0  0  0
   -4.1875   -6.1338    7.6808 C   0  0  0  0  0  0  0  0  0  0  0  0
   -3.5129   -6.3686    8.7453 O   0  0  0  0  0  0  0  0  0  0  0  0
   -2.3980   -4.7024    6.6256 C   0  0  0  0  0  0  0  0  0  0  0  0
   -2.5537   -3.4655    7.4494 C   0  0  0  0  0  0  0  0  0  0  0  0
   -2.3497   -2.2203    6.8068 N   0  0  0  0  0  0  0  0  0  0  0  0
   -3.4952   -1.3953    6.6270 C   0  0  0  0  0  0  0  0  0  0  0  0
   -3.7053   -1.1785    5.1575 C   0  0  0  0  0  0  0  0  0  0  0  0
   -2.3879   -1.5246    4.5480 C   0  0  0  0  0  0  0  0  0  0  0  0
   -1.7486   -2.4701    5.5068 C   0  0  0  0  0  0  0  0  0  0  0  0
  -12.5987   -9.5699    7.6453 C   0  0  0  0  0  0  0  0  0  0  0  0
  -13.6740   -7.2984    7.3026 C   0  0  0  0  0  0  0  0  0  0  0  0
  -14.4504   -6.4580    6.4684 C   0  0  0  0  0  0  0  0  0  0  0  0
  -14.8546   -6.9263    5.2397 C   0  0  0  0  0  0  0  0  0  0  0  0
  -15.8168   -5.8784    4.2177 Cl  0  0  0  0  0  0  0  0  0  0  0  0
  -14.5177   -8.1918    4.8056 C   0  0  0  0  0  0  0  0  0  0  0  0
  -13.7748   -8.9690    5.6280 C   0  0  0  0  0  0  0  0  0  0  0  0
  -13.3286   -8.5397    6.9127 C   0  0  0  0  0  0  0  0  0  0  0  0
  -14.1347   -5.6495    8.8742 F   0  0  0  0  0  0  0  0  0  0  0  0
  -13.2597   -6.7454    8.6054 C   0  0  0  0  0  0  0  0  0  0  0  0
  -12.0126   -6.2609    8.7019 F   0  0  0  0  0  0  0  0  0  0  0  0
  -13.6291   -7.5901    9.6800 F   0  0  0  0  0  0  0  0  0  0  0  0
 33 34  1  0  0  0
 34 35  1  0  0  0
 34 36  1  0  0  0
 34 26  1  0  0  0
 26 27  2  0  0  0
 27 28  1  0  0  0
 28 29  1  0  0  0
 28 30  2  0  0  0
 30 31  1  0  0  0
 31 32  2  0  0  0
 32 25  1  0  0  0
 25  1  1  0  0  0
  1  2  1  0  0  0
  2  3  2  0  0  0
  3  4  1  0  0  0
  4  5  2  0  0  0
  5  6  1  0  0  0
  6 10  1  0  0  0
 10 11  2  0  0  0
 11 12  1  0  0  0
 12 13  1  0  0  0
 13 14  2  0  0  0
 13 15  1  0  0  0
 15 18  1  0  0  0
 18 19  1  0  0  0
 19 20  1  0  0  0
 20 21  1  0  0  0
 21 22  1  0  0  0
 22 23  1  0  0  0
 23 24  1  0  0  0
 15 16  1  0  0  0
 16 17  2  0  0  0
  6  7  2  0  0  0
  7  8  1  0  0  0
  8  9  2  0  0  0
 32 26  1  0  0  0
  9  1  1  0  0  0
  9  4  1  0  0  0
 16 11  1  0  0  0
 24 20  1  0  0  0
M  END
> <minimizedAffinity>
-8.36716

> <CNNscore>
0.3427996039

> <CNNaffinity>
7.0718345642

> <CNN_VS>
2.4242219925

> <CNNaffinity_variance>
0.0754071400

$$$$
[H]/C(=C1/SC(=O)N(C([H])([H])C([H])([H])N2C([H])([H])C([H])([H])C([H])([H])C2([H])[H])C1=O)c1c([H])c([H])c2c(c([H])nn2C([H])([H])c2c([H])c([H])c(Cl)c([H])c2C(F)(F)F)c1[H]


 36 40  0  0  0  0  0  0  0  0999 V2000
  -11.9361   -8.8369    7.6686 N   0  0  0  0  0  0  0  0  0  0  0  0
  -12.1118   -7.5875    8.2087 N   0  0  0  0  0  0  0  0  0  0  0  0
  -10.9653   -6.9827    8.4292 C   0  0  0  0  0  0  0  0  0  0  0  0
   -9.9567   -7.8306    8.0297 C   0  0  0  0  0  0  0  0  0  0  0  0
   -8.5713   -7.7513    8.0470 C   0  0  0  0  0  0  0  0  0  0  0  0
   -7.8238   -8.8179    7.6030 C   0  0  0  0  0  0  0  0  0  0  0  0
   -8.4563   -9.9530    7.1472 C   0  0  0  0  0  0  0  0  0  0  0  0
   -9.8201   -9.9951    7.1426 C   0  0  0  0  0  0  0  0  0  0  0  0
  -10.6218   -8.9679    7.5668 C   0  0  0  0  0  0  0  0  0  0  0  0
   -6.3719   -8.6936    7.6147 C   0  0  0  0  0  0  0  0  0  0  0  0
   -5.6740   -7.8156    6.9417 C   0  0  0  0  0  0  0  0  0  0  0  0
   -6.3387   -6.5738    5.8524 S   0  0  0  0  0  0  0  0  0  0  0  0
   -4.7745   -5.7004    5.6005 C   0  0  0  0  0  0  0  0  0  0  0  0
   -4.6311   -4.5902    5.0054 O   0  0  0  0  0  0  0  0  0  0  0  0
   -3.7937   -6.5163    6.2023 N   0  0  0  0  0  0  0  0  0  0  0  0
   -4.2431   -7.6228    6.9061 C   0  0  0  0  0  0  0  0  0  0  0  0
   -3.4702   -8.4512    7.5058 O   0  0  0  0  0  0  0  0  0  0  0  0
   -2.3594   -6.1733    6.0603 C   0  0  0  0  0  0  0  0  0  0  0  0
   -1.9802   -5.5085    7.3436 C   0  0  0  0  0  0  0  0  0  0  0  0
   -1.5729   -4.1536    7.2843 N   0  0  0  0  0  0  0  0  0  0  0  0
   -2.4708   -3.1891    7.8217 C   0  0  0  0  0  0  0  0  0  0  0  0
   -2.8793   -2.2498    6.7257 C   0  0  0  0  0  0  0  0  0  0  0  0
   -1.8349   -2.4403    5.6769 C   0  0  0  0  0  0  0  0  0  0  0  0
   -1.3068   -3.8170    5.8952 C   0  0  0  0  0  0  0  0  0  0  0  0
  -13.0797   -9.6424    7.2826 C   0  0  0  0  0  0  0  0  0  0  0  0
  -15.1909   -8.3117    6.8289 C   0  0  0  0  0  0  0  0  0  0  0  0
  -16.0736   -7.7634    5.8671 C   0  0  0  0  0  0  0  0  0  0  0  0
  -15.7734   -7.8987    4.5315 C   0  0  0  0  0  0  0  0  0  0  0  0
  -16.8744   -7.2184    3.3511 Cl  0  0  0  0  0  0  0  0  0  0  0  0
  -14.6331   -8.5531    4.1131 C   0  0  0  0  0  0  0  0  0  0  0  0
  -13.8112   -9.0655    5.0587 C   0  0  0  0  0  0  0  0  0  0  0  0
  -14.0704   -8.9585    6.4570 C   0  0  0  0  0  0  0  0  0  0  0  0
  -16.9292   -7.7456    8.2638 F   0  0  0  0  0  0  0  0  0  0  0  0
  -15.5546   -8.1317    8.2467 C   0  0  0  0  0  0  0  0  0  0  0  0
  -14.8933   -7.1922    8.9391 F   0  0  0  0  0  0  0  0  0  0  0  0
  -15.6656   -9.3694    8.9253 F   0  0  0  0  0  0  0  0  0  0  0  0
 33 34  1  0  0  0
 34 35  1  0  0  0
 34 36  1  0  0  0
 34 26  1  0  0  0
 26 27  2  0  0  0
 27 28  1  0  0  0
 28 29  1  0  0  0
 28 30  2  0  0  0
 30 31  1  0  0  0
 31 32  2  0  0  0
 32 25  1  0  0  0
 25  1  1  0  0  0
  1  2  1  0  0  0
  2  3  2  0  0  0
  3  4  1  0  0  0
  4  5  2  0  0  0
  5  6  1  0  0  0
  6 10  1  0  0  0
 10 11  2  0  0  0
 11 12  1  0  0  0
 12 13  1  0  0  0
 13 14  2  0  0  0
 13 15  1  0  0  0
 15 18  1  0  0  0
 18 19  1  0  0  0
 19 20  1  0  0  0
 20 21  1  0  0  0
 21 22  1  0  0  0
 22 23  1  0  0  0
 23 24  1  0  0  0
 15 16  1  0  0  0
 16 17  2  0  0  0
  6  7  2  0  0  0
  7  8  1  0  0  0
  8  9  2  0  0  0
 32 26  1  0  0  0
  9  1  1  0  0  0
  9  4  1  0  0  0
 16 11  1  0  0  0
 24 20  1  0  0  0
M  END
> <minimizedAffinity>
-9.05982

> <CNNscore>
0.3328486681

> <CNNaffinity>
7.0633478165

> <CNN_VS>
2.3510258198

> <CNNaffinity_variance>
0.0993206501

$$$$
[H]/C(=C1/SC(=O)N(C([H])([H])C([H])([H])N2C([H])([H])C([H])([H])C([H])([H])C2([H])[H])C1=O)c1c([H])c([H])c2c(c([H])nn2C([H])([H])c2c([H])c([H])c(Cl)c([H])c2C(F)(F)F)c1[H]


 36 40  0  0  0  0  0  0  0  0999 V2000
  -11.5681   -9.8034    7.2005 N   0  0  0  0  0  0  0  0  0  0  0  0
  -10.9045  -10.7959    6.5237 N   0  0  0  0  0  0  0  0  0  0  0  0
   -9.6009  -10.6274    6.5600 C   0  0  0  0  0  0  0  0  0  0  0  0
   -9.3426   -9.4860    7.2854 C   0  0  0  0  0  0  0  0  0  0  0  0
   -8.1817   -8.8065    7.6269 C   0  0  0  0  0  0  0  0  0  0  0  0
   -8.2656   -7.6361    8.3459 C   0  0  0  0  0  0  0  0  0  0  0  0
   -9.4989   -7.1500    8.7185 C   0  0  0  0  0  0  0  0  0  0  0  0
  -10.6190   -7.8455    8.3672 C   0  0  0  0  0  0  0  0  0  0  0  0
  -10.6046   -9.0170    7.6565 C   0  0  0  0  0  0  0  0  0  0  0  0
   -7.0265   -6.9591    8.7062 C   0  0  0  0  0  0  0  0  0  0  0  0
   -6.1370   -6.4942    7.8673 C   0  0  0  0  0  0  0  0  0  0  0  0
   -6.2347   -6.5870    6.0918 S   0  0  0  0  0  0  0  0  0  0  0  0
   -4.8096   -5.5176    5.7777 C   0  0  0  0  0  0  0  0  0  0  0  0
   -4.4511   -5.0708    4.6467 O   0  0  0  0  0  0  0  0  0  0  0  0
   -4.2189   -5.3071    7.0413 N   0  0  0  0  0  0  0  0  0  0  0  0
   -4.8962   -5.8082    8.1421 C   0  0  0  0  0  0  0  0  0  0  0  0
   -4.4831   -5.6914    9.3500 O   0  0  0  0  0  0  0  0  0  0  0  0
   -2.9304   -4.5831    7.1426 C   0  0  0  0  0  0  0  0  0  0  0  0
   -1.9148   -5.6242    7.4853 C   0  0  0  0  0  0  0  0  0  0  0  0
   -1.0608   -5.3693    8.5857 N   0  0  0  0  0  0  0  0  0  0  0  0
   -1.0617   -6.3304    9.6352 C   0  0  0  0  0  0  0  0  0  0  0  0
   -1.5174   -5.6618   10.8985 C   0  0  0  0  0  0  0  0  0  0  0  0
   -1.3316   -4.2065   10.6258 C   0  0  0  0  0  0  0  0  0  0  0  0
   -1.4087   -4.0725    9.1432 C   0  0  0  0  0  0  0  0  0  0  0  0
  -13.0117   -9.8436    7.3420 C   0  0  0  0  0  0  0  0  0  0  0  0
  -14.2866   -7.6524    7.2588 C   0  0  0  0  0  0  0  0  0  0  0  0
  -15.0087   -6.7197    6.4756 C   0  0  0  0  0  0  0  0  0  0  0  0
  -15.1378   -6.9409    5.1240 C   0  0  0  0  0  0  0  0  0  0  0  0
  -16.0353   -5.7813    4.1660 Cl  0  0  0  0  0  0  0  0  0  0  0  0
  -14.5779   -8.0476    4.5194 C   0  0  0  0  0  0  0  0  0  0  0  0
  -13.8945   -8.9193    5.2975 C   0  0  0  0  0  0  0  0  0  0  0  0
  -13.7290   -8.7444    6.7032 C   0  0  0  0  0  0  0  0  0  0  0  0
  -15.4651   -7.5868    9.2608 F   0  0  0  0  0  0  0  0  0  0  0  0
  -14.1708   -7.3641    8.7004 C   0  0  0  0  0  0  0  0  0  0  0  0
  -13.8190   -6.1190    9.0545 F   0  0  0  0  0  0  0  0  0  0  0  0
  -13.4571   -8.3762    9.3865 F   0  0  0  0  0  0  0  0  0  0  0  0
 33 34  1  0  0  0
 34 35  1  0  0  0
 34 36  1  0  0  0
 34 26  1  0  0  0
 26 27  2  0  0  0
 27 28  1  0  0  0
 28 29  1  0  0  0
 28 30  2  0  0  0
 30 31  1  0  0  0
 31 32  2  0  0  0
 32 25  1  0  0  0
 25  1  1  0  0  0
  1  2  1  0  0  0
  2  3  2  0  0  0
  3  4  1  0  0  0
  4  5  2  0  0  0
  5  6  1  0  0  0
  6 10  1  0  0  0
 10 11  2  0  0  0
 11 12  1  0  0  0
 12 13  1  0  0  0
 13 14  2  0  0  0
 13 15  1  0  0  0
 15 18  1  0  0  0
 18 19  1  0  0  0
 19 20  1  0  0  0
 20 21  1  0  0  0
 21 22  1  0  0  0
 22 23  1  0  0  0
 23 24  1  0  0  0
 15 16  1  0  0  0
 16 17  2  0  0  0
  6  7  2  0  0  0
  7  8  1  0  0  0
  8  9  2  0  0  0
 32 26  1  0  0  0
  9  1  1  0  0  0
  9  4  1  0  0  0
 16 11  1  0  0  0
 24 20  1  0  0  0
M  END
> <minimizedAffinity>
-8.17670

> <CNNscore>
0.3310984969

> <CNNaffinity>
6.9875617027

> <CNN_VS>
2.3135712147

> <CNNaffinity_variance>
0.0825001225

$$$$
[H]/C(=C1/SC(=O)N(C([H])([H])S(=O)(=O)N([H])C(=O)C([H])([H])[H])C1=O)c1c([H])c([H])c2c(c([H])nn2C([H])([H])c2c([H])c([H])c(Cl)c([H])c2C(F)(F)F)c1[H]


 38 41  0  0  0  0  0  0  0  0999 V2000
   -7.5496   -7.8009    8.0972 C   0  0  0  0  0  0  0  0  0  0  0  0
   -8.6623   -7.2140    8.6498 C   0  0  0  0  0  0  0  0  0  0  0  0
   -9.9121   -7.7707    8.4677 C   0  0  0  0  0  0  0  0  0  0  0  0
  -10.1332   -8.9235    7.7413 C   0  0  0  0  0  0  0  0  0  0  0  0
  -11.2191   -9.6721    7.4196 N   0  0  0  0  0  0  0  0  0  0  0  0
  -10.7696  -10.6740    6.7020 N   0  0  0  0  0  0  0  0  0  0  0  0
   -9.4495  -10.6224    6.5333 C   0  0  0  0  0  0  0  0  0  0  0  0
   -9.0097   -9.5026    7.1933 C   0  0  0  0  0  0  0  0  0  0  0  0
   -7.7452   -8.9561    7.3645 C   0  0  0  0  0  0  0  0  0  0  0  0
   -3.7538   -5.3319    6.4938 N   0  0  0  0  0  0  0  0  0  0  0  0
   -4.7232   -5.1191    5.4824 C   0  0  0  0  0  0  0  0  0  0  0  0
   -4.8121   -4.1854    4.6376 O   0  0  0  0  0  0  0  0  0  0  0  0
   -5.8526   -6.5402    5.6783 S   0  0  0  0  0  0  0  0  0  0  0  0
   -5.4536   -6.7368    7.4125 C   0  0  0  0  0  0  0  0  0  0  0  0
   -6.2136   -7.2610    8.3193 C   0  0  0  0  0  0  0  0  0  0  0  0
   -4.1190   -6.1882    7.5311 C   0  0  0  0  0  0  0  0  0  0  0  0
   -3.3746   -6.4984    8.5291 O   0  0  0  0  0  0  0  0  0  0  0  0
   -2.4676   -4.6378    6.4180 C   0  0  0  0  0  0  0  0  0  0  0  0
   -2.5069   -3.0268    7.0776 S   0  0  0  0  0  0  0  0  0  0  0  0
   -2.8271   -3.1290    8.5686 O   0  0  0  0  0  0  0  0  0  0  0  0
   -1.1163   -2.3978    7.0449 O   0  0  0  0  0  0  0  0  0  0  0  0
   -4.7700    0.3327    6.3753 C   0  0  0  0  0  0  0  0  0  0  0  0
   -3.8011   -0.6574    6.9259 C   0  0  0  0  0  0  0  0  0  0  0  0
   -3.1019   -0.3286    7.9308 O   0  0  0  0  0  0  0  0  0  0  0  0
   -3.6221   -1.9508    6.3841 N   0  0  0  0  0  0  0  0  0  0  0  0
   -4.2006   -2.2054    5.5562 H   0  0  0  0  0  0  0  0  0  0  0  0
  -12.5770   -9.3646    7.6928 C   0  0  0  0  0  0  0  0  0  0  0  0
  -13.3219   -8.3136    7.0533 C   0  0  0  0  0  0  0  0  0  0  0  0
  -13.7246   -8.5136    5.7177 C   0  0  0  0  0  0  0  0  0  0  0  0
  -14.4980   -7.6585    5.0036 C   0  0  0  0  0  0  0  0  0  0  0  0
  -14.9379   -6.5042    5.5969 C   0  0  0  0  0  0  0  0  0  0  0  0
  -15.9287   -5.4049    4.6881 Cl  0  0  0  0  0  0  0  0  0  0  0  0
  -14.5550   -6.2933    6.8951 C   0  0  0  0  0  0  0  0  0  0  0  0
  -13.7580   -7.1605    7.6464 C   0  0  0  0  0  0  0  0  0  0  0  0
  -13.4113   -6.6959    8.9922 C   0  0  0  0  0  0  0  0  0  0  0  0
  -12.0589   -6.5564    9.2349 F   0  0  0  0  0  0  0  0  0  0  0  0
  -14.0077   -7.4781    9.9824 F   0  0  0  0  0  0  0  0  0  0  0  0
  -13.9409   -5.4457    9.2092 F   0  0  0  0  0  0  0  0  0  0  0  0
 22 23  1  0  0  0
 23 24  2  0  0  0
 23 25  1  0  0  0
 25 19  1  0  0  0
 19 20  2  0  0  0
 19 21  2  0  0  0
 19 18  1  0  0  0
 18 10  1  0  0  0
 10 11  1  0  0  0
 11 12  2  0  0  0
 11 13  1  0  0  0
 13 14  1  0  0  0
 14 15  2  0  0  0
 15  1  1  0  0  0
  1  2  2  0  0  0
  2  3  1  0  0  0
  3  4  2  0  0  0
  4  5  1  0  0  0
  5 27  1  0  0  0
 27 28  1  0  0  0
 28 29  2  0  0  0
 29 30  1  0  0  0
 30 31  2  0  0  0
 31 32  1  0  0  0
 31 33  1  0  0  0
 33 34  2  0  0  0
 34 35  1  0  0  0
 35 36  1  0  0  0
 35 37  1  0  0  0
 35 38  1  0  0  0
  5  6  1  0  0  0
  6  7  2  0  0  0
  7  8  1  0  0  0
  8  9  2  0  0  0
 14 16  1  0  0  0
 16 17  2  0  0  0
 16 10  1  0  0  0
  9  1  1  0  0  0
  8  4  1  0  0  0
 34 28  1  0  0  0
 25 26  1  0  0  0
M  END
> <minimizedAffinity>
-8.57702

> <CNNscore>
0.3810450733

> <CNNaffinity>
7.1359024048

> <CNN_VS>
2.7191004753

> <CNNaffinity_variance>
0.1026268229

$$$$
[H]/C(=C1/SC(=O)N(C([H])([H])S(=O)(=O)N([H])C(=O)C([H])([H])[H])C1=O)c1c([H])c([H])c2c(c([H])nn2C([H])([H])c2c([H])c([H])c(Cl)c([H])c2C(F)(F)F)c1[H]


 38 41  0  0  0  0  0  0  0  0999 V2000
  -10.0732   -7.5688    8.3781 C   0  0  0  0  0  0  0  0  0  0  0  0
  -11.0821   -6.6669    8.6161 C   0  0  0  0  0  0  0  0  0  0  0  0
  -12.3872   -6.9718    8.2861 C   0  0  0  0  0  0  0  0  0  0  0  0
  -12.7674   -8.1680    7.7120 C   0  0  0  0  0  0  0  0  0  0  0  0
  -13.9407   -8.7179    7.3065 N   0  0  0  0  0  0  0  0  0  0  0  0
  -13.6428   -9.9092    6.8451 N   0  0  0  0  0  0  0  0  0  0  0  0
  -12.3391  -10.1700    6.9235 C   0  0  0  0  0  0  0  0  0  0  0  0
  -11.7471   -9.0639    7.4795 C   0  0  0  0  0  0  0  0  0  0  0  0
  -10.4287   -8.7740    7.8031 C   0  0  0  0  0  0  0  0  0  0  0  0
   -5.5579   -6.4816    7.1515 N   0  0  0  0  0  0  0  0  0  0  0  0
   -6.2638   -6.3364    5.9314 C   0  0  0  0  0  0  0  0  0  0  0  0
   -5.9691   -5.6589    4.9079 O   0  0  0  0  0  0  0  0  0  0  0  0
   -7.7424   -7.3791    6.1756 S   0  0  0  0  0  0  0  0  0  0  0  0
   -7.6903   -7.1978    7.9559 C   0  0  0  0  0  0  0  0  0  0  0  0
   -8.6954   -7.2907    8.7656 C   0  0  0  0  0  0  0  0  0  0  0  0
   -6.2951   -6.9382    8.2427 C   0  0  0  0  0  0  0  0  0  0  0  0
   -5.8268   -7.1302    9.4218 O   0  0  0  0  0  0  0  0  0  0  0  0
   -4.1397   -6.1254    7.2115 C   0  0  0  0  0  0  0  0  0  0  0  0
   -3.0735   -7.4494    6.8345 S   0  0  0  0  0  0  0  0  0  0  0  0
   -2.2812   -7.7980    8.0942 O   0  0  0  0  0  0  0  0  0  0  0  0
   -3.8723   -8.7173    6.5430 O   0  0  0  0  0  0  0  0  0  0  0  0
   -1.0615   -5.7149    3.6970 C   0  0  0  0  0  0  0  0  0  0  0  0
   -2.0005   -6.0011    4.8188 C   0  0  0  0  0  0  0  0  0  0  0  0
   -2.8832   -5.1382    5.1071 O   0  0  0  0  0  0  0  0  0  0  0  0
   -1.9590   -7.1916    5.5802 N   0  0  0  0  0  0  0  0  0  0  0  0
   -1.2259   -7.8896    5.3344 H   0  0  0  0  0  0  0  0  0  0  0  0
  -15.2099   -8.0850    7.2686 C   0  0  0  0  0  0  0  0  0  0  0  0
  -15.9233   -7.7548    6.0643 C   0  0  0  0  0  0  0  0  0  0  0  0
  -16.9901   -8.5928    5.6826 C   0  0  0  0  0  0  0  0  0  0  0  0
  -17.8090   -8.3739    4.6239 C   0  0  0  0  0  0  0  0  0  0  0  0
  -17.6108   -7.2626    3.8469 C   0  0  0  0  0  0  0  0  0  0  0  0
  -18.6558   -6.9764    2.4897 Cl  0  0  0  0  0  0  0  0  0  0  0  0
  -16.5772   -6.4373    4.2031 C   0  0  0  0  0  0  0  0  0  0  0  0
  -15.7224   -6.6463    5.2881 C   0  0  0  0  0  0  0  0  0  0  0  0
  -14.6379   -5.6719    5.4366 C   0  0  0  0  0  0  0  0  0  0  0  0
  -14.7984   -4.5013    4.7214 F   0  0  0  0  0  0  0  0  0  0  0  0
  -13.3898   -6.2385    5.1735 F   0  0  0  0  0  0  0  0  0  0  0  0
  -14.5391   -5.2744    6.7491 F   0  0  0  0  0  0  0  0  0  0  0  0
 22 23  1  0  0  0
 23 24  2  0  0  0
 23 25  1  0  0  0
 25 19  1  0  0  0
 19 20  2  0  0  0
 19 21  2  0  0  0
 19 18  1  0  0  0
 18 10  1  0  0  0
 10 11  1  0  0  0
 11 12  2  0  0  0
 11 13  1  0  0  0
 13 14  1  0  0  0
 14 15  2  0  0  0
 15  1  1  0  0  0
  1  2  2  0  0  0
  2  3  1  0  0  0
  3  4  2  0  0  0
  4  5  1  0  0  0
  5 27  1  0  0  0
 27 28  1  0  0  0
 28 29  2  0  0  0
 29 30  1  0  0  0
 30 31  2  0  0  0
 31 32  1  0  0  0
 31 33  1  0  0  0
 33 34  2  0  0  0
 34 35  1  0  0  0
 35 36  1  0  0  0
 35 37  1  0  0  0
 35 38  1  0  0  0
  5  6  1  0  0  0
  6  7  2  0  0  0
  7  8  1  0  0  0
  8  9  2  0  0  0
 14 16  1  0  0  0
 16 17  2  0  0  0
 16 10  1  0  0  0
  9  1  1  0  0  0
  8  4  1  0  0  0
 34 28  1  0  0  0
 25 26  1  0  0  0
M  END
> <minimizedAffinity>
-6.21185

> <CNNscore>
0.3522248566

> <CNNaffinity>
7.1159234047

> <CNN_VS>
2.5064051151

> <CNNaffinity_variance>
0.2681905329

$$$$
[H]/C(=C1/SC(=O)N(C([H])([H])S(=O)(=O)N([H])C(=O)C([H])([H])[H])C1=O)c1c([H])c([H])c2c(c([H])nn2C([H])([H])c2c([H])c([H])c(Cl)c([H])c2C(F)(F)F)c1[H]


 38 41  0  0  0  0  0  0  0  0999 V2000
  -10.5999   -7.6152    8.6198 C   0  0  0  0  0  0  0  0  0  0  0  0
  -11.4756   -6.5632    8.4998 C   0  0  0  0  0  0  0  0  0  0  0  0
  -12.8060   -6.7881    8.2091 C   0  0  0  0  0  0  0  0  0  0  0  0
  -13.3423   -8.0464    8.0242 C   0  0  0  0  0  0  0  0  0  0  0  0
  -14.5755   -8.5424    7.7476 N   0  0  0  0  0  0  0  0  0  0  0  0
  -14.4414   -9.8467    7.7070 N   0  0  0  0  0  0  0  0  0  0  0  0
  -13.1882  -10.2332    7.9395 C   0  0  0  0  0  0  0  0  0  0  0  0
  -12.4545   -9.0925    8.1481 C   0  0  0  0  0  0  0  0  0  0  0  0
  -11.1130   -8.8854    8.4384 C   0  0  0  0  0  0  0  0  0  0  0  0
   -5.9480   -7.7513    7.4296 N   0  0  0  0  0  0  0  0  0  0  0  0
   -6.6004   -7.9984    6.1962 C   0  0  0  0  0  0  0  0  0  0  0  0
   -6.1827   -7.8269    5.0173 O   0  0  0  0  0  0  0  0  0  0  0  0
   -8.2320   -8.6396    6.7057 S   0  0  0  0  0  0  0  0  0  0  0  0
   -8.1815   -7.7828    8.2768 C   0  0  0  0  0  0  0  0  0  0  0  0
   -9.2020   -7.4061    8.9777 C   0  0  0  0  0  0  0  0  0  0  0  0
   -6.7677   -7.6325    8.5505 C   0  0  0  0  0  0  0  0  0  0  0  0
   -6.3567   -7.4102    9.7456 O   0  0  0  0  0  0  0  0  0  0  0  0
   -4.4921   -7.6056    7.4595 C   0  0  0  0  0  0  0  0  0  0  0  0
   -3.9533   -5.9625    7.2557 S   0  0  0  0  0  0  0  0  0  0  0  0
   -4.5293   -5.1260    8.3979 O   0  0  0  0  0  0  0  0  0  0  0  0
   -2.4431   -5.8626    7.4553 O   0  0  0  0  0  0  0  0  0  0  0  0
   -4.2279   -3.1781    4.2436 C   0  0  0  0  0  0  0  0  0  0  0  0
   -3.8890   -3.9085    5.4981 C   0  0  0  0  0  0  0  0  0  0  0  0
   -3.1293   -3.3454    6.3423 O   0  0  0  0  0  0  0  0  0  0  0  0
   -4.3746   -5.2020    5.7975 N   0  0  0  0  0  0  0  0  0  0  0  0
   -4.9944   -5.6537    5.0926 H   0  0  0  0  0  0  0  0  0  0  0  0
  -15.7429   -7.7982    7.4371 C   0  0  0  0  0  0  0  0  0  0  0  0
  -16.2806   -7.6351    6.1132 C   0  0  0  0  0  0  0  0  0  0  0  0
  -17.4095   -8.4029    5.7640 C   0  0  0  0  0  0  0  0  0  0  0  0
  -18.0809   -8.3068    4.5896 C   0  0  0  0  0  0  0  0  0  0  0  0
  -17.6550   -7.4040    3.6506 C   0  0  0  0  0  0  0  0  0  0  0  0
  -18.5103   -7.2758    2.1446 Cl  0  0  0  0  0  0  0  0  0  0  0  0
  -16.5580   -6.6498    3.9733 C   0  0  0  0  0  0  0  0  0  0  0  0
  -15.8524   -6.7352    5.1759 C   0  0  0  0  0  0  0  0  0  0  0  0
  -14.6641   -5.8835    5.2747 C   0  0  0  0  0  0  0  0  0  0  0  0
  -14.5809   -5.1228    6.4244 F   0  0  0  0  0  0  0  0  0  0  0  0
  -14.5041   -5.0804    4.1444 F   0  0  0  0  0  0  0  0  0  0  0  0
  -13.5287   -6.6589    5.2801 F   0  0  0  0  0  0  0  0  0  0  0  0
 22 23  1  0  0  0
 23 24  2  0  0  0
 23 25  1  0  0  0
 25 19  1  0  0  0
 19 20  2  0  0  0
 19 21  2  0  0  0
 19 18  1  0  0  0
 18 10  1  0  0  0
 10 11  1  0  0  0
 11 12  2  0  0  0
 11 13  1  0  0  0
 13 14  1  0  0  0
 14 15  2  0  0  0
 15  1  1  0  0  0
  1  2  2  0  0  0
  2  3  1  0  0  0
  3  4  2  0  0  0
  4  5  1  0  0  0
  5 27  1  0  0  0
 27 28  1  0  0  0
 28 29  2  0  0  0
 29 30  1  0  0  0
 30 31  2  0  0  0
 31 32  1  0  0  0
 31 33  1  0  0  0
 33 34  2  0  0  0
 34 35  1  0  0  0
 35 36  1  0  0  0
 35 37  1  0  0  0
 35 38  1  0  0  0
  5  6  1  0  0  0
  6  7  2  0  0  0
  7  8  1  0  0  0
  8  9  2  0  0  0
 14 16  1  0  0  0
 16 17  2  0  0  0
 16 10  1  0  0  0
  9  1  1  0  0  0
  8  4  1  0  0  0
 34 28  1  0  0  0
 25 26  1  0  0  0
M  END
> <minimizedAffinity>
-6.96969

> <CNNscore>
0.2058850676

> <CNNaffinity>
7.1150026321

> <CNN_VS>
1.4648728371

> <CNNaffinity_variance>
0.1499352753

$$$$
[H]/C(=C1/SC(=O)N(C([H])([H])S(=O)(=O)N([H])C(=O)C([H])([H])[H])C1=O)c1c([H])c([H])c2c(c([H])nn2C([H])([H])c2c([H])c([H])c(Cl)c([H])c2C(F)(F)F)c1[H]


 38 41  0  0  0  0  0  0  0  0999 V2000
  -10.6237   -7.5846    8.5289 C   0  0  0  0  0  0  0  0  0  0  0  0
  -11.5117   -6.5452    8.3912 C   0  0  0  0  0  0  0  0  0  0  0  0
  -12.8458   -6.7919    8.1374 C   0  0  0  0  0  0  0  0  0  0  0  0
  -13.3740   -8.0606    8.0083 C   0  0  0  0  0  0  0  0  0  0  0  0
  -14.6080   -8.5768    7.7760 N   0  0  0  0  0  0  0  0  0  0  0  0
  -14.4623   -9.8805    7.7782 N   0  0  0  0  0  0  0  0  0  0  0  0
  -13.2009  -10.2476    7.9969 C   0  0  0  0  0  0  0  0  0  0  0  0
  -12.4738   -9.0938    8.1495 C   0  0  0  0  0  0  0  0  0  0  0  0
  -11.1284   -8.8649    8.4033 C   0  0  0  0  0  0  0  0  0  0  0  0
   -5.9775   -8.0623    7.4064 N   0  0  0  0  0  0  0  0  0  0  0  0
   -6.6366   -8.5146    6.2365 C   0  0  0  0  0  0  0  0  0  0  0  0
   -6.2147   -8.5745    5.0482 O   0  0  0  0  0  0  0  0  0  0  0  0
   -8.2850   -9.0071    6.8474 S   0  0  0  0  0  0  0  0  0  0  0  0
   -8.2109   -7.8773    8.2342 C   0  0  0  0  0  0  0  0  0  0  0  0
   -9.2206   -7.3508    8.8489 C   0  0  0  0  0  0  0  0  0  0  0  0
   -6.7934   -7.7172    8.4824 C   0  0  0  0  0  0  0  0  0  0  0  0
   -6.3763   -7.2898    9.6181 O   0  0  0  0  0  0  0  0  0  0  0  0
   -4.5182   -7.9527    7.4160 C   0  0  0  0  0  0  0  0  0  0  0  0
   -3.9439   -6.3097    7.3673 S   0  0  0  0  0  0  0  0  0  0  0  0
   -2.5041   -6.3221    6.8544 O   0  0  0  0  0  0  0  0  0  0  0  0
   -4.7004   -5.5063    6.3124 O   0  0  0  0  0  0  0  0  0  0  0  0
   -3.4140   -3.3428   10.1633 C   0  0  0  0  0  0  0  0  0  0  0  0
   -3.4423   -4.1436    8.9063 C   0  0  0  0  0  0  0  0  0  0  0  0
   -2.9785   -3.6262    7.8461 O   0  0  0  0  0  0  0  0  0  0  0  0
   -3.9601   -5.4572    8.8353 N   0  0  0  0  0  0  0  0  0  0  0  0
   -4.3414   -5.8676    9.7135 H   0  0  0  0  0  0  0  0  0  0  0  0
  -15.7888   -7.8544    7.4650 C   0  0  0  0  0  0  0  0  0  0  0  0
  -16.3233   -7.6928    6.1396 C   0  0  0  0  0  0  0  0  0  0  0  0
  -17.4751   -8.4312    5.8019 C   0  0  0  0  0  0  0  0  0  0  0  0
  -18.1452   -8.3306    4.6271 C   0  0  0  0  0  0  0  0  0  0  0  0
  -17.6939   -7.4535    3.6757 C   0  0  0  0  0  0  0  0  0  0  0  0
  -18.5473   -7.3197    2.1691 Cl  0  0  0  0  0  0  0  0  0  0  0  0
  -16.5745   -6.7281    3.9871 C   0  0  0  0  0  0  0  0  0  0  0  0
  -15.8700   -6.8186    5.1900 C   0  0  0  0  0  0  0  0  0  0  0  0
  -14.6566   -6.0014    5.2762 C   0  0  0  0  0  0  0  0  0  0  0  0
  -13.4723   -6.7110    5.3137 F   0  0  0  0  0  0  0  0  0  0  0  0
  -14.7156   -5.0921    6.3334 F   0  0  0  0  0  0  0  0  0  0  0  0
  -14.5520   -5.1962    4.1665 F   0  0  0  0  0  0  0  0  0  0  0  0
 22 23  1  0  0  0
 23 24  2  0  0  0
 23 25  1  0  0  0
 25 19  1  0  0  0
 19 20  2  0  0  0
 19 21  2  0  0  0
 19 18  1  0  0  0
 18 10  1  0  0  0
 10 11  1  0  0  0
 11 12  2  0  0  0
 11 13  1  0  0  0
 13 14  1  0  0  0
 14 15  2  0  0  0
 15  1  1  0  0  0
  1  2  2  0  0  0
  2  3  1  0  0  0
  3  4  2  0  0  0
  4  5  1  0  0  0
  5 27  1  0  0  0
 27 28  1  0  0  0
 28 29  2  0  0  0
 29 30  1  0  0  0
 30 31  2  0  0  0
 31 32  1  0  0  0
 31 33  1  0  0  0
 33 34  2  0  0  0
 34 35  1  0  0  0
 35 36  1  0  0  0
 35 37  1  0  0  0
 35 38  1  0  0  0
  5  6  1  0  0  0
  6  7  2  0  0  0
  7  8  1  0  0  0
  8  9  2  0  0  0
 14 16  1  0  0  0
 16 17  2  0  0  0
 16 10  1  0  0  0
  9  1  1  0  0  0
  8  4  1  0  0  0
 34 28  1  0  0  0
 25 26  1  0  0  0
M  END
> <minimizedAffinity>
-7.14695

> <CNNscore>
0.1943087578

> <CNNaffinity>
7.0186600685

> <CNN_VS>
1.3637871742

> <CNNaffinity_variance>
0.1564659029

$$$$
[H]/C(=C1/SC(=O)N(C([H])([H])S(=O)(=O)N([H])C(=O)C([H])([H])[H])C1=O)c1c([H])c([H])c2c(c([H])nn2C([H])([H])c2c([H])c([H])c(Cl)c([H])c2C(F)(F)F)c1[H]


 38 41  0  0  0  0  0  0  0  0999 V2000
   -6.3151   -6.9939    7.7659 C   0  0  0  0  0  0  0  0  0  0  0  0
   -7.5004   -6.2991    7.7527 C   0  0  0  0  0  0  0  0  0  0  0  0
   -8.7045   -6.9684    7.6666 C   0  0  0  0  0  0  0  0  0  0  0  0
   -8.8074   -8.3428    7.5914 C   0  0  0  0  0  0  0  0  0  0  0  0
   -9.8280   -9.2345    7.5109 N   0  0  0  0  0  0  0  0  0  0  0  0
   -9.2710  -10.4218    7.4805 N   0  0  0  0  0  0  0  0  0  0  0  0
   -7.9418  -10.3579    7.5342 C   0  0  0  0  0  0  0  0  0  0  0  0
   -7.6122   -9.0277    7.6065 C   0  0  0  0  0  0  0  0  0  0  0  0
   -6.3919   -8.3715    7.6909 C   0  0  0  0  0  0  0  0  0  0  0  0
   -2.9210   -4.1183    5.9531 N   0  0  0  0  0  0  0  0  0  0  0  0
   -3.9710   -4.0078    5.0080 C   0  0  0  0  0  0  0  0  0  0  0  0
   -4.2150   -3.0854    4.1816 O   0  0  0  0  0  0  0  0  0  0  0  0
   -4.9245   -5.5444    5.2588 S   0  0  0  0  0  0  0  0  0  0  0  0
   -4.3955   -5.7045    6.9617 C   0  0  0  0  0  0  0  0  0  0  0  0
   -5.0340   -6.3125    7.9088 C   0  0  0  0  0  0  0  0  0  0  0  0
   -3.1234   -5.0141    7.0015 C   0  0  0  0  0  0  0  0  0  0  0  0
   -2.2870   -5.2459    7.9465 O   0  0  0  0  0  0  0  0  0  0  0  0
   -1.7253   -3.2877    5.8038 C   0  0  0  0  0  0  0  0  0  0  0  0
   -1.7333   -1.8694    6.8138 S   0  0  0  0  0  0  0  0  0  0  0  0
   -3.1820   -1.5583    7.1886 O   0  0  0  0  0  0  0  0  0  0  0  0
   -1.0634   -2.1596    8.1545 O   0  0  0  0  0  0  0  0  0  0  0  0
   -1.1577    1.4315    4.4318 C   0  0  0  0  0  0  0  0  0  0  0  0
   -1.6985    0.1987    5.0720 C   0  0  0  0  0  0  0  0  0  0  0  0
   -2.7836   -0.2876    4.6327 O   0  0  0  0  0  0  0  0  0  0  0  0
   -1.0601   -0.4605    6.1473 N   0  0  0  0  0  0  0  0  0  0  0  0
   -0.1715   -0.0471    6.5002 H   0  0  0  0  0  0  0  0  0  0  0  0
  -11.2073   -8.9390    7.3594 C   0  0  0  0  0  0  0  0  0  0  0  0
  -11.9377   -8.0051    8.1735 C   0  0  0  0  0  0  0  0  0  0  0  0
  -11.2720   -7.4364    9.2778 C   0  0  0  0  0  0  0  0  0  0  0  0
  -11.7917   -6.4839   10.0914 C   0  0  0  0  0  0  0  0  0  0  0  0
  -13.0571   -6.0177    9.8480 C   0  0  0  0  0  0  0  0  0  0  0  0
  -13.7286   -4.7980   10.8860 Cl  0  0  0  0  0  0  0  0  0  0  0  0
  -13.7193   -6.5605    8.7787 C   0  0  0  0  0  0  0  0  0  0  0  0
  -13.2021   -7.5428    7.9306 C   0  0  0  0  0  0  0  0  0  0  0  0
  -14.1169   -8.0307    6.8950 C   0  0  0  0  0  0  0  0  0  0  0  0
  -14.2486   -9.4038    6.8274 F   0  0  0  0  0  0  0  0  0  0  0  0
  -13.8078   -7.5066    5.6388 F   0  0  0  0  0  0  0  0  0  0  0  0
  -15.3883   -7.5642    7.1327 F   0  0  0  0  0  0  0  0  0  0  0  0
 22 23  1  0  0  0
 23 24  2  0  0  0
 23 25  1  0  0  0
 25 19  1  0  0  0
 19 20  2  0  0  0
 19 21  2  0  0  0
 19 18  1  0  0  0
 18 10  1  0  0  0
 10 11  1  0  0  0
 11 12  2  0  0  0
 11 13  1  0  0  0
 13 14  1  0  0  0
 14 15  2  0  0  0
 15  1  1  0  0  0
  1  2  2  0  0  0
  2  3  1  0  0  0
  3  4  2  0  0  0
  4  5  1  0  0  0
  5 27  1  0  0  0
 27 28  1  0  0  0
 28 29  2  0  0  0
 29 30  1  0  0  0
 30 31  2  0  0  0
 31 32  1  0  0  0
 31 33  1  0  0  0
 33 34  2  0  0  0
 34 35  1  0  0  0
 35 36  1  0  0  0
 35 37  1  0  0  0
 35 38  1  0  0  0
  5  6  1  0  0  0
  6  7  2  0  0  0
  7  8  1  0  0  0
  8  9  2  0  0  0
 14 16  1  0  0  0
 16 17  2  0  0  0
 16 10  1  0  0  0
  9  1  1  0  0  0
  8  4  1  0  0  0
 34 28  1  0  0  0
 25 26  1  0  0  0
M  END
> <minimizedAffinity>
-7.56642

> <CNNscore>
0.1737098247

> <CNNaffinity>
6.4234161377

> <CNN_VS>
1.1158105135

> <CNNaffinity_variance>
0.1187830567

$$$$
[H]/C(=C1/SC(=O)N(C([H])([H])S(=O)(=O)N([H])C(=O)C([H])([H])[H])C1=O)c1c([H])c([H])c2c(c([H])nn2C([H])([H])c2c([H])c([H])c(Cl)c([H])c2C(F)(F)F)c1[H]


 38 41  0  0  0  0  0  0  0  0999 V2000
  -10.3387   -7.5723    8.3594 C   0  0  0  0  0  0  0  0  0  0  0  0
  -11.3776   -6.6961    8.5616 C   0  0  0  0  0  0  0  0  0  0  0  0
  -12.6575   -7.0218    8.1606 C   0  0  0  0  0  0  0  0  0  0  0  0
  -12.9823   -8.2148    7.5470 C   0  0  0  0  0  0  0  0  0  0  0  0
  -14.1215   -8.7813    7.0730 N   0  0  0  0  0  0  0  0  0  0  0  0
  -13.7750   -9.9575    6.6066 N   0  0  0  0  0  0  0  0  0  0  0  0
  -12.4716  -10.1926    6.7465 C   0  0  0  0  0  0  0  0  0  0  0  0
  -11.9324   -9.0849    7.3510 C   0  0  0  0  0  0  0  0  0  0  0  0
  -10.6385   -8.7738    7.7461 C   0  0  0  0  0  0  0  0  0  0  0  0
   -5.5952   -7.5943    7.6019 N   0  0  0  0  0  0  0  0  0  0  0  0
   -6.1216   -7.9680    6.3404 C   0  0  0  0  0  0  0  0  0  0  0  0
   -5.6039   -7.8726    5.1931 O   0  0  0  0  0  0  0  0  0  0  0  0
   -7.7680   -8.6390    6.7550 S   0  0  0  0  0  0  0  0  0  0  0  0
   -7.8945   -7.6582    8.2474 C   0  0  0  0  0  0  0  0  0  0  0  0
   -8.9885   -7.2729    8.8211 C   0  0  0  0  0  0  0  0  0  0  0  0
   -6.5185   -7.4233    8.6319 C   0  0  0  0  0  0  0  0  0  0  0  0
   -6.2278   -7.0882    9.8359 O   0  0  0  0  0  0  0  0  0  0  0  0
   -4.1547   -7.3816    7.7485 C   0  0  0  0  0  0  0  0  0  0  0  0
   -3.6996   -5.7012    7.7806 S   0  0  0  0  0  0  0  0  0  0  0  0
   -2.1975   -5.6082    7.5142 O   0  0  0  0  0  0  0  0  0  0  0  0
   -4.3257   -4.9517    6.6072 O   0  0  0  0  0  0  0  0  0  0  0  0
   -3.4561   -4.3687   11.6620 C   0  0  0  0  0  0  0  0  0  0  0  0
   -3.2234   -5.0667   10.3656 C   0  0  0  0  0  0  0  0  0  0  0  0
   -2.2650   -5.8924   10.2841 O   0  0  0  0  0  0  0  0  0  0  0  0
   -4.0209   -4.8562    9.2175 N   0  0  0  0  0  0  0  0  0  0  0  0
   -4.8022   -4.1720    9.2984 H   0  0  0  0  0  0  0  0  0  0  0  0
  -15.4006   -8.1743    6.9819 C   0  0  0  0  0  0  0  0  0  0  0  0
  -15.7457   -7.1296    6.0557 C   0  0  0  0  0  0  0  0  0  0  0  0
  -14.9041   -6.0009    5.9961 C   0  0  0  0  0  0  0  0  0  0  0  0
  -15.0453   -4.9723    5.1235 C   0  0  0  0  0  0  0  0  0  0  0  0
  -16.0737   -5.0028    4.2183 C   0  0  0  0  0  0  0  0  0  0  0  0
  -16.2601   -3.6888    3.0981 Cl  0  0  0  0  0  0  0  0  0  0  0  0
  -16.9023   -6.0926    4.2629 C   0  0  0  0  0  0  0  0  0  0  0  0
  -16.7745   -7.1605    5.1544 C   0  0  0  0  0  0  0  0  0  0  0  0
  -17.8203   -8.1837    5.0709 C   0  0  0  0  0  0  0  0  0  0  0  0
  -18.8820   -7.8719    4.2444 F   0  0  0  0  0  0  0  0  0  0  0  0
  -18.2785   -8.5636    6.3333 F   0  0  0  0  0  0  0  0  0  0  0  0
  -17.2998   -9.3472    4.5554 F   0  0  0  0  0  0  0  0  0  0  0  0
 22 23  1  0  0  0
 23 24  2  0  0  0
 23 25  1  0  0  0
 25 19  1  0  0  0
 19 20  2  0  0  0
 19 21  2  0  0  0
 19 18  1  0  0  0
 18 10  1  0  0  0
 10 11  1  0  0  0
 11 12  2  0  0  0
 11 13  1  0  0  0
 13 14  1  0  0  0
 14 15  2  0  0  0
 15  1  1  0  0  0
  1  2  2  0  0  0
  2  3  1  0  0  0
  3  4  2  0  0  0
  4  5  1  0  0  0
  5 27  1  0  0  0
 27 28  1  0  0  0
 28 29  2  0  0  0
 29 30  1  0  0  0
 30 31  2  0  0  0
 31 32  1  0  0  0
 31 33  1  0  0  0
 33 34  2  0  0  0
 34 35  1  0  0  0
 35 36  1  0  0  0
 35 37  1  0  0  0
 35 38  1  0  0  0
  5  6  1  0  0  0
  6  7  2  0  0  0
  7  8  1  0  0  0
  8  9  2  0  0  0
 14 16  1  0  0  0
 16 17  2  0  0  0
 16 10  1  0  0  0
  9  1  1  0  0  0
  8  4  1  0  0  0
 34 28  1  0  0  0
 25 26  1  0  0  0
M  END
> <minimizedAffinity>
-7.72710

> <CNNscore>
0.1718345135

> <CNNaffinity>
6.9720106125

> <CNN_VS>
1.1980320215

> <CNNaffinity_variance>
0.1381266415

$$$$
[H]/C(=C1/SC(=O)N(C([H])([H])S(=O)(=O)N([H])C(=O)C([H])([H])[H])C1=O)c1c([H])c([H])c2c(c([H])nn2C([H])([H])c2c([H])c([H])c(Cl)c([H])c2C(F)(F)F)c1[H]


 38 41  0  0  0  0  0  0  0  0999 V2000
   -8.7503   -8.0957    7.6683 C   0  0  0  0  0  0  0  0  0  0  0  0
   -9.3984   -6.9023    7.8773 C   0  0  0  0  0  0  0  0  0  0  0  0
  -10.7728   -6.8241    7.7779 C   0  0  0  0  0  0  0  0  0  0  0  0
  -11.5764   -7.9040    7.4724 C   0  0  0  0  0  0  0  0  0  0  0  0
  -12.9105   -8.1071    7.3241 N   0  0  0  0  0  0  0  0  0  0  0  0
  -13.0545   -9.3795    7.0394 N   0  0  0  0  0  0  0  0  0  0  0  0
  -11.8886  -10.0214    6.9906 C   0  0  0  0  0  0  0  0  0  0  0  0
  -10.9148   -9.0946    7.2662 C   0  0  0  0  0  0  0  0  0  0  0  0
   -9.5333   -9.1919    7.3603 C   0  0  0  0  0  0  0  0  0  0  0  0
   -4.3200   -6.8223    6.3172 N   0  0  0  0  0  0  0  0  0  0  0  0
   -5.1434   -5.9108    5.6108 C   0  0  0  0  0  0  0  0  0  0  0  0
   -4.8639   -4.7733    5.1401 O   0  0  0  0  0  0  0  0  0  0  0  0
   -6.7505   -6.7731    5.5301 S   0  0  0  0  0  0  0  0  0  0  0  0
   -6.4213   -7.7210    7.0127 C   0  0  0  0  0  0  0  0  0  0  0  0
   -7.3050   -8.2146    7.8190 C   0  0  0  0  0  0  0  0  0  0  0  0
   -4.9764   -7.7942    7.0701 C   0  0  0  0  0  0  0  0  0  0  0  0
   -4.3986   -8.7001    7.7714 O   0  0  0  0  0  0  0  0  0  0  0  0
   -2.8647   -6.6826    6.2488 C   0  0  0  0  0  0  0  0  0  0  0  0
   -2.1801   -5.8578    7.6210 S   0  0  0  0  0  0  0  0  0  0  0  0
   -1.4687   -6.8917    8.4934 O   0  0  0  0  0  0  0  0  0  0  0  0
   -1.0599   -4.9188    7.1805 O   0  0  0  0  0  0  0  0  0  0  0  0
   -3.7172   -3.6585   10.7356 C   0  0  0  0  0  0  0  0  0  0  0  0
   -2.8185   -4.4094    9.8133 C   0  0  0  0  0  0  0  0  0  0  0  0
   -1.5932   -4.5226   10.1179 O   0  0  0  0  0  0  0  0  0  0  0  0
   -3.2643   -5.0065    8.6119 N   0  0  0  0  0  0  0  0  0  0  0  0
   -4.2727   -4.9018    8.3728 H   0  0  0  0  0  0  0  0  0  0  0  0
  -13.9297   -7.1203    7.3441 C   0  0  0  0  0  0  0  0  0  0  0  0
  -15.0955   -7.1317    6.5019 C   0  0  0  0  0  0  0  0  0  0  0  0
  -16.1414   -8.0133    6.8408 C   0  0  0  0  0  0  0  0  0  0  0  0
  -17.3340   -8.0861    6.1992 C   0  0  0  0  0  0  0  0  0  0  0  0
  -17.5714   -7.2529    5.1375 C   0  0  0  0  0  0  0  0  0  0  0  0
  -19.0966   -7.3410    4.3114 Cl  0  0  0  0  0  0  0  0  0  0  0  0
  -16.5647   -6.3899    4.7937 C   0  0  0  0  0  0  0  0  0  0  0  0
  -15.3298   -6.3009    5.4406 C   0  0  0  0  0  0  0  0  0  0  0  0
  -14.3745   -5.3568    4.8544 C   0  0  0  0  0  0  0  0  0  0  0  0
  -13.0455   -5.6296    5.1131 F   0  0  0  0  0  0  0  0  0  0  0  0
  -14.6767   -4.0359    5.1888 F   0  0  0  0  0  0  0  0  0  0  0  0
  -14.4790   -5.3722    3.4835 F   0  0  0  0  0  0  0  0  0  0  0  0
 22 23  1  0  0  0
 23 24  2  0  0  0
 23 25  1  0  0  0
 25 19  1  0  0  0
 19 20  2  0  0  0
 19 21  2  0  0  0
 19 18  1  0  0  0
 18 10  1  0  0  0
 10 11  1  0  0  0
 11 12  2  0  0  0
 11 13  1  0  0  0
 13 14  1  0  0  0
 14 15  2  0  0  0
 15  1  1  0  0  0
  1  2  2  0  0  0
  2  3  1  0  0  0
  3  4  2  0  0  0
  4  5  1  0  0  0
  5 27  1  0  0  0
 27 28  1  0  0  0
 28 29  2  0  0  0
 29 30  1  0  0  0
 30 31  2  0  0  0
 31 32  1  0  0  0
 31 33  1  0  0  0
 33 34  2  0  0  0
 34 35  1  0  0  0
 35 36  1  0  0  0
 35 37  1  0  0  0
 35 38  1  0  0  0
  5  6  1  0  0  0
  6  7  2  0  0  0
  7  8  1  0  0  0
  8  9  2  0  0  0
 14 16  1  0  0  0
 16 17  2  0  0  0
 16 10  1  0  0  0
  9  1  1  0  0  0
  8  4  1  0  0  0
 34 28  1  0  0  0
 25 26  1  0  0  0
M  END
> <minimizedAffinity>
-6.59784

> <CNNscore>
0.1712650657

> <CNNaffinity>
6.9858908653

> <CNN_VS>
1.1964390278

> <CNNaffinity_variance>
0.2339657843

$$$$
[H]/C(=C1/SC(=O)N(C([H])([H])S(=O)(=O)N([H])C(=O)C([H])([H])[H])C1=O)c1c([H])c([H])c2c(c([H])nn2C([H])([H])c2c([H])c([H])c(Cl)c([H])c2C(F)(F)F)c1[H]


 38 41  0  0  0  0  0  0  0  0999 V2000
  -10.0807   -7.6147    8.3692 C   0  0  0  0  0  0  0  0  0  0  0  0
  -11.1487   -6.8022    8.6644 C   0  0  0  0  0  0  0  0  0  0  0  0
  -12.4144   -7.1160    8.2121 C   0  0  0  0  0  0  0  0  0  0  0  0
  -12.6960   -8.2350    7.4544 C   0  0  0  0  0  0  0  0  0  0  0  0
  -13.8127   -8.7745    6.9020 N   0  0  0  0  0  0  0  0  0  0  0  0
  -13.4252   -9.8737    6.3002 N   0  0  0  0  0  0  0  0  0  0  0  0
  -12.1159  -10.0837    6.4254 C   0  0  0  0  0  0  0  0  0  0  0  0
  -11.6172   -9.0418    7.1663 C   0  0  0  0  0  0  0  0  0  0  0  0
  -10.3371   -8.7412    7.6111 C   0  0  0  0  0  0  0  0  0  0  0  0
   -5.4625   -6.5754    7.5524 N   0  0  0  0  0  0  0  0  0  0  0  0
   -6.0481   -6.4581    6.2674 C   0  0  0  0  0  0  0  0  0  0  0  0
   -5.6532   -5.8075    5.2603 O   0  0  0  0  0  0  0  0  0  0  0  0
   -7.5495   -7.4889    6.3950 S   0  0  0  0  0  0  0  0  0  0  0  0
   -7.6661   -7.2633    8.1672 C   0  0  0  0  0  0  0  0  0  0  0  0
   -8.7444   -7.3322    8.8794 C   0  0  0  0  0  0  0  0  0  0  0  0
   -6.3030   -7.0018    8.5792 C   0  0  0  0  0  0  0  0  0  0  0  0
   -5.9503   -7.1660    9.8019 O   0  0  0  0  0  0  0  0  0  0  0  0
   -4.0543   -6.2231    7.7386 C   0  0  0  0  0  0  0  0  0  0  0  0
   -2.9578   -7.2543    6.8633 S   0  0  0  0  0  0  0  0  0  0  0  0
   -1.6371   -7.3077    7.6308 O   0  0  0  0  0  0  0  0  0  0  0  0
   -3.4489   -8.6997    6.8804 O   0  0  0  0  0  0  0  0  0  0  0  0
   -1.8410   -5.0294    3.5917 C   0  0  0  0  0  0  0  0  0  0  0  0
   -2.1562   -5.4958    4.9720 C   0  0  0  0  0  0  0  0  0  0  0  0
   -2.0168   -4.6826    5.9344 O   0  0  0  0  0  0  0  0  0  0  0  0
   -2.6064   -6.8035    5.2647 N   0  0  0  0  0  0  0  0  0  0  0  0
   -2.7123   -7.4618    4.4644 H   0  0  0  0  0  0  0  0  0  0  0  0
  -15.1099   -8.2007    6.8706 C   0  0  0  0  0  0  0  0  0  0  0  0
  -15.5157   -7.1449    5.9823 C   0  0  0  0  0  0  0  0  0  0  0  0
  -14.7261   -5.9782    5.9456 C   0  0  0  0  0  0  0  0  0  0  0  0
  -14.9266   -4.9310    5.1075 C   0  0  0  0  0  0  0  0  0  0  0  0
  -15.9668   -4.9803    4.2166 C   0  0  0  0  0  0  0  0  0  0  0  0
  -16.2291   -3.6426    3.1405 Cl  0  0  0  0  0  0  0  0  0  0  0  0
  -16.7454   -6.1070    4.2393 C   0  0  0  0  0  0  0  0  0  0  0  0
  -16.5562   -7.1946    5.0954 C   0  0  0  0  0  0  0  0  0  0  0  0
  -17.5566   -8.2607    4.9953 C   0  0  0  0  0  0  0  0  0  0  0  0
  -18.1963   -8.5784    6.1774 F   0  0  0  0  0  0  0  0  0  0  0  0
  -17.0353   -9.4091    4.3974 F   0  0  0  0  0  0  0  0  0  0  0  0
  -18.5632   -7.8822    4.1386 F   0  0  0  0  0  0  0  0  0  0  0  0
 22 23  1  0  0  0
 23 24  2  0  0  0
 23 25  1  0  0  0
 25 19  1  0  0  0
 19 20  2  0  0  0
 19 21  2  0  0  0
 19 18  1  0  0  0
 18 10  1  0  0  0
 10 11  1  0  0  0
 11 12  2  0  0  0
 11 13  1  0  0  0
 13 14  1  0  0  0
 14 15  2  0  0  0
 15  1  1  0  0  0
  1  2  2  0  0  0
  2  3  1  0  0  0
  3  4  2  0  0  0
  4  5  1  0  0  0
  5 27  1  0  0  0
 27 28  1  0  0  0
 28 29  2  0  0  0
 29 30  1  0  0  0
 30 31  2  0  0  0
 31 32  1  0  0  0
 31 33  1  0  0  0
 33 34  2  0  0  0
 34 35  1  0  0  0
 35 36  1  0  0  0
 35 37  1  0  0  0
 35 38  1  0  0  0
  5  6  1  0  0  0
  6  7  2  0  0  0
  7  8  1  0  0  0
  8  9  2  0  0  0
 14 16  1  0  0  0
 16 17  2  0  0  0
 16 10  1  0  0  0
  9  1  1  0  0  0
  8  4  1  0  0  0
 34 28  1  0  0  0
 25 26  1  0  0  0
M  END
> <minimizedAffinity>
-7.61333

> <CNNscore>
0.1620718837

> <CNNaffinity>
6.9513549805

> <CNN_VS>
1.1266192198

> <CNNaffinity_variance>
0.0962340534

$$$$
[H]/C(=C1/SC(=O)N(C([H])([H])S(=O)(=O)N([H])C(=O)C([H])([H])[H])C1=O)c1c([H])c([H])c2c(c([H])nn2C([H])([H])c2c([H])c([H])c(Cl)c([H])c2C(F)(F)F)c1[H]


 38 41  0  0  0  0  0  0  0  0999 V2000
  -10.8970   -9.2792    7.4939 C   0  0  0  0  0  0  0  0  0  0  0  0
  -11.7631   -8.6268    8.3378 C   0  0  0  0  0  0  0  0  0  0  0  0
  -13.0683   -8.3897    7.9565 C   0  0  0  0  0  0  0  0  0  0  0  0
  -13.5878   -8.7787    6.7382 C   0  0  0  0  0  0  0  0  0  0  0  0
  -14.7966   -8.6866    6.1271 N   0  0  0  0  0  0  0  0  0  0  0  0
  -14.6579   -9.2674    4.9590 N   0  0  0  0  0  0  0  0  0  0  0  0
  -13.4246   -9.7331    4.7696 C   0  0  0  0  0  0  0  0  0  0  0  0
  -12.7099   -9.4326    5.9018 C   0  0  0  0  0  0  0  0  0  0  0  0
  -11.3935   -9.6782    6.2676 C   0  0  0  0  0  0  0  0  0  0  0  0
   -6.2974   -7.9569    7.9062 N   0  0  0  0  0  0  0  0  0  0  0  0
   -6.9426   -6.7536    7.5273 C   0  0  0  0  0  0  0  0  0  0  0  0
   -6.5798   -5.5573    7.7023 O   0  0  0  0  0  0  0  0  0  0  0  0
   -8.4646   -7.3351    6.7037 S   0  0  0  0  0  0  0  0  0  0  0  0
   -8.4865   -8.8709    7.6236 C   0  0  0  0  0  0  0  0  0  0  0  0
   -9.5295   -9.5872    7.8948 C   0  0  0  0  0  0  0  0  0  0  0  0
   -7.0976   -9.0966    7.9648 C   0  0  0  0  0  0  0  0  0  0  0  0
   -6.6894  -10.2697    8.2868 O   0  0  0  0  0  0  0  0  0  0  0  0
   -4.8722   -7.9380    8.2383 C   0  0  0  0  0  0  0  0  0  0  0  0
   -3.8334   -7.8893    6.8418 S   0  0  0  0  0  0  0  0  0  0  0  0
   -2.8010   -9.0085    6.9754 O   0  0  0  0  0  0  0  0  0  0  0  0
   -4.6101   -8.2577    5.5802 O   0  0  0  0  0  0  0  0  0  0  0  0
   -2.8677   -4.1280    5.4926 C   0  0  0  0  0  0  0  0  0  0  0  0
   -3.5565   -5.4188    5.7780 C   0  0  0  0  0  0  0  0  0  0  0  0
   -4.7066   -5.6158    5.2827 O   0  0  0  0  0  0  0  0  0  0  0  0
   -2.9902   -6.4403    6.5745 N   0  0  0  0  0  0  0  0  0  0  0  0
   -2.0464   -6.2626    6.9779 H   0  0  0  0  0  0  0  0  0  0  0  0
  -15.9392   -7.9909    6.5997 C   0  0  0  0  0  0  0  0  0  0  0  0
  -16.7064   -7.0552    5.8223 C   0  0  0  0  0  0  0  0  0  0  0  0
  -18.0566   -7.3666    5.5658 C   0  0  0  0  0  0  0  0  0  0  0  0
  -18.9316   -6.5553    4.9212 C   0  0  0  0  0  0  0  0  0  0  0  0
  -18.5016   -5.3336    4.4733 C   0  0  0  0  0  0  0  0  0  0  0  0
  -19.6169   -4.2898    3.6470 Cl  0  0  0  0  0  0  0  0  0  0  0  0
  -17.1911   -5.0151    4.7133 C   0  0  0  0  0  0  0  0  0  0  0  0
  -16.2747   -5.8371    5.3735 C   0  0  0  0  0  0  0  0  0  0  0  0
  -14.9048   -5.3228    5.4520 C   0  0  0  0  0  0  0  0  0  0  0  0
  -14.2744   -5.5142    6.6659 F   0  0  0  0  0  0  0  0  0  0  0  0
  -14.8291   -3.9832    5.0676 F   0  0  0  0  0  0  0  0  0  0  0  0
  -14.1079   -5.9651    4.5339 F   0  0  0  0  0  0  0  0  0  0  0  0
 22 23  1  0  0  0
 23 24  2  0  0  0
 23 25  1  0  0  0
 25 19  1  0  0  0
 19 20  2  0  0  0
 19 21  2  0  0  0
 19 18  1  0  0  0
 18 10  1  0  0  0
 10 11  1  0  0  0
 11 12  2  0  0  0
 11 13  1  0  0  0
 13 14  1  0  0  0
 14 15  2  0  0  0
 15  1  1  0  0  0
  1  2  2  0  0  0
  2  3  1  0  0  0
  3  4  2  0  0  0
  4  5  1  0  0  0
  5 27  1  0  0  0
 27 28  1  0  0  0
 28 29  2  0  0  0
 29 30  1  0  0  0
 30 31  2  0  0  0
 31 32  1  0  0  0
 31 33  1  0  0  0
 33 34  2  0  0  0
 34 35  1  0  0  0
 35 36  1  0  0  0
 35 37  1  0  0  0
 35 38  1  0  0  0
  5  6  1  0  0  0
  6  7  2  0  0  0
  7  8  1  0  0  0
  8  9  2  0  0  0
 14 16  1  0  0  0
 16 17  2  0  0  0
 16 10  1  0  0  0
  9  1  1  0  0  0
  8  4  1  0  0  0
 34 28  1  0  0  0
 25 26  1  0  0  0
M  END
> <minimizedAffinity>
-2.47197

> <CNNscore>
0.1610461324

> <CNNaffinity>
6.7208967209

> <CNN_VS>
1.0823744535

> <CNNaffinity_variance>
0.2661361098

$$$$
[H]C1=C([H])C(C([H])([H])C([H])([H])C(=O)N([H])C([H])([H])C([H])([H])C([H])([H])C([H])([H])C([H])([H])Oc2c([H])c([H])c([H])c(C([H])([H])n3nc(C([H])([H])[H])c4c([H])c(C(=O)N5C([H])([H])C([H])([H])N(c6nc([H])c(C(=O)C([H])([H])[H])c([H])c6[H])[C@]([H])(C([H])([H])[H])C5([H])[H])sc43)c2[H])=[N+]2C1=C([H])c1c(C([H])([H])[H])c([H])c(C([H])([H])[H])n1[B-]2(F)F


 62 69  0  0  0  0  0  0  0  0999 V2000
   -0.2164   -7.3409    3.4161 C   0  0  0  0  0  0  0  0  0  0  0  0
    1.0029   -7.6078    3.8800 C   0  0  0  0  0  0  0  0  0  0  0  0
    1.1824   -7.9358    5.2650 C   0  0  0  0  0  0  0  0  0  0  0  0
   -0.0029   -7.9539    6.0213 C   0  0  0  0  0  0  0  0  0  0  0  0
   -1.2428   -7.6945    5.5453 C   0  0  0  0  0  0  0  0  0  0  0  0
   -1.3982   -7.3707    4.1698 C   0  0  0  0  0  0  0  0  0  0  0  0
   -0.2620   -6.6170    2.0810 C   0  0  0  0  0  0  0  0  0  0  0  0
    2.3211  -10.1406   -0.3341 C   0  0  0  0  0  0  0  0  0  0  0  0
    2.8256   -8.9293   -0.6970 C   0  0  0  0  0  0  0  0  0  0  0  0
    2.2932   -7.8177   -0.1309 C   0  0  0  0  0  0  0  0  0  0  0  0
    2.4350   -6.4056   -0.2527 C   0  0  0  0  0  0  0  0  0  0  0  0
    3.3629   -5.6377   -1.0921 C   0  0  0  0  0  0  0  0  0  0  0  0
    1.5162   -5.8666    0.5637 N   0  0  0  0  0  0  0  0  0  0  0  0
    0.7983   -6.7629    1.1934 N   0  0  0  0  0  0  0  0  0  0  0  0
    1.3089   -7.9612    0.7483 C   0  0  0  0  0  0  0  0  0  0  0  0
    1.0800   -9.6422    0.8331 S   0  0  0  0  0  0  0  0  0  0  0  0
    1.4854  -13.6030    2.4120 C   0  0  0  0  0  0  0  0  0  0  0  0
    2.8709  -13.9548    1.8659 C   0  0  0  0  0  0  0  0  0  0  0  0
    3.4331  -12.7918    1.0799 C   0  0  0  0  0  0  0  0  0  0  0  0
    2.9157  -12.6777   -0.2179 N   0  0  0  0  0  0  0  0  0  0  0  0
    2.8540  -13.8764   -1.0869 C   0  0  0  0  0  0  0  0  0  0  0  0
    2.7636  -15.1476   -0.3702 C   0  0  0  0  0  0  0  0  0  0  0  0
    2.7464  -15.1296    1.0583 N   0  0  0  0  0  0  0  0  0  0  0  0
    2.4551  -11.5036   -0.8014 C   0  0  0  0  0  0  0  0  0  0  0  0
    2.0599  -11.6310   -2.0477 O   0  0  0  0  0  0  0  0  0  0  0  0
    2.6164  -16.3972    1.7049 C   0  0  0  0  0  0  0  0  0  0  0  0
    3.4110  -16.6041    2.8784 C   0  0  0  0  0  0  0  0  0  0  0  0
    3.3105  -17.7973    3.5436 C   0  0  0  0  0  0  0  0  0  0  0  0
    2.4782  -18.8009    3.1395 C   0  0  0  0  0  0  0  0  0  0  0  0
    1.6982  -18.5768    1.9832 C   0  0  0  0  0  0  0  0  0  0  0  0
    1.8397  -17.3967    1.3775 N   0  0  0  0  0  0  0  0  0  0  0  0
    2.3813  -20.0690    3.8154 C   0  0  0  0  0  0  0  0  0  0  0  0
    1.1472  -20.6902    4.3120 C   0  0  0  0  0  0  0  0  0  0  0  0
    3.4373  -20.7416    3.9811 O   0  0  0  0  0  0  0  0  0  0  0  0
   -2.3784   -7.6849    6.2722 O   0  0  0  0  0  0  0  0  0  0  0  0
   -3.3680   -7.6285    7.0291 C   0  0  0  0  0  0  0  0  0  0  0  0
   -4.7312   -7.3293    6.4149 C   0  0  0  0  0  0  0  0  0  0  0  0
   -5.8671   -7.1684    7.3233 C   0  0  0  0  0  0  0  0  0  0  0  0
   -7.1875   -6.7420    6.6935 C   0  0  0  0  0  0  0  0  0  0  0  0
   -8.3014   -7.0918    7.6984 C   0  0  0  0  0  0  0  0  0  0  0  0
   -8.8246   -8.3760    7.5569 N   0  0  0  0  0  0  0  0  0  0  0  0
   -9.3195   -9.6350    7.4210 C   0  0  0  0  0  0  0  0  0  0  0  0
   -8.3390  -10.5586    7.6041 O   0  0  0  0  0  0  0  0  0  0  0  0
   -7.5854   -8.8523    7.9510 H   0  0  0  0  0  0  0  0  0  0  0  0
  -10.6323  -10.1012    7.1029 C   0  0  0  0  0  0  0  0  0  0  0  0
  -11.8555   -9.8503    7.8286 C   0  0  0  0  0  0  0  0  0  0  0  0
  -12.4774   -8.5606    7.8945 C   0  0  0  0  0  0  0  0  0  0  0  0
  -13.3930   -8.1647    7.0134 N   0  0  0  0  0  0  0  0  0  0  0  0
  -13.7641   -6.8721    7.4193 C   0  0  0  0  0  0  0  0  0  0  0  0
  -13.0288   -6.4944    8.6164 C   0  0  0  0  0  0  0  0  0  0  0  0
  -12.2682   -7.5074    8.8811 C   0  0  0  0  0  0  0  0  0  0  0  0
  -14.6752   -6.1855    6.6989 C   0  0  0  0  0  0  0  0  0  0  0  0
  -15.2919   -6.7534    5.5120 C   0  0  0  0  0  0  0  0  0  0  0  0
  -16.2262   -6.1827    4.6636 C   0  0  0  0  0  0  0  0  0  0  0  0
  -16.8011   -4.8155    4.8069 C   0  0  0  0  0  0  0  0  0  0  0  0
  -16.4674   -7.1299    3.6933 C   0  0  0  0  0  0  0  0  0  0  0  0
  -15.7001   -8.2436    3.9432 C   0  0  0  0  0  0  0  0  0  0  0  0
  -15.5969   -9.5218    3.2222 C   0  0  0  0  0  0  0  0  0  0  0  0
  -14.9722   -7.9735    5.1025 N   0  0  0  0  0  0  0  0  0  0  0  0
  -13.9726   -8.8366    5.8289 B   0  0  0  0  0  0  0  0  0  0  0  0
  -12.9219   -9.1602    4.8120 F   0  0  0  0  0  0  0  0  0  0  0  0
  -14.6678  -10.0808    6.1816 F   0  0  0  0  0  0  0  0  0  0  0  0
 17 18  1  0  0  0
 18 19  1  0  0  0
 19 20  1  0  0  0
 20 21  1  0  0  0
 21 22  1  0  0  0
 22 23  1  0  0  0
 23 26  1  0  0  0
 26 27  2  0  0  0
 27 28  1  0  0  0
 28 29  2  0  0  0
 29 30  1  0  0  0
 30 31  2  0  0  0
 29 32  1  0  0  0
 32 33  1  0  0  0
 32 34  2  0  0  0
 20 24  1  0  0  0
 24 25  2  0  0  0
 24  8  1  0  0  0
  8  9  2  0  0  0
  9 10  1  0  0  0
 10 11  1  0  0  0
 11 12  1  0  0  0
 11 13  2  0  0  0
 13 14  1  0  0  0
 14  7  1  0  0  0
  7  1  1  0  0  0
  1  2  2  0  0  0
  2  3  1  0  0  0
  3  4  2  0  0  0
  4  5  1  0  0  0
  5 35  1  0  0  0
 35 36  1  0  0  0
 36 37  1  0  0  0
 37 38  1  0  0  0
 38 39  1  0  0  0
 39 40  1  0  0  0
 40 41  1  0  0  0
 41 42  1  0  0  0
 42 43  2  0  0  0
 42 45  1  0  0  0
 45 46  1  0  0  0
 46 47  1  0  0  0
 47 48  2  0  0  0
 48 49  1  0  0  0
 49 50  1  0  0  0
 50 51  2  0  0  0
 49 52  2  0  0  0
 52 53  1  0  0  0
 53 54  2  0  0  0
 54 55  1  0  0  0
 54 56  1  0  0  0
 56 57  2  0  0  0
 57 58  1  0  0  0
 57 59  1  0  0  0
 59 60  1  0  0  0
 60 61  1  0  0  0
 60 62  1  0  0  0
  5  6  2  0  0  0
 14 15  1  0  0  0
 15 16  1  0  0  0
 23 18  1  0  0  0
 31 26  1  0  0  0
 16  8  1  0  0  0
 15 10  2  0  0  0
  6  1  1  0  0  0
 51 47  1  0  0  0
 59 53  1  0  0  0
 60 48  1  0  0  0
 41 44  1  0  0  0
M  CHG 1  48   1
M  CHG 1  60  -1
M  END
> <minimizedAffinity>
-7.11421

> <CNNscore>
0.1079069152

> <CNNaffinity>
6.6064414978

> <CNN_VS>
0.7128807306

> <CNNaffinity_variance>
0.1787468493

$$$$
[H]C1=C([H])C(C([H])([H])C([H])([H])C(=O)N([H])C([H])([H])C([H])([H])C([H])([H])C([H])([H])C([H])([H])Oc2c([H])c([H])c([H])c(C([H])([H])n3nc(C([H])([H])[H])c4c([H])c(C(=O)N5C([H])([H])C([H])([H])N(c6nc([H])c(C(=O)C([H])([H])[H])c([H])c6[H])[C@]([H])(C([H])([H])[H])C5([H])[H])sc43)c2[H])=[N+]2C1=C([H])c1c(C([H])([H])[H])c([H])c(C([H])([H])[H])n1[B-]2(F)F


 62 69  0  0  0  0  0  0  0  0999 V2000
   -2.6391   -1.6245    1.9872 C   0  0  0  0  0  0  0  0  0  0  0  0
   -3.6212   -1.1488    2.7502 C   0  0  0  0  0  0  0  0  0  0  0  0
   -4.1498   -1.9523    3.8146 C   0  0  0  0  0  0  0  0  0  0  0  0
   -3.5406   -3.2117    3.9562 C   0  0  0  0  0  0  0  0  0  0  0  0
   -2.5340   -3.6885    3.1877 C   0  0  0  0  0  0  0  0  0  0  0  0
   -2.0255   -2.8762    2.1377 C   0  0  0  0  0  0  0  0  0  0  0  0
   -2.4329   -0.9042    0.6655 C   0  0  0  0  0  0  0  0  0  0  0  0
   -6.0814   -1.5190   -2.6858 C   0  0  0  0  0  0  0  0  0  0  0  0
   -5.0025   -2.2349   -3.1060 C   0  0  0  0  0  0  0  0  0  0  0  0
   -3.8942   -2.2423   -2.3240 C   0  0  0  0  0  0  0  0  0  0  0  0
   -2.5673   -2.7565   -2.3867 C   0  0  0  0  0  0  0  0  0  0  0  0
   -1.9458   -3.5901   -3.4231 C   0  0  0  0  0  0  0  0  0  0  0  0
   -1.9430   -2.3132   -1.2843 N   0  0  0  0  0  0  0  0  0  0  0  0
   -2.7085   -1.5728   -0.5220 N   0  0  0  0  0  0  0  0  0  0  0  0
   -3.9127   -1.5544   -1.1887 C   0  0  0  0  0  0  0  0  0  0  0  0
   -5.4670   -0.8704   -1.1519 S   0  0  0  0  0  0  0  0  0  0  0  0
   -8.2314    2.1145   -1.1353 C   0  0  0  0  0  0  0  0  0  0  0  0
   -9.3314    1.0514   -1.0979 C   0  0  0  0  0  0  0  0  0  0  0  0
   -8.7471   -0.3147   -1.3787 C   0  0  0  0  0  0  0  0  0  0  0  0
   -8.5084   -0.5643   -2.7372 N   0  0  0  0  0  0  0  0  0  0  0  0
   -9.5667   -0.2668   -3.7309 C   0  0  0  0  0  0  0  0  0  0  0  0
  -10.5036    0.7821   -3.3313 C   0  0  0  0  0  0  0  0  0  0  0  0
  -10.3295    1.4088   -2.0592 N   0  0  0  0  0  0  0  0  0  0  0  0
   -7.3406   -1.1022   -3.2646 C   0  0  0  0  0  0  0  0  0  0  0  0
   -7.3639   -1.2910   -4.5643 O   0  0  0  0  0  0  0  0  0  0  0  0
  -11.2492    2.4541   -1.7383 C   0  0  0  0  0  0  0  0  0  0  0  0
  -11.3328    3.5430   -2.6650 C   0  0  0  0  0  0  0  0  0  0  0  0
  -12.2113    4.5627   -2.4103 C   0  0  0  0  0  0  0  0  0  0  0  0
  -13.0192    4.5846   -1.3102 C   0  0  0  0  0  0  0  0  0  0  0  0
  -12.9269    3.4997   -0.4103 C   0  0  0  0  0  0  0  0  0  0  0  0
  -12.0531    2.5374   -0.7105 N   0  0  0  0  0  0  0  0  0  0  0  0
  -13.9292    5.6621   -1.0181 C   0  0  0  0  0  0  0  0  0  0  0  0
  -14.3377    6.1081    0.3197 C   0  0  0  0  0  0  0  0  0  0  0  0
  -14.4097    6.3187   -1.9840 O   0  0  0  0  0  0  0  0  0  0  0  0
   -1.9649   -4.9054    3.3030 O   0  0  0  0  0  0  0  0  0  0  0  0
   -1.3469   -5.9782    3.4534 C   0  0  0  0  0  0  0  0  0  0  0  0
   -1.3670   -6.6372    4.8283 C   0  0  0  0  0  0  0  0  0  0  0  0
   -1.1453   -8.0821    4.8944 C   0  0  0  0  0  0  0  0  0  0  0  0
   -2.0845   -8.8745    5.7954 C   0  0  0  0  0  0  0  0  0  0  0  0
   -2.3276   -8.0224    7.0556 C   0  0  0  0  0  0  0  0  0  0  0  0
   -3.6670   -7.7259    7.3028 N   0  0  0  0  0  0  0  0  0  0  0  0
   -4.9688   -7.4216    7.5500 C   0  0  0  0  0  0  0  0  0  0  0  0
   -5.0825   -6.1563    8.0336 O   0  0  0  0  0  0  0  0  0  0  0  0
   -3.2588   -6.4342    7.5903 H   0  0  0  0  0  0  0  0  0  0  0  0
   -6.1597   -8.1996    7.4135 C   0  0  0  0  0  0  0  0  0  0  0  0
   -7.4956   -7.8450    7.8322 C   0  0  0  0  0  0  0  0  0  0  0  0
   -8.6483   -8.6429    7.5337 C   0  0  0  0  0  0  0  0  0  0  0  0
   -9.8782   -8.2805    7.8908 N   0  0  0  0  0  0  0  0  0  0  0  0
  -10.7188   -9.2993    7.4125 C   0  0  0  0  0  0  0  0  0  0  0  0
   -9.9336  -10.3125    6.7246 C   0  0  0  0  0  0  0  0  0  0  0  0
   -8.7075   -9.9074    6.8099 C   0  0  0  0  0  0  0  0  0  0  0  0
  -12.0464   -9.2280    7.6427 C   0  0  0  0  0  0  0  0  0  0  0  0
  -12.6342   -8.1156    8.3698 C   0  0  0  0  0  0  0  0  0  0  0  0
  -13.9626   -7.8994    8.6966 C   0  0  0  0  0  0  0  0  0  0  0  0
  -15.0943   -8.8066    8.3556 C   0  0  0  0  0  0  0  0  0  0  0  0
  -13.9798   -6.7127    9.3954 C   0  0  0  0  0  0  0  0  0  0  0  0
  -12.6985   -6.2226    9.4927 C   0  0  0  0  0  0  0  0  0  0  0  0
  -12.1830   -4.9967   10.1216 C   0  0  0  0  0  0  0  0  0  0  0  0
  -11.8732   -7.1318    8.8299 N   0  0  0  0  0  0  0  0  0  0  0  0
  -10.3798   -7.0999    8.6290 B   0  0  0  0  0  0  0  0  0  0  0  0
   -9.8002   -7.0273   10.0079 F   0  0  0  0  0  0  0  0  0  0  0  0
  -10.0746   -5.8418    7.9366 F   0  0  0  0  0  0  0  0  0  0  0  0
 17 18  1  0  0  0
 18 19  1  0  0  0
 19 20  1  0  0  0
 20 21  1  0  0  0
 21 22  1  0  0  0
 22 23  1  0  0  0
 23 26  1  0  0  0
 26 27  2  0  0  0
 27 28  1  0  0  0
 28 29  2  0  0  0
 29 30  1  0  0  0
 30 31  2  0  0  0
 29 32  1  0  0  0
 32 33  1  0  0  0
 32 34  2  0  0  0
 20 24  1  0  0  0
 24 25  2  0  0  0
 24  8  1  0  0  0
  8  9  2  0  0  0
  9 10  1  0  0  0
 10 11  1  0  0  0
 11 12  1  0  0  0
 11 13  2  0  0  0
 13 14  1  0  0  0
 14  7  1  0  0  0
  7  1  1  0  0  0
  1  2  2  0  0  0
  2  3  1  0  0  0
  3  4  2  0  0  0
  4  5  1  0  0  0
  5 35  1  0  0  0
 35 36  1  0  0  0
 36 37  1  0  0  0
 37 38  1  0  0  0
 38 39  1  0  0  0
 39 40  1  0  0  0
 40 41  1  0  0  0
 41 42  1  0  0  0
 42 43  2  0  0  0
 42 45  1  0  0  0
 45 46  1  0  0  0
 46 47  1  0  0  0
 47 48  2  0  0  0
 48 49  1  0  0  0
 49 50  1  0  0  0
 50 51  2  0  0  0
 49 52  2  0  0  0
 52 53  1  0  0  0
 53 54  2  0  0  0
 54 55  1  0  0  0
 54 56  1  0  0  0
 56 57  2  0  0  0
 57 58  1  0  0  0
 57 59  1  0  0  0
 59 60  1  0  0  0
 60 61  1  0  0  0
 60 62  1  0  0  0
  5  6  2  0  0  0
 14 15  1  0  0  0
 15 16  1  0  0  0
 23 18  1  0  0  0
 31 26  1  0  0  0
 16  8  1  0  0  0
 15 10  2  0  0  0
  6  1  1  0  0  0
 51 47  1  0  0  0
 59 53  1  0  0  0
 60 48  1  0  0  0
 41 44  1  0  0  0
M  CHG 1  48   1
M  CHG 1  60  -1
M  END
> <minimizedAffinity>
-9.46284

> <CNNscore>
0.1053338647

> <CNNaffinity>
7.0415163040

> <CNN_VS>
0.7417101264

> <CNNaffinity_variance>
0.3050129116

$$$$
[H]C1=C([H])C(C([H])([H])C([H])([H])C(=O)N([H])C([H])([H])C([H])([H])C([H])([H])C([H])([H])C([H])([H])Oc2c([H])c([H])c([H])c(C([H])([H])n3nc(C([H])([H])[H])c4c([H])c(C(=O)N5C([H])([H])C([H])([H])N(c6nc([H])c(C(=O)C([H])([H])[H])c([H])c6[H])[C@]([H])(C([H])([H])[H])C5([H])[H])sc43)c2[H])=[N+]2C1=C([H])c1c(C([H])([H])[H])c([H])c(C([H])([H])[H])n1[B-]2(F)F


 62 69  0  0  0  0  0  0  0  0999 V2000
   -3.2086   -5.8232   14.2299 C   0  0  0  0  0  0  0  0  0  0  0  0
   -2.4084   -6.6871   14.8517 C   0  0  0  0  0  0  0  0  0  0  0  0
   -1.2518   -7.2005   14.1761 C   0  0  0  0  0  0  0  0  0  0  0  0
   -1.0676   -6.7071   12.8723 C   0  0  0  0  0  0  0  0  0  0  0  0
   -1.8750   -5.8196   12.2466 C   0  0  0  0  0  0  0  0  0  0  0  0
   -3.0165   -5.3241   12.9339 C   0  0  0  0  0  0  0  0  0  0  0  0
   -4.5905   -5.6592   14.8398 C   0  0  0  0  0  0  0  0  0  0  0  0
   -5.9465   -1.4517   17.1589 C   0  0  0  0  0  0  0  0  0  0  0  0
   -5.6054   -2.3628   18.1111 C   0  0  0  0  0  0  0  0  0  0  0  0
   -5.1672   -3.5806   17.7050 C   0  0  0  0  0  0  0  0  0  0  0  0
   -4.7922   -4.8165   18.3059 C   0  0  0  0  0  0  0  0  0  0  0  0
   -4.6988   -5.1626   19.7296 C   0  0  0  0  0  0  0  0  0  0  0  0
   -4.5391   -5.6614   17.2943 N   0  0  0  0  0  0  0  0  0  0  0  0
   -4.7096   -5.1180   16.1150 N   0  0  0  0  0  0  0  0  0  0  0  0
   -5.0906   -3.8269   16.4028 C   0  0  0  0  0  0  0  0  0  0  0  0
   -5.6179   -2.3815   15.6830 S   0  0  0  0  0  0  0  0  0  0  0  0
  -10.1171   -0.9845   18.7764 C   0  0  0  0  0  0  0  0  0  0  0  0
  -10.2386   -0.3493   17.3896 C   0  0  0  0  0  0  0  0  0  0  0  0
   -8.9827   -0.6038   16.5868 C   0  0  0  0  0  0  0  0  0  0  0  0
   -7.9148    0.2427   16.9156 N   0  0  0  0  0  0  0  0  0  0  0  0
   -8.1461    1.7026   17.0199 C   0  0  0  0  0  0  0  0  0  0  0  0
   -9.5156    2.0820   17.3638 C   0  0  0  0  0  0  0  0  0  0  0  0
  -10.4841    1.0502   17.5603 N   0  0  0  0  0  0  0  0  0  0  0  0
   -6.6054   -0.1633   17.1431 C   0  0  0  0  0  0  0  0  0  0  0  0
   -5.7645    0.8154   17.3894 O   0  0  0  0  0  0  0  0  0  0  0  0
  -11.7956    1.4770   17.9338 C   0  0  0  0  0  0  0  0  0  0  0  0
  -12.8747    1.0429   17.0980 C   0  0  0  0  0  0  0  0  0  0  0  0
  -14.1531    1.4127   17.4226 C   0  0  0  0  0  0  0  0  0  0  0  0
  -14.4467    2.1754   18.5159 C   0  0  0  0  0  0  0  0  0  0  0  0
  -13.3703    2.5896   19.3316 C   0  0  0  0  0  0  0  0  0  0  0  0
  -12.1484    2.1999   18.9646 N   0  0  0  0  0  0  0  0  0  0  0  0
  -15.7833    2.5915   18.8546 C   0  0  0  0  0  0  0  0  0  0  0  0
  -16.8139    1.7564   19.4837 C   0  0  0  0  0  0  0  0  0  0  0  0
  -16.1135    3.7892   18.6271 O   0  0  0  0  0  0  0  0  0  0  0  0
   -1.7169   -5.3641   10.9874 O   0  0  0  0  0  0  0  0  0  0  0  0
   -1.5635   -5.0521    9.7897 C   0  0  0  0  0  0  0  0  0  0  0  0
   -2.4664   -5.7082    8.7508 C   0  0  0  0  0  0  0  0  0  0  0  0
   -1.8926   -6.0001    7.4367 C   0  0  0  0  0  0  0  0  0  0  0  0
   -2.4159   -5.1758    6.2668 C   0  0  0  0  0  0  0  0  0  0  0  0
   -3.8156   -4.6681    6.6621 C   0  0  0  0  0  0  0  0  0  0  0  0
   -4.7980   -5.6561    6.7036 N   0  0  0  0  0  0  0  0  0  0  0  0
   -5.7608   -6.6157    6.7285 C   0  0  0  0  0  0  0  0  0  0  0  0
   -6.4016   -6.6839    5.5317 O   0  0  0  0  0  0  0  0  0  0  0  0
   -4.9941   -5.4243    5.3525 H   0  0  0  0  0  0  0  0  0  0  0  0
   -6.1927   -7.4891    7.7739 C   0  0  0  0  0  0  0  0  0  0  0  0
   -7.4934   -7.5373    8.3995 C   0  0  0  0  0  0  0  0  0  0  0  0
   -8.5562   -8.3791    7.9344 C   0  0  0  0  0  0  0  0  0  0  0  0
   -9.8385   -8.0896    8.1432 N   0  0  0  0  0  0  0  0  0  0  0  0
  -10.5580   -9.1304    7.5328 C   0  0  0  0  0  0  0  0  0  0  0  0
   -9.6407  -10.0793    6.9208 C   0  0  0  0  0  0  0  0  0  0  0  0
   -8.4579   -9.6185    7.1725 C   0  0  0  0  0  0  0  0  0  0  0  0
  -11.9058   -9.1317    7.5950 C   0  0  0  0  0  0  0  0  0  0  0  0
  -12.6375   -8.0756    8.2738 C   0  0  0  0  0  0  0  0  0  0  0  0
  -14.0059   -7.9358    8.4359 C   0  0  0  0  0  0  0  0  0  0  0  0
  -15.0368   -8.8841    7.9280 C   0  0  0  0  0  0  0  0  0  0  0  0
  -14.1727   -6.7768    9.1610 C   0  0  0  0  0  0  0  0  0  0  0  0
  -12.9411   -6.2289    9.4340 C   0  0  0  0  0  0  0  0  0  0  0  0
  -12.5734   -5.0025   10.1585 C   0  0  0  0  0  0  0  0  0  0  0  0
  -11.9929   -7.0730    8.8550 N   0  0  0  0  0  0  0  0  0  0  0  0
  -10.4898   -6.9616    8.8459 B   0  0  0  0  0  0  0  0  0  0  0  0
  -10.0917   -6.9099   10.2886 F   0  0  0  0  0  0  0  0  0  0  0  0
  -10.1669   -5.6664    8.2346 F   0  0  0  0  0  0  0  0  0  0  0  0
 17 18  1  0  0  0
 18 19  1  0  0  0
 19 20  1  0  0  0
 20 21  1  0  0  0
 21 22  1  0  0  0
 22 23  1  0  0  0
 23 26  1  0  0  0
 26 27  2  0  0  0
 27 28  1  0  0  0
 28 29  2  0  0  0
 29 30  1  0  0  0
 30 31  2  0  0  0
 29 32  1  0  0  0
 32 33  1  0  0  0
 32 34  2  0  0  0
 20 24  1  0  0  0
 24 25  2  0  0  0
 24  8  1  0  0  0
  8  9  2  0  0  0
  9 10  1  0  0  0
 10 11  1  0  0  0
 11 12  1  0  0  0
 11 13  2  0  0  0
 13 14  1  0  0  0
 14  7  1  0  0  0
  7  1  1  0  0  0
  1  2  2  0  0  0
  2  3  1  0  0  0
  3  4  2  0  0  0
  4  5  1  0  0  0
  5 35  1  0  0  0
 35 36  1  0  0  0
 36 37  1  0  0  0
 37 38  1  0  0  0
 38 39  1  0  0  0
 39 40  1  0  0  0
 40 41  1  0  0  0
 41 42  1  0  0  0
 42 43  2  0  0  0
 42 45  1  0  0  0
 45 46  1  0  0  0
 46 47  1  0  0  0
 47 48  2  0  0  0
 48 49  1  0  0  0
 49 50  1  0  0  0
 50 51  2  0  0  0
 49 52  2  0  0  0
 52 53  1  0  0  0
 53 54  2  0  0  0
 54 55  1  0  0  0
 54 56  1  0  0  0
 56 57  2  0  0  0
 57 58  1  0  0  0
 57 59  1  0  0  0
 59 60  1  0  0  0
 60 61  1  0  0  0
 60 62  1  0  0  0
  5  6  2  0  0  0
 14 15  1  0  0  0
 15 16  1  0  0  0
 23 18  1  0  0  0
 31 26  1  0  0  0
 16  8  1  0  0  0
 15 10  2  0  0  0
  6  1  1  0  0  0
 51 47  1  0  0  0
 59 53  1  0  0  0
 60 48  1  0  0  0
 41 44  1  0  0  0
M  CHG 1  48   1
M  CHG 1  60  -1
M  END
> <minimizedAffinity>
-8.54688

> <CNNscore>
0.1028795466

> <CNNaffinity>
7.1249289513

> <CNN_VS>
0.7330094576

> <CNNaffinity_variance>
0.4285021424

$$$$
[H]C1=C([H])C(C([H])([H])C([H])([H])C(=O)N([H])C([H])([H])C([H])([H])C([H])([H])C([H])([H])C([H])([H])Oc2c([H])c([H])c([H])c(C([H])([H])n3nc(C([H])([H])[H])c4c([H])c(C(=O)N5C([H])([H])C([H])([H])N(c6nc([H])c(C(=O)C([H])([H])[H])c([H])c6[H])[C@]([H])(C([H])([H])[H])C5([H])[H])sc43)c2[H])=[N+]2C1=C([H])c1c(C([H])([H])[H])c([H])c(C([H])([H])[H])n1[B-]2(F)F


 62 69  0  0  0  0  0  0  0  0999 V2000
   -2.2171   -2.4704    1.4178 C   0  0  0  0  0  0  0  0  0  0  0  0
   -2.4221   -3.7474    1.1009 C   0  0  0  0  0  0  0  0  0  0  0  0
   -1.7536   -4.7807    1.8379 C   0  0  0  0  0  0  0  0  0  0  0  0
   -0.9223   -4.3179    2.8733 C   0  0  0  0  0  0  0  0  0  0  0  0
   -0.7249   -3.0201    3.2019 C   0  0  0  0  0  0  0  0  0  0  0  0
   -1.3965   -2.0119    2.4581 C   0  0  0  0  0  0  0  0  0  0  0  0
   -2.6202   -1.4621    0.3551 C   0  0  0  0  0  0  0  0  0  0  0  0
   -6.1907   -1.6217   -3.1301 C   0  0  0  0  0  0  0  0  0  0  0  0
   -5.0650   -2.1756   -3.6588 C   0  0  0  0  0  0  0  0  0  0  0  0
   -3.9661   -2.2707   -2.8694 C   0  0  0  0  0  0  0  0  0  0  0  0
   -2.6091   -2.6827   -3.0027 C   0  0  0  0  0  0  0  0  0  0  0  0
   -1.9267   -3.2578   -4.1685 C   0  0  0  0  0  0  0  0  0  0  0  0
   -2.0244   -2.4285   -1.8216 N   0  0  0  0  0  0  0  0  0  0  0  0
   -2.8420   -1.8993   -0.9460 N   0  0  0  0  0  0  0  0  0  0  0  0
   -4.0385   -1.8219   -1.6222 C   0  0  0  0  0  0  0  0  0  0  0  0
   -5.6329   -1.2520   -1.4860 S   0  0  0  0  0  0  0  0  0  0  0  0
   -8.1834    2.0460   -1.4551 C   0  0  0  0  0  0  0  0  0  0  0  0
   -9.3025    1.0060   -1.3689 C   0  0  0  0  0  0  0  0  0  0  0  0
   -8.7621   -0.3702   -1.6857 C   0  0  0  0  0  0  0  0  0  0  0  0
   -8.5963   -0.6160   -3.0558 N   0  0  0  0  0  0  0  0  0  0  0  0
   -9.6960   -0.2899   -3.9941 C   0  0  0  0  0  0  0  0  0  0  0  0
  -10.5894    0.7758   -3.5427 C   0  0  0  0  0  0  0  0  0  0  0  0
  -10.3392    1.3905   -2.2775 N   0  0  0  0  0  0  0  0  0  0  0  0
   -7.4678   -1.1748   -3.6434 C   0  0  0  0  0  0  0  0  0  0  0  0
   -7.5595   -1.3547   -4.9414 O   0  0  0  0  0  0  0  0  0  0  0  0
  -11.2194    2.4528   -1.9057 C   0  0  0  0  0  0  0  0  0  0  0  0
  -12.0920    2.2056   -0.7972 C   0  0  0  0  0  0  0  0  0  0  0  0
  -12.9443    3.1984   -0.3918 C   0  0  0  0  0  0  0  0  0  0  0  0
  -12.9953    4.4212   -0.9963 C   0  0  0  0  0  0  0  0  0  0  0  0
  -12.1235    4.6487   -2.0843 C   0  0  0  0  0  0  0  0  0  0  0  0
  -11.3178    3.6448   -2.4341 N   0  0  0  0  0  0  0  0  0  0  0  0
  -13.9035    5.4647   -0.5957 C   0  0  0  0  0  0  0  0  0  0  0  0
  -13.6163    6.5372    0.3648 C   0  0  0  0  0  0  0  0  0  0  0  0
  -15.0481    5.4997   -1.1286 O   0  0  0  0  0  0  0  0  0  0  0  0
    0.0914   -2.5709    4.1766 O   0  0  0  0  0  0  0  0  0  0  0  0
    0.8320   -2.0505    5.0345 C   0  0  0  0  0  0  0  0  0  0  0  0
    0.1875   -1.2103    6.1316 C   0  0  0  0  0  0  0  0  0  0  0  0
    0.3688   -1.6444    7.5173 C   0  0  0  0  0  0  0  0  0  0  0  0
    0.4722   -0.5449    8.5672 C   0  0  0  0  0  0  0  0  0  0  0  0
    1.1491   -1.1640    9.8048 C   0  0  0  0  0  0  0  0  0  0  0  0
    0.7897   -2.4866   10.0588 N   0  0  0  0  0  0  0  0  0  0  0  0
    0.4543   -3.7816   10.3015 C   0  0  0  0  0  0  0  0  0  0  0  0
    1.5101   -4.6037   10.0628 O   0  0  0  0  0  0  0  0  0  0  0  0
    2.1148   -2.8200    9.8340 H   0  0  0  0  0  0  0  0  0  0  0  0
   -0.7790   -4.3729   10.7157 C   0  0  0  0  0  0  0  0  0  0  0  0
   -2.0473   -3.7127   10.9190 C   0  0  0  0  0  0  0  0  0  0  0  0
   -2.4476   -2.5435   10.1930 C   0  0  0  0  0  0  0  0  0  0  0  0
   -2.8475   -2.5939    8.9245 N   0  0  0  0  0  0  0  0  0  0  0  0
   -3.1631   -1.2686    8.5820 C   0  0  0  0  0  0  0  0  0  0  0  0
   -2.9451   -0.3927    9.7229 C   0  0  0  0  0  0  0  0  0  0  0  0
   -2.5176   -1.1666   10.6680 C   0  0  0  0  0  0  0  0  0  0  0  0
   -3.5838   -0.9880    7.3311 C   0  0  0  0  0  0  0  0  0  0  0  0
   -3.7269   -2.0267    6.3251 C   0  0  0  0  0  0  0  0  0  0  0  0
   -4.1319   -1.9057    5.0061 C   0  0  0  0  0  0  0  0  0  0  0  0
   -4.5110   -0.6316    4.3330 C   0  0  0  0  0  0  0  0  0  0  0  0
   -4.0822   -3.1811    4.4888 C   0  0  0  0  0  0  0  0  0  0  0  0
   -3.6570   -4.0522    5.4643 C   0  0  0  0  0  0  0  0  0  0  0  0
   -3.4491   -5.5082    5.4293 C   0  0  0  0  0  0  0  0  0  0  0  0
   -3.4454   -3.2901    6.6138 N   0  0  0  0  0  0  0  0  0  0  0  0
   -2.9732   -3.7244    7.9777 B   0  0  0  0  0  0  0  0  0  0  0  0
   -1.6539   -4.3924    7.7414 F   0  0  0  0  0  0  0  0  0  0  0  0
   -3.9232   -4.7398    8.4489 F   0  0  0  0  0  0  0  0  0  0  0  0
 17 18  1  0  0  0
 18 19  1  0  0  0
 19 20  1  0  0  0
 20 21  1  0  0  0
 21 22  1  0  0  0
 22 23  1  0  0  0
 23 26  1  0  0  0
 26 27  2  0  0  0
 27 28  1  0  0  0
 28 29  2  0  0  0
 29 30  1  0  0  0
 30 31  2  0  0  0
 29 32  1  0  0  0
 32 33  1  0  0  0
 32 34  2  0  0  0
 20 24  1  0  0  0
 24 25  2  0  0  0
 24  8  1  0  0  0
  8  9  2  0  0  0
  9 10  1  0  0  0
 10 11  1  0  0  0
 11 12  1  0  0  0
 11 13  2  0  0  0
 13 14  1  0  0  0
 14  7  1  0  0  0
  7  1  1  0  0  0
  1  2  2  0  0  0
  2  3  1  0  0  0
  3  4  2  0  0  0
  4  5  1  0  0  0
  5 35  1  0  0  0
 35 36  1  0  0  0
 36 37  1  0  0  0
 37 38  1  0  0  0
 38 39  1  0  0  0
 39 40  1  0  0  0
 40 41  1  0  0  0
 41 42  1  0  0  0
 42 43  2  0  0  0
 42 45  1  0  0  0
 45 46  1  0  0  0
 46 47  1  0  0  0
 47 48  2  0  0  0
 48 49  1  0  0  0
 49 50  1  0  0  0
 50 51  2  0  0  0
 49 52  2  0  0  0
 52 53  1  0  0  0
 53 54  2  0  0  0
 54 55  1  0  0  0
 54 56  1  0  0  0
 56 57  2  0  0  0
 57 58  1  0  0  0
 57 59  1  0  0  0
 59 60  1  0  0  0
 60 61  1  0  0  0
 60 62  1  0  0  0
  5  6  2  0  0  0
 14 15  1  0  0  0
 15 16  1  0  0  0
 23 18  1  0  0  0
 31 26  1  0  0  0
 16  8  1  0  0  0
 15 10  2  0  0  0
  6  1  1  0  0  0
 51 47  1  0  0  0
 59 53  1  0  0  0
 60 48  1  0  0  0
 41 44  1  0  0  0
M  CHG 1  48   1
M  CHG 1  60  -1
M  END
> <minimizedAffinity>
-6.54464

> <CNNscore>
0.0905562118

> <CNNaffinity>
6.7368803024

> <CNN_VS>
0.6100663543

> <CNNaffinity_variance>
0.4993027747

$$$$
[H]C1=C([H])C(C([H])([H])C([H])([H])C(=O)N([H])C([H])([H])C([H])([H])C([H])([H])C([H])([H])C([H])([H])Oc2c([H])c([H])c([H])c(C([H])([H])n3nc(C([H])([H])[H])c4c([H])c(C(=O)N5C([H])([H])C([H])([H])N(c6nc([H])c(C(=O)C([H])([H])[H])c([H])c6[H])[C@]([H])(C([H])([H])[H])C5([H])[H])sc43)c2[H])=[N+]2C1=C([H])c1c(C([H])([H])[H])c([H])c(C([H])([H])[H])n1[B-]2(F)F


 62 69  0  0  0  0  0  0  0  0999 V2000
    0.8737   -8.4363    2.5047 C   0  0  0  0  0  0  0  0  0  0  0  0
    1.0806   -9.4205    1.6320 C   0  0  0  0  0  0  0  0  0  0  0  0
    0.9599  -10.7857    2.0555 C   0  0  0  0  0  0  0  0  0  0  0  0
    0.6082  -10.9511    3.4069 C   0  0  0  0  0  0  0  0  0  0  0  0
    0.3861   -9.9495    4.2893 C   0  0  0  0  0  0  0  0  0  0  0  0
    0.5120   -8.6037    3.8489 C   0  0  0  0  0  0  0  0  0  0  0  0
    1.4150   -7.0771    2.0951 C   0  0  0  0  0  0  0  0  0  0  0  0
   -0.3595   -3.5854   -1.0002 C   0  0  0  0  0  0  0  0  0  0  0  0
    0.3852   -4.4565   -1.7351 C   0  0  0  0  0  0  0  0  0  0  0  0
    0.9424   -5.5175   -1.0998 C   0  0  0  0  0  0  0  0  0  0  0  0
    1.8199   -6.5926   -1.4215 C   0  0  0  0  0  0  0  0  0  0  0  0
    2.4078   -6.9510   -2.7181 C   0  0  0  0  0  0  0  0  0  0  0  0
    2.0418   -7.2495   -0.2723 N   0  0  0  0  0  0  0  0  0  0  0  0
    1.4149   -6.7237    0.7503 N   0  0  0  0  0  0  0  0  0  0  0  0
    0.7363   -5.6579    0.2041 C   0  0  0  0  0  0  0  0  0  0  0  0
   -0.2418   -4.3290    0.6074 S   0  0  0  0  0  0  0  0  0  0  0  0
   -4.6503   -2.8009    0.0958 C   0  0  0  0  0  0  0  0  0  0  0  0
   -4.5960   -2.3140   -1.3538 C   0  0  0  0  0  0  0  0  0  0  0  0
   -3.2761   -2.6970   -1.9843 C   0  0  0  0  0  0  0  0  0  0  0  0
   -2.2103   -1.8585   -1.6296 N   0  0  0  0  0  0  0  0  0  0  0  0
   -2.3830   -0.3885   -1.7016 C   0  0  0  0  0  0  0  0  0  0  0  0
   -3.7619    0.0735   -1.5500 C   0  0  0  0  0  0  0  0  0  0  0  0
   -4.7927   -0.8964   -1.3555 N   0  0  0  0  0  0  0  0  0  0  0  0
   -0.9523   -2.2838   -1.2200 C   0  0  0  0  0  0  0  0  0  0  0  0
   -0.0972   -1.3146   -0.9851 O   0  0  0  0  0  0  0  0  0  0  0  0
   -6.1148   -0.3860   -1.1732 C   0  0  0  0  0  0  0  0  0  0  0  0
   -6.2584    0.7181   -0.2723 C   0  0  0  0  0  0  0  0  0  0  0  0
   -7.5038    1.2536   -0.0753 C   0  0  0  0  0  0  0  0  0  0  0  0
   -8.6187    0.7834   -0.7070 C   0  0  0  0  0  0  0  0  0  0  0  0
   -8.4569   -0.3024   -1.5959 C   0  0  0  0  0  0  0  0  0  0  0  0
   -7.2213   -0.7823   -1.7460 N   0  0  0  0  0  0  0  0  0  0  0  0
   -9.9371    1.3213   -0.4902 C   0  0  0  0  0  0  0  0  0  0  0  0
  -10.9396    1.5934   -1.5277 C   0  0  0  0  0  0  0  0  0  0  0  0
  -10.2987    1.5606    0.6960 O   0  0  0  0  0  0  0  0  0  0  0  0
    0.0746  -10.1036    5.5921 O   0  0  0  0  0  0  0  0  0  0  0  0
   -0.2028  -10.3588    6.7809 C   0  0  0  0  0  0  0  0  0  0  0  0
   -1.5922   -9.9949    7.2929 C   0  0  0  0  0  0  0  0  0  0  0  0
   -2.2884   -8.8842    6.6425 C   0  0  0  0  0  0  0  0  0  0  0  0
   -1.8934   -7.4806    7.0850 C   0  0  0  0  0  0  0  0  0  0  0  0
   -2.9167   -6.5077    6.4689 C   0  0  0  0  0  0  0  0  0  0  0  0
   -4.2444   -6.9160    6.5850 N   0  0  0  0  0  0  0  0  0  0  0  0
   -5.5368   -7.3258    6.6862 C   0  0  0  0  0  0  0  0  0  0  0  0
   -5.7731   -8.3778    5.8585 O   0  0  0  0  0  0  0  0  0  0  0  0
   -3.9225   -7.9733    5.7505 H   0  0  0  0  0  0  0  0  0  0  0  0
   -6.6252   -6.8240    7.4645 C   0  0  0  0  0  0  0  0  0  0  0  0
   -7.4714   -7.5617    8.3730 C   0  0  0  0  0  0  0  0  0  0  0  0
   -8.5431   -8.4067    7.9349 C   0  0  0  0  0  0  0  0  0  0  0  0
   -9.8217   -8.1067    8.1513 N   0  0  0  0  0  0  0  0  0  0  0  0
  -10.5525   -9.1552    7.5683 C   0  0  0  0  0  0  0  0  0  0  0  0
   -9.6464  -10.1203    6.9651 C   0  0  0  0  0  0  0  0  0  0  0  0
   -8.4587   -9.6608    7.1958 C   0  0  0  0  0  0  0  0  0  0  0  0
  -11.8997   -9.1484    7.6442 C   0  0  0  0  0  0  0  0  0  0  0  0
  -12.6191   -8.0759    8.3102 C   0  0  0  0  0  0  0  0  0  0  0  0
  -13.9851   -7.9260    8.4836 C   0  0  0  0  0  0  0  0  0  0  0  0
  -15.0258   -8.8785    8.0045 C   0  0  0  0  0  0  0  0  0  0  0  0
  -14.1386   -6.7526    9.1882 C   0  0  0  0  0  0  0  0  0  0  0  0
  -12.9016   -6.2060    9.4381 C   0  0  0  0  0  0  0  0  0  0  0  0
  -12.5204   -4.9679   10.1353 C   0  0  0  0  0  0  0  0  0  0  0  0
  -11.9635   -7.0657    8.8656 N   0  0  0  0  0  0  0  0  0  0  0  0
  -10.4601   -6.9622    8.8390 B   0  0  0  0  0  0  0  0  0  0  0  0
  -10.0469   -6.8851   10.2763 F   0  0  0  0  0  0  0  0  0  0  0  0
  -10.1372   -5.6806    8.1998 F   0  0  0  0  0  0  0  0  0  0  0  0
 17 18  1  0  0  0
 18 19  1  0  0  0
 19 20  1  0  0  0
 20 21  1  0  0  0
 21 22  1  0  0  0
 22 23  1  0  0  0
 23 26  1  0  0  0
 26 27  2  0  0  0
 27 28  1  0  0  0
 28 29  2  0  0  0
 29 30  1  0  0  0
 30 31  2  0  0  0
 29 32  1  0  0  0
 32 33  1  0  0  0
 32 34  2  0  0  0
 20 24  1  0  0  0
 24 25  2  0  0  0
 24  8  1  0  0  0
  8  9  2  0  0  0
  9 10  1  0  0  0
 10 11  1  0  0  0
 11 12  1  0  0  0
 11 13  2  0  0  0
 13 14  1  0  0  0
 14  7  1  0  0  0
  7  1  1  0  0  0
  1  2  2  0  0  0
  2  3  1  0  0  0
  3  4  2  0  0  0
  4  5  1  0  0  0
  5 35  1  0  0  0
 35 36  1  0  0  0
 36 37  1  0  0  0
 37 38  1  0  0  0
 38 39  1  0  0  0
 39 40  1  0  0  0
 40 41  1  0  0  0
 41 42  1  0  0  0
 42 43  2  0  0  0
 42 45  1  0  0  0
 45 46  1  0  0  0
 46 47  1  0  0  0
 47 48  2  0  0  0
 48 49  1  0  0  0
 49 50  1  0  0  0
 50 51  2  0  0  0
 49 52  2  0  0  0
 52 53  1  0  0  0
 53 54  2  0  0  0
 54 55  1  0  0  0
 54 56  1  0  0  0
 56 57  2  0  0  0
 57 58  1  0  0  0
 57 59  1  0  0  0
 59 60  1  0  0  0
 60 61  1  0  0  0
 60 62  1  0  0  0
  5  6  2  0  0  0
 14 15  1  0  0  0
 15 16  1  0  0  0
 23 18  1  0  0  0
 31 26  1  0  0  0
 16  8  1  0  0  0
 15 10  2  0  0  0
  6  1  1  0  0  0
 51 47  1  0  0  0
 59 53  1  0  0  0
 60 48  1  0  0  0
 41 44  1  0  0  0
M  CHG 1  48   1
M  CHG 1  60  -1
M  END
> <minimizedAffinity>
-8.61706

> <CNNscore>
0.0884117857

> <CNNaffinity>
7.0454645157

> <CNN_VS>
0.6229020953

> <CNNaffinity_variance>
0.0770509988

$$$$
[H]C1=C([H])C(C([H])([H])C([H])([H])C(=O)N([H])C([H])([H])C([H])([H])C([H])([H])C([H])([H])C([H])([H])Oc2c([H])c([H])c([H])c(C([H])([H])n3nc(C([H])([H])[H])c4c([H])c(C(=O)N5C([H])([H])C([H])([H])N(c6nc([H])c(C(=O)C([H])([H])[H])c([H])c6[H])[C@]([H])(C([H])([H])[H])C5([H])[H])sc43)c2[H])=[N+]2C1=C([H])c1c(C([H])([H])[H])c([H])c(C([H])([H])[H])n1[B-]2(F)F


 62 69  0  0  0  0  0  0  0  0999 V2000
   -1.3670   -2.8617    4.7266 C   0  0  0  0  0  0  0  0  0  0  0  0
   -2.4248   -2.0637    4.5946 C   0  0  0  0  0  0  0  0  0  0  0  0
   -3.7150   -2.5124    5.0325 C   0  0  0  0  0  0  0  0  0  0  0  0
   -3.7280   -3.8024    5.5921 C   0  0  0  0  0  0  0  0  0  0  0  0
   -2.6497   -4.6069    5.7369 C   0  0  0  0  0  0  0  0  0  0  0  0
   -1.3806   -4.1431    5.2954 C   0  0  0  0  0  0  0  0  0  0  0  0
   -0.1596   -2.4888    3.8832 C   0  0  0  0  0  0  0  0  0  0  0  0
   -1.6964   -3.3011   -0.7965 C   0  0  0  0  0  0  0  0  0  0  0  0
   -0.6011   -4.0787   -0.5749 C   0  0  0  0  0  0  0  0  0  0  0  0
   -0.0302   -4.0460    0.6550 C   0  0  0  0  0  0  0  0  0  0  0  0
    1.1157   -4.5977    1.2965 C   0  0  0  0  0  0  0  0  0  0  0  0
    2.1128   -5.5348    0.7645 C   0  0  0  0  0  0  0  0  0  0  0  0
    1.1387   -4.0756    2.5327 N   0  0  0  0  0  0  0  0  0  0  0  0
    0.1468   -3.2517    2.7619 N   0  0  0  0  0  0  0  0  0  0  0  0
   -0.5639   -3.2609    1.5830 C   0  0  0  0  0  0  0  0  0  0  0  0
   -1.8825   -2.5364    0.7947 S   0  0  0  0  0  0  0  0  0  0  0  0
   -5.2404   -0.5672   -0.3565 C   0  0  0  0  0  0  0  0  0  0  0  0
   -5.8310   -1.7306   -1.1560 C   0  0  0  0  0  0  0  0  0  0  0  0
   -4.8428   -2.8732   -1.2225 C   0  0  0  0  0  0  0  0  0  0  0  0
   -3.8277   -2.6943   -2.1725 N   0  0  0  0  0  0  0  0  0  0  0  0
   -4.1812   -2.2673   -3.5468 C   0  0  0  0  0  0  0  0  0  0  0  0
   -5.4249   -1.5055   -3.6498 C   0  0  0  0  0  0  0  0  0  0  0  0
   -6.1718   -1.2480   -2.4594 N   0  0  0  0  0  0  0  0  0  0  0  0
   -2.4718   -2.9044   -1.9521 C   0  0  0  0  0  0  0  0  0  0  0  0
   -1.7112   -2.7185   -3.0069 O   0  0  0  0  0  0  0  0  0  0  0  0
   -7.3571   -0.4650   -2.6138 C   0  0  0  0  0  0  0  0  0  0  0  0
   -7.1956    0.8395   -3.1825 C   0  0  0  0  0  0  0  0  0  0  0  0
   -8.3039    1.6233   -3.3656 C   0  0  0  0  0  0  0  0  0  0  0  0
   -9.5627    1.2123   -3.0342 C   0  0  0  0  0  0  0  0  0  0  0  0
   -9.7033   -0.0793   -2.4797 C   0  0  0  0  0  0  0  0  0  0  0  0
   -8.5886   -0.7954   -2.3242 N   0  0  0  0  0  0  0  0  0  0  0  0
  -10.7329    2.0356   -3.1988 C   0  0  0  0  0  0  0  0  0  0  0  0
  -11.5732    2.5671   -2.1186 C   0  0  0  0  0  0  0  0  0  0  0  0
  -11.0702    2.3700   -4.3691 O   0  0  0  0  0  0  0  0  0  0  0  0
   -2.6621   -5.8544    6.2486 O   0  0  0  0  0  0  0  0  0  0  0  0
   -2.6897   -6.9603    6.8245 C   0  0  0  0  0  0  0  0  0  0  0  0
   -3.9066   -7.8546    6.6137 C   0  0  0  0  0  0  0  0  0  0  0  0
   -5.1667   -7.2126    6.2377 C   0  0  0  0  0  0  0  0  0  0  0  0
   -6.2901   -8.1343    5.7792 C   0  0  0  0  0  0  0  0  0  0  0  0
   -6.7374   -8.9479    7.0085 C   0  0  0  0  0  0  0  0  0  0  0  0
   -8.0857   -8.8093    7.3335 N   0  0  0  0  0  0  0  0  0  0  0  0
   -9.3972   -8.6601    7.6592 C   0  0  0  0  0  0  0  0  0  0  0  0
   -9.5879   -7.5189    8.3727 O   0  0  0  0  0  0  0  0  0  0  0  0
   -7.7649   -7.5646    7.8488 H   0  0  0  0  0  0  0  0  0  0  0  0
  -10.5311   -9.4915    7.4038 C   0  0  0  0  0  0  0  0  0  0  0  0
  -11.8122   -9.4620    8.0698 C   0  0  0  0  0  0  0  0  0  0  0  0
  -12.6265   -8.2852    8.1511 C   0  0  0  0  0  0  0  0  0  0  0  0
  -13.5549   -7.9964    7.2421 N   0  0  0  0  0  0  0  0  0  0  0  0
  -14.1360   -6.7928    7.6748 C   0  0  0  0  0  0  0  0  0  0  0  0
  -13.5172   -6.3582    8.9176 C   0  0  0  0  0  0  0  0  0  0  0  0
  -12.6220   -7.2544    9.1825 C   0  0  0  0  0  0  0  0  0  0  0  0
  -15.1111   -6.2229    6.9366 C   0  0  0  0  0  0  0  0  0  0  0  0
  -15.5841   -6.8278    5.7030 C   0  0  0  0  0  0  0  0  0  0  0  0
  -16.5590   -6.3704    4.8319 C   0  0  0  0  0  0  0  0  0  0  0  0
  -17.3419   -5.1133    4.9955 C   0  0  0  0  0  0  0  0  0  0  0  0
  -16.6120   -7.3022    3.8190 C   0  0  0  0  0  0  0  0  0  0  0  0
  -15.6941   -8.2962    4.0659 C   0  0  0  0  0  0  0  0  0  0  0  0
  -15.3668   -9.5130    3.3066 C   0  0  0  0  0  0  0  0  0  0  0  0
  -15.0646   -7.9674    5.2669 N   0  0  0  0  0  0  0  0  0  0  0  0
  -13.9754   -8.6985    6.0091 B   0  0  0  0  0  0  0  0  0  0  0  0
  -12.8466   -8.8167    5.0322 F   0  0  0  0  0  0  0  0  0  0  0  0
  -14.4858  -10.0472    6.2852 F   0  0  0  0  0  0  0  0  0  0  0  0
 17 18  1  0  0  0
 18 19  1  0  0  0
 19 20  1  0  0  0
 20 21  1  0  0  0
 21 22  1  0  0  0
 22 23  1  0  0  0
 23 26  1  0  0  0
 26 27  2  0  0  0
 27 28  1  0  0  0
 28 29  2  0  0  0
 29 30  1  0  0  0
 30 31  2  0  0  0
 29 32  1  0  0  0
 32 33  1  0  0  0
 32 34  2  0  0  0
 20 24  1  0  0  0
 24 25  2  0  0  0
 24  8  1  0  0  0
  8  9  2  0  0  0
  9 10  1  0  0  0
 10 11  1  0  0  0
 11 12  1  0  0  0
 11 13  2  0  0  0
 13 14  1  0  0  0
 14  7  1  0  0  0
  7  1  1  0  0  0
  1  2  2  0  0  0
  2  3  1  0  0  0
  3  4  2  0  0  0
  4  5  1  0  0  0
  5 35  1  0  0  0
 35 36  1  0  0  0
 36 37  1  0  0  0
 37 38  1  0  0  0
 38 39  1  0  0  0
 39 40  1  0  0  0
 40 41  1  0  0  0
 41 42  1  0  0  0
 42 43  2  0  0  0
 42 45  1  0  0  0
 45 46  1  0  0  0
 46 47  1  0  0  0
 47 48  2  0  0  0
 48 49  1  0  0  0
 49 50  1  0  0  0
 50 51  2  0  0  0
 49 52  2  0  0  0
 52 53  1  0  0  0
 53 54  2  0  0  0
 54 55  1  0  0  0
 54 56  1  0  0  0
 56 57  2  0  0  0
 57 58  1  0  0  0
 57 59  1  0  0  0
 59 60  1  0  0  0
 60 61  1  0  0  0
 60 62  1  0  0  0
  5  6  2  0  0  0
 14 15  1  0  0  0
 15 16  1  0  0  0
 23 18  1  0  0  0
 31 26  1  0  0  0
 16  8  1  0  0  0
 15 10  2  0  0  0
  6  1  1  0  0  0
 51 47  1  0  0  0
 59 53  1  0  0  0
 60 48  1  0  0  0
 41 44  1  0  0  0
M  CHG 1  48   1
M  CHG 1  60  -1
M  END
> <minimizedAffinity>
-8.46051

> <CNNscore>
0.0846702084

> <CNNaffinity>
7.4802145958

> <CNN_VS>
0.6333513260

> <CNNaffinity_variance>
0.1141899079

$$$$
[H]C1=C([H])C(C([H])([H])C([H])([H])C(=O)N([H])C([H])([H])C([H])([H])C([H])([H])C([H])([H])C([H])([H])Oc2c([H])c([H])c([H])c(C([H])([H])n3nc(C([H])([H])[H])c4c([H])c(C(=O)N5C([H])([H])C([H])([H])N(c6nc([H])c(C(=O)C([H])([H])[H])c([H])c6[H])[C@]([H])(C([H])([H])[H])C5([H])[H])sc43)c2[H])=[N+]2C1=C([H])c1c(C([H])([H])[H])c([H])c(C([H])([H])[H])n1[B-]2(F)F


 62 69  0  0  0  0  0  0  0  0999 V2000
   -2.8721   -3.1855    0.3034 C   0  0  0  0  0  0  0  0  0  0  0  0
   -4.1109   -2.9219    0.7144 C   0  0  0  0  0  0  0  0  0  0  0  0
   -5.1139   -2.5473   -0.2402 C   0  0  0  0  0  0  0  0  0  0  0  0
   -4.6681   -2.5069   -1.5733 C   0  0  0  0  0  0  0  0  0  0  0  0
   -3.4118   -2.7873   -1.9905 C   0  0  0  0  0  0  0  0  0  0  0  0
   -2.4329   -3.1556   -1.0277 C   0  0  0  0  0  0  0  0  0  0  0  0
   -1.8072   -3.1643    1.3869 C   0  0  0  0  0  0  0  0  0  0  0  0
   -2.4685   -6.0077    5.4364 C   0  0  0  0  0  0  0  0  0  0  0  0
   -1.5981   -6.6513    4.6110 C   0  0  0  0  0  0  0  0  0  0  0  0
   -1.2418   -6.0405    3.4535 C   0  0  0  0  0  0  0  0  0  0  0  0
   -0.4633   -6.3461    2.3005 C   0  0  0  0  0  0  0  0  0  0  0  0
    0.3367   -7.5436    2.0147 C   0  0  0  0  0  0  0  0  0  0  0  0
   -0.6047   -5.3031    1.4677 N   0  0  0  0  0  0  0  0  0  0  0  0
   -1.3835   -4.3649    1.9457 N   0  0  0  0  0  0  0  0  0  0  0  0
   -1.7556   -4.8473    3.1800 C   0  0  0  0  0  0  0  0  0  0  0  0
   -2.7516   -4.5166    4.5157 S   0  0  0  0  0  0  0  0  0  0  0  0
   -6.4854   -8.0015    5.0932 C   0  0  0  0  0  0  0  0  0  0  0  0
   -6.7914   -6.8224    6.0192 C   0  0  0  0  0  0  0  0  0  0  0  0
   -5.6036   -5.8891    6.0862 C   0  0  0  0  0  0  0  0  0  0  0  0
   -4.5790   -6.3305    6.9350 N   0  0  0  0  0  0  0  0  0  0  0  0
   -4.9139   -6.8014    8.2996 C   0  0  0  0  0  0  0  0  0  0  0  0
   -6.2690   -7.3295    8.4491 C   0  0  0  0  0  0  0  0  0  0  0  0
   -7.1291   -7.3441    7.3083 N   0  0  0  0  0  0  0  0  0  0  0  0
   -3.2257   -6.3533    6.6203 C   0  0  0  0  0  0  0  0  0  0  0  0
   -2.4449   -6.7641    7.5935 O   0  0  0  0  0  0  0  0  0  0  0  0
   -8.4275   -7.9079    7.5027 C   0  0  0  0  0  0  0  0  0  0  0  0
   -9.4237   -7.0470    8.0665 C   0  0  0  0  0  0  0  0  0  0  0  0
  -10.6889   -7.5358    8.2582 C   0  0  0  0  0  0  0  0  0  0  0  0
  -11.0461   -8.8114    7.9288 C   0  0  0  0  0  0  0  0  0  0  0  0
  -10.0519   -9.6442    7.3689 C   0  0  0  0  0  0  0  0  0  0  0  0
   -8.8388   -9.1134    7.2073 N   0  0  0  0  0  0  0  0  0  0  0  0
  -12.3658   -9.3452    8.1478 C   0  0  0  0  0  0  0  0  0  0  0  0
  -13.1954  -10.0322    7.1502 C   0  0  0  0  0  0  0  0  0  0  0  0
  -12.8647   -9.2531    9.3044 O   0  0  0  0  0  0  0  0  0  0  0  0
   -2.9735   -2.7243   -3.2641 O   0  0  0  0  0  0  0  0  0  0  0  0
   -2.5274   -2.5619   -4.4174 C   0  0  0  0  0  0  0  0  0  0  0  0
   -3.5200   -2.3092   -5.5470 C   0  0  0  0  0  0  0  0  0  0  0  0
   -4.7123   -3.1554   -5.6080 C   0  0  0  0  0  0  0  0  0  0  0  0
   -6.0477   -2.4395   -5.7698 C   0  0  0  0  0  0  0  0  0  0  0  0
   -6.0083   -1.1982   -4.8583 C   0  0  0  0  0  0  0  0  0  0  0  0
   -7.2408   -0.8428   -4.3128 N   0  0  0  0  0  0  0  0  0  0  0  0
   -8.4470   -0.4885   -3.7952 C   0  0  0  0  0  0  0  0  0  0  0  0
   -9.2004    0.1516   -4.7280 O   0  0  0  0  0  0  0  0  0  0  0  0
   -7.6059   -0.4227   -5.5809 H   0  0  0  0  0  0  0  0  0  0  0  0
   -8.9942   -0.6528   -2.4853 C   0  0  0  0  0  0  0  0  0  0  0  0
   -9.8114    0.2829   -1.7489 C   0  0  0  0  0  0  0  0  0  0  0  0
   -9.5220    1.6846   -1.6716 C   0  0  0  0  0  0  0  0  0  0  0  0
   -8.5492    2.1706   -0.9041 N   0  0  0  0  0  0  0  0  0  0  0  0
   -8.5726    3.5599   -1.1107 C   0  0  0  0  0  0  0  0  0  0  0  0
   -9.6148    3.9052   -2.0652 C   0  0  0  0  0  0  0  0  0  0  0  0
  -10.1692    2.7801   -2.3839 C   0  0  0  0  0  0  0  0  0  0  0  0
   -7.7037    4.3457   -0.4414 C   0  0  0  0  0  0  0  0  0  0  0  0
   -6.7340    3.7897    0.4870 C   0  0  0  0  0  0  0  0  0  0  0  0
   -5.7896    4.4523    1.2535 C   0  0  0  0  0  0  0  0  0  0  0  0
   -5.5790    5.9270    1.2792 C   0  0  0  0  0  0  0  0  0  0  0  0
   -5.1391    3.4686    1.9650 C   0  0  0  0  0  0  0  0  0  0  0  0
   -5.6742    2.2434    1.6422 C   0  0  0  0  0  0  0  0  0  0  0  0
   -5.3313    0.8912    2.1091 C   0  0  0  0  0  0  0  0  0  0  0  0
   -6.6773    2.4823    0.7021 N   0  0  0  0  0  0  0  0  0  0  0  0
   -7.5922    1.5060    0.0084 B   0  0  0  0  0  0  0  0  0  0  0  0
   -8.2986    0.7793    1.1109 F   0  0  0  0  0  0  0  0  0  0  0  0
   -6.7304    0.5471   -0.6941 F   0  0  0  0  0  0  0  0  0  0  0  0
 17 18  1  0  0  0
 18 19  1  0  0  0
 19 20  1  0  0  0
 20 21  1  0  0  0
 21 22  1  0  0  0
 22 23  1  0  0  0
 23 26  1  0  0  0
 26 27  2  0  0  0
 27 28  1  0  0  0
 28 29  2  0  0  0
 29 30  1  0  0  0
 30 31  2  0  0  0
 29 32  1  0  0  0
 32 33  1  0  0  0
 32 34  2  0  0  0
 20 24  1  0  0  0
 24 25  2  0  0  0
 24  8  1  0  0  0
  8  9  2  0  0  0
  9 10  1  0  0  0
 10 11  1  0  0  0
 11 12  1  0  0  0
 11 13  2  0  0  0
 13 14  1  0  0  0
 14  7  1  0  0  0
  7  1  1  0  0  0
  1  2  2  0  0  0
  2  3  1  0  0  0
  3  4  2  0  0  0
  4  5  1  0  0  0
  5 35  1  0  0  0
 35 36  1  0  0  0
 36 37  1  0  0  0
 37 38  1  0  0  0
 38 39  1  0  0  0
 39 40  1  0  0  0
 40 41  1  0  0  0
 41 42  1  0  0  0
 42 43  2  0  0  0
 42 45  1  0  0  0
 45 46  1  0  0  0
 46 47  1  0  0  0
 47 48  2  0  0  0
 48 49  1  0  0  0
 49 50  1  0  0  0
 50 51  2  0  0  0
 49 52  2  0  0  0
 52 53  1  0  0  0
 53 54  2  0  0  0
 54 55  1  0  0  0
 54 56  1  0  0  0
 56 57  2  0  0  0
 57 58  1  0  0  0
 57 59  1  0  0  0
 59 60  1  0  0  0
 60 61  1  0  0  0
 60 62  1  0  0  0
  5  6  2  0  0  0
 14 15  1  0  0  0
 15 16  1  0  0  0
 23 18  1  0  0  0
 31 26  1  0  0  0
 16  8  1  0  0  0
 15 10  2  0  0  0
  6  1  1  0  0  0
 51 47  1  0  0  0
 59 53  1  0  0  0
 60 48  1  0  0  0
 41 44  1  0  0  0
M  CHG 1  48   1
M  CHG 1  60  -1
M  END
> <minimizedAffinity>
-8.35404

> <CNNscore>
0.0832914189

> <CNNaffinity>
7.2435622215

> <CNN_VS>
0.6033265591

> <CNNaffinity_variance>
0.8168337941

$$$$
[H]C1=C([H])C(C([H])([H])C([H])([H])C(=O)N([H])C([H])([H])C([H])([H])C([H])([H])C([H])([H])C([H])([H])Oc2c([H])c([H])c([H])c(C([H])([H])n3nc(C([H])([H])[H])c4c([H])c(C(=O)N5C([H])([H])C([H])([H])N(c6nc([H])c(C(=O)C([H])([H])[H])c([H])c6[H])[C@]([H])(C([H])([H])[H])C5([H])[H])sc43)c2[H])=[N+]2C1=C([H])c1c(C([H])([H])[H])c([H])c(C([H])([H])[H])n1[B-]2(F)F


 62 69  0  0  0  0  0  0  0  0999 V2000
   -1.3964   -3.3126    2.7809 C   0  0  0  0  0  0  0  0  0  0  0  0
   -2.7150   -3.1282    2.7668 C   0  0  0  0  0  0  0  0  0  0  0  0
   -3.4280   -2.9857    4.0034 C   0  0  0  0  0  0  0  0  0  0  0  0
   -2.6226   -3.0464    5.1545 C   0  0  0  0  0  0  0  0  0  0  0  0
   -1.2808   -3.2214    5.1663 C   0  0  0  0  0  0  0  0  0  0  0  0
   -0.5940   -3.3613    3.9296 C   0  0  0  0  0  0  0  0  0  0  0  0
   -0.8002   -3.8561    1.4935 C   0  0  0  0  0  0  0  0  0  0  0  0
   -3.4237   -2.1650   -2.4024 C   0  0  0  0  0  0  0  0  0  0  0  0
   -2.1958   -1.5782   -2.4385 C   0  0  0  0  0  0  0  0  0  0  0  0
   -1.2939   -1.9201   -1.4849 C   0  0  0  0  0  0  0  0  0  0  0  0
    0.0188   -1.5306   -1.0923 C   0  0  0  0  0  0  0  0  0  0  0  0
    0.9241   -0.5617   -1.7224 C   0  0  0  0  0  0  0  0  0  0  0  0
    0.2972   -2.2269    0.0208 N   0  0  0  0  0  0  0  0  0  0  0  0
   -0.6804   -3.0150    0.3928 N   0  0  0  0  0  0  0  0  0  0  0  0
   -1.6480   -2.8085   -0.5642 C   0  0  0  0  0  0  0  0  0  0  0  0
   -3.2444   -3.2128   -0.9807 S   0  0  0  0  0  0  0  0  0  0  0  0
   -6.1311    1.2370   -1.2515 C   0  0  0  0  0  0  0  0  0  0  0  0
   -7.0793    0.0377   -1.1879 C   0  0  0  0  0  0  0  0  0  0  0  0
   -6.3016   -1.2511   -1.3313 C   0  0  0  0  0  0  0  0  0  0  0  0
   -5.9487   -1.5601   -2.6522 N   0  0  0  0  0  0  0  0  0  0  0  0
   -6.9743   -1.4817   -3.7190 C   0  0  0  0  0  0  0  0  0  0  0  0
   -8.0657   -0.5465   -3.4507 C   0  0  0  0  0  0  0  0  0  0  0  0
   -8.0553    0.1858   -2.2240 N   0  0  0  0  0  0  0  0  0  0  0  0
   -4.6894   -1.9674   -3.0756 C   0  0  0  0  0  0  0  0  0  0  0  0
   -4.6075   -2.2483   -4.3562 O   0  0  0  0  0  0  0  0  0  0  0  0
   -9.1245    1.1143   -2.0329 C   0  0  0  0  0  0  0  0  0  0  0  0
   -9.6903    1.6942   -3.2140 C   0  0  0  0  0  0  0  0  0  0  0  0
  -10.7284    2.5786   -3.0848 C   0  0  0  0  0  0  0  0  0  0  0  0
  -11.2543    2.9291   -1.8750 C   0  0  0  0  0  0  0  0  0  0  0  0
  -10.6872    2.3430   -0.7216 C   0  0  0  0  0  0  0  0  0  0  0  0
   -9.6785    1.4906   -0.9100 N   0  0  0  0  0  0  0  0  0  0  0  0
  -12.3290    3.8760   -1.7238 C   0  0  0  0  0  0  0  0  0  0  0  0
  -13.2545    3.9569   -0.5870 C   0  0  0  0  0  0  0  0  0  0  0  0
  -12.4915    4.7465   -2.6244 O   0  0  0  0  0  0  0  0  0  0  0  0
   -0.5084   -3.3065    6.2682 O   0  0  0  0  0  0  0  0  0  0  0  0
    0.2672   -3.4645    7.2321 C   0  0  0  0  0  0  0  0  0  0  0  0
   -0.2541   -4.1903    8.4675 C   0  0  0  0  0  0  0  0  0  0  0  0
   -1.7011   -4.3691    8.5925 C   0  0  0  0  0  0  0  0  0  0  0  0
   -2.1863   -5.7709    8.9410 C   0  0  0  0  0  0  0  0  0  0  0  0
   -3.6858   -5.6599    9.2763 C   0  0  0  0  0  0  0  0  0  0  0  0
   -4.5375   -5.8887    8.1969 N   0  0  0  0  0  0  0  0  0  0  0  0
   -5.3571   -6.1045    7.1338 C   0  0  0  0  0  0  0  0  0  0  0  0
   -4.7732   -5.6775    5.9830 O   0  0  0  0  0  0  0  0  0  0  0  0
   -3.5046   -5.4647    7.3777 H   0  0  0  0  0  0  0  0  0  0  0  0
   -6.6746   -6.6526    7.0569 C   0  0  0  0  0  0  0  0  0  0  0  0
   -7.3509   -7.4608    8.0445 C   0  0  0  0  0  0  0  0  0  0  0  0
   -8.4231   -8.3563    7.7238 C   0  0  0  0  0  0  0  0  0  0  0  0
   -9.6909   -8.0886    8.0282 N   0  0  0  0  0  0  0  0  0  0  0  0
  -10.4276   -9.1824    7.5442 C   0  0  0  0  0  0  0  0  0  0  0  0
   -9.5375  -10.1417    6.9087 C   0  0  0  0  0  0  0  0  0  0  0  0
   -8.3524   -9.6359    7.0282 C   0  0  0  0  0  0  0  0  0  0  0  0
  -11.7642   -9.2153    7.7251 C   0  0  0  0  0  0  0  0  0  0  0  0
  -12.4671   -8.1402    8.4046 C   0  0  0  0  0  0  0  0  0  0  0  0
  -13.8200   -8.0269    8.6787 C   0  0  0  0  0  0  0  0  0  0  0  0
  -14.8608   -9.0305    8.3188 C   0  0  0  0  0  0  0  0  0  0  0  0
  -13.9596   -6.8315    9.3484 C   0  0  0  0  0  0  0  0  0  0  0  0
  -12.7267   -6.2363    9.4798 C   0  0  0  0  0  0  0  0  0  0  0  0
  -12.3362   -4.9597   10.0979 C   0  0  0  0  0  0  0  0  0  0  0  0
  -11.8062   -7.0882    8.8684 N   0  0  0  0  0  0  0  0  0  0  0  0
  -10.3138   -6.9382    8.7202 B   0  0  0  0  0  0  0  0  0  0  0  0
   -9.7941   -6.7902   10.1168 F   0  0  0  0  0  0  0  0  0  0  0  0
  -10.0859   -5.6737    8.0099 F   0  0  0  0  0  0  0  0  0  0  0  0
 17 18  1  0  0  0
 18 19  1  0  0  0
 19 20  1  0  0  0
 20 21  1  0  0  0
 21 22  1  0  0  0
 22 23  1  0  0  0
 23 26  1  0  0  0
 26 27  2  0  0  0
 27 28  1  0  0  0
 28 29  2  0  0  0
 29 30  1  0  0  0
 30 31  2  0  0  0
 29 32  1  0  0  0
 32 33  1  0  0  0
 32 34  2  0  0  0
 20 24  1  0  0  0
 24 25  2  0  0  0
 24  8  1  0  0  0
  8  9  2  0  0  0
  9 10  1  0  0  0
 10 11  1  0  0  0
 11 12  1  0  0  0
 11 13  2  0  0  0
 13 14  1  0  0  0
 14  7  1  0  0  0
  7  1  1  0  0  0
  1  2  2  0  0  0
  2  3  1  0  0  0
  3  4  2  0  0  0
  4  5  1  0  0  0
  5 35  1  0  0  0
 35 36  1  0  0  0
 36 37  1  0  0  0
 37 38  1  0  0  0
 38 39  1  0  0  0
 39 40  1  0  0  0
 40 41  1  0  0  0
 41 42  1  0  0  0
 42 43  2  0  0  0
 42 45  1  0  0  0
 45 46  1  0  0  0
 46 47  1  0  0  0
 47 48  2  0  0  0
 48 49  1  0  0  0
 49 50  1  0  0  0
 50 51  2  0  0  0
 49 52  2  0  0  0
 52 53  1  0  0  0
 53 54  2  0  0  0
 54 55  1  0  0  0
 54 56  1  0  0  0
 56 57  2  0  0  0
 57 58  1  0  0  0
 57 59  1  0  0  0
 59 60  1  0  0  0
 60 61  1  0  0  0
 60 62  1  0  0  0
  5  6  2  0  0  0
 14 15  1  0  0  0
 15 16  1  0  0  0
 23 18  1  0  0  0
 31 26  1  0  0  0
 16  8  1  0  0  0
 15 10  2  0  0  0
  6  1  1  0  0  0
 51 47  1  0  0  0
 59 53  1  0  0  0
 60 48  1  0  0  0
 41 44  1  0  0  0
M  CHG 1  48   1
M  CHG 1  60  -1
M  END
> <minimizedAffinity>
-7.98862

> <CNNscore>
0.0716234744

> <CNNaffinity>
7.1505723000

> <CNN_VS>
0.5121488571

> <CNNaffinity_variance>
0.0861138105

$$$$
[H]C1=C([H])C(C([H])([H])C([H])([H])C(=O)N([H])C([H])([H])C([H])([H])C([H])([H])C([H])([H])C([H])([H])Oc2c([H])c([H])c([H])c(C([H])([H])n3nc(C([H])([H])[H])c4c([H])c(C(=O)N5C([H])([H])C([H])([H])N(c6nc([H])c(C(=O)C([H])([H])[H])c([H])c6[H])[C@]([H])(C([H])([H])[H])C5([H])[H])sc43)c2[H])=[N+]2C1=C([H])c1c(C([H])([H])[H])c([H])c(C([H])([H])[H])n1[B-]2(F)F


 62 69  0  0  0  0  0  0  0  0999 V2000
   -3.1995   -1.0719    2.1590 C   0  0  0  0  0  0  0  0  0  0  0  0
   -2.0535   -0.4784    1.8314 C   0  0  0  0  0  0  0  0  0  0  0  0
   -1.8025   -0.1179    0.4658 C   0  0  0  0  0  0  0  0  0  0  0  0
   -2.8448   -0.4320   -0.4242 C   0  0  0  0  0  0  0  0  0  0  0  0
   -4.0141   -1.0239   -0.0874 C   0  0  0  0  0  0  0  0  0  0  0  0
   -4.2421   -1.3738    1.2715 C   0  0  0  0  0  0  0  0  0  0  0  0
   -3.2078   -1.7757    3.5055 C   0  0  0  0  0  0  0  0  0  0  0  0
   -3.2843   -6.2177    5.7821 C   0  0  0  0  0  0  0  0  0  0  0  0
   -2.1132   -6.1201    5.0948 C   0  0  0  0  0  0  0  0  0  0  0  0
   -1.8593   -4.9703    4.4215 C   0  0  0  0  0  0  0  0  0  0  0  0
   -0.8567   -4.4656    3.5445 C   0  0  0  0  0  0  0  0  0  0  0  0
    0.3903   -5.1012    3.1012 C   0  0  0  0  0  0  0  0  0  0  0  0
   -1.2755   -3.2500    3.1594 N   0  0  0  0  0  0  0  0  0  0  0  0
   -2.4287   -2.9139    3.6811 N   0  0  0  0  0  0  0  0  0  0  0  0
   -2.7604   -3.9963    4.4642 C   0  0  0  0  0  0  0  0  0  0  0  0
   -3.9973   -4.6281    5.4420 S   0  0  0  0  0  0  0  0  0  0  0  0
   -7.7737   -6.4022    5.5846 C   0  0  0  0  0  0  0  0  0  0  0  0
   -7.5154   -6.4977    7.0897 C   0  0  0  0  0  0  0  0  0  0  0  0
   -6.0570   -6.2309    7.3872 C   0  0  0  0  0  0  0  0  0  0  0  0
   -5.2157   -7.3249    7.1415 N   0  0  0  0  0  0  0  0  0  0  0  0
   -5.5879   -8.6626    7.6591 C   0  0  0  0  0  0  0  0  0  0  0  0
   -7.0233   -8.8684    7.8462 C   0  0  0  0  0  0  0  0  0  0  0  0
   -7.9165   -7.7993    7.5290 N   0  0  0  0  0  0  0  0  0  0  0  0
   -4.0106   -7.2755    6.4511 C   0  0  0  0  0  0  0  0  0  0  0  0
   -3.3702   -8.4206    6.3867 O   0  0  0  0  0  0  0  0  0  0  0  0
   -9.3098   -8.0700    7.6929 C   0  0  0  0  0  0  0  0  0  0  0  0
  -10.0861   -7.0641    8.3540 C   0  0  0  0  0  0  0  0  0  0  0  0
  -11.4300   -7.2694    8.5218 C   0  0  0  0  0  0  0  0  0  0  0  0
  -12.0669   -8.3927    8.0794 C   0  0  0  0  0  0  0  0  0  0  0  0
  -11.2862   -9.3713    7.4248 C   0  0  0  0  0  0  0  0  0  0  0  0
   -9.9835   -9.1164    7.2921 N   0  0  0  0  0  0  0  0  0  0  0  0
  -13.4742   -8.6318    8.2710 C   0  0  0  0  0  0  0  0  0  0  0  0
  -14.4482   -7.6711    8.8035 C   0  0  0  0  0  0  0  0  0  0  0  0
  -13.9432   -9.7534    7.9285 O   0  0  0  0  0  0  0  0  0  0  0  0
   -5.0050   -1.3508   -0.9414 O   0  0  0  0  0  0  0  0  0  0  0  0
   -5.8782   -1.7589   -1.7329 C   0  0  0  0  0  0  0  0  0  0  0  0
   -6.4018   -0.7941   -2.7912 C   0  0  0  0  0  0  0  0  0  0  0  0
   -7.6858   -1.1050   -3.4207 C   0  0  0  0  0  0  0  0  0  0  0  0
   -8.7861   -0.0610   -3.2748 C   0  0  0  0  0  0  0  0  0  0  0  0
   -9.4478   -0.2905   -1.9027 C   0  0  0  0  0  0  0  0  0  0  0  0
   -8.8913    0.4509   -0.8618 N   0  0  0  0  0  0  0  0  0  0  0  0
   -8.3632    1.1822    0.1554 C   0  0  0  0  0  0  0  0  0  0  0  0
   -9.3037    2.0007    0.6969 O   0  0  0  0  0  0  0  0  0  0  0  0
  -10.1664    0.9286   -0.6093 H   0  0  0  0  0  0  0  0  0  0  0  0
   -7.0376    1.2362    0.6866 C   0  0  0  0  0  0  0  0  0  0  0  0
   -6.4125    2.3362    1.3830 C   0  0  0  0  0  0  0  0  0  0  0  0
   -5.0327    2.6868    1.2163 C   0  0  0  0  0  0  0  0  0  0  0  0
   -4.1798    2.7307    2.2371 N   0  0  0  0  0  0  0  0  0  0  0  0
   -2.9449    3.0925    1.6735 C   0  0  0  0  0  0  0  0  0  0  0  0
   -3.0824    3.2590    0.2349 C   0  0  0  0  0  0  0  0  0  0  0  0
   -4.3286    3.0176   -0.0171 C   0  0  0  0  0  0  0  0  0  0  0  0
   -1.8686    3.2436    2.4730 C   0  0  0  0  0  0  0  0  0  0  0  0
   -1.9513    3.0337    3.9085 C   0  0  0  0  0  0  0  0  0  0  0  0
   -0.9534    3.1571    4.8611 C   0  0  0  0  0  0  0  0  0  0  0  0
    0.4574    3.5504    4.5874 C   0  0  0  0  0  0  0  0  0  0  0  0
   -1.5562    2.8627    6.0639 C   0  0  0  0  0  0  0  0  0  0  0  0
   -2.8830    2.5709    5.8492 C   0  0  0  0  0  0  0  0  0  0  0  0
   -3.9473    2.1862    6.7891 C   0  0  0  0  0  0  0  0  0  0  0  0
   -3.0982    2.6842    4.4753 N   0  0  0  0  0  0  0  0  0  0  0  0
   -4.3647    2.4805    3.6840 B   0  0  0  0  0  0  0  0  0  0  0  0
   -5.3577    3.4282    4.2828 F   0  0  0  0  0  0  0  0  0  0  0  0
   -4.8163    1.1105    3.9569 F   0  0  0  0  0  0  0  0  0  0  0  0
 17 18  1  0  0  0
 18 19  1  0  0  0
 19 20  1  0  0  0
 20 21  1  0  0  0
 21 22  1  0  0  0
 22 23  1  0  0  0
 23 26  1  0  0  0
 26 27  2  0  0  0
 27 28  1  0  0  0
 28 29  2  0  0  0
 29 30  1  0  0  0
 30 31  2  0  0  0
 29 32  1  0  0  0
 32 33  1  0  0  0
 32 34  2  0  0  0
 20 24  1  0  0  0
 24 25  2  0  0  0
 24  8  1  0  0  0
  8  9  2  0  0  0
  9 10  1  0  0  0
 10 11  1  0  0  0
 11 12  1  0  0  0
 11 13  2  0  0  0
 13 14  1  0  0  0
 14  7  1  0  0  0
  7  1  1  0  0  0
  1  2  2  0  0  0
  2  3  1  0  0  0
  3  4  2  0  0  0
  4  5  1  0  0  0
  5 35  1  0  0  0
 35 36  1  0  0  0
 36 37  1  0  0  0
 37 38  1  0  0  0
 38 39  1  0  0  0
 39 40  1  0  0  0
 40 41  1  0  0  0
 41 42  1  0  0  0
 42 43  2  0  0  0
 42 45  1  0  0  0
 45 46  1  0  0  0
 46 47  1  0  0  0
 47 48  2  0  0  0
 48 49  1  0  0  0
 49 50  1  0  0  0
 50 51  2  0  0  0
 49 52  2  0  0  0
 52 53  1  0  0  0
 53 54  2  0  0  0
 54 55  1  0  0  0
 54 56  1  0  0  0
 56 57  2  0  0  0
 57 58  1  0  0  0
 57 59  1  0  0  0
 59 60  1  0  0  0
 60 61  1  0  0  0
 60 62  1  0  0  0
  5  6  2  0  0  0
 14 15  1  0  0  0
 15 16  1  0  0  0
 23 18  1  0  0  0
 31 26  1  0  0  0
 16  8  1  0  0  0
 15 10  2  0  0  0
  6  1  1  0  0  0
 51 47  1  0  0  0
 59 53  1  0  0  0
 60 48  1  0  0  0
 41 44  1  0  0  0
M  CHG 1  48   1
M  CHG 1  60  -1
M  END
> <minimizedAffinity>
-7.27600

> <CNNscore>
0.0685148612

> <CNNaffinity>
7.3892097473

> <CNN_VS>
0.5062707067

> <CNNaffinity_variance>
0.5455567241

$$$$
[H]Oc1c([H])c([H])c(-c2nc3c([H])c([H])c(O[H])c([H])c3c(C#N)c2[H])c([H])c1[H]


 22 24  0  0  0  0  0  0  0  0999 V2000
  -10.0481   -7.7650    7.9037 C   0  0  0  0  0  0  0  0  0  0  0  0
  -10.5593   -6.8277    8.7618 C   0  0  0  0  0  0  0  0  0  0  0  0
  -11.8969   -6.7662    9.1102 C   0  0  0  0  0  0  0  0  0  0  0  0
  -12.7399   -7.6906    8.5656 C   0  0  0  0  0  0  0  0  0  0  0  0
  -14.0755   -7.6241    8.9173 C   0  0  0  0  0  0  0  0  0  0  0  0
  -14.9547   -8.5297    8.3956 C   0  0  0  0  0  0  0  0  0  0  0  0
  -16.3074   -8.4996    8.7224 O   0  0  0  0  0  0  0  0  0  0  0  0
  -14.4807   -9.4902    7.5274 C   0  0  0  0  0  0  0  0  0  0  0  0
  -13.1337   -9.5464    7.1812 C   0  0  0  0  0  0  0  0  0  0  0  0
  -12.2309   -8.6358    7.7015 C   0  0  0  0  0  0  0  0  0  0  0  0
  -10.9246   -8.6584    7.3911 N   0  0  0  0  0  0  0  0  0  0  0  0
  -16.9417   -7.9558    8.1676 H   0  0  0  0  0  0  0  0  0  0  0  0
   -4.5295   -7.7483    6.4957 O   0  0  0  0  0  0  0  0  0  0  0  0
   -5.8867   -7.7527    6.8421 C   0  0  0  0  0  0  0  0  0  0  0  0
   -6.5008   -8.8911    7.3084 C   0  0  0  0  0  0  0  0  0  0  0  0
   -7.8567   -8.9254    7.6626 C   0  0  0  0  0  0  0  0  0  0  0  0
   -8.6337   -7.8053    7.5550 C   0  0  0  0  0  0  0  0  0  0  0  0
   -7.9978   -6.6536    7.0794 C   0  0  0  0  0  0  0  0  0  0  0  0
   -6.6668   -6.6227    6.7325 C   0  0  0  0  0  0  0  0  0  0  0  0
   -4.2170   -7.9696    5.5442 H   0  0  0  0  0  0  0  0  0  0  0  0
  -12.3812   -5.7492   10.0257 C   0  0  0  0  0  0  0  0  0  0  0  0
  -12.7691   -4.9333   10.7505 N   0  0  0  0  0  0  0  0  0  0  0  0
 13 14  1  0  0  0
 14 15  2  0  0  0
 15 16  1  0  0  0
 16 17  2  0  0  0
 17 18  1  0  0  0
 18 19  2  0  0  0
 17  1  1  0  0  0
  1  2  2  0  0  0
  2  3  1  0  0  0
  3 21  1  0  0  0
 21 22  3  0  0  0
  3  4  2  0  0  0
  4  5  1  0  0  0
  5  6  2  0  0  0
  6  7  1  0  0  0
  6  8  1  0  0  0
  8  9  2  0  0  0
  9 10  1  0  0  0
 10 11  2  0  0  0
 19 14  1  0  0  0
 11  1  1  0  0  0
 10  4  1  0  0  0
 13 20  1  0  0  0
  7 12  1  0  0  0
M  END
> <minimizedAffinity>
-8.85545

> <CNNscore>
0.6027727723

> <CNNaffinity>
5.8940124512

> <CNN_VS>
3.5527501106

> <CNNaffinity_variance>
0.0704593137

$$$$
[H]Oc1c([H])c([H])c(-c2nc3c([H])c([H])c(O[H])c([H])c3c(C#N)c2[H])c([H])c1[H]


 22 24  0  0  0  0  0  0  0  0999 V2000
  -17.9806   -5.3744    5.2405 C   0  0  0  0  0  0  0  0  0  0  0  0
  -18.3369   -6.6719    4.9843 C   0  0  0  0  0  0  0  0  0  0  0  0
  -17.4424   -7.7268    5.0220 C   0  0  0  0  0  0  0  0  0  0  0  0
  -16.1427   -7.4488    5.3310 C   0  0  0  0  0  0  0  0  0  0  0  0
  -15.2533   -8.5069    5.3671 C   0  0  0  0  0  0  0  0  0  0  0  0
  -13.9425   -8.2742    5.6720 C   0  0  0  0  0  0  0  0  0  0  0  0
  -13.0133   -9.3095    5.7196 O   0  0  0  0  0  0  0  0  0  0  0  0
  -13.5424   -6.9816    5.9366 C   0  0  0  0  0  0  0  0  0  0  0  0
  -14.4476   -5.9250    5.8970 C   0  0  0  0  0  0  0  0  0  0  0  0
  -15.7788   -6.1450    5.5896 C   0  0  0  0  0  0  0  0  0  0  0  0
  -16.6810   -5.1516    5.5417 N   0  0  0  0  0  0  0  0  0  0  0  0
  -12.5056   -9.5613    4.8921 H   0  0  0  0  0  0  0  0  0  0  0  0
  -21.6849   -1.0482    5.2119 O   0  0  0  0  0  0  0  0  0  0  0  0
  -20.7739   -2.1123    5.2186 C   0  0  0  0  0  0  0  0  0  0  0  0
  -20.7555   -3.0427    4.2066 C   0  0  0  0  0  0  0  0  0  0  0  0
  -19.8558   -4.1175    4.1865 C   0  0  0  0  0  0  0  0  0  0  0  0
  -18.9454   -4.2832    5.1933 C   0  0  0  0  0  0  0  0  0  0  0  0
  -18.9739   -3.3304    6.2173 C   0  0  0  0  0  0  0  0  0  0  0  0
  -19.8580   -2.2764    6.2344 C   0  0  0  0  0  0  0  0  0  0  0  0
  -22.6092   -1.1294    5.6488 H   0  0  0  0  0  0  0  0  0  0  0  0
  -17.8784   -9.0825    4.7411 C   0  0  0  0  0  0  0  0  0  0  0  0
  -18.2310  -10.1616    4.5120 N   0  0  0  0  0  0  0  0  0  0  0  0
 13 14  1  0  0  0
 14 15  2  0  0  0
 15 16  1  0  0  0
 16 17  2  0  0  0
 17 18  1  0  0  0
 18 19  2  0  0  0
 17  1  1  0  0  0
  1  2  2  0  0  0
  2  3  1  0  0  0
  3 21  1  0  0  0
 21 22  3  0  0  0
  3  4  2  0  0  0
  4  5  1  0  0  0
  5  6  2  0  0  0
  6  7  1  0  0  0
  6  8  1  0  0  0
  8  9  2  0  0  0
  9 10  1  0  0  0
 10 11  2  0  0  0
 19 14  1  0  0  0
 11  1  1  0  0  0
 10  4  1  0  0  0
 13 20  1  0  0  0
  7 12  1  0  0  0
M  END
> <minimizedAffinity>
7.62170

> <CNNscore>
0.5138168335

> <CNNaffinity>
5.9716024399

> <CNN_VS>
3.0683097839

> <CNNaffinity_variance>
0.8388592005

$$$$
[H]Oc1c([H])c([H])c(-c2nc3c([H])c([H])c(O[H])c([H])c3c(C#N)c2[H])c([H])c1[H]


 22 24  0  0  0  0  0  0  0  0999 V2000
   -9.2624   -7.7152    7.7979 C   0  0  0  0  0  0  0  0  0  0  0  0
   -9.9380   -6.8416    8.6082 C   0  0  0  0  0  0  0  0  0  0  0  0
  -11.2923   -6.9432    8.8727 C   0  0  0  0  0  0  0  0  0  0  0  0
  -11.9792   -7.9692    8.2919 C   0  0  0  0  0  0  0  0  0  0  0  0
  -13.3323   -8.0657    8.5598 C   0  0  0  0  0  0  0  0  0  0  0  0
  -14.0589   -9.0774    7.9994 C   0  0  0  0  0  0  0  0  0  0  0  0
  -15.4229   -9.2123    8.2420 O   0  0  0  0  0  0  0  0  0  0  0  0
  -13.4166   -9.9787    7.1772 C   0  0  0  0  0  0  0  0  0  0  0  0
  -12.0538   -9.8705    6.9153 C   0  0  0  0  0  0  0  0  0  0  0  0
  -11.3045   -8.8510    7.4757 C   0  0  0  0  0  0  0  0  0  0  0  0
   -9.9884   -8.7144    7.2466 N   0  0  0  0  0  0  0  0  0  0  0  0
  -16.0830   -8.7556    7.6407 H   0  0  0  0  0  0  0  0  0  0  0  0
   -3.6541   -7.1869    6.9575 O   0  0  0  0  0  0  0  0  0  0  0  0
   -5.0335   -7.3170    7.1639 C   0  0  0  0  0  0  0  0  0  0  0  0
   -5.9033   -7.4556    6.1082 C   0  0  0  0  0  0  0  0  0  0  0  0
   -7.2878   -7.5876    6.2841 C   0  0  0  0  0  0  0  0  0  0  0  0
   -7.8347   -7.5830    7.5374 C   0  0  0  0  0  0  0  0  0  0  0  0
   -6.9398   -7.4412    8.6033 C   0  0  0  0  0  0  0  0  0  0  0  0
   -5.5814   -7.3119    8.4278 C   0  0  0  0  0  0  0  0  0  0  0  0
   -3.2130   -6.2689    6.8369 H   0  0  0  0  0  0  0  0  0  0  0  0
  -11.9547   -5.9867    9.7405 C   0  0  0  0  0  0  0  0  0  0  0  0
  -12.4868   -5.2289   10.4363 N   0  0  0  0  0  0  0  0  0  0  0  0
 13 14  1  0  0  0
 14 15  2  0  0  0
 15 16  1  0  0  0
 16 17  2  0  0  0
 17 18  1  0  0  0
 18 19  2  0  0  0
 17  1  1  0  0  0
  1  2  2  0  0  0
  2  3  1  0  0  0
  3 21  1  0  0  0
 21 22  3  0  0  0
  3  4  2  0  0  0
  4  5  1  0  0  0
  5  6  2  0  0  0
  6  7  1  0  0  0
  6  8  1  0  0  0
  8  9  2  0  0  0
  9 10  1  0  0  0
 10 11  2  0  0  0
 19 14  1  0  0  0
 11  1  1  0  0  0
 10  4  1  0  0  0
 13 20  1  0  0  0
  7 12  1  0  0  0
M  END
> <minimizedAffinity>
-8.29405

> <CNNscore>
0.4838430285

> <CNNaffinity>
5.6794648170

> <CNN_VS>
2.7479693890

> <CNNaffinity_variance>
0.0428847633

$$$$
[H]Oc1c([H])c([H])c(-c2nc3c([H])c([H])c(O[H])c([H])c3c(C#N)c2[H])c([H])c1[H]


 22 24  0  0  0  0  0  0  0  0999 V2000
   -7.6561   -7.1421    7.5364 C   0  0  0  0  0  0  0  0  0  0  0  0
   -8.0646   -8.3791    7.1132 C   0  0  0  0  0  0  0  0  0  0  0  0
   -9.3330   -8.8808    7.3455 C   0  0  0  0  0  0  0  0  0  0  0  0
  -10.2126   -8.0952    8.0317 C   0  0  0  0  0  0  0  0  0  0  0  0
  -11.4786   -8.6019    8.2610 C   0  0  0  0  0  0  0  0  0  0  0  0
  -12.3912   -7.8494    8.9439 C   0  0  0  0  0  0  0  0  0  0  0  0
  -13.6765   -8.3200    9.1969 O   0  0  0  0  0  0  0  0  0  0  0  0
  -12.0199   -6.5978    9.3876 C   0  0  0  0  0  0  0  0  0  0  0  0
  -10.7422   -6.0992    9.1503 C   0  0  0  0  0  0  0  0  0  0  0  0
   -9.8068   -6.8498    8.4599 C   0  0  0  0  0  0  0  0  0  0  0  0
   -8.5651   -6.4027    8.2119 N   0  0  0  0  0  0  0  0  0  0  0  0
  -13.8615   -8.8356   10.0371 H   0  0  0  0  0  0  0  0  0  0  0  0
   -2.3736   -5.1847    6.6990 O   0  0  0  0  0  0  0  0  0  0  0  0
   -3.6728   -5.6661    6.9046 C   0  0  0  0  0  0  0  0  0  0  0  0
   -4.5330   -5.8717    5.8519 C   0  0  0  0  0  0  0  0  0  0  0  0
   -5.8381   -6.3523    6.0271 C   0  0  0  0  0  0  0  0  0  0  0  0
   -6.3129   -6.6400    7.2768 C   0  0  0  0  0  0  0  0  0  0  0  0
   -5.4287   -6.4268    8.3397 C   0  0  0  0  0  0  0  0  0  0  0  0
   -4.1482   -5.9550    8.1648 C   0  0  0  0  0  0  0  0  0  0  0  0
   -2.1666   -4.1802    6.6982 H   0  0  0  0  0  0  0  0  0  0  0  0
   -9.7094  -10.2004    6.8722 C   0  0  0  0  0  0  0  0  0  0  0  0
  -10.0034  -11.2537    6.4908 N   0  0  0  0  0  0  0  0  0  0  0  0
 13 14  1  0  0  0
 14 15  2  0  0  0
 15 16  1  0  0  0
 16 17  2  0  0  0
 17 18  1  0  0  0
 18 19  2  0  0  0
 17  1  1  0  0  0
  1  2  2  0  0  0
  2  3  1  0  0  0
  3 21  1  0  0  0
 21 22  3  0  0  0
  3  4  2  0  0  0
  4  5  1  0  0  0
  5  6  2  0  0  0
  6  7  1  0  0  0
  6  8  1  0  0  0
  8  9  2  0  0  0
  9 10  1  0  0  0
 10 11  2  0  0  0
 19 14  1  0  0  0
 11  1  1  0  0  0
 10  4  1  0  0  0
 13 20  1  0  0  0
  7 12  1  0  0  0
M  END
> <minimizedAffinity>
-6.67242

> <CNNscore>
0.4701323509

> <CNNaffinity>
5.2826728821

> <CNN_VS>
2.4835553169

> <CNNaffinity_variance>
0.0144836605

$$$$
[H]Oc1c([H])c([H])c(-c2nc3c([H])c([H])c(O[H])c([H])c3c(C#N)c2[H])c([H])c1[H]


 22 24  0  0  0  0  0  0  0  0999 V2000
   -8.8678   -7.8633    7.8379 C   0  0  0  0  0  0  0  0  0  0  0  0
   -9.8123   -8.7419    7.3774 C   0  0  0  0  0  0  0  0  0  0  0  0
  -11.1381   -8.7074    7.7718 C   0  0  0  0  0  0  0  0  0  0  0  0
  -11.5121   -7.7457    8.6646 C   0  0  0  0  0  0  0  0  0  0  0  0
  -12.8382   -7.7161    9.0550 C   0  0  0  0  0  0  0  0  0  0  0  0
  -13.2562   -6.7702    9.9471 C   0  0  0  0  0  0  0  0  0  0  0  0
  -14.5815   -6.7040   10.3674 O   0  0  0  0  0  0  0  0  0  0  0  0
  -12.3364   -5.8664   10.4352 C   0  0  0  0  0  0  0  0  0  0  0  0
  -11.0042   -5.9067   10.0342 C   0  0  0  0  0  0  0  0  0  0  0  0
  -10.5657   -6.8592    9.1312 C   0  0  0  0  0  0  0  0  0  0  0  0
   -9.2890   -6.9294    8.7209 N   0  0  0  0  0  0  0  0  0  0  0  0
  -14.8738   -7.2206   11.1758 H   0  0  0  0  0  0  0  0  0  0  0  0
   -3.3883   -8.0086    6.2912 O   0  0  0  0  0  0  0  0  0  0  0  0
   -4.7360   -7.9731    6.6713 C   0  0  0  0  0  0  0  0  0  0  0  0
   -5.7120   -8.5533    5.8961 C   0  0  0  0  0  0  0  0  0  0  0  0
   -7.0680   -8.5336    6.2509 C   0  0  0  0  0  0  0  0  0  0  0  0
   -7.4778   -7.9239    7.4043 C   0  0  0  0  0  0  0  0  0  0  0  0
   -6.4758   -7.3371    8.1846 C   0  0  0  0  0  0  0  0  0  0  0  0
   -5.1456   -7.3581    7.8340 C   0  0  0  0  0  0  0  0  0  0  0  0
   -2.9737   -7.2707    5.7119 H   0  0  0  0  0  0  0  0  0  0  0  0
  -12.0949   -9.6657    7.2492 C   0  0  0  0  0  0  0  0  0  0  0  0
  -12.8634  -10.4249    6.8314 N   0  0  0  0  0  0  0  0  0  0  0  0
 13 14  1  0  0  0
 14 15  2  0  0  0
 15 16  1  0  0  0
 16 17  2  0  0  0
 17 18  1  0  0  0
 18 19  2  0  0  0
 17  1  1  0  0  0
  1  2  2  0  0  0
  2  3  1  0  0  0
  3 21  1  0  0  0
 21 22  3  0  0  0
  3  4  2  0  0  0
  4  5  1  0  0  0
  5  6  2  0  0  0
  6  7  1  0  0  0
  6  8  1  0  0  0
  8  9  2  0  0  0
  9 10  1  0  0  0
 10 11  2  0  0  0
 19 14  1  0  0  0
 11  1  1  0  0  0
 10  4  1  0  0  0
 13 20  1  0  0  0
  7 12  1  0  0  0
M  END
> <minimizedAffinity>
-7.06598

> <CNNscore>
0.4619705379

> <CNNaffinity>
5.5726943016

> <CNN_VS>
2.5744206905

> <CNNaffinity_variance>
0.0514379740

$$$$
[H]Oc1c([H])c([H])c(-c2nc3c([H])c([H])c(O[H])c([H])c3c(C#N)c2[H])c([H])c1[H]


 22 24  0  0  0  0  0  0  0  0999 V2000
  -10.6710   -8.1643    7.6473 C   0  0  0  0  0  0  0  0  0  0  0  0
   -9.8678   -9.2328    7.9466 C   0  0  0  0  0  0  0  0  0  0  0  0
   -8.5051   -9.2491    7.7076 C   0  0  0  0  0  0  0  0  0  0  0  0
   -7.9440   -8.1397    7.1452 C   0  0  0  0  0  0  0  0  0  0  0  0
   -6.5818   -8.1618    6.9086 C   0  0  0  0  0  0  0  0  0  0  0  0
   -5.9785   -7.0728    6.3470 C   0  0  0  0  0  0  0  0  0  0  0  0
   -4.6104   -7.0519    6.0915 O   0  0  0  0  0  0  0  0  0  0  0  0
   -6.7516   -5.9759    6.0304 C   0  0  0  0  0  0  0  0  0  0  0  0
   -8.1221   -5.9662    6.2736 C   0  0  0  0  0  0  0  0  0  0  0  0
   -8.7475   -7.0620    6.8420 C   0  0  0  0  0  0  0  0  0  0  0  0
  -10.0667   -7.0896    7.0915 N   0  0  0  0  0  0  0  0  0  0  0  0
   -4.2641   -7.3742    5.2071 H   0  0  0  0  0  0  0  0  0  0  0  0
  -16.2780   -8.3817    8.6236 O   0  0  0  0  0  0  0  0  0  0  0  0
  -14.8990   -8.3279    8.3836 C   0  0  0  0  0  0  0  0  0  0  0  0
  -14.1792   -7.1786    8.6102 C   0  0  0  0  0  0  0  0  0  0  0  0
  -12.7990   -7.0952    8.3793 C   0  0  0  0  0  0  0  0  0  0  0  0
  -12.1043   -8.1759    7.9107 C   0  0  0  0  0  0  0  0  0  0  0  0
  -12.8474   -9.3393    7.6840 C   0  0  0  0  0  0  0  0  0  0  0  0
  -14.2019   -9.4183    7.9116 C   0  0  0  0  0  0  0  0  0  0  0  0
  -16.9598   -8.1449    7.8950 H   0  0  0  0  0  0  0  0  0  0  0  0
   -7.7042  -10.4113    8.0463 C   0  0  0  0  0  0  0  0  0  0  0  0
   -7.0612  -11.3346    8.3213 N   0  0  0  0  0  0  0  0  0  0  0  0
 13 14  1  0  0  0
 14 15  2  0  0  0
 15 16  1  0  0  0
 16 17  2  0  0  0
 17 18  1  0  0  0
 18 19  2  0  0  0
 17  1  1  0  0  0
  1  2  2  0  0  0
  2  3  1  0  0  0
  3 21  1  0  0  0
 21 22  3  0  0  0
  3  4  2  0  0  0
  4  5  1  0  0  0
  5  6  2  0  0  0
  6  7  1  0  0  0
  6  8  1  0  0  0
  8  9  2  0  0  0
  9 10  1  0  0  0
 10 11  2  0  0  0
 19 14  1  0  0  0
 11  1  1  0  0  0
 10  4  1  0  0  0
 13 20  1  0  0  0
  7 12  1  0  0  0
M  END
> <minimizedAffinity>
-5.18292

> <CNNscore>
0.3404469490

> <CNNaffinity>
5.5795488358

> <CNN_VS>
1.8995404243

> <CNNaffinity_variance>
0.2646907270

$$$$
[H]Oc1c([H])c([H])c(-c2nc3c([H])c([H])c(O[H])c([H])c3c(C#N)c2[H])c([H])c1[H]


 22 24  0  0  0  0  0  0  0  0999 V2000
   -6.4956   -7.8125    7.7318 C   0  0  0  0  0  0  0  0  0  0  0  0
   -5.4560   -8.3346    7.0087 C   0  0  0  0  0  0  0  0  0  0  0  0
   -4.1640   -7.8436    7.0728 C   0  0  0  0  0  0  0  0  0  0  0  0
   -3.9251   -6.7860    7.9012 C   0  0  0  0  0  0  0  0  0  0  0  0
   -2.6322   -6.2996    7.9611 C   0  0  0  0  0  0  0  0  0  0  0  0
   -2.3482   -5.2420    8.7773 C   0  0  0  0  0  0  0  0  0  0  0  0
   -1.0608   -4.7204    8.8684 O   0  0  0  0  0  0  0  0  0  0  0  0
   -3.3668   -4.6869    9.5225 C   0  0  0  0  0  0  0  0  0  0  0  0
   -4.6643   -5.1859    9.4532 C   0  0  0  0  0  0  0  0  0  0  0  0
   -4.9675   -6.2568    8.6310 C   0  0  0  0  0  0  0  0  0  0  0  0
   -6.2068   -6.7655    8.5378 N   0  0  0  0  0  0  0  0  0  0  0  0
   -0.7771   -3.9838    8.2496 H   0  0  0  0  0  0  0  0  0  0  0  0
  -11.8404   -9.7593    7.4475 O   0  0  0  0  0  0  0  0  0  0  0  0
  -10.5258   -9.2808    7.5172 C   0  0  0  0  0  0  0  0  0  0  0  0
   -9.4584  -10.0716    7.1625 C   0  0  0  0  0  0  0  0  0  0  0  0
   -8.1326   -9.6201    7.2220 C   0  0  0  0  0  0  0  0  0  0  0  0
   -7.8469   -8.3510    7.6438 C   0  0  0  0  0  0  0  0  0  0  0  0
   -8.9409   -7.5561    8.0020 C   0  0  0  0  0  0  0  0  0  0  0  0
  -10.2412   -8.0018    7.9425 C   0  0  0  0  0  0  0  0  0  0  0  0
  -12.2840  -10.2299    8.2435 H   0  0  0  0  0  0  0  0  0  0  0  0
   -3.1019   -8.4385    6.2822 C   0  0  0  0  0  0  0  0  0  0  0  0
   -2.2593   -8.9175    5.6481 N   0  0  0  0  0  0  0  0  0  0  0  0
 13 14  1  0  0  0
 14 15  2  0  0  0
 15 16  1  0  0  0
 16 17  2  0  0  0
 17 18  1  0  0  0
 18 19  2  0  0  0
 17  1  1  0  0  0
  1  2  2  0  0  0
  2  3  1  0  0  0
  3 21  1  0  0  0
 21 22  3  0  0  0
  3  4  2  0  0  0
  4  5  1  0  0  0
  5  6  2  0  0  0
  6  7  1  0  0  0
  6  8  1  0  0  0
  8  9  2  0  0  0
  9 10  1  0  0  0
 10 11  2  0  0  0
 19 14  1  0  0  0
 11  1  1  0  0  0
 10  4  1  0  0  0
 13 20  1  0  0  0
  7 12  1  0  0  0
M  END
> <minimizedAffinity>
-6.22799

> <CNNscore>
0.3381958604

> <CNNaffinity>
4.6311540604

> <CNN_VS>
1.5662370920

> <CNNaffinity_variance>
0.0113130445

$$$$
[H]Oc1c([H])c([H])c(-c2nc3c([H])c([H])c(O[H])c([H])c3c(C#N)c2[H])c([H])c1[H]


 22 24  0  0  0  0  0  0  0  0999 V2000
  -11.0714   -7.9031    7.3623 C   0  0  0  0  0  0  0  0  0  0  0  0
  -11.7435   -9.0451    7.7091 C   0  0  0  0  0  0  0  0  0  0  0  0
  -13.1034   -9.2138    7.5182 C   0  0  0  0  0  0  0  0  0  0  0  0
  -13.7999   -8.1842    6.9555 C   0  0  0  0  0  0  0  0  0  0  0  0
  -15.1587   -8.3585    6.7672 C   0  0  0  0  0  0  0  0  0  0  0  0
  -15.8948   -7.3536    6.2071 C   0  0  0  0  0  0  0  0  0  0  0  0
  -17.2648   -7.4862    5.9993 O   0  0  0  0  0  0  0  0  0  0  0  0
  -15.2563   -6.1869    5.8437 C   0  0  0  0  0  0  0  0  0  0  0  0
  -13.8878   -6.0238    6.0385 C   0  0  0  0  0  0  0  0  0  0  0  0
  -13.1287   -7.0329    6.6047 C   0  0  0  0  0  0  0  0  0  0  0  0
  -11.8069   -6.9125    6.8083 N   0  0  0  0  0  0  0  0  0  0  0  0
  -17.9067   -7.2040    6.7163 H   0  0  0  0  0  0  0  0  0  0  0  0
   -5.4750   -7.1596    8.1146 O   0  0  0  0  0  0  0  0  0  0  0  0
   -6.8514   -7.3427    7.9298 C   0  0  0  0  0  0  0  0  0  0  0  0
   -7.4850   -8.4820    8.3667 C   0  0  0  0  0  0  0  0  0  0  0  0
   -8.8604   -8.6928    8.1958 C   0  0  0  0  0  0  0  0  0  0  0  0
   -9.6375   -7.7540    7.5756 C   0  0  0  0  0  0  0  0  0  0  0  0
   -8.9816   -6.5994    7.1354 C   0  0  0  0  0  0  0  0  0  0  0  0
   -7.6316   -6.3951    7.3046 C   0  0  0  0  0  0  0  0  0  0  0  0
   -4.7928   -7.4707    7.4148 H   0  0  0  0  0  0  0  0  0  0  0  0
  -13.7617  -10.4480    7.9060 C   0  0  0  0  0  0  0  0  0  0  0  0
  -14.2840  -11.4362    8.2096 N   0  0  0  0  0  0  0  0  0  0  0  0
 13 14  1  0  0  0
 14 15  2  0  0  0
 15 16  1  0  0  0
 16 17  2  0  0  0
 17 18  1  0  0  0
 18 19  2  0  0  0
 17  1  1  0  0  0
  1  2  2  0  0  0
  2  3  1  0  0  0
  3 21  1  0  0  0
 21 22  3  0  0  0
  3  4  2  0  0  0
  4  5  1  0  0  0
  5  6  2  0  0  0
  6  7  1  0  0  0
  6  8  1  0  0  0
  8  9  2  0  0  0
  9 10  1  0  0  0
 10 11  2  0  0  0
 19 14  1  0  0  0
 11  1  1  0  0  0
 10  4  1  0  0  0
 13 20  1  0  0  0
  7 12  1  0  0  0
M  END
> <minimizedAffinity>
-3.15808

> <CNNscore>
0.3222573102

> <CNNaffinity>
5.7774620056

> <CNN_VS>
1.8618294001

> <CNNaffinity_variance>
0.4957082868

$$$$
[H]Oc1c([H])c([H])c(-c2nc3c([H])c([H])c(O[H])c([H])c3c(C#N)c2[H])c([H])c1[H]


 22 24  0  0  0  0  0  0  0  0999 V2000
   -6.3421   -7.5254    6.7606 C   0  0  0  0  0  0  0  0  0  0  0  0
   -5.2173   -8.2424    7.0717 C   0  0  0  0  0  0  0  0  0  0  0  0
   -3.9365   -7.8160    6.7681 C   0  0  0  0  0  0  0  0  0  0  0  0
   -3.7991   -6.6196    6.1266 C   0  0  0  0  0  0  0  0  0  0  0  0
   -2.5168   -6.1987    5.8257 C   0  0  0  0  0  0  0  0  0  0  0  0
   -2.3328   -5.0072    5.1839 C   0  0  0  0  0  0  0  0  0  0  0  0
   -1.0599   -4.5450    4.8618 O   0  0  0  0  0  0  0  0  0  0  0  0
   -3.4394   -4.2544    4.8527 C   0  0  0  0  0  0  0  0  0  0  0  0
   -4.7251   -4.6893    5.1611 C   0  0  0  0  0  0  0  0  0  0  0  0
   -4.9274   -5.8941    5.8111 C   0  0  0  0  0  0  0  0  0  0  0  0
   -6.1521   -6.3467    6.1251 N   0  0  0  0  0  0  0  0  0  0  0  0
   -0.6514   -4.7864    3.9783 H   0  0  0  0  0  0  0  0  0  0  0  0
  -11.5186   -9.5464    8.0085 O   0  0  0  0  0  0  0  0  0  0  0  0
  -10.2456   -9.0490    7.7017 C   0  0  0  0  0  0  0  0  0  0  0  0
   -9.9332   -7.7231    7.8880 C   0  0  0  0  0  0  0  0  0  0  0  0
   -8.6683   -7.1972    7.5901 C   0  0  0  0  0  0  0  0  0  0  0  0
   -7.6792   -8.0001    7.0932 C   0  0  0  0  0  0  0  0  0  0  0  0
   -8.0090   -9.3470    6.9080 C   0  0  0  0  0  0  0  0  0  0  0  0
   -9.2512   -9.8605    7.2013 C   0  0  0  0  0  0  0  0  0  0  0  0
  -12.2721   -9.5605    7.3128 H   0  0  0  0  0  0  0  0  0  0  0  0
   -2.7811   -8.6196    7.1232 C   0  0  0  0  0  0  0  0  0  0  0  0
   -1.8608   -9.2601    7.4137 N   0  0  0  0  0  0  0  0  0  0  0  0
 13 14  1  0  0  0
 14 15  2  0  0  0
 15 16  1  0  0  0
 16 17  2  0  0  0
 17 18  1  0  0  0
 18 19  2  0  0  0
 17  1  1  0  0  0
  1  2  2  0  0  0
  2  3  1  0  0  0
  3 21  1  0  0  0
 21 22  3  0  0  0
  3  4  2  0  0  0
  4  5  1  0  0  0
  5  6  2  0  0  0
  6  7  1  0  0  0
  6  8  1  0  0  0
  8  9  2  0  0  0
  9 10  1  0  0  0
 10 11  2  0  0  0
 19 14  1  0  0  0
 11  1  1  0  0  0
 10  4  1  0  0  0
 13 20  1  0  0  0
  7 12  1  0  0  0
M  END
> <minimizedAffinity>
-6.24313

> <CNNscore>
0.2893567681

> <CNNaffinity>
4.6854858398

> <CNN_VS>
1.3557770252

> <CNNaffinity_variance>
0.0551046617

$$$$
[H]OC(=O)C1([H])C([H])([H])C([H])([H])C([H])(N2C(=O)S/C(=C(/[H])c3c([H])c([H])c4c(c([H])nn4C([H])([H])c4c([H])c([H])c(OC([H])([H])[H])c([H])c4C(F)(F)F)c3[H])C2=O)C([H])([H])C1([H])[H]


 40 44  0  0  0  0  0  0  0  0999 V2000
   -2.4314   -2.1851   15.0496 N   0  0  0  0  0  0  0  0  0  0  0  0
   -1.5227   -3.1278   14.6419 N   0  0  0  0  0  0  0  0  0  0  0  0
   -1.1156   -2.8432   13.3983 C   0  0  0  0  0  0  0  0  0  0  0  0
   -1.7623   -1.7006   12.9762 C   0  0  0  0  0  0  0  0  0  0  0  0
   -1.7243   -0.9915   11.8022 C   0  0  0  0  0  0  0  0  0  0  0  0
   -2.4999    0.1307   11.6223 C   0  0  0  0  0  0  0  0  0  0  0  0
   -3.3236    0.5193   12.6696 C   0  0  0  0  0  0  0  0  0  0  0  0
   -3.3408   -0.2018   13.8256 C   0  0  0  0  0  0  0  0  0  0  0  0
   -2.5727   -1.3405   14.0568 C   0  0  0  0  0  0  0  0  0  0  0  0
   -2.4541    0.9039   10.3913 C   0  0  0  0  0  0  0  0  0  0  0  0
   -2.7217    0.3768    9.2115 C   0  0  0  0  0  0  0  0  0  0  0  0
   -3.1879   -1.3251    8.8802 S   0  0  0  0  0  0  0  0  0  0  0  0
   -3.2762   -1.1582    7.1102 C   0  0  0  0  0  0  0  0  0  0  0  0
   -3.5722   -2.1150    6.3541 O   0  0  0  0  0  0  0  0  0  0  0  0
   -2.9623    0.1820    6.8118 N   0  0  0  0  0  0  0  0  0  0  0  0
   -2.6698    1.0056    7.9013 C   0  0  0  0  0  0  0  0  0  0  0  0
   -2.3648    2.2597    7.8405 O   0  0  0  0  0  0  0  0  0  0  0  0
   -2.9523    0.6669    5.4142 C   0  0  0  0  0  0  0  0  0  0  0  0
   -4.0100   -0.0966    4.6317 C   0  0  0  0  0  0  0  0  0  0  0  0
   -3.9183    0.1977    3.1601 C   0  0  0  0  0  0  0  0  0  0  0  0
   -3.0436    1.3776    2.9060 C   0  0  0  0  0  0  0  0  0  0  0  0
   -1.6537    1.2764    3.4560 C   0  0  0  0  0  0  0  0  0  0  0  0
   -1.6067    0.5393    4.7767 C   0  0  0  0  0  0  0  0  0  0  0  0
   -2.9876    1.5884    1.4126 C   0  0  0  0  0  0  0  0  0  0  0  0
   -3.6202    2.6836    0.8205 O   0  0  0  0  0  0  0  0  0  0  0  0
   -2.3772    0.7995    0.6480 O   0  0  0  0  0  0  0  0  0  0  0  0
   -4.2416    3.2762    1.3854 H   0  0  0  0  0  0  0  0  0  0  0  0
   -2.9685   -2.2019   16.4003 C   0  0  0  0  0  0  0  0  0  0  0  0
   -5.2376    1.3376   17.0664 C   0  0  0  0  0  0  0  0  0  0  0  0
   -3.8824    1.2737   17.2377 C   0  0  0  0  0  0  0  0  0  0  0  0
   -3.2211    0.1022   17.0367 C   0  0  0  0  0  0  0  0  0  0  0  0
   -3.8637   -1.0923   16.6508 C   0  0  0  0  0  0  0  0  0  0  0  0
   -5.2053   -1.0250   16.4860 C   0  0  0  0  0  0  0  0  0  0  0  0
   -5.8984    0.1966   16.6928 C   0  0  0  0  0  0  0  0  0  0  0  0
   -6.0283   -2.1794   16.0890 C   0  0  0  0  0  0  0  0  0  0  0  0
   -5.3407   -3.3858   16.0580 F   0  0  0  0  0  0  0  0  0  0  0  0
   -6.9635   -1.9823   15.1340 F   0  0  0  0  0  0  0  0  0  0  0  0
   -6.8797   -2.4428   17.2563 F   0  0  0  0  0  0  0  0  0  0  0  0
   -7.2927    2.6590   16.8890 C   0  0  0  0  0  0  0  0  0  0  0  0
   -5.9437    2.5074   17.2565 O   0  0  0  0  0  0  0  0  0  0  0  0
 39 40  1  0  0  0
 40 29  1  0  0  0
 29 30  2  0  0  0
 30 31  1  0  0  0
 31 32  2  0  0  0
 32 28  1  0  0  0
 28  1  1  0  0  0
  1  2  1  0  0  0
  2  3  2  0  0  0
  3  4  1  0  0  0
  4  5  2  0  0  0
  5  6  1  0  0  0
  6 10  1  0  0  0
 10 11  2  0  0  0
 11 12  1  0  0  0
 12 13  1  0  0  0
 13 14  2  0  0  0
 13 15  1  0  0  0
 15 18  1  0  0  0
 18 19  1  0  0  0
 19 20  1  0  0  0
 20 21  1  0  0  0
 21 22  1  0  0  0
 22 23  1  0  0  0
 21 24  1  0  0  0
 24 25  1  0  0  0
 24 26  2  0  0  0
 15 16  1  0  0  0
 16 17  2  0  0  0
  6  7  2  0  0  0
  7  8  1  0  0  0
  8  9  2  0  0  0
 32 33  1  0  0  0
 33 34  2  0  0  0
 33 35  1  0  0  0
 35 36  1  0  0  0
 35 37  1  0  0  0
 35 38  1  0  0  0
 34 29  1  0  0  0
  9  1  1  0  0  0
  9  4  1  0  0  0
 16 11  1  0  0  0
 23 18  1  0  0  0
 25 27  1  0  0  0
M  END
> <minimizedAffinity>
-2.87066

> <CNNscore>
0.4787145555

> <CNNaffinity>
5.9916086197

> <CNN_VS>
2.8682701588

> <CNNaffinity_variance>
0.9518029094

$$$$
[H]OC(=O)C1([H])C([H])([H])C([H])([H])C([H])(N2C(=O)S/C(=C(/[H])c3c([H])c([H])c4c(c([H])nn4C([H])([H])c4c([H])c([H])c(OC([H])([H])[H])c([H])c4C(F)(F)F)c3[H])C2=O)C([H])([H])C1([H])[H]


 40 44  0  0  0  0  0  0  0  0999 V2000
   -1.2653   -3.9260   12.1230 N   0  0  0  0  0  0  0  0  0  0  0  0
   -1.1502   -5.1080   11.4372 N   0  0  0  0  0  0  0  0  0  0  0  0
   -1.0603   -4.8532   10.1257 C   0  0  0  0  0  0  0  0  0  0  0  0
   -1.1181   -3.4880    9.9395 C   0  0  0  0  0  0  0  0  0  0  0  0
   -1.0830   -2.7013    8.8159 C   0  0  0  0  0  0  0  0  0  0  0  0
   -1.1798   -1.3314    8.9020 C   0  0  0  0  0  0  0  0  0  0  0  0
   -1.3161   -0.7733   10.1654 C   0  0  0  0  0  0  0  0  0  0  0  0
   -1.3462   -1.5775   11.2651 C   0  0  0  0  0  0  0  0  0  0  0  0
   -1.2481   -2.9664   11.2298 C   0  0  0  0  0  0  0  0  0  0  0  0
   -1.1230   -0.4841    7.7213 C   0  0  0  0  0  0  0  0  0  0  0  0
   -1.9220   -0.6557    6.6852 C   0  0  0  0  0  0  0  0  0  0  0  0
   -3.1999   -1.9051    6.5142 S   0  0  0  0  0  0  0  0  0  0  0  0
   -3.6886   -1.4541    4.8630 C   0  0  0  0  0  0  0  0  0  0  0  0
   -4.5942   -2.0564    4.2369 O   0  0  0  0  0  0  0  0  0  0  0  0
   -2.8826   -0.3631    4.4839 N   0  0  0  0  0  0  0  0  0  0  0  0
   -1.9494    0.0732    5.4271 C   0  0  0  0  0  0  0  0  0  0  0  0
   -1.1250    1.0565    5.2761 O   0  0  0  0  0  0  0  0  0  0  0  0
   -3.0368    0.2701    3.1557 C   0  0  0  0  0  0  0  0  0  0  0  0
   -4.1258    1.3280    3.2497 C   0  0  0  0  0  0  0  0  0  0  0  0
   -4.4784    1.8701    1.8924 C   0  0  0  0  0  0  0  0  0  0  0  0
   -3.4645    1.4659    0.8772 C   0  0  0  0  0  0  0  0  0  0  0  0
   -3.2340   -0.0092    0.7525 C   0  0  0  0  0  0  0  0  0  0  0  0
   -3.3367   -0.7249    2.0818 C   0  0  0  0  0  0  0  0  0  0  0  0
   -3.9040    2.0282   -0.4526 C   0  0  0  0  0  0  0  0  0  0  0  0
   -5.2596    2.1615   -0.7602 O   0  0  0  0  0  0  0  0  0  0  0  0
   -3.0809    2.3967   -1.3281 O   0  0  0  0  0  0  0  0  0  0  0  0
   -5.9639    1.7500   -0.1348 H   0  0  0  0  0  0  0  0  0  0  0  0
   -1.2882   -3.9061   13.5763 C   0  0  0  0  0  0  0  0  0  0  0  0
   -5.2909   -3.7630   15.0182 C   0  0  0  0  0  0  0  0  0  0  0  0
   -4.8660   -4.6586   14.0761 C   0  0  0  0  0  0  0  0  0  0  0  0
   -3.5792   -4.6311   13.6362 C   0  0  0  0  0  0  0  0  0  0  0  0
   -2.6217   -3.7072   14.1034 C   0  0  0  0  0  0  0  0  0  0  0  0
   -3.0478   -2.8206   15.0328 C   0  0  0  0  0  0  0  0  0  0  0  0
   -4.3895   -2.8477   15.4958 C   0  0  0  0  0  0  0  0  0  0  0  0
   -2.1784   -1.7886   15.6217 C   0  0  0  0  0  0  0  0  0  0  0  0
   -2.0709   -0.6318   14.8606 F   0  0  0  0  0  0  0  0  0  0  0  0
   -1.0667   -2.2018   16.2690 F   0  0  0  0  0  0  0  0  0  0  0  0
   -2.9598   -1.2434   16.7393 F   0  0  0  0  0  0  0  0  0  0  0  0
   -7.6576   -4.3577   14.8043 C   0  0  0  0  0  0  0  0  0  0  0  0
   -6.5862   -3.7610   15.4927 O   0  0  0  0  0  0  0  0  0  0  0  0
 39 40  1  0  0  0
 40 29  1  0  0  0
 29 30  2  0  0  0
 30 31  1  0  0  0
 31 32  2  0  0  0
 32 28  1  0  0  0
 28  1  1  0  0  0
  1  2  1  0  0  0
  2  3  2  0  0  0
  3  4  1  0  0  0
  4  5  2  0  0  0
  5  6  1  0  0  0
  6 10  1  0  0  0
 10 11  2  0  0  0
 11 12  1  0  0  0
 12 13  1  0  0  0
 13 14  2  0  0  0
 13 15  1  0  0  0
 15 18  1  0  0  0
 18 19  1  0  0  0
 19 20  1  0  0  0
 20 21  1  0  0  0
 21 22  1  0  0  0
 22 23  1  0  0  0
 21 24  1  0  0  0
 24 25  1  0  0  0
 24 26  2  0  0  0
 15 16  1  0  0  0
 16 17  2  0  0  0
  6  7  2  0  0  0
  7  8  1  0  0  0
  8  9  2  0  0  0
 32 33  1  0  0  0
 33 34  2  0  0  0
 33 35  1  0  0  0
 35 36  1  0  0  0
 35 37  1  0  0  0
 35 38  1  0  0  0
 34 29  1  0  0  0
  9  1  1  0  0  0
  9  4  1  0  0  0
 16 11  1  0  0  0
 23 18  1  0  0  0
 25 27  1  0  0  0
M  END
> <minimizedAffinity>
-1.92778

> <CNNscore>
0.4689967036

> <CNNaffinity>
5.9100661278

> <CNN_VS>
2.7718014717

> <CNNaffinity_variance>
1.3249452114

$$$$
[H]OC(=O)C1([H])C([H])([H])C([H])([H])C([H])(N2C(=O)S/C(=C(/[H])c3c([H])c([H])c4c(c([H])nn4C([H])([H])c4c([H])c([H])c(OC([H])([H])[H])c([H])c4C(F)(F)F)c3[H])C2=O)C([H])([H])C1([H])[H]


 40 44  0  0  0  0  0  0  0  0999 V2000
   -2.5020   -5.6988   11.9628 N   0  0  0  0  0  0  0  0  0  0  0  0
   -1.6622   -6.7436   11.6733 N   0  0  0  0  0  0  0  0  0  0  0  0
   -1.0601   -6.5167   10.4989 C   0  0  0  0  0  0  0  0  0  0  0  0
   -1.5066   -5.3096   10.0035 C   0  0  0  0  0  0  0  0  0  0  0  0
   -1.2278   -4.6178    8.8519 C   0  0  0  0  0  0  0  0  0  0  0  0
   -1.8363   -3.4143    8.5787 C   0  0  0  0  0  0  0  0  0  0  0  0
   -2.7436   -2.9254    9.5084 C   0  0  0  0  0  0  0  0  0  0  0  0
   -3.0007   -3.6317   10.6449 C   0  0  0  0  0  0  0  0  0  0  0  0
   -2.4085   -4.8504   10.9676 C   0  0  0  0  0  0  0  0  0  0  0  0
   -1.5347   -2.6602    7.3723 C   0  0  0  0  0  0  0  0  0  0  0  0
   -2.2445   -2.7769    6.2660 C   0  0  0  0  0  0  0  0  0  0  0  0
   -3.6753   -3.8331    6.0186 S   0  0  0  0  0  0  0  0  0  0  0  0
   -3.9243   -3.4194    4.3052 C   0  0  0  0  0  0  0  0  0  0  0  0
   -4.8451   -3.9200    3.6151 O   0  0  0  0  0  0  0  0  0  0  0  0
   -2.9277   -2.4847    3.9634 N   0  0  0  0  0  0  0  0  0  0  0  0
   -2.0363   -2.1322    4.9792 C   0  0  0  0  0  0  0  0  0  0  0  0
   -1.0605   -1.2923    4.8710 O   0  0  0  0  0  0  0  0  0  0  0  0
   -2.8518   -1.9202    2.5980 C   0  0  0  0  0  0  0  0  0  0  0  0
   -3.9616   -2.5362    1.7595 C   0  0  0  0  0  0  0  0  0  0  0  0
   -3.8203   -2.1642    0.3097 C   0  0  0  0  0  0  0  0  0  0  0  0
   -2.8387   -1.0558    0.1369 C   0  0  0  0  0  0  0  0  0  0  0  0
   -1.4726   -1.3158    0.6942 C   0  0  0  0  0  0  0  0  0  0  0  0
   -1.5133   -2.1316    1.9679 C   0  0  0  0  0  0  0  0  0  0  0  0
   -2.7403   -0.7622   -1.3402 C   0  0  0  0  0  0  0  0  0  0  0  0
   -2.6929   -1.7994   -2.2741 O   0  0  0  0  0  0  0  0  0  0  0  0
   -2.6984    0.4115   -1.7878 O   0  0  0  0  0  0  0  0  0  0  0  0
   -2.5875   -2.7690   -1.9497 H   0  0  0  0  0  0  0  0  0  0  0  0
   -3.2154   -5.6439   13.2282 C   0  0  0  0  0  0  0  0  0  0  0  0
   -2.5166   -1.9505   15.2260 C   0  0  0  0  0  0  0  0  0  0  0  0
   -2.9631   -2.0311   13.9360 C   0  0  0  0  0  0  0  0  0  0  0  0
   -3.1374   -3.2444   13.3461 C   0  0  0  0  0  0  0  0  0  0  0  0
   -2.8780   -4.4666   13.9999 C   0  0  0  0  0  0  0  0  0  0  0  0
   -2.4328   -4.3816   15.2751 C   0  0  0  0  0  0  0  0  0  0  0  0
   -2.2518   -3.1172   15.8946 C   0  0  0  0  0  0  0  0  0  0  0  0
   -2.1118   -5.5597   16.0978 C   0  0  0  0  0  0  0  0  0  0  0  0
   -3.1162   -6.5182   16.1371 F   0  0  0  0  0  0  0  0  0  0  0  0
   -1.4139   -5.3562   17.2367 F   0  0  0  0  0  0  0  0  0  0  0  0
   -1.1280   -6.3063   15.3030 F   0  0  0  0  0  0  0  0  0  0  0  0
   -2.3601   -0.5927   17.2589 C   0  0  0  0  0  0  0  0  0  0  0  0
   -2.3310   -0.7398   15.8606 O   0  0  0  0  0  0  0  0  0  0  0  0
 39 40  1  0  0  0
 40 29  1  0  0  0
 29 30  2  0  0  0
 30 31  1  0  0  0
 31 32  2  0  0  0
 32 28  1  0  0  0
 28  1  1  0  0  0
  1  2  1  0  0  0
  2  3  2  0  0  0
  3  4  1  0  0  0
  4  5  2  0  0  0
  5  6  1  0  0  0
  6 10  1  0  0  0
 10 11  2  0  0  0
 11 12  1  0  0  0
 12 13  1  0  0  0
 13 14  2  0  0  0
 13 15  1  0  0  0
 15 18  1  0  0  0
 18 19  1  0  0  0
 19 20  1  0  0  0
 20 21  1  0  0  0
 21 22  1  0  0  0
 22 23  1  0  0  0
 21 24  1  0  0  0
 24 25  1  0  0  0
 24 26  2  0  0  0
 15 16  1  0  0  0
 16 17  2  0  0  0
  6  7  2  0  0  0
  7  8  1  0  0  0
  8  9  2  0  0  0
 32 33  1  0  0  0
 33 34  2  0  0  0
 33 35  1  0  0  0
 35 36  1  0  0  0
 35 37  1  0  0  0
 35 38  1  0  0  0
 34 29  1  0  0  0
  9  1  1  0  0  0
  9  4  1  0  0  0
 16 11  1  0  0  0
 23 18  1  0  0  0
 25 27  1  0  0  0
M  END
> <minimizedAffinity>
-2.46717

> <CNNscore>
0.4624561071

> <CNNaffinity>
6.1207132339

> <CNN_VS>
2.8305611610

> <CNNaffinity_variance>
1.5184419155

$$$$
[H]OC(=O)C1([H])C([H])([H])C([H])([H])C([H])(N2C(=O)S/C(=C(/[H])c3c([H])c([H])c4c(c([H])nn4C([H])([H])c4c([H])c([H])c(OC([H])([H])[H])c([H])c4C(F)(F)F)c3[H])C2=O)C([H])([H])C1([H])[H]


 40 44  0  0  0  0  0  0  0  0999 V2000
  -14.8844   -8.3302    5.6639 N   0  0  0  0  0  0  0  0  0  0  0  0
  -14.6259   -9.5855    5.1762 N   0  0  0  0  0  0  0  0  0  0  0  0
  -13.4257   -9.9916    5.6096 C   0  0  0  0  0  0  0  0  0  0  0  0
  -12.8818   -8.9945    6.3917 C   0  0  0  0  0  0  0  0  0  0  0  0
  -11.6894   -8.8856    7.0617 C   0  0  0  0  0  0  0  0  0  0  0  0
  -11.3719   -7.7502    7.7712 C   0  0  0  0  0  0  0  0  0  0  0  0
  -12.2995   -6.7179    7.7837 C   0  0  0  0  0  0  0  0  0  0  0  0
  -13.4770   -6.8527    7.1113 C   0  0  0  0  0  0  0  0  0  0  0  0
  -13.8452   -7.9817    6.3835 C   0  0  0  0  0  0  0  0  0  0  0  0
  -10.1210   -7.6294    8.5032 C   0  0  0  0  0  0  0  0  0  0  0  0
  -10.0537   -7.1042    9.7119 C   0  0  0  0  0  0  0  0  0  0  0  0
  -11.4242   -6.4622   10.6780 S   0  0  0  0  0  0  0  0  0  0  0  0
  -10.4455   -5.9238   12.0640 C   0  0  0  0  0  0  0  0  0  0  0  0
  -10.9466   -5.3663   13.0704 O   0  0  0  0  0  0  0  0  0  0  0  0
   -9.1079   -6.2518   11.7693 N   0  0  0  0  0  0  0  0  0  0  0  0
   -8.8805   -6.8741   10.5398 C   0  0  0  0  0  0  0  0  0  0  0  0
   -7.7326   -7.2576   10.0875 O   0  0  0  0  0  0  0  0  0  0  0  0
   -8.0221   -5.9460   12.7266 C   0  0  0  0  0  0  0  0  0  0  0  0
   -8.4738   -4.7983   13.6170 C   0  0  0  0  0  0  0  0  0  0  0  0
   -7.3464   -4.2992   14.4774 C   0  0  0  0  0  0  0  0  0  0  0  0
   -6.1999   -5.2516   14.4592 C   0  0  0  0  0  0  0  0  0  0  0  0
   -5.6532   -5.5719   13.1015 C   0  0  0  0  0  0  0  0  0  0  0  0
   -6.7322   -5.6280   12.0422 C   0  0  0  0  0  0  0  0  0  0  0  0
   -5.1097   -4.6669   15.3237 C   0  0  0  0  0  0  0  0  0  0  0  0
   -4.0638   -3.9345   14.7583 O   0  0  0  0  0  0  0  0  0  0  0  0
   -5.0965   -4.8107   16.5723 O   0  0  0  0  0  0  0  0  0  0  0  0
   -3.9593   -3.9066   13.7362 H   0  0  0  0  0  0  0  0  0  0  0  0
  -16.1640   -7.6846    5.4213 C   0  0  0  0  0  0  0  0  0  0  0  0
  -15.3221   -3.9054    3.6520 C   0  0  0  0  0  0  0  0  0  0  0  0
  -14.3526   -4.8160    3.9698 C   0  0  0  0  0  0  0  0  0  0  0  0
  -14.6871   -5.9941    4.5617 C   0  0  0  0  0  0  0  0  0  0  0  0
  -16.0137   -6.3501    4.8808 C   0  0  0  0  0  0  0  0  0  0  0  0
  -16.9692   -5.4443    4.5677 C   0  0  0  0  0  0  0  0  0  0  0  0
  -16.6241   -4.2146    3.9480 C   0  0  0  0  0  0  0  0  0  0  0  0
  -18.4013   -5.6569    4.8356 C   0  0  0  0  0  0  0  0  0  0  0  0
  -19.2313   -4.6755    4.3095 F   0  0  0  0  0  0  0  0  0  0  0  0
  -18.7436   -6.1691    6.0381 F   0  0  0  0  0  0  0  0  0  0  0  0
  -18.7812   -6.7636    3.9480 F   0  0  0  0  0  0  0  0  0  0  0  0
  -15.9265   -2.0152    2.2158 C   0  0  0  0  0  0  0  0  0  0  0  0
  -15.0240   -2.7017    3.0477 O   0  0  0  0  0  0  0  0  0  0  0  0
 39 40  1  0  0  0
 40 29  1  0  0  0
 29 30  2  0  0  0
 30 31  1  0  0  0
 31 32  2  0  0  0
 32 28  1  0  0  0
 28  1  1  0  0  0
  1  2  1  0  0  0
  2  3  2  0  0  0
  3  4  1  0  0  0
  4  5  2  0  0  0
  5  6  1  0  0  0
  6 10  1  0  0  0
 10 11  2  0  0  0
 11 12  1  0  0  0
 12 13  1  0  0  0
 13 14  2  0  0  0
 13 15  1  0  0  0
 15 18  1  0  0  0
 18 19  1  0  0  0
 19 20  1  0  0  0
 20 21  1  0  0  0
 21 22  1  0  0  0
 22 23  1  0  0  0
 21 24  1  0  0  0
 24 25  1  0  0  0
 24 26  2  0  0  0
 15 16  1  0  0  0
 16 17  2  0  0  0
  6  7  2  0  0  0
  7  8  1  0  0  0
  8  9  2  0  0  0
 32 33  1  0  0  0
 33 34  2  0  0  0
 33 35  1  0  0  0
 35 36  1  0  0  0
 35 37  1  0  0  0
 35 38  1  0  0  0
 34 29  1  0  0  0
  9  1  1  0  0  0
  9  4  1  0  0  0
 16 11  1  0  0  0
 23 18  1  0  0  0
 25 27  1  0  0  0
M  END
> <minimizedAffinity>
13.27572

> <CNNscore>
0.4604626596

> <CNNaffinity>
6.7674651146

> <CNN_VS>
3.1161649227

> <CNNaffinity_variance>
1.0667507648

$$$$
[H]OC(=O)C1([H])C([H])([H])C([H])([H])C([H])(N2C(=O)S/C(=C(/[H])c3c([H])c([H])c4c(c([H])nn4C([H])([H])c4c([H])c([H])c(OC([H])([H])[H])c([H])c4C(F)(F)F)c3[H])C2=O)C([H])([H])C1([H])[H]


 40 44  0  0  0  0  0  0  0  0999 V2000
   -2.5638   -5.5155   12.2632 N   0  0  0  0  0  0  0  0  0  0  0  0
   -1.5399   -6.3008   11.7991 N   0  0  0  0  0  0  0  0  0  0  0  0
   -1.0600   -5.7789   10.6632 C   0  0  0  0  0  0  0  0  0  0  0  0
   -1.7743   -4.6363   10.3698 C   0  0  0  0  0  0  0  0  0  0  0  0
   -1.7062   -3.7383    9.3347 C   0  0  0  0  0  0  0  0  0  0  0  0
   -2.5665   -2.6668    9.2634 C   0  0  0  0  0  0  0  0  0  0  0  0
   -3.5070   -2.5271   10.2746 C   0  0  0  0  0  0  0  0  0  0  0  0
   -3.5516   -3.4323   11.2922 C   0  0  0  0  0  0  0  0  0  0  0  0
   -2.7015   -4.5292   11.4104 C   0  0  0  0  0  0  0  0  0  0  0  0
   -2.4921   -1.6956    8.1834 C   0  0  0  0  0  0  0  0  0  0  0  0
   -2.9463   -1.9468    6.9701 C   0  0  0  0  0  0  0  0  0  0  0  0
   -3.7271   -3.4643    6.4123 S   0  0  0  0  0  0  0  0  0  0  0  0
   -3.9351   -2.9606    4.7177 C   0  0  0  0  0  0  0  0  0  0  0  0
   -4.4558   -3.7030    3.8501 O   0  0  0  0  0  0  0  0  0  0  0  0
   -3.4201   -1.6537    4.6156 N   0  0  0  0  0  0  0  0  0  0  0  0
   -2.8977   -1.1020    5.7875 C   0  0  0  0  0  0  0  0  0  0  0  0
   -2.3862    0.0787    5.9045 O   0  0  0  0  0  0  0  0  0  0  0  0
   -3.4450   -0.9258    3.3279 C   0  0  0  0  0  0  0  0  0  0  0  0
   -2.0105   -0.6897    2.8801 C   0  0  0  0  0  0  0  0  0  0  0  0
   -1.9550    0.2211    1.6852 C   0  0  0  0  0  0  0  0  0  0  0  0
   -3.3062    0.3866    1.0778 C   0  0  0  0  0  0  0  0  0  0  0  0
   -4.3700    0.8879    2.0061 C   0  0  0  0  0  0  0  0  0  0  0  0
   -4.2059    0.3576    3.4137 C   0  0  0  0  0  0  0  0  0  0  0  0
   -3.1656    1.3278   -0.0935 C   0  0  0  0  0  0  0  0  0  0  0  0
   -3.0068    2.7007    0.1069 O   0  0  0  0  0  0  0  0  0  0  0  0
   -3.1839    0.9229   -1.2832 O   0  0  0  0  0  0  0  0  0  0  0  0
   -3.1219    3.0917    1.0506 H   0  0  0  0  0  0  0  0  0  0  0  0
   -3.2068   -5.8028   13.5349 C   0  0  0  0  0  0  0  0  0  0  0  0
   -2.4501   -2.5223   16.1399 C   0  0  0  0  0  0  0  0  0  0  0  0
   -1.4661   -3.3475   15.6699 C   0  0  0  0  0  0  0  0  0  0  0  0
   -1.7798   -4.3972   14.8637 C   0  0  0  0  0  0  0  0  0  0  0  0
   -3.0987   -4.7013   14.4678 C   0  0  0  0  0  0  0  0  0  0  0  0
   -4.0693   -3.8840   14.9384 C   0  0  0  0  0  0  0  0  0  0  0  0
   -3.7454   -2.7863   15.7784 C   0  0  0  0  0  0  0  0  0  0  0  0
   -5.4967   -4.0623   14.6245 C   0  0  0  0  0  0  0  0  0  0  0  0
   -5.7400   -4.6295   13.3802 F   0  0  0  0  0  0  0  0  0  0  0  0
   -6.3531   -3.1029   15.0387 F   0  0  0  0  0  0  0  0  0  0  0  0
   -5.9201   -5.1896   15.4653 F   0  0  0  0  0  0  0  0  0  0  0  0
   -1.3726   -0.3613   16.5525 C   0  0  0  0  0  0  0  0  0  0  0  0
   -2.1724   -1.4454   16.9562 O   0  0  0  0  0  0  0  0  0  0  0  0
 39 40  1  0  0  0
 40 29  1  0  0  0
 29 30  2  0  0  0
 30 31  1  0  0  0
 31 32  2  0  0  0
 32 28  1  0  0  0
 28  1  1  0  0  0
  1  2  1  0  0  0
  2  3  2  0  0  0
  3  4  1  0  0  0
  4  5  2  0  0  0
  5  6  1  0  0  0
  6 10  1  0  0  0
 10 11  2  0  0  0
 11 12  1  0  0  0
 12 13  1  0  0  0
 13 14  2  0  0  0
 13 15  1  0  0  0
 15 18  1  0  0  0
 18 19  1  0  0  0
 19 20  1  0  0  0
 20 21  1  0  0  0
 21 22  1  0  0  0
 22 23  1  0  0  0
 21 24  1  0  0  0
 24 25  1  0  0  0
 24 26  2  0  0  0
 15 16  1  0  0  0
 16 17  2  0  0  0
  6  7  2  0  0  0
  7  8  1  0  0  0
  8  9  2  0  0  0
 32 33  1  0  0  0
 33 34  2  0  0  0
 33 35  1  0  0  0
 35 36  1  0  0  0
 35 37  1  0  0  0
 35 38  1  0  0  0
 34 29  1  0  0  0
  9  1  1  0  0  0
  9  4  1  0  0  0
 16 11  1  0  0  0
 23 18  1  0  0  0
 25 27  1  0  0  0
M  END
> <minimizedAffinity>
-3.45083

> <CNNscore>
0.4427818656

> <CNNaffinity>
6.0470247269

> <CNN_VS>
2.6775128841

> <CNNaffinity_variance>
1.1114006042

$$$$
[H]OC(=O)C1([H])C([H])([H])C([H])([H])C([H])(N2C(=O)S/C(=C(/[H])c3c([H])c([H])c4c(c([H])nn4C([H])([H])c4c([H])c([H])c(OC([H])([H])[H])c([H])c4C(F)(F)F)c3[H])C2=O)C([H])([H])C1([H])[H]


 40 44  0  0  0  0  0  0  0  0999 V2000
   -8.6429  -10.3605    5.3734 N   0  0  0  0  0  0  0  0  0  0  0  0
   -9.2044  -10.6465    6.5915 N   0  0  0  0  0  0  0  0  0  0  0  0
   -8.5491   -9.9795    7.5499 C   0  0  0  0  0  0  0  0  0  0  0  0
   -7.5412   -9.2446    6.9616 C   0  0  0  0  0  0  0  0  0  0  0  0
   -6.5812   -8.4084    7.4731 C   0  0  0  0  0  0  0  0  0  0  0  0
   -5.6588   -7.7978    6.6548 C   0  0  0  0  0  0  0  0  0  0  0  0
   -5.7326   -8.0587    5.2936 C   0  0  0  0  0  0  0  0  0  0  0  0
   -6.6974   -8.8916    4.8116 C   0  0  0  0  0  0  0  0  0  0  0  0
   -7.6541   -9.5293    5.5977 C   0  0  0  0  0  0  0  0  0  0  0  0
   -4.6490   -6.8929    7.1806 C   0  0  0  0  0  0  0  0  0  0  0  0
   -4.6835   -6.4316    8.4165 C   0  0  0  0  0  0  0  0  0  0  0  0
   -5.9178   -6.8068    9.6651 S   0  0  0  0  0  0  0  0  0  0  0  0
   -5.2420   -5.7480   10.9265 C   0  0  0  0  0  0  0  0  0  0  0  0
   -5.7638   -5.6294   12.0616 O   0  0  0  0  0  0  0  0  0  0  0  0
   -4.0934   -5.1445   10.3785 N   0  0  0  0  0  0  0  0  0  0  0  0
   -3.7812   -5.4914    9.0621 C   0  0  0  0  0  0  0  0  0  0  0  0
   -2.7718   -5.0543    8.3843 O   0  0  0  0  0  0  0  0  0  0  0  0
   -3.2780   -4.2009   11.1743 C   0  0  0  0  0  0  0  0  0  0  0  0
   -3.3129   -4.6425   12.6296 C   0  0  0  0  0  0  0  0  0  0  0  0
   -2.6756   -3.6176   13.5262 C   0  0  0  0  0  0  0  0  0  0  0  0
   -1.9117   -2.6148   12.7307 C   0  0  0  0  0  0  0  0  0  0  0  0
   -2.6986   -1.8978   11.6765 C   0  0  0  0  0  0  0  0  0  0  0  0
   -3.7355   -2.7861   11.0245 C   0  0  0  0  0  0  0  0  0  0  0  0
   -1.3274   -1.6160   13.6996 C   0  0  0  0  0  0  0  0  0  0  0  0
   -1.0610   -0.3044   13.3012 O   0  0  0  0  0  0  0  0  0  0  0  0
   -1.0601   -1.9165   14.8903 O   0  0  0  0  0  0  0  0  0  0  0  0
   -1.1351   -0.0516   12.3076 H   0  0  0  0  0  0  0  0  0  0  0  0
   -9.2196  -10.8821    4.1453 C   0  0  0  0  0  0  0  0  0  0  0  0
   -7.9998  -14.9038    3.4675 C   0  0  0  0  0  0  0  0  0  0  0  0
   -8.5690  -14.4810    4.6368 C   0  0  0  0  0  0  0  0  0  0  0  0
   -8.9088  -13.1740    4.7998 C   0  0  0  0  0  0  0  0  0  0  0  0
   -8.7047  -12.1924    3.8082 C   0  0  0  0  0  0  0  0  0  0  0  0
   -8.1378  -12.6148    2.6542 C   0  0  0  0  0  0  0  0  0  0  0  0
   -7.7839  -13.9785    2.4798 C   0  0  0  0  0  0  0  0  0  0  0  0
   -7.8529  -11.7198    1.5203 C   0  0  0  0  0  0  0  0  0  0  0  0
   -7.3825  -12.3690    0.3862 F   0  0  0  0  0  0  0  0  0  0  0  0
   -7.3228  -10.5083    1.7973 F   0  0  0  0  0  0  0  0  0  0  0  0
   -9.1767  -11.3313    1.0169 F   0  0  0  0  0  0  0  0  0  0  0  0
   -6.4099  -16.7564    3.6689 C   0  0  0  0  0  0  0  0  0  0  0  0
   -7.6450  -16.2209    3.2620 O   0  0  0  0  0  0  0  0  0  0  0  0
 39 40  1  0  0  0
 40 29  1  0  0  0
 29 30  2  0  0  0
 30 31  1  0  0  0
 31 32  2  0  0  0
 32 28  1  0  0  0
 28  1  1  0  0  0
  1  2  1  0  0  0
  2  3  2  0  0  0
  3  4  1  0  0  0
  4  5  2  0  0  0
  5  6  1  0  0  0
  6 10  1  0  0  0
 10 11  2  0  0  0
 11 12  1  0  0  0
 12 13  1  0  0  0
 13 14  2  0  0  0
 13 15  1  0  0  0
 15 18  1  0  0  0
 18 19  1  0  0  0
 19 20  1  0  0  0
 20 21  1  0  0  0
 21 22  1  0  0  0
 22 23  1  0  0  0
 21 24  1  0  0  0
 24 25  1  0  0  0
 24 26  2  0  0  0
 15 16  1  0  0  0
 16 17  2  0  0  0
  6  7  2  0  0  0
  7  8  1  0  0  0
  8  9  2  0  0  0
 32 33  1  0  0  0
 33 34  2  0  0  0
 33 35  1  0  0  0
 35 36  1  0  0  0
 35 37  1  0  0  0
 35 38  1  0  0  0
 34 29  1  0  0  0
  9  1  1  0  0  0
  9  4  1  0  0  0
 16 11  1  0  0  0
 23 18  1  0  0  0
 25 27  1  0  0  0
M  END
> <minimizedAffinity>
7.23486

> <CNNscore>
0.4175080657

> <CNNaffinity>
6.0559921265

> <CNN_VS>
2.5284254551

> <CNNaffinity_variance>
0.9150511622

$$$$
[H]OC(=O)C1([H])C([H])([H])C([H])([H])C([H])(N2C(=O)S/C(=C(/[H])c3c([H])c([H])c4c(c([H])nn4C([H])([H])c4c([H])c([H])c(OC([H])([H])[H])c([H])c4C(F)(F)F)c3[H])C2=O)C([H])([H])C1([H])[H]


 40 44  0  0  0  0  0  0  0  0999 V2000
   -2.2056   -5.4346   12.2645 N   0  0  0  0  0  0  0  0  0  0  0  0
   -1.5460   -6.5372   11.7852 N   0  0  0  0  0  0  0  0  0  0  0  0
   -1.0684   -6.2721   10.5627 C   0  0  0  0  0  0  0  0  0  0  0  0
   -1.4163   -4.9805   10.2268 C   0  0  0  0  0  0  0  0  0  0  0  0
   -1.1955   -4.2205    9.1061 C   0  0  0  0  0  0  0  0  0  0  0  0
   -1.6761   -2.9347    9.0111 C   0  0  0  0  0  0  0  0  0  0  0  0
   -2.3939   -2.4339   10.0884 C   0  0  0  0  0  0  0  0  0  0  0  0
   -2.5971   -3.2094   11.1903 C   0  0  0  0  0  0  0  0  0  0  0  0
   -2.1283   -4.5129   11.3352 C   0  0  0  0  0  0  0  0  0  0  0  0
   -1.4317   -2.1105    7.8381 C   0  0  0  0  0  0  0  0  0  0  0  0
   -2.1266   -2.2379    6.7236 C   0  0  0  0  0  0  0  0  0  0  0  0
   -3.4683   -3.3930    6.4247 S   0  0  0  0  0  0  0  0  0  0  0  0
   -3.7442   -2.9308    4.7279 C   0  0  0  0  0  0  0  0  0  0  0  0
   -4.6203   -3.4743    4.0124 O   0  0  0  0  0  0  0  0  0  0  0  0
   -2.8239   -1.9070    4.4304 N   0  0  0  0  0  0  0  0  0  0  0  0
   -1.9664   -1.5268    5.4652 C   0  0  0  0  0  0  0  0  0  0  0  0
   -1.0600   -0.6085    5.3970 O   0  0  0  0  0  0  0  0  0  0  0  0
   -2.7889   -1.2831    3.0894 C   0  0  0  0  0  0  0  0  0  0  0  0
   -1.4801   -1.6647    2.4145 C   0  0  0  0  0  0  0  0  0  0  0  0
   -1.2845   -0.9024    1.1334 C   0  0  0  0  0  0  0  0  0  0  0  0
   -2.5473   -0.2296    0.7154 C   0  0  0  0  0  0  0  0  0  0  0  0
   -3.1477    0.6953    1.7295 C   0  0  0  0  0  0  0  0  0  0  0  0
   -2.9585    0.2005    3.1469 C   0  0  0  0  0  0  0  0  0  0  0  0
   -2.2588    0.5271   -0.5582 C   0  0  0  0  0  0  0  0  0  0  0  0
   -1.0755    1.2537   -0.7062 O   0  0  0  0  0  0  0  0  0  0  0  0
   -3.0589    0.5352   -1.5275 O   0  0  0  0  0  0  0  0  0  0  0  0
   -0.4580    1.3872    0.1046 H   0  0  0  0  0  0  0  0  0  0  0  0
   -2.7462   -5.4168   13.6138 C   0  0  0  0  0  0  0  0  0  0  0  0
   -7.0027   -5.4115   13.5529 C   0  0  0  0  0  0  0  0  0  0  0  0
   -6.2453   -6.3247   12.8729 C   0  0  0  0  0  0  0  0  0  0  0  0
   -4.8875   -6.2521   12.9103 C   0  0  0  0  0  0  0  0  0  0  0  0
   -4.1855   -5.2621   13.6283 C   0  0  0  0  0  0  0  0  0  0  0  0
   -4.9392   -4.3584   14.2966 C   0  0  0  0  0  0  0  0  0  0  0  0
   -6.3565   -4.4324   14.2616 C   0  0  0  0  0  0  0  0  0  0  0  0
   -4.3659   -3.2596   15.0914 C   0  0  0  0  0  0  0  0  0  0  0  0
   -3.3775   -3.6566   15.9829 F   0  0  0  0  0  0  0  0  0  0  0  0
   -5.2022   -2.2802   15.4998 F   0  0  0  0  0  0  0  0  0  0  0  0
   -3.5216   -2.5215   14.1431 F   0  0  0  0  0  0  0  0  0  0  0  0
   -9.1763   -4.8292   14.5209 C   0  0  0  0  0  0  0  0  0  0  0  0
   -8.3815   -5.4537   13.5431 O   0  0  0  0  0  0  0  0  0  0  0  0
 39 40  1  0  0  0
 40 29  1  0  0  0
 29 30  2  0  0  0
 30 31  1  0  0  0
 31 32  2  0  0  0
 32 28  1  0  0  0
 28  1  1  0  0  0
  1  2  1  0  0  0
  2  3  2  0  0  0
  3  4  1  0  0  0
  4  5  2  0  0  0
  5  6  1  0  0  0
  6 10  1  0  0  0
 10 11  2  0  0  0
 11 12  1  0  0  0
 12 13  1  0  0  0
 13 14  2  0  0  0
 13 15  1  0  0  0
 15 18  1  0  0  0
 18 19  1  0  0  0
 19 20  1  0  0  0
 20 21  1  0  0  0
 21 22  1  0  0  0
 22 23  1  0  0  0
 21 24  1  0  0  0
 24 25  1  0  0  0
 24 26  2  0  0  0
 15 16  1  0  0  0
 16 17  2  0  0  0
  6  7  2  0  0  0
  7  8  1  0  0  0
  8  9  2  0  0  0
 32 33  1  0  0  0
 33 34  2  0  0  0
 33 35  1  0  0  0
 35 36  1  0  0  0
 35 37  1  0  0  0
 35 38  1  0  0  0
 34 29  1  0  0  0
  9  1  1  0  0  0
  9  4  1  0  0  0
 16 11  1  0  0  0
 23 18  1  0  0  0
 25 27  1  0  0  0
M  END
> <minimizedAffinity>
-1.56028

> <CNNscore>
0.3955320418

> <CNNaffinity>
5.9560933113

> <CNN_VS>
2.3558256626

> <CNNaffinity_variance>
1.5724875927

$$$$
[H]OC(=O)C1([H])C([H])([H])C([H])([H])C([H])(N2C(=O)S/C(=C(/[H])c3c([H])c([H])c4c(c([H])nn4C([H])([H])c4c([H])c([H])c(OC([H])([H])[H])c([H])c4C(F)(F)F)c3[H])C2=O)C([H])([H])C1([H])[H]


 40 44  0  0  0  0  0  0  0  0999 V2000
  -13.1812   -7.4265    7.7206 N   0  0  0  0  0  0  0  0  0  0  0  0
  -13.5319   -8.5663    8.3977 N   0  0  0  0  0  0  0  0  0  0  0  0
  -12.4788   -9.0095    9.0961 C   0  0  0  0  0  0  0  0  0  0  0  0
  -11.4180   -8.1555    8.8786 C   0  0  0  0  0  0  0  0  0  0  0  0
  -10.1229   -8.1487    9.3316 C   0  0  0  0  0  0  0  0  0  0  0  0
   -9.2366   -7.1714    8.9410 C   0  0  0  0  0  0  0  0  0  0  0  0
   -9.6982   -6.1935    8.0709 C   0  0  0  0  0  0  0  0  0  0  0  0
  -10.9898   -6.2226    7.6377 C   0  0  0  0  0  0  0  0  0  0  0  0
  -11.9243   -7.1870    8.0071 C   0  0  0  0  0  0  0  0  0  0  0  0
   -7.8672   -7.1399    9.4297 C   0  0  0  0  0  0  0  0  0  0  0  0
   -7.5529   -6.7001   10.6335 C   0  0  0  0  0  0  0  0  0  0  0  0
   -8.6900   -6.0822   11.8780 S   0  0  0  0  0  0  0  0  0  0  0  0
   -7.4476   -5.6699   13.0843 C   0  0  0  0  0  0  0  0  0  0  0  0
   -7.7276   -5.1663   14.1992 O   0  0  0  0  0  0  0  0  0  0  0  0
   -6.2040   -6.0190   12.5231 N   0  0  0  0  0  0  0  0  0  0  0  0
   -6.2371   -6.5635   11.2373 C   0  0  0  0  0  0  0  0  0  0  0  0
   -5.2114   -6.9515   10.5540 O   0  0  0  0  0  0  0  0  0  0  0  0
   -4.9465   -5.8131   13.2749 C   0  0  0  0  0  0  0  0  0  0  0  0
   -4.6597   -7.0670   14.0869 C   0  0  0  0  0  0  0  0  0  0  0  0
   -3.5092   -6.8542   15.0311 C   0  0  0  0  0  0  0  0  0  0  0  0
   -2.7698   -5.6037   14.6970 C   0  0  0  0  0  0  0  0  0  0  0  0
   -3.5983   -4.3557   14.6715 C   0  0  0  0  0  0  0  0  0  0  0  0
   -4.9963   -4.6003   14.1468 C   0  0  0  0  0  0  0  0  0  0  0  0
   -1.6527   -5.4545   15.7008 C   0  0  0  0  0  0  0  0  0  0  0  0
   -1.1168   -4.1986   15.9934 O   0  0  0  0  0  0  0  0  0  0  0  0
   -1.1639   -6.4397   16.3091 O   0  0  0  0  0  0  0  0  0  0  0  0
   -1.3891   -3.3866   15.4251 H   0  0  0  0  0  0  0  0  0  0  0  0
  -14.1657   -6.6825    6.9523 C   0  0  0  0  0  0  0  0  0  0  0  0
  -15.9053   -9.2932    4.0749 C   0  0  0  0  0  0  0  0  0  0  0  0
  -14.6621   -8.7421    3.9309 C   0  0  0  0  0  0  0  0  0  0  0  0
  -14.1768   -7.8908    4.8744 C   0  0  0  0  0  0  0  0  0  0  0  0
  -14.8969   -7.5260    6.0307 C   0  0  0  0  0  0  0  0  0  0  0  0
  -16.1281   -8.0710    6.1669 C   0  0  0  0  0  0  0  0  0  0  0  0
  -16.6370   -8.9615    5.1853 C   0  0  0  0  0  0  0  0  0  0  0  0
  -17.0114   -7.7930    7.3117 C   0  0  0  0  0  0  0  0  0  0  0  0
  -16.3406   -7.5549    8.5043 F   0  0  0  0  0  0  0  0  0  0  0  0
  -18.1719   -8.4806    7.3879 F   0  0  0  0  0  0  0  0  0  0  0  0
  -17.5130   -6.4344    7.0677 F   0  0  0  0  0  0  0  0  0  0  0  0
  -15.8019  -10.4497    1.9180 C   0  0  0  0  0  0  0  0  0  0  0  0
  -16.4312  -10.1634    3.1426 O   0  0  0  0  0  0  0  0  0  0  0  0
 39 40  1  0  0  0
 40 29  1  0  0  0
 29 30  2  0  0  0
 30 31  1  0  0  0
 31 32  2  0  0  0
 32 28  1  0  0  0
 28  1  1  0  0  0
  1  2  1  0  0  0
  2  3  2  0  0  0
  3  4  1  0  0  0
  4  5  2  0  0  0
  5  6  1  0  0  0
  6 10  1  0  0  0
 10 11  2  0  0  0
 11 12  1  0  0  0
 12 13  1  0  0  0
 13 14  2  0  0  0
 13 15  1  0  0  0
 15 18  1  0  0  0
 18 19  1  0  0  0
 19 20  1  0  0  0
 20 21  1  0  0  0
 21 22  1  0  0  0
 22 23  1  0  0  0
 21 24  1  0  0  0
 24 25  1  0  0  0
 24 26  2  0  0  0
 15 16  1  0  0  0
 16 17  2  0  0  0
  6  7  2  0  0  0
  7  8  1  0  0  0
  8  9  2  0  0  0
 32 33  1  0  0  0
 33 34  2  0  0  0
 33 35  1  0  0  0
 35 36  1  0  0  0
 35 37  1  0  0  0
 35 38  1  0  0  0
 34 29  1  0  0  0
  9  1  1  0  0  0
  9  4  1  0  0  0
 16 11  1  0  0  0
 23 18  1  0  0  0
 25 27  1  0  0  0
M  END
> <minimizedAffinity>
11.01656

> <CNNscore>
0.3900171220

> <CNNaffinity>
6.4015350342

> <CNN_VS>
2.4967081547

> <CNNaffinity_variance>
1.5966855288

$$$$
[H]OC(=O)C1([H])C([H])([H])C([H])([H])C([H])(N2C(=O)S/C(=C(/[H])c3c([H])c([H])c4c(c([H])nn4C([H])([H])c4c([H])c([H])c(OC([H])([H])[H])c([H])c4C(F)(F)F)c3[H])C2=O)C([H])([H])C1([H])[H]


 40 44  0  0  0  0  0  0  0  0999 V2000
   -2.3354   -4.3089   15.3524 N   0  0  0  0  0  0  0  0  0  0  0  0
   -1.6168   -5.4633   15.5301 N   0  0  0  0  0  0  0  0  0  0  0  0
   -1.4317   -6.0578   14.3447 C   0  0  0  0  0  0  0  0  0  0  0  0
   -2.0353   -5.2905   13.3706 C   0  0  0  0  0  0  0  0  0  0  0  0
   -2.1566   -5.4407   12.0122 C   0  0  0  0  0  0  0  0  0  0  0  0
   -2.8414   -4.5206   11.2520 C   0  0  0  0  0  0  0  0  0  0  0  0
   -3.4068   -3.4359   11.9079 C   0  0  0  0  0  0  0  0  0  0  0  0
   -3.2697   -3.3099   13.2578 C   0  0  0  0  0  0  0  0  0  0  0  0
   -2.5840   -4.2110   14.0688 C   0  0  0  0  0  0  0  0  0  0  0  0
   -2.9599   -4.6560    9.8088 C   0  0  0  0  0  0  0  0  0  0  0  0
   -2.8881   -3.6232    8.9906 C   0  0  0  0  0  0  0  0  0  0  0  0
   -2.6315   -1.9073    9.4526 S   0  0  0  0  0  0  0  0  0  0  0  0
   -2.7409   -1.2468    7.8032 C   0  0  0  0  0  0  0  0  0  0  0  0
   -2.6315   -0.0212    7.5563 O   0  0  0  0  0  0  0  0  0  0  0  0
   -2.9575   -2.3392    6.9410 N   0  0  0  0  0  0  0  0  0  0  0  0
   -3.0361   -3.5965    7.5442 C   0  0  0  0  0  0  0  0  0  0  0  0
   -3.2237   -4.7185    6.9315 O   0  0  0  0  0  0  0  0  0  0  0  0
   -3.0885   -2.1404    5.4809 C   0  0  0  0  0  0  0  0  0  0  0  0
   -3.8351   -0.8376    5.2371 C   0  0  0  0  0  0  0  0  0  0  0  0
   -4.1836   -0.6724    3.7839 C   0  0  0  0  0  0  0  0  0  0  0  0
   -3.4399   -1.6527    2.9426 C   0  0  0  0  0  0  0  0  0  0  0  0
   -3.6299   -3.0916    3.3142 C   0  0  0  0  0  0  0  0  0  0  0  0
   -3.7666   -3.2897    4.8081 C   0  0  0  0  0  0  0  0  0  0  0  0
   -3.8630   -1.4352    1.5103 C   0  0  0  0  0  0  0  0  0  0  0  0
   -4.1722   -2.5172    0.6834 O   0  0  0  0  0  0  0  0  0  0  0  0
   -3.9552   -0.2872    1.0068 O   0  0  0  0  0  0  0  0  0  0  0  0
   -3.9811   -3.4737    1.0078 H   0  0  0  0  0  0  0  0  0  0  0  0
   -2.6013   -3.4165   16.4687 C   0  0  0  0  0  0  0  0  0  0  0  0
   -2.1566    0.5868   15.0914 C   0  0  0  0  0  0  0  0  0  0  0  0
   -1.1060   -0.2768   15.2345 C   0  0  0  0  0  0  0  0  0  0  0  0
   -1.3131   -1.5347   15.7088 C   0  0  0  0  0  0  0  0  0  0  0  0
   -2.5840   -2.0233   16.0760 C   0  0  0  0  0  0  0  0  0  0  0  0
   -3.6200   -1.1639   15.9361 C   0  0  0  0  0  0  0  0  0  0  0  0
   -3.4078    0.1490   15.4394 C   0  0  0  0  0  0  0  0  0  0  0  0
   -5.0093   -1.5127   16.2764 C   0  0  0  0  0  0  0  0  0  0  0  0
   -5.7871   -1.8830   15.1869 F   0  0  0  0  0  0  0  0  0  0  0  0
   -5.6156   -0.7931   17.2459 F   0  0  0  0  0  0  0  0  0  0  0  0
   -4.9097   -2.8242   16.9299 F   0  0  0  0  0  0  0  0  0  0  0  0
   -3.0514    2.6561   14.1332 C   0  0  0  0  0  0  0  0  0  0  0  0
   -1.9883    1.8687   14.6103 O   0  0  0  0  0  0  0  0  0  0  0  0
 39 40  1  0  0  0
 40 29  1  0  0  0
 29 30  2  0  0  0
 30 31  1  0  0  0
 31 32  2  0  0  0
 32 28  1  0  0  0
 28  1  1  0  0  0
  1  2  1  0  0  0
  2  3  2  0  0  0
  3  4  1  0  0  0
  4  5  2  0  0  0
  5  6  1  0  0  0
  6 10  1  0  0  0
 10 11  2  0  0  0
 11 12  1  0  0  0
 12 13  1  0  0  0
 13 14  2  0  0  0
 13 15  1  0  0  0
 15 18  1  0  0  0
 18 19  1  0  0  0
 19 20  1  0  0  0
 20 21  1  0  0  0
 21 22  1  0  0  0
 22 23  1  0  0  0
 21 24  1  0  0  0
 24 25  1  0  0  0
 24 26  2  0  0  0
 15 16  1  0  0  0
 16 17  2  0  0  0
  6  7  2  0  0  0
  7  8  1  0  0  0
  8  9  2  0  0  0
 32 33  1  0  0  0
 33 34  2  0  0  0
 33 35  1  0  0  0
 35 36  1  0  0  0
 35 37  1  0  0  0
 35 38  1  0  0  0
 34 29  1  0  0  0
  9  1  1  0  0  0
  9  4  1  0  0  0
 16 11  1  0  0  0
 23 18  1  0  0  0
 25 27  1  0  0  0
M  END
> <minimizedAffinity>
-3.49318

> <CNNscore>
0.3863156140

> <CNNaffinity>
6.0733995438

> <CNN_VS>
2.3462491035

> <CNNaffinity_variance>
0.8892846107

$$$$
[H]O[C@]1([H])C([H])([H])N([H])C([H])([H])C([H])([H])[C@@]1([H])N1C(=O)S/C(=C(/[H])c2c([H])c([H])c3c(c([H])nn3C([H])([H])c3c([H])c([H])c(Cl)c([H])c3C(F)(F)F)c2[H])C1=O


 38 42  0  0  0  0  0  0  0  0999 V2000
   -7.7433   -7.4590    6.5858 C   0  0  0  0  0  0  0  0  0  0  0  0
   -8.7694   -6.8399    7.2586 C   0  0  0  0  0  0  0  0  0  0  0  0
   -9.9016   -7.5100    7.6649 C   0  0  0  0  0  0  0  0  0  0  0  0
   -9.9985   -8.8502    7.3805 C   0  0  0  0  0  0  0  0  0  0  0  0
  -10.9879   -9.7512    7.6471 N   0  0  0  0  0  0  0  0  0  0  0  0
  -10.6230  -10.9100    7.1716 N   0  0  0  0  0  0  0  0  0  0  0  0
   -9.4188  -10.8078    6.5955 C   0  0  0  0  0  0  0  0  0  0  0  0
   -8.9899   -9.5034    6.7095 C   0  0  0  0  0  0  0  0  0  0  0  0
   -7.8735   -8.7948    6.3216 C   0  0  0  0  0  0  0  0  0  0  0  0
   -4.0809   -4.9794    8.2876 N   0  0  0  0  0  0  0  0  0  0  0  0
   -4.6714   -5.5208    9.4543 C   0  0  0  0  0  0  0  0  0  0  0  0
   -4.2596   -5.4499   10.6529 O   0  0  0  0  0  0  0  0  0  0  0  0
   -6.1527   -6.3465    8.8958 S   0  0  0  0  0  0  0  0  0  0  0  0
   -5.8630   -6.1205    7.1450 C   0  0  0  0  0  0  0  0  0  0  0  0
   -6.6088   -6.6456    6.2021 C   0  0  0  0  0  0  0  0  0  0  0  0
   -4.6835   -5.2784    7.0798 C   0  0  0  0  0  0  0  0  0  0  0  0
   -4.2755   -4.8670    5.9246 O   0  0  0  0  0  0  0  0  0  0  0  0
   -1.4036   -4.5332    6.5402 O   0  0  0  0  0  0  0  0  0  0  0  0
   -2.3612   -3.6694    7.0805 C   0  0  0  0  0  0  0  0  0  0  0  0
   -1.7048   -2.3229    7.3193 C   0  0  0  0  0  0  0  0  0  0  0  0
   -1.0600   -2.2445    8.6258 N   0  0  0  0  0  0  0  0  0  0  0  0
   -1.9957   -2.2250    9.7184 C   0  0  0  0  0  0  0  0  0  0  0  0
   -3.2547   -2.9672    9.3067 C   0  0  0  0  0  0  0  0  0  0  0  0
   -2.8751   -4.1418    8.4018 C   0  0  0  0  0  0  0  0  0  0  0  0
   -1.8100   -5.4387    6.5573 H   0  0  0  0  0  0  0  0  0  0  0  0
   -0.4658   -1.3805    8.6091 H   0  0  0  0  0  0  0  0  0  0  0  0
  -12.2240   -9.3796    8.3341 C   0  0  0  0  0  0  0  0  0  0  0  0
  -13.0777   -8.4889    7.5522 C   0  0  0  0  0  0  0  0  0  0  0  0
  -13.3762   -8.7906    6.2540 C   0  0  0  0  0  0  0  0  0  0  0  0
  -14.1877   -7.9362    5.5376 C   0  0  0  0  0  0  0  0  0  0  0  0
  -14.7128   -6.7851    6.0787 C   0  0  0  0  0  0  0  0  0  0  0  0
  -15.7424   -5.6815    5.2265 Cl  0  0  0  0  0  0  0  0  0  0  0  0
  -14.3762   -6.5321    7.3952 C   0  0  0  0  0  0  0  0  0  0  0  0
  -13.5741   -7.3482    8.1519 C   0  0  0  0  0  0  0  0  0  0  0  0
  -13.2917   -6.9871    9.5522 C   0  0  0  0  0  0  0  0  0  0  0  0
  -13.5617   -8.0425   10.4357 F   0  0  0  0  0  0  0  0  0  0  0  0
  -11.8967   -6.8283    9.6695 F   0  0  0  0  0  0  0  0  0  0  0  0
  -13.8272   -5.8186    9.9820 F   0  0  0  0  0  0  0  0  0  0  0  0
 18 19  1  0  0  0
 19 20  1  0  0  0
 20 21  1  0  0  0
 21 22  1  0  0  0
 22 23  1  0  0  0
 23 24  1  0  0  0
 24 10  1  0  0  0
 10 11  1  0  0  0
 11 12  2  0  0  0
 11 13  1  0  0  0
 13 14  1  0  0  0
 14 15  2  0  0  0
 15  1  1  0  0  0
  1  2  2  0  0  0
  2  3  1  0  0  0
  3  4  2  0  0  0
  4  5  1  0  0  0
  5 27  1  0  0  0
 27 28  1  0  0  0
 28 29  2  0  0  0
 29 30  1  0  0  0
 30 31  2  0  0  0
 31 32  1  0  0  0
 31 33  1  0  0  0
 33 34  2  0  0  0
 34 35  1  0  0  0
 35 36  1  0  0  0
 35 37  1  0  0  0
 35 38  1  0  0  0
  5  6  1  0  0  0
  6  7  2  0  0  0
  7  8  1  0  0  0
  8  9  2  0  0  0
 14 16  1  0  0  0
 16 17  2  0  0  0
 24 19  1  0  0  0
 16 10  1  0  0  0
  9  1  1  0  0  0
  8  4  1  0  0  0
 34 28  1  0  0  0
 18 25  1  0  0  0
 21 26  1  0  0  0
M  END
> <minimizedAffinity>
-7.61146

> <CNNscore>
0.4474436641

> <CNNaffinity>
6.9731178284

> <CNN_VS>
3.1200773716

> <CNNaffinity_variance>
0.3756182790

$$$$
[H]O[C@]1([H])C([H])([H])N([H])C([H])([H])C([H])([H])[C@@]1([H])N1C(=O)S/C(=C(/[H])c2c([H])c([H])c3c(c([H])nn3C([H])([H])c3c([H])c([H])c(Cl)c([H])c3C(F)(F)F)c2[H])C1=O


 38 42  0  0  0  0  0  0  0  0999 V2000
   -8.5952   -7.6403    7.9694 C   0  0  0  0  0  0  0  0  0  0  0  0
   -9.1586   -8.7608    8.5313 C   0  0  0  0  0  0  0  0  0  0  0  0
  -10.4702   -9.1200    8.3157 C   0  0  0  0  0  0  0  0  0  0  0  0
  -11.2366   -8.3186    7.5052 C   0  0  0  0  0  0  0  0  0  0  0  0
  -12.5439   -8.4192    7.1272 N   0  0  0  0  0  0  0  0  0  0  0  0
  -12.8221   -7.4095    6.3492 N   0  0  0  0  0  0  0  0  0  0  0  0
  -11.7383   -6.6383    6.1977 C   0  0  0  0  0  0  0  0  0  0  0  0
  -10.7056   -7.1894    6.9246 C   0  0  0  0  0  0  0  0  0  0  0  0
   -9.3878   -6.8670    7.1663 C   0  0  0  0  0  0  0  0  0  0  0  0
   -4.6654   -5.5615    6.3281 N   0  0  0  0  0  0  0  0  0  0  0  0
   -5.6208   -5.2805    5.3225 C   0  0  0  0  0  0  0  0  0  0  0  0
   -5.4878   -4.5576    4.2877 O   0  0  0  0  0  0  0  0  0  0  0  0
   -7.0928   -6.1675    5.8066 S   0  0  0  0  0  0  0  0  0  0  0  0
   -6.4808   -6.7261    7.3921 C   0  0  0  0  0  0  0  0  0  0  0  0
   -7.2085   -7.3622    8.2791 C   0  0  0  0  0  0  0  0  0  0  0  0
   -5.0911   -6.3099    7.4098 C   0  0  0  0  0  0  0  0  0  0  0  0
   -4.3507   -6.6550    8.4112 O   0  0  0  0  0  0  0  0  0  0  0  0
   -1.9943   -6.5248    4.7927 O   0  0  0  0  0  0  0  0  0  0  0  0
   -2.7009   -5.3193    4.8406 C   0  0  0  0  0  0  0  0  0  0  0  0
   -1.7306   -4.1888    4.5553 C   0  0  0  0  0  0  0  0  0  0  0  0
   -1.0614   -3.7149    5.7621 N   0  0  0  0  0  0  0  0  0  0  0  0
   -1.9427   -3.0204    6.6623 C   0  0  0  0  0  0  0  0  0  0  0  0
   -3.3527   -3.5562    6.4881 C   0  0  0  0  0  0  0  0  0  0  0  0
   -3.2894   -5.0558    6.1887 C   0  0  0  0  0  0  0  0  0  0  0  0
   -2.6094   -7.2179    5.1485 H   0  0  0  0  0  0  0  0  0  0  0  0
   -0.2742   -3.1011    5.4400 H   0  0  0  0  0  0  0  0  0  0  0  0
  -13.4136   -9.5002    7.5886 C   0  0  0  0  0  0  0  0  0  0  0  0
  -13.9814   -9.2634    8.9133 C   0  0  0  0  0  0  0  0  0  0  0  0
  -13.3135   -9.6794   10.0297 C   0  0  0  0  0  0  0  0  0  0  0  0
  -13.8679   -9.4405   11.2696 C   0  0  0  0  0  0  0  0  0  0  0  0
  -15.0733   -8.7967   11.4308 C   0  0  0  0  0  0  0  0  0  0  0  0
  -15.8109   -8.4648   12.9638 Cl  0  0  0  0  0  0  0  0  0  0  0  0
  -15.7028   -8.3994   10.2662 C   0  0  0  0  0  0  0  0  0  0  0  0
  -15.1953   -8.6118    9.0095 C   0  0  0  0  0  0  0  0  0  0  0  0
  -15.9465   -8.1325    7.8361 C   0  0  0  0  0  0  0  0  0  0  0  0
  -17.3079   -7.9474    8.1187 F   0  0  0  0  0  0  0  0  0  0  0  0
  -15.5021   -6.8240    7.5614 F   0  0  0  0  0  0  0  0  0  0  0  0
  -15.7586   -8.8279    6.6881 F   0  0  0  0  0  0  0  0  0  0  0  0
 18 19  1  0  0  0
 19 20  1  0  0  0
 20 21  1  0  0  0
 21 22  1  0  0  0
 22 23  1  0  0  0
 23 24  1  0  0  0
 24 10  1  0  0  0
 10 11  1  0  0  0
 11 12  2  0  0  0
 11 13  1  0  0  0
 13 14  1  0  0  0
 14 15  2  0  0  0
 15  1  1  0  0  0
  1  2  2  0  0  0
  2  3  1  0  0  0
  3  4  2  0  0  0
  4  5  1  0  0  0
  5 27  1  0  0  0
 27 28  1  0  0  0
 28 29  2  0  0  0
 29 30  1  0  0  0
 30 31  2  0  0  0
 31 32  1  0  0  0
 31 33  1  0  0  0
 33 34  2  0  0  0
 34 35  1  0  0  0
 35 36  1  0  0  0
 35 37  1  0  0  0
 35 38  1  0  0  0
  5  6  1  0  0  0
  6  7  2  0  0  0
  7  8  1  0  0  0
  8  9  2  0  0  0
 14 16  1  0  0  0
 16 17  2  0  0  0
 24 19  1  0  0  0
 16 10  1  0  0  0
  9  1  1  0  0  0
  8  4  1  0  0  0
 34 28  1  0  0  0
 18 25  1  0  0  0
 21 26  1  0  0  0
M  END
> <minimizedAffinity>
6.98015

> <CNNscore>
0.3703942001

> <CNNaffinity>
6.2844486237

> <CNN_VS>
2.3277232647

> <CNNaffinity_variance>
0.8104476929

$$$$
[H]O[C@]1([H])C([H])([H])N([H])C([H])([H])C([H])([H])[C@@]1([H])N1C(=O)S/C(=C(/[H])c2c([H])c([H])c3c(c([H])nn3C([H])([H])c3c([H])c([H])c(Cl)c([H])c3C(F)(F)F)c2[H])C1=O


 38 42  0  0  0  0  0  0  0  0999 V2000
   -7.7506   -8.0231    8.2609 C   0  0  0  0  0  0  0  0  0  0  0  0
   -8.8606   -7.5091    8.8872 C   0  0  0  0  0  0  0  0  0  0  0  0
  -10.1315   -7.9848    8.6542 C   0  0  0  0  0  0  0  0  0  0  0  0
  -10.2838   -9.0141    7.7576 C   0  0  0  0  0  0  0  0  0  0  0  0
  -11.4020   -9.6688    7.3298 N   0  0  0  0  0  0  0  0  0  0  0  0
  -11.0381  -10.5737    6.4633 N   0  0  0  0  0  0  0  0  0  0  0  0
   -9.7096  -10.5415    6.3008 C   0  0  0  0  0  0  0  0  0  0  0  0
   -9.1946   -9.5544    7.1126 C   0  0  0  0  0  0  0  0  0  0  0  0
   -7.9401   -9.0488    7.3759 C   0  0  0  0  0  0  0  0  0  0  0  0
   -4.2446   -5.3496    6.5235 N   0  0  0  0  0  0  0  0  0  0  0  0
   -5.1818   -5.3779    5.4635 C   0  0  0  0  0  0  0  0  0  0  0  0
   -5.1436   -4.7525    4.3595 O   0  0  0  0  0  0  0  0  0  0  0  0
   -6.4660   -6.4981    5.9964 S   0  0  0  0  0  0  0  0  0  0  0  0
   -5.8390   -6.7521    7.6525 C   0  0  0  0  0  0  0  0  0  0  0  0
   -6.4683   -7.4321    8.5813 C   0  0  0  0  0  0  0  0  0  0  0  0
   -4.5663   -6.0559    7.6677 C   0  0  0  0  0  0  0  0  0  0  0  0
   -3.8259   -6.1352    8.7239 O   0  0  0  0  0  0  0  0  0  0  0  0
   -1.3050   -5.9406    5.3278 O   0  0  0  0  0  0  0  0  0  0  0  0
   -2.2457   -4.9262    5.1251 C   0  0  0  0  0  0  0  0  0  0  0  0
   -1.5067   -3.6720    4.6987 C   0  0  0  0  0  0  0  0  0  0  0  0
   -1.0609   -2.8770    5.8380 N   0  0  0  0  0  0  0  0  0  0  0  0
   -2.1438   -2.2564    6.5534 C   0  0  0  0  0  0  0  0  0  0  0  0
   -3.3920   -3.1073    6.3999 C   0  0  0  0  0  0  0  0  0  0  0  0
   -2.9950   -4.5853    6.3722 C   0  0  0  0  0  0  0  0  0  0  0  0
   -1.7941   -6.6850    5.7659 H   0  0  0  0  0  0  0  0  0  0  0  0
   -0.3910   -2.1660    5.4564 H   0  0  0  0  0  0  0  0  0  0  0  0
  -12.7422   -9.3252    7.8028 C   0  0  0  0  0  0  0  0  0  0  0  0
  -13.4692   -8.4410    6.8955 C   0  0  0  0  0  0  0  0  0  0  0  0
  -13.8146   -8.8738    5.6470 C   0  0  0  0  0  0  0  0  0  0  0  0
  -14.5045   -8.0221    4.8101 C   0  0  0  0  0  0  0  0  0  0  0  0
  -14.8619   -6.7463    5.1820 C   0  0  0  0  0  0  0  0  0  0  0  0
  -15.7342   -5.6387    4.1737 Cl  0  0  0  0  0  0  0  0  0  0  0  0
  -14.4854   -6.3640    6.4557 C   0  0  0  0  0  0  0  0  0  0  0  0
  -13.7993   -7.1713    7.3272 C   0  0  0  0  0  0  0  0  0  0  0  0
  -13.4610   -6.6640    8.6685 C   0  0  0  0  0  0  0  0  0  0  0  0
  -12.1120   -6.2932    8.7694 F   0  0  0  0  0  0  0  0  0  0  0  0
  -14.1368   -5.4390    8.8347 F   0  0  0  0  0  0  0  0  0  0  0  0
  -13.8517   -7.4380    9.7103 F   0  0  0  0  0  0  0  0  0  0  0  0
 18 19  1  0  0  0
 19 20  1  0  0  0
 20 21  1  0  0  0
 21 22  1  0  0  0
 22 23  1  0  0  0
 23 24  1  0  0  0
 24 10  1  0  0  0
 10 11  1  0  0  0
 11 12  2  0  0  0
 11 13  1  0  0  0
 13 14  1  0  0  0
 14 15  2  0  0  0
 15  1  1  0  0  0
  1  2  2  0  0  0
  2  3  1  0  0  0
  3  4  2  0  0  0
  4  5  1  0  0  0
  5 27  1  0  0  0
 27 28  1  0  0  0
 28 29  2  0  0  0
 29 30  1  0  0  0
 30 31  2  0  0  0
 31 32  1  0  0  0
 31 33  1  0  0  0
 33 34  2  0  0  0
 34 35  1  0  0  0
 35 36  1  0  0  0
 35 37  1  0  0  0
 35 38  1  0  0  0
  5  6  1  0  0  0
  6  7  2  0  0  0
  7  8  1  0  0  0
  8  9  2  0  0  0
 14 16  1  0  0  0
 16 17  2  0  0  0
 24 19  1  0  0  0
 16 10  1  0  0  0
  9  1  1  0  0  0
  8  4  1  0  0  0
 34 28  1  0  0  0
 18 25  1  0  0  0
 21 26  1  0  0  0
M  END
> <minimizedAffinity>
-8.15734

> <CNNscore>
0.3409293294

> <CNNaffinity>
6.9543128014

> <CNN_VS>
2.3709292412

> <CNNaffinity_variance>
0.3185978830

$$$$
[H]O[C@]1([H])C([H])([H])N([H])C([H])([H])C([H])([H])[C@@]1([H])N1C(=O)S/C(=C(/[H])c2c([H])c([H])c3c(c([H])nn3C([H])([H])c3c([H])c([H])c(Cl)c([H])c3C(F)(F)F)c2[H])C1=O


 38 42  0  0  0  0  0  0  0  0999 V2000
   -7.1214   -8.9047    7.0634 C   0  0  0  0  0  0  0  0  0  0  0  0
   -7.7531   -8.3488    8.1500 C   0  0  0  0  0  0  0  0  0  0  0  0
   -7.1695   -7.3764    8.9308 C   0  0  0  0  0  0  0  0  0  0  0  0
   -5.9051   -6.9533    8.6013 C   0  0  0  0  0  0  0  0  0  0  0  0
   -5.0909   -6.0283    9.1875 N   0  0  0  0  0  0  0  0  0  0  0  0
   -3.9762   -5.9796    8.5115 N   0  0  0  0  0  0  0  0  0  0  0  0
   -4.0232   -6.8455    7.4915 C   0  0  0  0  0  0  0  0  0  0  0  0
   -5.2425   -7.4867    7.5194 C   0  0  0  0  0  0  0  0  0  0  0  0
   -5.8638   -8.4575    6.7641 C   0  0  0  0  0  0  0  0  0  0  0  0
   -7.6623  -10.8276    2.7660 N   0  0  0  0  0  0  0  0  0  0  0  0
   -6.6554   -9.8552    2.5577 C   0  0  0  0  0  0  0  0  0  0  0  0
   -5.9843   -9.6271    1.5047 O   0  0  0  0  0  0  0  0  0  0  0  0
   -6.5088   -8.9852    4.1101 S   0  0  0  0  0  0  0  0  0  0  0  0
   -7.6280  -10.0306    5.0347 C   0  0  0  0  0  0  0  0  0  0  0  0
   -7.8342   -9.9267    6.3261 C   0  0  0  0  0  0  0  0  0  0  0  0
   -8.1800  -10.9346    4.0434 C   0  0  0  0  0  0  0  0  0  0  0  0
   -9.1010  -11.7664    4.4039 O   0  0  0  0  0  0  0  0  0  0  0  0
   -6.6212  -13.5394    1.3580 O   0  0  0  0  0  0  0  0  0  0  0  0
   -7.8566  -13.1258    1.8655 C   0  0  0  0  0  0  0  0  0  0  0  0
   -8.9483  -13.8779    1.1283 C   0  0  0  0  0  0  0  0  0  0  0  0
   -9.3537  -13.2032   -0.1003 N   0  0  0  0  0  0  0  0  0  0  0  0
  -10.0613  -11.9734    0.1365 C   0  0  0  0  0  0  0  0  0  0  0  0
   -9.5980  -11.3803    1.4553 C   0  0  0  0  0  0  0  0  0  0  0  0
   -8.1067  -11.6696    1.6425 C   0  0  0  0  0  0  0  0  0  0  0  0
   -5.9475  -12.9138    1.7321 H   0  0  0  0  0  0  0  0  0  0  0  0
   -9.9391  -13.8906   -0.6338 H   0  0  0  0  0  0  0  0  0  0  0  0
   -5.4815   -5.2849   10.3845 C   0  0  0  0  0  0  0  0  0  0  0  0
   -4.3924   -4.5023   10.9631 C   0  0  0  0  0  0  0  0  0  0  0  0
   -3.5907   -3.7439   10.1586 C   0  0  0  0  0  0  0  0  0  0  0  0
   -2.5715   -3.0103   10.7289 C   0  0  0  0  0  0  0  0  0  0  0  0
   -2.3265   -3.0102   12.0829 C   0  0  0  0  0  0  0  0  0  0  0  0
   -1.0658   -2.1026   12.8516 Cl  0  0  0  0  0  0  0  0  0  0  0  0
   -3.1694   -3.7960   12.8461 C   0  0  0  0  0  0  0  0  0  0  0  0
   -4.1971   -4.5438   12.3297 C   0  0  0  0  0  0  0  0  0  0  0  0
   -5.0432   -5.3355   13.2399 C   0  0  0  0  0  0  0  0  0  0  0  0
   -4.7965   -6.7117   13.1290 F   0  0  0  0  0  0  0  0  0  0  0  0
   -4.6269   -5.0466   14.5545 F   0  0  0  0  0  0  0  0  0  0  0  0
   -6.3690   -5.0556   13.2095 F   0  0  0  0  0  0  0  0  0  0  0  0
 18 19  1  0  0  0
 19 20  1  0  0  0
 20 21  1  0  0  0
 21 22  1  0  0  0
 22 23  1  0  0  0
 23 24  1  0  0  0
 24 10  1  0  0  0
 10 11  1  0  0  0
 11 12  2  0  0  0
 11 13  1  0  0  0
 13 14  1  0  0  0
 14 15  2  0  0  0
 15  1  1  0  0  0
  1  2  2  0  0  0
  2  3  1  0  0  0
  3  4  2  0  0  0
  4  5  1  0  0  0
  5 27  1  0  0  0
 27 28  1  0  0  0
 28 29  2  0  0  0
 29 30  1  0  0  0
 30 31  2  0  0  0
 31 32  1  0  0  0
 31 33  1  0  0  0
 33 34  2  0  0  0
 34 35  1  0  0  0
 35 36  1  0  0  0
 35 37  1  0  0  0
 35 38  1  0  0  0
  5  6  1  0  0  0
  6  7  2  0  0  0
  7  8  1  0  0  0
  8  9  2  0  0  0
 14 16  1  0  0  0
 16 17  2  0  0  0
 24 19  1  0  0  0
 16 10  1  0  0  0
  9  1  1  0  0  0
  8  4  1  0  0  0
 34 28  1  0  0  0
 18 25  1  0  0  0
 21 26  1  0  0  0
M  END
> <minimizedAffinity>
18.01070

> <CNNscore>
0.3021030724

> <CNNaffinity>
5.7380161285

> <CNN_VS>
1.7334723473

> <CNNaffinity_variance>
0.6326082349

$$$$
[H]O[C@]1([H])C([H])([H])N([H])C([H])([H])C([H])([H])[C@@]1([H])N1C(=O)S/C(=C(/[H])c2c([H])c([H])c3c(c([H])nn3C([H])([H])c3c([H])c([H])c(Cl)c([H])c3C(F)(F)F)c2[H])C1=O


 38 42  0  0  0  0  0  0  0  0999 V2000
  -12.5856   -8.1099    7.7748 C   0  0  0  0  0  0  0  0  0  0  0  0
  -11.7159   -9.0940    7.3700 C   0  0  0  0  0  0  0  0  0  0  0  0
  -10.3725   -9.0672    7.6707 C   0  0  0  0  0  0  0  0  0  0  0  0
   -9.8938   -8.0095    8.4044 C   0  0  0  0  0  0  0  0  0  0  0  0
   -8.6320   -7.7187    8.8352 N   0  0  0  0  0  0  0  0  0  0  0  0
   -8.6757   -6.5944    9.4955 N   0  0  0  0  0  0  0  0  0  0  0  0
   -9.9300   -6.1268    9.5175 C   0  0  0  0  0  0  0  0  0  0  0  0
  -10.7357   -7.0064    8.8277 C   0  0  0  0  0  0  0  0  0  0  0  0
  -12.0738   -7.0729    8.5055 C   0  0  0  0  0  0  0  0  0  0  0  0
  -15.9860   -6.2307    5.0611 N   0  0  0  0  0  0  0  0  0  0  0  0
  -14.8550   -5.4376    4.7532 C   0  0  0  0  0  0  0  0  0  0  0  0
  -14.7486   -4.5185    3.8842 O   0  0  0  0  0  0  0  0  0  0  0  0
  -13.5691   -5.9972    5.8583 S   0  0  0  0  0  0  0  0  0  0  0  0
  -14.4843   -7.3658    6.5579 C   0  0  0  0  0  0  0  0  0  0  0  0
  -13.9743   -8.2444    7.3880 C   0  0  0  0  0  0  0  0  0  0  0  0
  -15.8150   -7.2361    5.9946 C   0  0  0  0  0  0  0  0  0  0  0  0
  -16.7398   -8.0479    6.3891 O   0  0  0  0  0  0  0  0  0  0  0  0
  -17.9038   -7.8354    3.0198 O   0  0  0  0  0  0  0  0  0  0  0  0
  -18.1178   -7.1838    4.2382 C   0  0  0  0  0  0  0  0  0  0  0  0
  -19.5626   -6.7236    4.2829 C   0  0  0  0  0  0  0  0  0  0  0  0
  -19.7446   -5.4092    3.6763 N   0  0  0  0  0  0  0  0  0  0  0  0
  -19.1555   -4.3450    4.4443 C   0  0  0  0  0  0  0  0  0  0  0  0
  -17.9738   -4.8920    5.2252 C   0  0  0  0  0  0  0  0  0  0  0  0
  -17.2690   -5.9633    4.3896 C   0  0  0  0  0  0  0  0  0  0  0  0
  -16.9228   -7.9688    2.9485 H   0  0  0  0  0  0  0  0  0  0  0  0
  -20.7790   -5.2785    3.5628 H   0  0  0  0  0  0  0  0  0  0  0  0
   -7.4838   -8.5730    8.5357 C   0  0  0  0  0  0  0  0  0  0  0  0
   -7.3034   -8.8239    7.1081 C   0  0  0  0  0  0  0  0  0  0  0  0
   -8.0470   -9.7828    6.4814 C   0  0  0  0  0  0  0  0  0  0  0  0
   -7.8615   -9.9983    5.1318 C   0  0  0  0  0  0  0  0  0  0  0  0
   -6.9531   -9.2835    4.3852 C   0  0  0  0  0  0  0  0  0  0  0  0
   -6.6855   -9.5084    2.6876 Cl  0  0  0  0  0  0  0  0  0  0  0  0
   -6.2298   -8.3275    5.0732 C   0  0  0  0  0  0  0  0  0  0  0  0
   -6.3754   -8.0732    6.4133 C   0  0  0  0  0  0  0  0  0  0  0  0
   -5.5598   -7.0192    7.0418 C   0  0  0  0  0  0  0  0  0  0  0  0
   -4.6239   -7.5425    7.9459 F   0  0  0  0  0  0  0  0  0  0  0  0
   -4.7467   -6.4636    6.0343 F   0  0  0  0  0  0  0  0  0  0  0  0
   -6.2452   -5.9765    7.5708 F   0  0  0  0  0  0  0  0  0  0  0  0
 18 19  1  0  0  0
 19 20  1  0  0  0
 20 21  1  0  0  0
 21 22  1  0  0  0
 22 23  1  0  0  0
 23 24  1  0  0  0
 24 10  1  0  0  0
 10 11  1  0  0  0
 11 12  2  0  0  0
 11 13  1  0  0  0
 13 14  1  0  0  0
 14 15  2  0  0  0
 15  1  1  0  0  0
  1  2  2  0  0  0
  2  3  1  0  0  0
  3  4  2  0  0  0
  4  5  1  0  0  0
  5 27  1  0  0  0
 27 28  1  0  0  0
 28 29  2  0  0  0
 29 30  1  0  0  0
 30 31  2  0  0  0
 31 32  1  0  0  0
 31 33  1  0  0  0
 33 34  2  0  0  0
 34 35  1  0  0  0
 35 36  1  0  0  0
 35 37  1  0  0  0
 35 38  1  0  0  0
  5  6  1  0  0  0
  6  7  2  0  0  0
  7  8  1  0  0  0
  8  9  2  0  0  0
 14 16  1  0  0  0
 16 17  2  0  0  0
 24 19  1  0  0  0
 16 10  1  0  0  0
  9  1  1  0  0  0
  8  4  1  0  0  0
 34 28  1  0  0  0
 18 25  1  0  0  0
 21 26  1  0  0  0
M  END
> <minimizedAffinity>
1.92021

> <CNNscore>
0.2805543840

> <CNNaffinity>
6.8922758102

> <CNN_VS>
1.9336582422

> <CNNaffinity_variance>
1.0111718178

$$$$
[H]O[C@]1([H])C([H])([H])N([H])C([H])([H])C([H])([H])[C@@]1([H])N1C(=O)S/C(=C(/[H])c2c([H])c([H])c3c(c([H])nn3C([H])([H])c3c([H])c([H])c(Cl)c([H])c3C(F)(F)F)c2[H])C1=O


 38 42  0  0  0  0  0  0  0  0999 V2000
   -9.9767   -7.7699    8.3481 C   0  0  0  0  0  0  0  0  0  0  0  0
  -10.8580   -6.7465    8.6027 C   0  0  0  0  0  0  0  0  0  0  0  0
  -12.1713   -6.7779    8.1905 C   0  0  0  0  0  0  0  0  0  0  0  0
  -12.6067   -7.8809    7.4976 C   0  0  0  0  0  0  0  0  0  0  0  0
  -13.8283   -8.1786    6.9673 N   0  0  0  0  0  0  0  0  0  0  0  0
  -13.7496   -9.3476    6.3933 N   0  0  0  0  0  0  0  0  0  0  0  0
  -12.5109   -9.8381    6.5253 C   0  0  0  0  0  0  0  0  0  0  0  0
  -11.7526   -8.9252    7.2255 C   0  0  0  0  0  0  0  0  0  0  0  0
  -10.4459   -8.8532    7.6572 C   0  0  0  0  0  0  0  0  0  0  0  0
   -5.6007   -6.5024    7.0435 N   0  0  0  0  0  0  0  0  0  0  0  0
   -6.3617   -6.2812    5.8709 C   0  0  0  0  0  0  0  0  0  0  0  0
   -5.9871   -5.7673    4.7723 O   0  0  0  0  0  0  0  0  0  0  0  0
   -7.9994   -6.8842    6.2483 S   0  0  0  0  0  0  0  0  0  0  0  0
   -7.6931   -7.2354    7.9754 C   0  0  0  0  0  0  0  0  0  0  0  0
   -8.6181   -7.6162    8.8241 C   0  0  0  0  0  0  0  0  0  0  0  0
   -6.2722   -6.9970    8.1461 C   0  0  0  0  0  0  0  0  0  0  0  0
   -5.7308   -7.2550    9.2909 O   0  0  0  0  0  0  0  0  0  0  0  0
   -2.8787   -8.2356    6.9606 O   0  0  0  0  0  0  0  0  0  0  0  0
   -3.3598   -7.1541    6.2164 C   0  0  0  0  0  0  0  0  0  0  0  0
   -2.1703   -6.3802    5.6805 C   0  0  0  0  0  0  0  0  0  0  0  0
   -1.6929   -5.3745    6.6235 N   0  0  0  0  0  0  0  0  0  0  0  0
   -2.6070   -4.2763    6.7906 C   0  0  0  0  0  0  0  0  0  0  0  0
   -4.0217   -4.7650    6.5352 C   0  0  0  0  0  0  0  0  0  0  0  0
   -4.1592   -6.2015    7.0451 C   0  0  0  0  0  0  0  0  0  0  0  0
   -3.6648   -8.6147    7.4335 H   0  0  0  0  0  0  0  0  0  0  0  0
   -0.7620   -5.0524    6.2636 H   0  0  0  0  0  0  0  0  0  0  0  0
  -14.9669   -7.2656    7.0572 C   0  0  0  0  0  0  0  0  0  0  0  0
  -15.8545   -7.3286    5.8990 C   0  0  0  0  0  0  0  0  0  0  0  0
  -16.8382   -8.2742    5.8400 C   0  0  0  0  0  0  0  0  0  0  0  0
  -17.6665   -8.3108    4.7379 C   0  0  0  0  0  0  0  0  0  0  0  0
  -17.5429   -7.4295    3.6883 C   0  0  0  0  0  0  0  0  0  0  0  0
  -18.5600   -7.4266    2.2848 Cl  0  0  0  0  0  0  0  0  0  0  0  0
  -16.5302   -6.4959    3.8038 C   0  0  0  0  0  0  0  0  0  0  0  0
  -15.6799   -6.4159    4.8773 C   0  0  0  0  0  0  0  0  0  0  0  0
  -14.6426   -5.3697    4.9013 C   0  0  0  0  0  0  0  0  0  0  0  0
  -14.8276   -4.4177    3.8880 F   0  0  0  0  0  0  0  0  0  0  0  0
  -14.8346   -4.6180    6.0774 F   0  0  0  0  0  0  0  0  0  0  0  0
  -13.3611   -5.8075    4.9558 F   0  0  0  0  0  0  0  0  0  0  0  0
 18 19  1  0  0  0
 19 20  1  0  0  0
 20 21  1  0  0  0
 21 22  1  0  0  0
 22 23  1  0  0  0
 23 24  1  0  0  0
 24 10  1  0  0  0
 10 11  1  0  0  0
 11 12  2  0  0  0
 11 13  1  0  0  0
 13 14  1  0  0  0
 14 15  2  0  0  0
 15  1  1  0  0  0
  1  2  2  0  0  0
  2  3  1  0  0  0
  3  4  2  0  0  0
  4  5  1  0  0  0
  5 27  1  0  0  0
 27 28  1  0  0  0
 28 29  2  0  0  0
 29 30  1  0  0  0
 30 31  2  0  0  0
 31 32  1  0  0  0
 31 33  1  0  0  0
 33 34  2  0  0  0
 34 35  1  0  0  0
 35 36  1  0  0  0
 35 37  1  0  0  0
 35 38  1  0  0  0
  5  6  1  0  0  0
  6  7  2  0  0  0
  7  8  1  0  0  0
  8  9  2  0  0  0
 14 16  1  0  0  0
 16 17  2  0  0  0
 24 19  1  0  0  0
 16 10  1  0  0  0
  9  1  1  0  0  0
  8  4  1  0  0  0
 34 28  1  0  0  0
 18 25  1  0  0  0
 21 26  1  0  0  0
M  END
> <minimizedAffinity>
-6.88483

> <CNNscore>
0.2695266306

> <CNNaffinity>
6.8593802452

> <CNN_VS>
1.8487856388

> <CNNaffinity_variance>
0.2222348750

$$$$
[H]O[C@]1([H])C([H])([H])N([H])C([H])([H])C([H])([H])[C@@]1([H])N1C(=O)S/C(=C(/[H])c2c([H])c([H])c3c(c([H])nn3C([H])([H])c3c([H])c([H])c(Cl)c([H])c3C(F)(F)F)c2[H])C1=O


 38 42  0  0  0  0  0  0  0  0999 V2000
  -10.3003   -7.8237    8.5573 C   0  0  0  0  0  0  0  0  0  0  0  0
  -11.1335   -6.7338    8.6382 C   0  0  0  0  0  0  0  0  0  0  0  0
  -12.4805   -6.8070    8.3626 C   0  0  0  0  0  0  0  0  0  0  0  0
  -13.0010   -8.0229    7.9925 C   0  0  0  0  0  0  0  0  0  0  0  0
  -14.2730   -8.3863    7.6578 N   0  0  0  0  0  0  0  0  0  0  0  0
  -14.2718   -9.6595    7.3732 N   0  0  0  0  0  0  0  0  0  0  0  0
  -13.0358  -10.1558    7.5083 C   0  0  0  0  0  0  0  0  0  0  0  0
  -12.1968   -9.1362    7.9021 C   0  0  0  0  0  0  0  0  0  0  0  0
  -10.8538   -9.0187    8.1876 C   0  0  0  0  0  0  0  0  0  0  0  0
   -6.1089   -6.7046    6.6501 N   0  0  0  0  0  0  0  0  0  0  0  0
   -6.9960   -6.6127    5.5512 C   0  0  0  0  0  0  0  0  0  0  0  0
   -6.7500   -6.2215    4.3690 O   0  0  0  0  0  0  0  0  0  0  0  0
   -8.5751   -7.1715    6.1694 S   0  0  0  0  0  0  0  0  0  0  0  0
   -8.0777   -7.3323    7.8802 C   0  0  0  0  0  0  0  0  0  0  0  0
   -8.8998   -7.6187    8.8617 C   0  0  0  0  0  0  0  0  0  0  0  0
   -6.6498   -7.0763    7.8669 C   0  0  0  0  0  0  0  0  0  0  0  0
   -5.9835   -7.2078    8.9663 O   0  0  0  0  0  0  0  0  0  0  0  0
   -4.3178   -4.0274    6.4381 O   0  0  0  0  0  0  0  0  0  0  0  0
   -4.2302   -5.1913    7.2078 C   0  0  0  0  0  0  0  0  0  0  0  0
   -2.7739   -5.4119    7.5706 C   0  0  0  0  0  0  0  0  0  0  0  0
   -2.0566   -6.1676    6.5492 N   0  0  0  0  0  0  0  0  0  0  0  0
   -2.4694   -7.5433    6.4687 C   0  0  0  0  0  0  0  0  0  0  0  0
   -3.9176   -7.6534    6.9115 C   0  0  0  0  0  0  0  0  0  0  0  0
   -4.6796   -6.4049    6.4606 C   0  0  0  0  0  0  0  0  0  0  0  0
   -5.2422   -4.0059    6.0771 H   0  0  0  0  0  0  0  0  0  0  0  0
   -1.0375   -6.0818    6.7815 H   0  0  0  0  0  0  0  0  0  0  0  0
  -15.3802   -7.4316    7.6283 C   0  0  0  0  0  0  0  0  0  0  0  0
  -16.1388   -7.4606    6.3805 C   0  0  0  0  0  0  0  0  0  0  0  0
  -17.2518   -8.2449    6.2731 C   0  0  0  0  0  0  0  0  0  0  0  0
  -17.9538   -8.2522    5.0860 C   0  0  0  0  0  0  0  0  0  0  0  0
  -17.5779   -7.4980    3.9981 C   0  0  0  0  0  0  0  0  0  0  0  0
  -18.4268   -7.4644    2.4874 Cl  0  0  0  0  0  0  0  0  0  0  0  0
  -16.4444   -6.7250    4.1657 C   0  0  0  0  0  0  0  0  0  0  0  0
  -15.7106   -6.6811    5.3239 C   0  0  0  0  0  0  0  0  0  0  0  0
  -14.5250   -5.8091    5.3958 C   0  0  0  0  0  0  0  0  0  0  0  0
  -13.3279   -6.5374    5.3343 F   0  0  0  0  0  0  0  0  0  0  0  0
  -14.4921   -5.0500    4.2094 F   0  0  0  0  0  0  0  0  0  0  0  0
  -14.5153   -4.9049    6.4054 F   0  0  0  0  0  0  0  0  0  0  0  0
 18 19  1  0  0  0
 19 20  1  0  0  0
 20 21  1  0  0  0
 21 22  1  0  0  0
 22 23  1  0  0  0
 23 24  1  0  0  0
 24 10  1  0  0  0
 10 11  1  0  0  0
 11 12  2  0  0  0
 11 13  1  0  0  0
 13 14  1  0  0  0
 14 15  2  0  0  0
 15  1  1  0  0  0
  1  2  2  0  0  0
  2  3  1  0  0  0
  3  4  2  0  0  0
  4  5  1  0  0  0
  5 27  1  0  0  0
 27 28  1  0  0  0
 28 29  2  0  0  0
 29 30  1  0  0  0
 30 31  2  0  0  0
 31 32  1  0  0  0
 31 33  1  0  0  0
 33 34  2  0  0  0
 34 35  1  0  0  0
 35 36  1  0  0  0
 35 37  1  0  0  0
 35 38  1  0  0  0
  5  6  1  0  0  0
  6  7  2  0  0  0
  7  8  1  0  0  0
  8  9  2  0  0  0
 14 16  1  0  0  0
 16 17  2  0  0  0
 24 19  1  0  0  0
 16 10  1  0  0  0
  9  1  1  0  0  0
  8  4  1  0  0  0
 34 28  1  0  0  0
 18 25  1  0  0  0
 21 26  1  0  0  0
M  END
> <minimizedAffinity>
-6.84601

> <CNNscore>
0.2440404892

> <CNNaffinity>
6.9498558044

> <CNN_VS>
1.6960462332

> <CNNaffinity_variance>
0.2062919140

$$$$
[H]O[C@]1([H])C([H])([H])N([H])C([H])([H])C([H])([H])[C@@]1([H])N1C(=O)S/C(=C(/[H])c2c([H])c([H])c3c(c([H])nn3C([H])([H])c3c([H])c([H])c(Cl)c([H])c3C(F)(F)F)c2[H])C1=O


 38 42  0  0  0  0  0  0  0  0999 V2000
   -7.0058   -7.1168    7.0801 C   0  0  0  0  0  0  0  0  0  0  0  0
   -8.2369   -6.5093    7.0172 C   0  0  0  0  0  0  0  0  0  0  0  0
   -9.4168   -7.2186    7.0398 C   0  0  0  0  0  0  0  0  0  0  0  0
   -9.3483   -8.5875    7.1285 C   0  0  0  0  0  0  0  0  0  0  0  0
  -10.3331   -9.5315    7.1610 N   0  0  0  0  0  0  0  0  0  0  0  0
   -9.7699  -10.7054    7.2445 N   0  0  0  0  0  0  0  0  0  0  0  0
   -8.4380  -10.5716    7.2685 C   0  0  0  0  0  0  0  0  0  0  0  0
   -8.1329   -9.2299    7.1945 C   0  0  0  0  0  0  0  0  0  0  0  0
   -6.9762   -8.4814    7.1697 C   0  0  0  0  0  0  0  0  0  0  0  0
   -3.9619   -4.6845    9.7776 N   0  0  0  0  0  0  0  0  0  0  0  0
   -4.8085   -5.3034   10.7278 C   0  0  0  0  0  0  0  0  0  0  0  0
   -4.7117   -5.2973   11.9934 O   0  0  0  0  0  0  0  0  0  0  0  0
   -6.0775   -6.1181    9.7717 S   0  0  0  0  0  0  0  0  0  0  0  0
   -5.3664   -5.7841    8.1646 C   0  0  0  0  0  0  0  0  0  0  0  0
   -5.8365   -6.2641    7.0378 C   0  0  0  0  0  0  0  0  0  0  0  0
   -4.2341   -4.9209    8.4429 C   0  0  0  0  0  0  0  0  0  0  0  0
   -3.5630   -4.4352    7.4510 O   0  0  0  0  0  0  0  0  0  0  0  0
   -2.9065   -1.7050    9.1222 O   0  0  0  0  0  0  0  0  0  0  0  0
   -3.2059   -2.3866   10.3057 C   0  0  0  0  0  0  0  0  0  0  0  0
   -2.3775   -1.7826   11.4237 C   0  0  0  0  0  0  0  0  0  0  0  0
   -1.0602   -2.4003   11.5333 N   0  0  0  0  0  0  0  0  0  0  0  0
   -1.1091   -3.7567   12.0099 C   0  0  0  0  0  0  0  0  0  0  0  0
   -2.4350   -4.3770   11.6063 C   0  0  0  0  0  0  0  0  0  0  0  0
   -2.8489   -3.8359   10.2357 C   0  0  0  0  0  0  0  0  0  0  0  0
   -3.3267   -2.2279    8.3905 H   0  0  0  0  0  0  0  0  0  0  0  0
   -0.4994   -1.7854   12.1715 H   0  0  0  0  0  0  0  0  0  0  0  0
  -11.7524   -9.1884    7.0848 C   0  0  0  0  0  0  0  0  0  0  0  0
  -12.1546   -8.1642    8.0452 C   0  0  0  0  0  0  0  0  0  0  0  0
  -11.3780   -7.9075    9.1390 C   0  0  0  0  0  0  0  0  0  0  0  0
  -11.7766   -6.9327   10.0294 C   0  0  0  0  0  0  0  0  0  0  0  0
  -12.9312   -6.2031    9.8615 C   0  0  0  0  0  0  0  0  0  0  0  0
  -13.4745   -4.9635   10.9444 Cl  0  0  0  0  0  0  0  0  0  0  0  0
  -13.6759   -6.5070    8.7375 C   0  0  0  0  0  0  0  0  0  0  0  0
  -13.3248   -7.4657    7.8213 C   0  0  0  0  0  0  0  0  0  0  0  0
  -14.1884   -7.6969    6.6500 C   0  0  0  0  0  0  0  0  0  0  0  0
  -14.7332   -8.9893    6.6410 F   0  0  0  0  0  0  0  0  0  0  0  0
  -15.3249   -6.8780    6.8008 F   0  0  0  0  0  0  0  0  0  0  0  0
  -13.6580   -7.3635    5.4482 F   0  0  0  0  0  0  0  0  0  0  0  0
 18 19  1  0  0  0
 19 20  1  0  0  0
 20 21  1  0  0  0
 21 22  1  0  0  0
 22 23  1  0  0  0
 23 24  1  0  0  0
 24 10  1  0  0  0
 10 11  1  0  0  0
 11 12  2  0  0  0
 11 13  1  0  0  0
 13 14  1  0  0  0
 14 15  2  0  0  0
 15  1  1  0  0  0
  1  2  2  0  0  0
  2  3  1  0  0  0
  3  4  2  0  0  0
  4  5  1  0  0  0
  5 27  1  0  0  0
 27 28  1  0  0  0
 28 29  2  0  0  0
 29 30  1  0  0  0
 30 31  2  0  0  0
 31 32  1  0  0  0
 31 33  1  0  0  0
 33 34  2  0  0  0
 34 35  1  0  0  0
 35 36  1  0  0  0
 35 37  1  0  0  0
 35 38  1  0  0  0
  5  6  1  0  0  0
  6  7  2  0  0  0
  7  8  1  0  0  0
  8  9  2  0  0  0
 14 16  1  0  0  0
 16 17  2  0  0  0
 24 19  1  0  0  0
 16 10  1  0  0  0
  9  1  1  0  0  0
  8  4  1  0  0  0
 34 28  1  0  0  0
 18 25  1  0  0  0
 21 26  1  0  0  0
M  END
> <minimizedAffinity>
-6.52936

> <CNNscore>
0.2011920214

> <CNNaffinity>
6.4960975647

> <CNN_VS>
1.3069629669

> <CNNaffinity_variance>
0.0779497996

$$$$
[H]O[C@]1([H])C([H])([H])N([H])C([H])([H])C([H])([H])[C@@]1([H])N1C(=O)S/C(=C(/[H])c2c([H])c([H])c3c(c([H])nn3C([H])([H])c3c([H])c([H])c(Cl)c([H])c3C(F)(F)F)c2[H])C1=O


 38 42  0  0  0  0  0  0  0  0999 V2000
   -9.6830   -7.7182    8.4619 C   0  0  0  0  0  0  0  0  0  0  0  0
  -10.1376   -8.6343    7.5439 C   0  0  0  0  0  0  0  0  0  0  0  0
  -11.4640   -8.7332    7.1880 C   0  0  0  0  0  0  0  0  0  0  0  0
  -12.3595   -7.8771    7.7810 C   0  0  0  0  0  0  0  0  0  0  0  0
  -13.7104   -7.7536    7.6330 N   0  0  0  0  0  0  0  0  0  0  0  0
  -14.1206   -6.7960    8.4184 N   0  0  0  0  0  0  0  0  0  0  0  0
  -13.0825   -6.2774    9.0860 C   0  0  0  0  0  0  0  0  0  0  0  0
  -11.9400   -6.9462    8.7038 C   0  0  0  0  0  0  0  0  0  0  0  0
  -10.6029   -6.8807    9.0306 C   0  0  0  0  0  0  0  0  0  0  0  0
   -5.4214   -6.5795    6.7297 N   0  0  0  0  0  0  0  0  0  0  0  0
   -6.3058   -6.1566    5.7091 C   0  0  0  0  0  0  0  0  0  0  0  0
   -6.0344   -5.5283    4.6400 O   0  0  0  0  0  0  0  0  0  0  0  0
   -7.9256   -6.6954    6.2327 S   0  0  0  0  0  0  0  0  0  0  0  0
   -7.4299   -7.2901    7.8454 C   0  0  0  0  0  0  0  0  0  0  0  0
   -8.2664   -7.7179    8.7610 C   0  0  0  0  0  0  0  0  0  0  0  0
   -5.9841   -7.1698    7.8461 C   0  0  0  0  0  0  0  0  0  0  0  0
   -5.3232   -7.6111    8.8652 O   0  0  0  0  0  0  0  0  0  0  0  0
   -2.7628   -8.2916    7.3786 O   0  0  0  0  0  0  0  0  0  0  0  0
   -3.2360   -7.6347    6.2387 C   0  0  0  0  0  0  0  0  0  0  0  0
   -2.0429   -7.2372    5.3905 C   0  0  0  0  0  0  0  0  0  0  0  0
   -1.4974   -5.9396    5.7747 N   0  0  0  0  0  0  0  0  0  0  0  0
   -2.3679   -4.8412    5.4504 C   0  0  0  0  0  0  0  0  0  0  0  0
   -3.8065   -5.3265    5.4678 C   0  0  0  0  0  0  0  0  0  0  0  0
   -3.9717   -6.3767    6.5689 C   0  0  0  0  0  0  0  0  0  0  0  0
   -3.5424   -8.3831    7.9862 H   0  0  0  0  0  0  0  0  0  0  0  0
   -0.5706   -5.8554    5.2910 H   0  0  0  0  0  0  0  0  0  0  0  0
  -14.4840   -8.6131    6.7382 C   0  0  0  0  0  0  0  0  0  0  0  0
  -15.5709   -7.9139    6.0575 C   0  0  0  0  0  0  0  0  0  0  0  0
  -16.4183   -7.1101    6.7654 C   0  0  0  0  0  0  0  0  0  0  0  0
  -17.4343   -6.4571    6.0997 C   0  0  0  0  0  0  0  0  0  0  0  0
  -17.6320   -6.5821    4.7436 C   0  0  0  0  0  0  0  0  0  0  0  0
  -18.8867   -5.7797    3.8571 Cl  0  0  0  0  0  0  0  0  0  0  0  0
  -16.7442   -7.4084    4.0807 C   0  0  0  0  0  0  0  0  0  0  0  0
  -15.7174   -8.0800    4.6943 C   0  0  0  0  0  0  0  0  0  0  0  0
  -14.8212   -8.9250    3.8857 C   0  0  0  0  0  0  0  0  0  0  0  0
  -15.4781  -10.0523    3.3711 F   0  0  0  0  0  0  0  0  0  0  0  0
  -14.4934   -8.1957    2.7256 F   0  0  0  0  0  0  0  0  0  0  0  0
  -13.6358   -9.2481    4.4580 F   0  0  0  0  0  0  0  0  0  0  0  0
 18 19  1  0  0  0
 19 20  1  0  0  0
 20 21  1  0  0  0
 21 22  1  0  0  0
 22 23  1  0  0  0
 23 24  1  0  0  0
 24 10  1  0  0  0
 10 11  1  0  0  0
 11 12  2  0  0  0
 11 13  1  0  0  0
 13 14  1  0  0  0
 14 15  2  0  0  0
 15  1  1  0  0  0
  1  2  2  0  0  0
  2  3  1  0  0  0
  3  4  2  0  0  0
  4  5  1  0  0  0
  5 27  1  0  0  0
 27 28  1  0  0  0
 28 29  2  0  0  0
 29 30  1  0  0  0
 30 31  2  0  0  0
 31 32  1  0  0  0
 31 33  1  0  0  0
 33 34  2  0  0  0
 34 35  1  0  0  0
 35 36  1  0  0  0
 35 37  1  0  0  0
 35 38  1  0  0  0
  5  6  1  0  0  0
  6  7  2  0  0  0
  7  8  1  0  0  0
  8  9  2  0  0  0
 14 16  1  0  0  0
 16 17  2  0  0  0
 24 19  1  0  0  0
 16 10  1  0  0  0
  9  1  1  0  0  0
  8  4  1  0  0  0
 34 28  1  0  0  0
 18 25  1  0  0  0
 21 26  1  0  0  0
M  END
> <minimizedAffinity>
-8.31432

> <CNNscore>
0.1803648025

> <CNNaffinity>
6.7700157166

> <CNN_VS>
1.2210725546

> <CNNaffinity_variance>
0.0889627114

$$$$
[H]c1nc(N2C([H])([H])C([H])([H])N(C(=O)c3sc4c(c(C([H])([H])[H])nn4C([H])([H])c4c([H])c([H])c([H])c(OC([H])([H])C([H])([H])OC([H])([H])[H])c4[H])c3[H])C([H])([H])[C@@]2([H])C([H])([H])[H])c([H])c([H])c1C(=O)C([H])([H])[H]


 39 43  0  0  0  0  0  0  0  0999 V2000
  -13.4923   -8.2967    8.4219 N   0  0  0  0  0  0  0  0  0  0  0  0
  -13.6726   -7.2331    9.1355 N   0  0  0  0  0  0  0  0  0  0  0  0
  -12.5005   -6.6118    9.4363 C   0  0  0  0  0  0  0  0  0  0  0  0
  -12.3556   -5.3685   10.2386 C   0  0  0  0  0  0  0  0  0  0  0  0
  -11.4751   -7.3738    8.8438 C   0  0  0  0  0  0  0  0  0  0  0  0
  -10.1229   -7.3500    8.7355 C   0  0  0  0  0  0  0  0  0  0  0  0
   -9.5065   -8.3301    8.0358 C   0  0  0  0  0  0  0  0  0  0  0  0
  -10.8795   -9.2973    7.5277 S   0  0  0  0  0  0  0  0  0  0  0  0
  -12.1331   -8.3942    8.2347 C   0  0  0  0  0  0  0  0  0  0  0  0
   -8.1129   -8.6304    7.6947 C   0  0  0  0  0  0  0  0  0  0  0  0
   -7.6463   -9.7332    8.2304 O   0  0  0  0  0  0  0  0  0  0  0  0
   -7.2640   -7.8962    6.8915 N   0  0  0  0  0  0  0  0  0  0  0  0
   -7.5799   -6.6840    6.2166 C   0  0  0  0  0  0  0  0  0  0  0  0
   -6.4057   -6.1931    5.3659 C   0  0  0  0  0  0  0  0  0  0  0  0
   -5.1368   -6.3061    6.0287 N   0  0  0  0  0  0  0  0  0  0  0  0
   -4.9819   -7.2533    7.0762 C   0  0  0  0  0  0  0  0  0  0  0  0
   -3.5778   -7.7208    7.3505 C   0  0  0  0  0  0  0  0  0  0  0  0
   -5.8841   -8.4493    6.7296 C   0  0  0  0  0  0  0  0  0  0  0  0
   -4.0580   -5.4757    5.6274 C   0  0  0  0  0  0  0  0  0  0  0  0
   -4.0158   -4.1310    6.0112 C   0  0  0  0  0  0  0  0  0  0  0  0
   -2.9740   -3.3262    5.6347 C   0  0  0  0  0  0  0  0  0  0  0  0
   -1.9283   -3.7911    4.8697 C   0  0  0  0  0  0  0  0  0  0  0  0
   -2.0002   -5.1236    4.5074 C   0  0  0  0  0  0  0  0  0  0  0  0
   -3.0258   -5.9024    4.8823 N   0  0  0  0  0  0  0  0  0  0  0  0
   -0.8351   -2.9234    4.4812 C   0  0  0  0  0  0  0  0  0  0  0  0
   -0.3114   -1.8537    5.3644 C   0  0  0  0  0  0  0  0  0  0  0  0
   -0.3110   -3.0836    3.3530 O   0  0  0  0  0  0  0  0  0  0  0  0
  -14.4013   -9.2635    7.8689 C   0  0  0  0  0  0  0  0  0  0  0  0
  -16.2089   -7.8945    4.7878 C   0  0  0  0  0  0  0  0  0  0  0  0
  -15.2926   -8.3227    3.7888 C   0  0  0  0  0  0  0  0  0  0  0  0
  -14.1604   -9.0137    4.1044 C   0  0  0  0  0  0  0  0  0  0  0  0
  -13.8665   -9.3221    5.4232 C   0  0  0  0  0  0  0  0  0  0  0  0
  -14.7157   -8.9336    6.4305 C   0  0  0  0  0  0  0  0  0  0  0  0
  -15.8495   -8.2398    6.0955 C   0  0  0  0  0  0  0  0  0  0  0  0
  -17.2822   -7.2370    4.4659 O   0  0  0  0  0  0  0  0  0  0  0  0
  -18.1873   -6.3091    4.3356 C   0  0  0  0  0  0  0  0  0  0  0  0
  -17.7067   -4.8686    4.5168 C   0  0  0  0  0  0  0  0  0  0  0  0
  -15.4558   -4.4091    4.4206 C   0  0  0  0  0  0  0  0  0  0  0  0
  -16.6394   -4.6169    3.6985 O   0  0  0  0  0  0  0  0  0  0  0  0
 38 39  1  0  0  0
 39 37  1  0  0  0
 37 36  1  0  0  0
 36 35  1  0  0  0
 35 29  1  0  0  0
 29 30  2  0  0  0
 30 31  1  0  0  0
 31 32  2  0  0  0
 32 33  1  0  0  0
 33 28  1  0  0  0
 28  1  1  0  0  0
  1  2  1  0  0  0
  2  3  2  0  0  0
  3  4  1  0  0  0
  3  5  1  0  0  0
  5  6  1  0  0  0
  6  7  2  0  0  0
  7  8  1  0  0  0
  8  9  1  0  0  0
  7 10  1  0  0  0
 10 11  2  0  0  0
 10 12  1  0  0  0
 12 13  1  0  0  0
 13 14  1  0  0  0
 14 15  1  0  0  0
 15 16  1  0  0  0
 16 17  1  0  0  0
 16 18  1  0  0  0
 15 19  1  0  0  0
 19 20  2  0  0  0
 20 21  1  0  0  0
 21 22  2  0  0  0
 22 23  1  0  0  0
 23 24  2  0  0  0
 22 25  1  0  0  0
 25 26  1  0  0  0
 25 27  2  0  0  0
 33 34  2  0  0  0
 34 29  1  0  0  0
  9  1  1  0  0  0
 18 12  1  0  0  0
 24 19  1  0  0  0
  9  5  2  0  0  0
M  END
> <minimizedAffinity>
-8.78668

> <CNNscore>
0.4791395664

> <CNNaffinity>
7.4707732201

> <CNN_VS>
3.5795431137

> <CNNaffinity_variance>
0.0334962085

$$$$
[H]c1nc(N2C([H])([H])C([H])([H])N(C(=O)c3sc4c(c(C([H])([H])[H])nn4C([H])([H])c4c([H])c([H])c([H])c(OC([H])([H])C([H])([H])OC([H])([H])[H])c4[H])c3[H])C([H])([H])[C@@]2([H])C([H])([H])[H])c([H])c([H])c1C(=O)C([H])([H])[H]


 39 43  0  0  0  0  0  0  0  0999 V2000
  -12.7598   -8.3470    8.1075 N   0  0  0  0  0  0  0  0  0  0  0  0
  -11.6988   -8.3365    7.3678 N   0  0  0  0  0  0  0  0  0  0  0  0
  -10.6895   -7.6168    7.9278 C   0  0  0  0  0  0  0  0  0  0  0  0
   -9.3407   -7.4056    7.3390 C   0  0  0  0  0  0  0  0  0  0  0  0
  -11.1763   -7.1235    9.1537 C   0  0  0  0  0  0  0  0  0  0  0  0
  -10.7393   -6.3664   10.1913 C   0  0  0  0  0  0  0  0  0  0  0  0
  -11.5799   -6.1254   11.2233 C   0  0  0  0  0  0  0  0  0  0  0  0
  -13.0132   -6.9926   10.7014 S   0  0  0  0  0  0  0  0  0  0  0  0
  -12.4477   -7.5978    9.2179 C   0  0  0  0  0  0  0  0  0  0  0  0
  -11.4732   -5.3905   12.4872 C   0  0  0  0  0  0  0  0  0  0  0  0
  -12.6034   -4.8849   12.9205 O   0  0  0  0  0  0  0  0  0  0  0  0
  -10.3412   -5.1811   13.2483 N   0  0  0  0  0  0  0  0  0  0  0  0
   -9.0300   -5.6510   12.9567 C   0  0  0  0  0  0  0  0  0  0  0  0
   -8.0412   -5.2785   14.0643 C   0  0  0  0  0  0  0  0  0  0  0  0
   -8.2044   -3.9348   14.5440 N   0  0  0  0  0  0  0  0  0  0  0  0
   -9.4600   -3.2887   14.3875 C   0  0  0  0  0  0  0  0  0  0  0  0
   -9.7563   -2.1660   15.3450 C   0  0  0  0  0  0  0  0  0  0  0  0
  -10.5372   -4.3806   14.4961 C   0  0  0  0  0  0  0  0  0  0  0  0
   -7.1143   -3.2745   15.1687 C   0  0  0  0  0  0  0  0  0  0  0  0
   -5.8895   -3.9292   15.3371 C   0  0  0  0  0  0  0  0  0  0  0  0
   -4.8311   -3.2955   15.9314 C   0  0  0  0  0  0  0  0  0  0  0  0
   -4.9153   -1.9996   16.3878 C   0  0  0  0  0  0  0  0  0  0  0  0
   -6.1386   -1.3812   16.2062 C   0  0  0  0  0  0  0  0  0  0  0  0
   -7.1684   -2.0121   15.6226 N   0  0  0  0  0  0  0  0  0  0  0  0
   -3.7839   -1.3466   17.0143 C   0  0  0  0  0  0  0  0  0  0  0  0
   -3.6029    0.1250   17.0014 C   0  0  0  0  0  0  0  0  0  0  0  0
   -2.9236   -2.0544   17.5906 O   0  0  0  0  0  0  0  0  0  0  0  0
  -14.0518   -8.9570    7.9478 C   0  0  0  0  0  0  0  0  0  0  0  0
  -16.2647   -7.9484    4.9946 C   0  0  0  0  0  0  0  0  0  0  0  0
  -15.4627   -8.4572    3.9370 C   0  0  0  0  0  0  0  0  0  0  0  0
  -14.2781   -9.0883    4.1763 C   0  0  0  0  0  0  0  0  0  0  0  0
  -13.8161   -9.2540    5.4723 C   0  0  0  0  0  0  0  0  0  0  0  0
  -14.5493   -8.7825    6.5340 C   0  0  0  0  0  0  0  0  0  0  0  0
  -15.7379   -8.1506    6.2753 C   0  0  0  0  0  0  0  0  0  0  0  0
  -17.3905   -7.3500    4.7451 O   0  0  0  0  0  0  0  0  0  0  0  0
  -18.2896   -6.4832    4.3742 C   0  0  0  0  0  0  0  0  0  0  0  0
  -17.9089   -5.0099    4.5271 C   0  0  0  0  0  0  0  0  0  0  0  0
  -15.6842   -4.5006    4.2474 C   0  0  0  0  0  0  0  0  0  0  0  0
  -16.9308   -4.6760    3.6304 O   0  0  0  0  0  0  0  0  0  0  0  0
 38 39  1  0  0  0
 39 37  1  0  0  0
 37 36  1  0  0  0
 36 35  1  0  0  0
 35 29  1  0  0  0
 29 30  2  0  0  0
 30 31  1  0  0  0
 31 32  2  0  0  0
 32 33  1  0  0  0
 33 28  1  0  0  0
 28  1  1  0  0  0
  1  2  1  0  0  0
  2  3  2  0  0  0
  3  4  1  0  0  0
  3  5  1  0  0  0
  5  6  1  0  0  0
  6  7  2  0  0  0
  7  8  1  0  0  0
  8  9  1  0  0  0
  7 10  1  0  0  0
 10 11  2  0  0  0
 10 12  1  0  0  0
 12 13  1  0  0  0
 13 14  1  0  0  0
 14 15  1  0  0  0
 15 16  1  0  0  0
 16 17  1  0  0  0
 16 18  1  0  0  0
 15 19  1  0  0  0
 19 20  2  0  0  0
 20 21  1  0  0  0
 21 22  2  0  0  0
 22 23  1  0  0  0
 23 24  2  0  0  0
 22 25  1  0  0  0
 25 26  1  0  0  0
 25 27  2  0  0  0
 33 34  2  0  0  0
 34 29  1  0  0  0
  9  1  1  0  0  0
 18 12  1  0  0  0
 24 19  1  0  0  0
  9  5  2  0  0  0
M  END
> <minimizedAffinity>
1.42796

> <CNNscore>
0.4636285603

> <CNNaffinity>
6.7524223328

> <CNN_VS>
3.1306159496

> <CNNaffinity_variance>
0.2177210748

$$$$
[H]c1nc(N2C([H])([H])C([H])([H])N(C(=O)c3sc4c(c(C([H])([H])[H])nn4C([H])([H])c4c([H])c([H])c([H])c(OC([H])([H])C([H])([H])OC([H])([H])[H])c4[H])c3[H])C([H])([H])[C@@]2([H])C([H])([H])[H])c([H])c([H])c1C(=O)C([H])([H])[H]


 39 43  0  0  0  0  0  0  0  0999 V2000
  -12.7943   -8.0880    8.2404 N   0  0  0  0  0  0  0  0  0  0  0  0
  -11.7288   -8.1696    7.5116 N   0  0  0  0  0  0  0  0  0  0  0  0
  -10.6652   -7.5454    8.0855 C   0  0  0  0  0  0  0  0  0  0  0  0
   -9.2967   -7.4534    7.5115 C   0  0  0  0  0  0  0  0  0  0  0  0
  -11.1189   -7.0154    9.3087 C   0  0  0  0  0  0  0  0  0  0  0  0
  -10.6269   -6.3047   10.3545 C   0  0  0  0  0  0  0  0  0  0  0  0
  -11.4534   -5.9935   11.3791 C   0  0  0  0  0  0  0  0  0  0  0  0
  -12.9530   -6.7268   10.8383 S   0  0  0  0  0  0  0  0  0  0  0  0
  -12.4282   -7.3742    9.3577 C   0  0  0  0  0  0  0  0  0  0  0  0
  -11.2948   -5.2763   12.6476 C   0  0  0  0  0  0  0  0  0  0  0  0
  -12.3943   -4.7238   13.1023 O   0  0  0  0  0  0  0  0  0  0  0  0
  -10.1434   -5.1258   13.3934 N   0  0  0  0  0  0  0  0  0  0  0  0
   -8.8595   -5.6521   13.0780 C   0  0  0  0  0  0  0  0  0  0  0  0
   -7.8386   -5.3355   14.1739 C   0  0  0  0  0  0  0  0  0  0  0  0
   -7.9332   -3.9904   14.6677 N   0  0  0  0  0  0  0  0  0  0  0  0
   -9.1601   -3.2863   14.5358 C   0  0  0  0  0  0  0  0  0  0  0  0
   -9.3909   -2.1604   15.5075 C   0  0  0  0  0  0  0  0  0  0  0  0
  -10.2844   -4.3290   14.6510 C   0  0  0  0  0  0  0  0  0  0  0  0
   -6.8051   -3.3863   15.2818 C   0  0  0  0  0  0  0  0  0  0  0  0
   -6.7488   -1.9992   15.4556 C   0  0  0  0  0  0  0  0  0  0  0  0
   -5.6675   -1.4106   16.0546 C   0  0  0  0  0  0  0  0  0  0  0  0
   -4.5942   -2.1419   16.5107 C   0  0  0  0  0  0  0  0  0  0  0  0
   -4.6810   -3.5092   16.3239 C   0  0  0  0  0  0  0  0  0  0  0  0
   -5.7456   -4.0747   15.7357 N   0  0  0  0  0  0  0  0  0  0  0  0
   -3.4588   -1.5001   17.1417 C   0  0  0  0  0  0  0  0  0  0  0  0
   -3.4675   -0.0716   17.5390 C   0  0  0  0  0  0  0  0  0  0  0  0
   -2.4278   -2.1801   17.3606 O   0  0  0  0  0  0  0  0  0  0  0  0
  -14.1339   -8.5794    8.0645 C   0  0  0  0  0  0  0  0  0  0  0  0
  -16.7344   -7.6343    5.4226 C   0  0  0  0  0  0  0  0  0  0  0  0
  -16.1153   -6.4586    4.9175 C   0  0  0  0  0  0  0  0  0  0  0  0
  -14.9263   -6.0076    5.4092 C   0  0  0  0  0  0  0  0  0  0  0  0
  -14.2794   -6.6900    6.4273 C   0  0  0  0  0  0  0  0  0  0  0  0
  -14.8310   -7.8323    6.9542 C   0  0  0  0  0  0  0  0  0  0  0  0
  -16.0268   -8.2716    6.4481 C   0  0  0  0  0  0  0  0  0  0  0  0
  -17.8678   -8.0471    4.9402 O   0  0  0  0  0  0  0  0  0  0  0  0
  -19.0116   -8.6492    4.7774 C   0  0  0  0  0  0  0  0  0  0  0  0
  -19.6464   -9.2420    6.0363 C   0  0  0  0  0  0  0  0  0  0  0  0
  -21.0790  -10.8540    6.8338 C   0  0  0  0  0  0  0  0  0  0  0  0
  -20.5096  -10.2502    5.7039 O   0  0  0  0  0  0  0  0  0  0  0  0
 38 39  1  0  0  0
 39 37  1  0  0  0
 37 36  1  0  0  0
 36 35  1  0  0  0
 35 29  1  0  0  0
 29 30  2  0  0  0
 30 31  1  0  0  0
 31 32  2  0  0  0
 32 33  1  0  0  0
 33 28  1  0  0  0
 28  1  1  0  0  0
  1  2  1  0  0  0
  2  3  2  0  0  0
  3  4  1  0  0  0
  3  5  1  0  0  0
  5  6  1  0  0  0
  6  7  2  0  0  0
  7  8  1  0  0  0
  8  9  1  0  0  0
  7 10  1  0  0  0
 10 11  2  0  0  0
 10 12  1  0  0  0
 12 13  1  0  0  0
 13 14  1  0  0  0
 14 15  1  0  0  0
 15 16  1  0  0  0
 16 17  1  0  0  0
 16 18  1  0  0  0
 15 19  1  0  0  0
 19 20  2  0  0  0
 20 21  1  0  0  0
 21 22  2  0  0  0
 22 23  1  0  0  0
 23 24  2  0  0  0
 22 25  1  0  0  0
 25 26  1  0  0  0
 25 27  2  0  0  0
 33 34  2  0  0  0
 34 29  1  0  0  0
  9  1  1  0  0  0
 18 12  1  0  0  0
 24 19  1  0  0  0
  9  5  2  0  0  0
M  END
> <minimizedAffinity>
3.07660

> <CNNscore>
0.4335489571

> <CNNaffinity>
6.5833344460

> <CNN_VS>
2.8541977406

> <CNNaffinity_variance>
0.2784412503

$$$$
[H]c1nc(N2C([H])([H])C([H])([H])N(C(=O)c3sc4c(c(C([H])([H])[H])nn4C([H])([H])c4c([H])c([H])c([H])c(OC([H])([H])C([H])([H])OC([H])([H])[H])c4[H])c3[H])C([H])([H])[C@@]2([H])C([H])([H])[H])c([H])c([H])c1C(=O)C([H])([H])[H]


 39 43  0  0  0  0  0  0  0  0999 V2000
  -18.7200   -8.5734    5.2249 N   0  0  0  0  0  0  0  0  0  0  0  0
  -19.6551   -9.2319    5.8290 N   0  0  0  0  0  0  0  0  0  0  0  0
  -19.3207   -9.5391    7.1112 C   0  0  0  0  0  0  0  0  0  0  0  0
  -20.1686  -10.2877    8.0762 C   0  0  0  0  0  0  0  0  0  0  0  0
  -18.0329   -9.0131    7.3304 C   0  0  0  0  0  0  0  0  0  0  0  0
  -17.1186   -8.9444    8.3305 C   0  0  0  0  0  0  0  0  0  0  0  0
  -15.9466   -8.3092    8.1013 C   0  0  0  0  0  0  0  0  0  0  0  0
  -16.1559   -7.8048    6.4338 S   0  0  0  0  0  0  0  0  0  0  0  0
  -17.7087   -8.4318    6.1462 C   0  0  0  0  0  0  0  0  0  0  0  0
  -14.7559   -8.0241    8.9074 C   0  0  0  0  0  0  0  0  0  0  0  0
  -15.0014   -7.4294   10.0506 O   0  0  0  0  0  0  0  0  0  0  0  0
  -13.4409   -8.3082    8.5995 N   0  0  0  0  0  0  0  0  0  0  0  0
  -12.9708   -8.9521    7.4208 C   0  0  0  0  0  0  0  0  0  0  0  0
  -11.4540   -9.1550    7.4592 C   0  0  0  0  0  0  0  0  0  0  0  0
  -10.7398   -8.0124    7.9556 N   0  0  0  0  0  0  0  0  0  0  0  0
  -11.4111   -7.0848    8.7966 C   0  0  0  0  0  0  0  0  0  0  0  0
  -10.5418   -6.2588    9.7061 C   0  0  0  0  0  0  0  0  0  0  0  0
  -12.4307   -7.8897    9.6196 C   0  0  0  0  0  0  0  0  0  0  0  0
   -9.3772   -7.8280    7.6035 C   0  0  0  0  0  0  0  0  0  0  0  0
   -8.4613   -8.8773    7.7351 C   0  0  0  0  0  0  0  0  0  0  0  0
   -7.1472   -8.7091    7.3895 C   0  0  0  0  0  0  0  0  0  0  0  0
   -6.6649   -7.5158    6.9013 C   0  0  0  0  0  0  0  0  0  0  0  0
   -7.5952   -6.4997    6.7833 C   0  0  0  0  0  0  0  0  0  0  0  0
   -8.8802   -6.6762    7.1250 N   0  0  0  0  0  0  0  0  0  0  0  0
   -5.2705   -7.3576    6.5414 C   0  0  0  0  0  0  0  0  0  0  0  0
   -4.7316   -6.1025    5.9644 C   0  0  0  0  0  0  0  0  0  0  0  0
   -4.4882   -8.3206    6.7254 O   0  0  0  0  0  0  0  0  0  0  0  0
  -18.6097   -8.0383    3.8951 C   0  0  0  0  0  0  0  0  0  0  0  0
  -18.2856   -4.3257    4.7596 C   0  0  0  0  0  0  0  0  0  0  0  0
  -17.1138   -4.0288    4.0116 C   0  0  0  0  0  0  0  0  0  0  0  0
  -16.4748   -4.9807    3.2738 C   0  0  0  0  0  0  0  0  0  0  0  0
  -16.9543   -6.2803    3.2313 C   0  0  0  0  0  0  0  0  0  0  0  0
  -18.0829   -6.6249    3.9345 C   0  0  0  0  0  0  0  0  0  0  0  0
  -18.7129   -5.6554    4.6709 C   0  0  0  0  0  0  0  0  0  0  0  0
  -18.8795   -3.4040    5.4563 O   0  0  0  0  0  0  0  0  0  0  0  0
  -19.3597   -2.2667    5.8726 C   0  0  0  0  0  0  0  0  0  0  0  0
  -20.7487   -2.3147    6.5110 C   0  0  0  0  0  0  0  0  0  0  0  0
  -21.5061   -1.9710    4.3674 C   0  0  0  0  0  0  0  0  0  0  0  0
  -21.6560   -1.6574    5.7256 O   0  0  0  0  0  0  0  0  0  0  0  0
 38 39  1  0  0  0
 39 37  1  0  0  0
 37 36  1  0  0  0
 36 35  1  0  0  0
 35 29  1  0  0  0
 29 30  2  0  0  0
 30 31  1  0  0  0
 31 32  2  0  0  0
 32 33  1  0  0  0
 33 28  1  0  0  0
 28  1  1  0  0  0
  1  2  1  0  0  0
  2  3  2  0  0  0
  3  4  1  0  0  0
  3  5  1  0  0  0
  5  6  1  0  0  0
  6  7  2  0  0  0
  7  8  1  0  0  0
  8  9  1  0  0  0
  7 10  1  0  0  0
 10 11  2  0  0  0
 10 12  1  0  0  0
 12 13  1  0  0  0
 13 14  1  0  0  0
 14 15  1  0  0  0
 15 16  1  0  0  0
 16 17  1  0  0  0
 16 18  1  0  0  0
 15 19  1  0  0  0
 19 20  2  0  0  0
 20 21  1  0  0  0
 21 22  2  0  0  0
 22 23  1  0  0  0
 23 24  2  0  0  0
 22 25  1  0  0  0
 25 26  1  0  0  0
 25 27  2  0  0  0
 33 34  2  0  0  0
 34 29  1  0  0  0
  9  1  1  0  0  0
 18 12  1  0  0  0
 24 19  1  0  0  0
  9  5  2  0  0  0
M  END
> <minimizedAffinity>
4.21876

> <CNNscore>
0.3834550679

> <CNNaffinity>
7.4873871803

> <CNN_VS>
2.8710765839

> <CNNaffinity_variance>
0.4565802217

$$$$
[H]c1nc(N2C([H])([H])C([H])([H])N(C(=O)c3sc4c(c(C([H])([H])[H])nn4C([H])([H])c4c([H])c([H])c([H])c(OC([H])([H])C([H])([H])OC([H])([H])[H])c4[H])c3[H])C([H])([H])[C@@]2([H])C([H])([H])[H])c([H])c([H])c1C(=O)C([H])([H])[H]


 39 43  0  0  0  0  0  0  0  0999 V2000
  -17.9299   -6.4504    4.7019 N   0  0  0  0  0  0  0  0  0  0  0  0
  -18.7266   -7.4676    4.6423 N   0  0  0  0  0  0  0  0  0  0  0  0
  -18.3773   -8.4455    5.5208 C   0  0  0  0  0  0  0  0  0  0  0  0
  -19.0818   -9.7418    5.7051 C   0  0  0  0  0  0  0  0  0  0  0  0
  -17.2350   -7.9862    6.2042 C   0  0  0  0  0  0  0  0  0  0  0  0
  -16.3879   -8.4156    7.1733 C   0  0  0  0  0  0  0  0  0  0  0  0
  -15.3669   -7.6126    7.5508 C   0  0  0  0  0  0  0  0  0  0  0  0
  -15.6223   -6.2268    6.5053 S   0  0  0  0  0  0  0  0  0  0  0  0
  -17.0005   -6.7606    5.6672 C   0  0  0  0  0  0  0  0  0  0  0  0
  -14.2883   -7.7150    8.5382 C   0  0  0  0  0  0  0  0  0  0  0  0
  -14.6592   -7.4878    9.7758 O   0  0  0  0  0  0  0  0  0  0  0  0
  -12.9613   -8.0175    8.3096 N   0  0  0  0  0  0  0  0  0  0  0  0
  -12.3662   -8.3024    7.0488 C   0  0  0  0  0  0  0  0  0  0  0  0
  -10.8842   -8.6570    7.1951 C   0  0  0  0  0  0  0  0  0  0  0  0
  -10.1837   -7.8049    8.1146 N   0  0  0  0  0  0  0  0  0  0  0  0
  -10.9136   -7.1262    9.1270 C   0  0  0  0  0  0  0  0  0  0  0  0
  -10.1365   -6.7181   10.3496 C   0  0  0  0  0  0  0  0  0  0  0  0
  -12.0838   -8.0429    9.5203 C   0  0  0  0  0  0  0  0  0  0  0  0
   -8.7767   -7.6559    8.0019 C   0  0  0  0  0  0  0  0  0  0  0  0
   -8.2287   -6.7756    7.0627 C   0  0  0  0  0  0  0  0  0  0  0  0
   -6.8726   -6.6206    6.9542 C   0  0  0  0  0  0  0  0  0  0  0  0
   -5.9898   -7.3127    7.7520 C   0  0  0  0  0  0  0  0  0  0  0  0
   -6.5633   -8.1739    8.6692 C   0  0  0  0  0  0  0  0  0  0  0  0
   -7.8934   -8.3175    8.7665 N   0  0  0  0  0  0  0  0  0  0  0  0
   -4.5579   -7.1351    7.6215 C   0  0  0  0  0  0  0  0  0  0  0  0
   -3.8051   -6.1184    8.3949 C   0  0  0  0  0  0  0  0  0  0  0  0
   -3.9303   -7.8706    6.8225 O   0  0  0  0  0  0  0  0  0  0  0  0
  -17.8902   -5.2020    3.9900 C   0  0  0  0  0  0  0  0  0  0  0  0
  -14.8147   -3.0638    4.7673 C   0  0  0  0  0  0  0  0  0  0  0  0
  -13.8946   -3.6700    3.8691 C   0  0  0  0  0  0  0  0  0  0  0  0
  -14.2584   -4.7080    3.0635 C   0  0  0  0  0  0  0  0  0  0  0  0
  -15.5505   -5.2080    3.0972 C   0  0  0  0  0  0  0  0  0  0  0  0
  -16.4822   -4.6614    3.9458 C   0  0  0  0  0  0  0  0  0  0  0  0
  -16.0994   -3.6184    4.7487 C   0  0  0  0  0  0  0  0  0  0  0  0
  -14.4477   -2.0755    5.5266 O   0  0  0  0  0  0  0  0  0  0  0  0
  -14.4306   -0.9770    6.2267 C   0  0  0  0  0  0  0  0  0  0  0  0
  -13.0593   -0.3334    6.4375 C   0  0  0  0  0  0  0  0  0  0  0  0
  -14.3724    0.9959    7.7774 C   0  0  0  0  0  0  0  0  0  0  0  0
  -13.1959    0.8963    7.0216 O   0  0  0  0  0  0  0  0  0  0  0  0
 38 39  1  0  0  0
 39 37  1  0  0  0
 37 36  1  0  0  0
 36 35  1  0  0  0
 35 29  1  0  0  0
 29 30  2  0  0  0
 30 31  1  0  0  0
 31 32  2  0  0  0
 32 33  1  0  0  0
 33 28  1  0  0  0
 28  1  1  0  0  0
  1  2  1  0  0  0
  2  3  2  0  0  0
  3  4  1  0  0  0
  3  5  1  0  0  0
  5  6  1  0  0  0
  6  7  2  0  0  0
  7  8  1  0  0  0
  8  9  1  0  0  0
  7 10  1  0  0  0
 10 11  2  0  0  0
 10 12  1  0  0  0
 12 13  1  0  0  0
 13 14  1  0  0  0
 14 15  1  0  0  0
 15 16  1  0  0  0
 16 17  1  0  0  0
 16 18  1  0  0  0
 15 19  1  0  0  0
 19 20  2  0  0  0
 20 21  1  0  0  0
 21 22  2  0  0  0
 22 23  1  0  0  0
 23 24  2  0  0  0
 22 25  1  0  0  0
 25 26  1  0  0  0
 25 27  2  0  0  0
 33 34  2  0  0  0
 34 29  1  0  0  0
  9  1  1  0  0  0
 18 12  1  0  0  0
 24 19  1  0  0  0
  9  5  2  0  0  0
M  END
> <minimizedAffinity>
6.70739

> <CNNscore>
0.3743677735

> <CNNaffinity>
7.1878914833

> <CNN_VS>
2.6909148693

> <CNNaffinity_variance>
0.1850307435

$$$$
[H]c1nc(N2C([H])([H])C([H])([H])N(C(=O)c3sc4c(c(C([H])([H])[H])nn4C([H])([H])c4c([H])c([H])c([H])c(OC([H])([H])C([H])([H])OC([H])([H])[H])c4[H])c3[H])C([H])([H])[C@@]2([H])C([H])([H])[H])c([H])c([H])c1C(=O)C([H])([H])[H]


 39 43  0  0  0  0  0  0  0  0999 V2000
  -14.0216   -8.0316    7.3018 N   0  0  0  0  0  0  0  0  0  0  0  0
  -14.0717   -8.8275    6.2835 N   0  0  0  0  0  0  0  0  0  0  0  0
  -12.8358   -9.2413    5.8940 C   0  0  0  0  0  0  0  0  0  0  0  0
  -12.5421  -10.1574    4.7604 C   0  0  0  0  0  0  0  0  0  0  0  0
  -11.9124   -8.6352    6.7674 C   0  0  0  0  0  0  0  0  0  0  0  0
  -10.5704   -8.5990    6.9638 C   0  0  0  0  0  0  0  0  0  0  0  0
  -10.0785   -7.8480    7.9756 C   0  0  0  0  0  0  0  0  0  0  0  0
  -11.5551   -7.1853    8.6534 S   0  0  0  0  0  0  0  0  0  0  0  0
  -12.6874   -7.9048    7.6108 C   0  0  0  0  0  0  0  0  0  0  0  0
   -8.7354   -7.5751    8.4957 C   0  0  0  0  0  0  0  0  0  0  0  0
   -8.6583   -7.5216    9.8042 O   0  0  0  0  0  0  0  0  0  0  0  0
   -7.5760   -7.3749    7.7743 N   0  0  0  0  0  0  0  0  0  0  0  0
   -7.4493   -7.4010    6.3572 C   0  0  0  0  0  0  0  0  0  0  0  0
   -5.9959   -7.2012    5.9201 C   0  0  0  0  0  0  0  0  0  0  0  0
   -5.3167   -6.1728    6.6571 N   0  0  0  0  0  0  0  0  0  0  0  0
   -5.7830   -5.8229    7.9526 C   0  0  0  0  0  0  0  0  0  0  0  0
   -4.7773   -5.1871    8.8743 C   0  0  0  0  0  0  0  0  0  0  0  0
   -6.3469   -7.1071    8.5829 C   0  0  0  0  0  0  0  0  0  0  0  0
   -4.1909   -5.5250    6.0847 C   0  0  0  0  0  0  0  0  0  0  0  0
   -4.3486   -4.6474    5.0066 C   0  0  0  0  0  0  0  0  0  0  0  0
   -3.2681   -4.0127    4.4549 C   0  0  0  0  0  0  0  0  0  0  0  0
   -1.9883   -4.2018    4.9251 C   0  0  0  0  0  0  0  0  0  0  0  0
   -1.8669   -5.0746    5.9907 C   0  0  0  0  0  0  0  0  0  0  0  0
   -2.9328   -5.6907    6.5231 N   0  0  0  0  0  0  0  0  0  0  0  0
   -0.8577   -3.5210    4.3273 C   0  0  0  0  0  0  0  0  0  0  0  0
   -0.3126   -2.2521    4.8670 C   0  0  0  0  0  0  0  0  0  0  0  0
   -0.3188   -4.0252    3.3131 O   0  0  0  0  0  0  0  0  0  0  0  0
  -15.0388   -7.3516    8.0566 C   0  0  0  0  0  0  0  0  0  0  0  0
  -18.5890   -8.5066    7.2215 C   0  0  0  0  0  0  0  0  0  0  0  0
  -18.8336   -7.6675    6.1004 C   0  0  0  0  0  0  0  0  0  0  0  0
  -17.8980   -6.7844    5.6491 C   0  0  0  0  0  0  0  0  0  0  0  0
  -16.6673   -6.6778    6.2774 C   0  0  0  0  0  0  0  0  0  0  0  0
  -16.3756   -7.4636    7.3658 C   0  0  0  0  0  0  0  0  0  0  0  0
  -17.3277   -8.3460    7.8061 C   0  0  0  0  0  0  0  0  0  0  0  0
  -19.4942   -9.3414    7.6357 O   0  0  0  0  0  0  0  0  0  0  0  0
  -20.1016  -10.3597    8.1754 C   0  0  0  0  0  0  0  0  0  0  0  0
  -21.3277  -10.8865    7.4283 C   0  0  0  0  0  0  0  0  0  0  0  0
  -22.4260  -10.8937    5.4083 C   0  0  0  0  0  0  0  0  0  0  0  0
  -21.3958  -10.3353    6.1779 O   0  0  0  0  0  0  0  0  0  0  0  0
 38 39  1  0  0  0
 39 37  1  0  0  0
 37 36  1  0  0  0
 36 35  1  0  0  0
 35 29  1  0  0  0
 29 30  2  0  0  0
 30 31  1  0  0  0
 31 32  2  0  0  0
 32 33  1  0  0  0
 33 28  1  0  0  0
 28  1  1  0  0  0
  1  2  1  0  0  0
  2  3  2  0  0  0
  3  4  1  0  0  0
  3  5  1  0  0  0
  5  6  1  0  0  0
  6  7  2  0  0  0
  7  8  1  0  0  0
  8  9  1  0  0  0
  7 10  1  0  0  0
 10 11  2  0  0  0
 10 12  1  0  0  0
 12 13  1  0  0  0
 13 14  1  0  0  0
 14 15  1  0  0  0
 15 16  1  0  0  0
 16 17  1  0  0  0
 16 18  1  0  0  0
 15 19  1  0  0  0
 19 20  2  0  0  0
 20 21  1  0  0  0
 21 22  2  0  0  0
 22 23  1  0  0  0
 23 24  2  0  0  0
 22 25  1  0  0  0
 25 26  1  0  0  0
 25 27  2  0  0  0
 33 34  2  0  0  0
 34 29  1  0  0  0
  9  1  1  0  0  0
 18 12  1  0  0  0
 24 19  1  0  0  0
  9  5  2  0  0  0
M  END
> <minimizedAffinity>
2.99241

> <CNNscore>
0.3560763001

> <CNNaffinity>
6.8601293564

> <CNN_VS>
2.4427294731

> <CNNaffinity_variance>
0.9816638827

$$$$
[H]c1nc(N2C([H])([H])C([H])([H])N(C(=O)c3sc4c(c(C([H])([H])[H])nn4C([H])([H])c4c([H])c([H])c([H])c(OC([H])([H])C([H])([H])OC([H])([H])[H])c4[H])c3[H])C([H])([H])[C@@]2([H])C([H])([H])[H])c([H])c([H])c1C(=O)C([H])([H])[H]


 39 43  0  0  0  0  0  0  0  0999 V2000
   -5.7222   -5.7948    5.2132 N   0  0  0  0  0  0  0  0  0  0  0  0
   -5.2999   -5.0532    4.2413 N   0  0  0  0  0  0  0  0  0  0  0  0
   -4.1023   -4.4723    4.5216 C   0  0  0  0  0  0  0  0  0  0  0  0
   -3.3440   -3.5638    3.6215 C   0  0  0  0  0  0  0  0  0  0  0  0
   -3.7376   -4.8999    5.8128 C   0  0  0  0  0  0  0  0  0  0  0  0
   -2.7183   -4.7276    6.6916 C   0  0  0  0  0  0  0  0  0  0  0  0
   -2.7721   -5.3602    7.8861 C   0  0  0  0  0  0  0  0  0  0  0  0
   -4.3005   -6.2110    7.7495 S   0  0  0  0  0  0  0  0  0  0  0  0
   -4.7614   -5.7075    6.1936 C   0  0  0  0  0  0  0  0  0  0  0  0
   -1.8881   -5.4316    9.0532 C   0  0  0  0  0  0  0  0  0  0  0  0
   -1.2501   -6.5702    9.1847 O   0  0  0  0  0  0  0  0  0  0  0  0
   -1.6621   -4.4544   10.0013 N   0  0  0  0  0  0  0  0  0  0  0  0
   -2.2467   -3.1575   10.0317 C   0  0  0  0  0  0  0  0  0  0  0  0
   -1.7073   -2.3260   11.1984 C   0  0  0  0  0  0  0  0  0  0  0  0
   -1.6023   -3.0670   12.4240 N   0  0  0  0  0  0  0  0  0  0  0  0
   -1.4873   -4.4821   12.3729 C   0  0  0  0  0  0  0  0  0  0  0  0
   -0.8464   -5.1427   13.5637 C   0  0  0  0  0  0  0  0  0  0  0  0
   -0.7055   -4.8176   11.0919 C   0  0  0  0  0  0  0  0  0  0  0  0
   -1.6111   -2.3777   13.6647 C   0  0  0  0  0  0  0  0  0  0  0  0
   -0.5003   -1.6299   14.0697 C   0  0  0  0  0  0  0  0  0  0  0  0
   -0.5051   -0.9557   15.2614 C   0  0  0  0  0  0  0  0  0  0  0  0
   -1.5875   -0.9778   16.1115 C   0  0  0  0  0  0  0  0  0  0  0  0
   -2.6684   -1.7255   15.6820 C   0  0  0  0  0  0  0  0  0  0  0  0
   -2.6523   -2.3819   14.5124 N   0  0  0  0  0  0  0  0  0  0  0  0
   -1.5729   -0.2579   17.3687 C   0  0  0  0  0  0  0  0  0  0  0  0
   -0.3271    0.2781   17.9681 C   0  0  0  0  0  0  0  0  0  0  0  0
   -2.6572   -0.0810   17.9738 O   0  0  0  0  0  0  0  0  0  0  0  0
   -6.9044   -6.5947    5.3845 C   0  0  0  0  0  0  0  0  0  0  0  0
   -6.4721   -7.0246    9.1613 C   0  0  0  0  0  0  0  0  0  0  0  0
   -6.9853   -8.3439    9.2910 C   0  0  0  0  0  0  0  0  0  0  0  0
   -7.4408   -9.0443    8.2137 C   0  0  0  0  0  0  0  0  0  0  0  0
   -7.4167   -8.4841    6.9463 C   0  0  0  0  0  0  0  0  0  0  0  0
   -6.9317   -7.2123    6.7610 C   0  0  0  0  0  0  0  0  0  0  0  0
   -6.4777   -6.5224    7.8550 C   0  0  0  0  0  0  0  0  0  0  0  0
   -6.0430   -6.3741   10.2008 O   0  0  0  0  0  0  0  0  0  0  0  0
   -5.3736   -6.0067   11.2563 C   0  0  0  0  0  0  0  0  0  0  0  0
   -6.1723   -5.8951   12.5558 C   0  0  0  0  0  0  0  0  0  0  0  0
   -6.0371   -4.7771   14.5605 C   0  0  0  0  0  0  0  0  0  0  0  0
   -5.9232   -4.6958   13.1655 O   0  0  0  0  0  0  0  0  0  0  0  0
 38 39  1  0  0  0
 39 37  1  0  0  0
 37 36  1  0  0  0
 36 35  1  0  0  0
 35 29  1  0  0  0
 29 30  2  0  0  0
 30 31  1  0  0  0
 31 32  2  0  0  0
 32 33  1  0  0  0
 33 28  1  0  0  0
 28  1  1  0  0  0
  1  2  1  0  0  0
  2  3  2  0  0  0
  3  4  1  0  0  0
  3  5  1  0  0  0
  5  6  1  0  0  0
  6  7  2  0  0  0
  7  8  1  0  0  0
  8  9  1  0  0  0
  7 10  1  0  0  0
 10 11  2  0  0  0
 10 12  1  0  0  0
 12 13  1  0  0  0
 13 14  1  0  0  0
 14 15  1  0  0  0
 15 16  1  0  0  0
 16 17  1  0  0  0
 16 18  1  0  0  0
 15 19  1  0  0  0
 19 20  2  0  0  0
 20 21  1  0  0  0
 21 22  2  0  0  0
 22 23  1  0  0  0
 23 24  2  0  0  0
 22 25  1  0  0  0
 25 26  1  0  0  0
 25 27  2  0  0  0
 33 34  2  0  0  0
 34 29  1  0  0  0
  9  1  1  0  0  0
 18 12  1  0  0  0
 24 19  1  0  0  0
  9  5  2  0  0  0
M  END
> <minimizedAffinity>
-1.79403

> <CNNscore>
0.3449115753

> <CNNaffinity>
5.8554711342

> <CNN_VS>
2.0196197033

> <CNNaffinity_variance>
0.4977866113

$$$$
[H]c1nc(N2C([H])([H])C([H])([H])N(C(=O)c3sc4c(c(C([H])([H])[H])nn4C([H])([H])c4c([H])c([H])c([H])c(OC([H])([H])C([H])([H])OC([H])([H])[H])c4[H])c3[H])C([H])([H])[C@@]2([H])C([H])([H])[H])c([H])c([H])c1C(=O)C([H])([H])[H]


 39 43  0  0  0  0  0  0  0  0999 V2000
  -15.7053   -8.0180    5.8682 N   0  0  0  0  0  0  0  0  0  0  0  0
  -15.5978   -8.6396    4.7390 N   0  0  0  0  0  0  0  0  0  0  0  0
  -14.3389   -9.1102    4.5297 C   0  0  0  0  0  0  0  0  0  0  0  0
  -13.8801   -9.8665    3.3347 C   0  0  0  0  0  0  0  0  0  0  0  0
  -13.5765   -8.7402    5.6544 C   0  0  0  0  0  0  0  0  0  0  0  0
  -12.3044   -8.8687    6.1082 C   0  0  0  0  0  0  0  0  0  0  0  0
  -11.9821   -8.3343    7.3084 C   0  0  0  0  0  0  0  0  0  0  0  0
  -13.5188   -7.6392    7.7924 S   0  0  0  0  0  0  0  0  0  0  0  0
  -14.4578   -8.0739    6.4448 C   0  0  0  0  0  0  0  0  0  0  0  0
  -10.7597   -8.2798    8.1155 C   0  0  0  0  0  0  0  0  0  0  0  0
  -10.9619   -8.0999    9.3991 O   0  0  0  0  0  0  0  0  0  0  0  0
   -9.4553   -8.3952    7.6798 N   0  0  0  0  0  0  0  0  0  0  0  0
   -9.0294   -8.6009    6.3377 C   0  0  0  0  0  0  0  0  0  0  0  0
   -7.5080   -8.7443    6.2475 C   0  0  0  0  0  0  0  0  0  0  0  0
   -6.7984   -7.7978    7.0617 N   0  0  0  0  0  0  0  0  0  0  0  0
   -7.4493   -7.2222    8.1857 C   0  0  0  0  0  0  0  0  0  0  0  0
   -6.5561   -6.7031    9.2801 C   0  0  0  0  0  0  0  0  0  0  0  0
   -8.4056   -8.2913    8.7398 C   0  0  0  0  0  0  0  0  0  0  0  0
   -5.4604   -7.4543    6.7355 C   0  0  0  0  0  0  0  0  0  0  0  0
   -4.4412   -8.4091    6.8202 C   0  0  0  0  0  0  0  0  0  0  0  0
   -3.1498   -8.0870    6.4992 C   0  0  0  0  0  0  0  0  0  0  0  0
   -2.7913   -6.8251    6.0821 C   0  0  0  0  0  0  0  0  0  0  0  0
   -3.8214   -5.9056    6.0091 C   0  0  0  0  0  0  0  0  0  0  0  0
   -5.0830   -6.2327    6.3261 N   0  0  0  0  0  0  0  0  0  0  0  0
   -1.4188   -6.5039    5.7472 C   0  0  0  0  0  0  0  0  0  0  0  0
   -0.3164   -7.4885    5.8642 C   0  0  0  0  0  0  0  0  0  0  0  0
   -1.1529   -5.3470    5.3420 O   0  0  0  0  0  0  0  0  0  0  0  0
  -16.8081   -7.3635    6.5179 C   0  0  0  0  0  0  0  0  0  0  0  0
  -18.7515   -4.2744    5.3706 C   0  0  0  0  0  0  0  0  0  0  0  0
  -18.4753   -4.3474    3.9781 C   0  0  0  0  0  0  0  0  0  0  0  0
  -17.7053   -5.3419    3.4518 C   0  0  0  0  0  0  0  0  0  0  0  0
  -17.1633   -6.3218    4.2685 C   0  0  0  0  0  0  0  0  0  0  0  0
  -17.3968   -6.3016    5.6220 C   0  0  0  0  0  0  0  0  0  0  0  0
  -18.1731   -5.2946    6.1342 C   0  0  0  0  0  0  0  0  0  0  0  0
  -19.4876   -3.3183    5.8519 O   0  0  0  0  0  0  0  0  0  0  0  0
  -19.9282   -2.3125    6.5530 C   0  0  0  0  0  0  0  0  0  0  0  0
  -20.5796   -1.1753    5.7646 C   0  0  0  0  0  0  0  0  0  0  0  0
  -22.0216   -1.5337    4.0098 C   0  0  0  0  0  0  0  0  0  0  0  0
  -21.8538   -1.5173    5.4016 O   0  0  0  0  0  0  0  0  0  0  0  0
 38 39  1  0  0  0
 39 37  1  0  0  0
 37 36  1  0  0  0
 36 35  1  0  0  0
 35 29  1  0  0  0
 29 30  2  0  0  0
 30 31  1  0  0  0
 31 32  2  0  0  0
 32 33  1  0  0  0
 33 28  1  0  0  0
 28  1  1  0  0  0
  1  2  1  0  0  0
  2  3  2  0  0  0
  3  4  1  0  0  0
  3  5  1  0  0  0
  5  6  1  0  0  0
  6  7  2  0  0  0
  7  8  1  0  0  0
  8  9  1  0  0  0
  7 10  1  0  0  0
 10 11  2  0  0  0
 10 12  1  0  0  0
 12 13  1  0  0  0
 13 14  1  0  0  0
 14 15  1  0  0  0
 15 16  1  0  0  0
 16 17  1  0  0  0
 16 18  1  0  0  0
 15 19  1  0  0  0
 19 20  2  0  0  0
 20 21  1  0  0  0
 21 22  2  0  0  0
 22 23  1  0  0  0
 23 24  2  0  0  0
 22 25  1  0  0  0
 25 26  1  0  0  0
 25 27  2  0  0  0
 33 34  2  0  0  0
 34 29  1  0  0  0
  9  1  1  0  0  0
 18 12  1  0  0  0
 24 19  1  0  0  0
  9  5  2  0  0  0
M  END
> <minimizedAffinity>
4.38999

> <CNNscore>
0.3415786922

> <CNNaffinity>
6.9791421890

> <CNN_VS>
2.3839261532

> <CNNaffinity_variance>
0.7477353811

$$$$
[H]c1nc(N2C([H])([H])C([H])([H])N(C(=O)c3sc4c(c(C([H])([H])[H])nn4C([H])([H])c4c([H])c([H])c([H])c(OC([H])([H])C([H])([H])OC([H])([H])[H])c4[H])c3[H])C([H])([H])[C@@]2([H])C([H])([H])[H])c([H])c([H])c1C(=O)C([H])([H])[H]


 39 43  0  0  0  0  0  0  0  0999 V2000
  -13.1604   -7.7626    7.9248 N   0  0  0  0  0  0  0  0  0  0  0  0
  -13.5765   -6.8818    8.7757 N   0  0  0  0  0  0  0  0  0  0  0  0
  -12.5511   -6.2927    9.4479 C   0  0  0  0  0  0  0  0  0  0  0  0
  -12.6845   -5.2425   10.4918 C   0  0  0  0  0  0  0  0  0  0  0  0
  -11.3631   -6.8715    8.9614 C   0  0  0  0  0  0  0  0  0  0  0  0
  -10.0254   -6.7724    9.1652 C   0  0  0  0  0  0  0  0  0  0  0  0
   -9.1947   -7.5575    8.4417 C   0  0  0  0  0  0  0  0  0  0  0  0
  -10.3428   -8.4485    7.4584 S   0  0  0  0  0  0  0  0  0  0  0  0
  -11.7891   -7.7650    8.0310 C   0  0  0  0  0  0  0  0  0  0  0  0
   -7.7402   -7.7241    8.3688 C   0  0  0  0  0  0  0  0  0  0  0  0
   -7.2156   -8.3803    9.3762 O   0  0  0  0  0  0  0  0  0  0  0  0
   -6.8884   -7.2766    7.3793 N   0  0  0  0  0  0  0  0  0  0  0  0
   -7.2595   -6.5579    6.2085 C   0  0  0  0  0  0  0  0  0  0  0  0
   -6.0505   -6.2879    5.3091 C   0  0  0  0  0  0  0  0  0  0  0  0
   -4.8830   -5.8733    6.0351 N   0  0  0  0  0  0  0  0  0  0  0  0
   -4.7560   -6.2241    7.4059 C   0  0  0  0  0  0  0  0  0  0  0  0
   -3.3559   -6.2677    7.9564 C   0  0  0  0  0  0  0  0  0  0  0  0
   -5.4400   -7.5903    7.5792 C   0  0  0  0  0  0  0  0  0  0  0  0
   -3.8740   -5.1246    5.3747 C   0  0  0  0  0  0  0  0  0  0  0  0
   -3.9718   -3.7324    5.2771 C   0  0  0  0  0  0  0  0  0  0  0  0
   -2.9981   -3.0031    4.6488 C   0  0  0  0  0  0  0  0  0  0  0  0
   -1.8878   -3.5927    4.0882 C   0  0  0  0  0  0  0  0  0  0  0  0
   -1.8215   -4.9691    4.2018 C   0  0  0  0  0  0  0  0  0  0  0  0
   -2.7815   -5.6732    4.8198 N   0  0  0  0  0  0  0  0  0  0  0  0
   -0.8685   -2.8033    3.4271 C   0  0  0  0  0  0  0  0  0  0  0  0
   -0.3197   -1.5560    4.0115 C   0  0  0  0  0  0  0  0  0  0  0  0
   -0.4330   -3.1908    2.3165 O   0  0  0  0  0  0  0  0  0  0  0  0
  -13.8472   -8.6255    7.0026 C   0  0  0  0  0  0  0  0  0  0  0  0
  -17.2120   -7.7524    5.4052 C   0  0  0  0  0  0  0  0  0  0  0  0
  -16.8867   -6.4636    4.9014 C   0  0  0  0  0  0  0  0  0  0  0  0
  -15.6486   -5.9190    5.0731 C   0  0  0  0  0  0  0  0  0  0  0  0
  -14.6600   -6.6140    5.7517 C   0  0  0  0  0  0  0  0  0  0  0  0
  -14.9177   -7.8637    6.2606 C   0  0  0  0  0  0  0  0  0  0  0  0
  -16.1676   -8.3961    6.0787 C   0  0  0  0  0  0  0  0  0  0  0  0
  -18.3980   -8.2532    5.2308 O   0  0  0  0  0  0  0  0  0  0  0  0
  -19.4242   -9.0553    5.2040 C   0  0  0  0  0  0  0  0  0  0  0  0
  -19.9012   -9.5850    6.5571 C   0  0  0  0  0  0  0  0  0  0  0  0
  -21.3128  -11.3563    6.9533 C   0  0  0  0  0  0  0  0  0  0  0  0
  -21.1843  -10.0502    6.4602 O   0  0  0  0  0  0  0  0  0  0  0  0
 38 39  1  0  0  0
 39 37  1  0  0  0
 37 36  1  0  0  0
 36 35  1  0  0  0
 35 29  1  0  0  0
 29 30  2  0  0  0
 30 31  1  0  0  0
 31 32  2  0  0  0
 32 33  1  0  0  0
 33 28  1  0  0  0
 28  1  1  0  0  0
  1  2  1  0  0  0
  2  3  2  0  0  0
  3  4  1  0  0  0
  3  5  1  0  0  0
  5  6  1  0  0  0
  6  7  2  0  0  0
  7  8  1  0  0  0
  8  9  1  0  0  0
  7 10  1  0  0  0
 10 11  2  0  0  0
 10 12  1  0  0  0
 12 13  1  0  0  0
 13 14  1  0  0  0
 14 15  1  0  0  0
 15 16  1  0  0  0
 16 17  1  0  0  0
 16 18  1  0  0  0
 15 19  1  0  0  0
 19 20  2  0  0  0
 20 21  1  0  0  0
 21 22  2  0  0  0
 22 23  1  0  0  0
 23 24  2  0  0  0
 22 25  1  0  0  0
 25 26  1  0  0  0
 25 27  2  0  0  0
 33 34  2  0  0  0
 34 29  1  0  0  0
  9  1  1  0  0  0
 18 12  1  0  0  0
 24 19  1  0  0  0
  9  5  2  0  0  0
M  END
> <minimizedAffinity>
-7.31354

> <CNNscore>
0.3095098734

> <CNNaffinity>
7.1918768883

> <CNN_VS>
2.2259569168

> <CNNaffinity_variance>
0.0644347593

$$$$
[H]c1c([H])c([H])c(N([H])[H])c(C(=O)c2nnn(-c3c([H])c([H])c([H])c(C(=O)OC([H])([H])[H])c3[H])c2[H])c1[H]


 26 28  0  0  0  0  0  0  0  0999 V2000
  -10.2497   -7.3071    8.1720 N   0  0  0  0  0  0  0  0  0  0  0  0
  -11.4052   -7.7602    7.6556 C   0  0  0  0  0  0  0  0  0  0  0  0
  -12.4807   -7.1082    8.2772 C   0  0  0  0  0  0  0  0  0  0  0  0
  -11.8965   -6.2922    9.1409 N   0  0  0  0  0  0  0  0  0  0  0  0
  -10.5659   -6.4029    9.0861 N   0  0  0  0  0  0  0  0  0  0  0  0
   -6.6372   -7.1926    7.2424 C   0  0  0  0  0  0  0  0  0  0  0  0
   -6.3404   -8.5454    7.1083 C   0  0  0  0  0  0  0  0  0  0  0  0
   -7.3627   -9.4682    7.3344 C   0  0  0  0  0  0  0  0  0  0  0  0
   -8.6240   -9.0520    7.6791 C   0  0  0  0  0  0  0  0  0  0  0  0
   -8.9279   -7.7156    7.8146 C   0  0  0  0  0  0  0  0  0  0  0  0
   -7.9156   -6.8181    7.5899 C   0  0  0  0  0  0  0  0  0  0  0  0
   -5.5626   -6.2272    7.0021 C   0  0  0  0  0  0  0  0  0  0  0  0
   -5.0153   -5.6634    7.9830 O   0  0  0  0  0  0  0  0  0  0  0  0
   -4.0866   -5.0110    5.4447 C   0  0  0  0  0  0  0  0  0  0  0  0
   -5.1315   -5.9163    5.7345 O   0  0  0  0  0  0  0  0  0  0  0  0
  -13.8519   -7.3639    7.9197 C   0  0  0  0  0  0  0  0  0  0  0  0
  -14.7113   -7.6400    8.8498 O   0  0  0  0  0  0  0  0  0  0  0  0
  -14.3269   -7.3279    6.5646 C   0  0  0  0  0  0  0  0  0  0  0  0
  -14.6814   -6.1880    5.8989 C   0  0  0  0  0  0  0  0  0  0  0  0
  -15.1426   -6.2493    4.5839 C   0  0  0  0  0  0  0  0  0  0  0  0
  -15.2600   -7.4486    3.9058 C   0  0  0  0  0  0  0  0  0  0  0  0
  -14.9030   -8.5911    4.5778 C   0  0  0  0  0  0  0  0  0  0  0  0
  -14.4497   -8.5402    5.8673 C   0  0  0  0  0  0  0  0  0  0  0  0
  -14.0856   -9.7566    6.5440 N   0  0  0  0  0  0  0  0  0  0  0  0
  -14.8066  -10.2149    7.1307 H   0  0  0  0  0  0  0  0  0  0  0  0
  -13.1342  -10.1470    6.4386 H   0  0  0  0  0  0  0  0  0  0  0  0
 14 15  1  0  0  0
 15 12  1  0  0  0
 12 13  2  0  0  0
 12  6  1  0  0  0
  6  7  2  0  0  0
  7  8  1  0  0  0
  8  9  2  0  0  0
  9 10  1  0  0  0
 10 11  2  0  0  0
 10  1  1  0  0  0
  1  2  1  0  0  0
  2  3  2  0  0  0
  3  4  1  0  0  0
  4  5  2  0  0  0
  3 16  1  0  0  0
 16 17  2  0  0  0
 16 18  1  0  0  0
 18 19  2  0  0  0
 19 20  1  0  0  0
 20 21  2  0  0  0
 21 22  1  0  0  0
 22 23  2  0  0  0
 23 24  1  0  0  0
 11  6  1  0  0  0
  5  1  1  0  0  0
 23 18  1  0  0  0
 24 25  1  0  0  0
 24 26  1  0  0  0
M  END
> <minimizedAffinity>
-8.56410

> <CNNscore>
0.6138601899

> <CNNaffinity>
6.2768526077

> <CNN_VS>
3.8531098366

> <CNNaffinity_variance>
0.1742650568

$$$$
[H]c1c([H])c([H])c(N([H])[H])c(C(=O)c2nnn(-c3c([H])c([H])c([H])c(C(=O)OC([H])([H])[H])c3[H])c2[H])c1[H]


 26 28  0  0  0  0  0  0  0  0999 V2000
  -10.5433   -8.7345    7.4849 N   0  0  0  0  0  0  0  0  0  0  0  0
  -11.3679   -7.7083    7.7572 C   0  0  0  0  0  0  0  0  0  0  0  0
  -12.6963   -8.1588    7.7332 C   0  0  0  0  0  0  0  0  0  0  0  0
  -12.5861   -9.4462    7.4439 N   0  0  0  0  0  0  0  0  0  0  0  0
  -11.3062   -9.7998    7.2938 N   0  0  0  0  0  0  0  0  0  0  0  0
   -7.0681   -7.6668    6.6422 C   0  0  0  0  0  0  0  0  0  0  0  0
   -6.3129   -8.6493    7.2753 C   0  0  0  0  0  0  0  0  0  0  0  0
   -6.9896   -9.6506    7.9734 C   0  0  0  0  0  0  0  0  0  0  0  0
   -8.3604   -9.6645    8.0331 C   0  0  0  0  0  0  0  0  0  0  0  0
   -9.1169   -8.6968    7.4102 C   0  0  0  0  0  0  0  0  0  0  0  0
   -8.4412   -7.7182    6.7272 C   0  0  0  0  0  0  0  0  0  0  0  0
   -6.3547   -6.6192    5.9087 C   0  0  0  0  0  0  0  0  0  0  0  0
   -6.8849   -6.1190    4.8849 O   0  0  0  0  0  0  0  0  0  0  0  0
   -4.3343   -5.2448    5.5736 C   0  0  0  0  0  0  0  0  0  0  0  0
   -5.1198   -6.1635    6.3046 O   0  0  0  0  0  0  0  0  0  0  0  0
  -13.8124   -7.2927    8.0112 C   0  0  0  0  0  0  0  0  0  0  0  0
  -13.8853   -6.6973    9.1603 O   0  0  0  0  0  0  0  0  0  0  0  0
  -14.8670   -7.0478    7.0672 C   0  0  0  0  0  0  0  0  0  0  0  0
  -14.7514   -6.2410    5.9700 C   0  0  0  0  0  0  0  0  0  0  0  0
  -15.8342   -6.0534    5.1109 C   0  0  0  0  0  0  0  0  0  0  0  0
  -17.0545   -6.6662    5.3285 C   0  0  0  0  0  0  0  0  0  0  0  0
  -17.1665   -7.4756    6.4315 C   0  0  0  0  0  0  0  0  0  0  0  0
  -16.1099   -7.6653    7.2791 C   0  0  0  0  0  0  0  0  0  0  0  0
  -16.2610   -8.5186    8.4276 N   0  0  0  0  0  0  0  0  0  0  0  0
  -16.5181   -8.0730    9.3273 H   0  0  0  0  0  0  0  0  0  0  0  0
  -16.1148   -9.5384    8.3421 H   0  0  0  0  0  0  0  0  0  0  0  0
 14 15  1  0  0  0
 15 12  1  0  0  0
 12 13  2  0  0  0
 12  6  1  0  0  0
  6  7  2  0  0  0
  7  8  1  0  0  0
  8  9  2  0  0  0
  9 10  1  0  0  0
 10 11  2  0  0  0
 10  1  1  0  0  0
  1  2  1  0  0  0
  2  3  2  0  0  0
  3  4  1  0  0  0
  4  5  2  0  0  0
  3 16  1  0  0  0
 16 17  2  0  0  0
 16 18  1  0  0  0
 18 19  2  0  0  0
 19 20  1  0  0  0
 20 21  2  0  0  0
 21 22  1  0  0  0
 22 23  2  0  0  0
 23 24  1  0  0  0
 11  6  1  0  0  0
  5  1  1  0  0  0
 23 18  1  0  0  0
 24 25  1  0  0  0
 24 26  1  0  0  0
M  END
> <minimizedAffinity>
-8.09042

> <CNNscore>
0.5656948090

> <CNNaffinity>
6.3038072586

> <CNN_VS>
3.5660309792

> <CNNaffinity_variance>
0.2145224512

$$$$
[H]c1c([H])c([H])c(N([H])[H])c(C(=O)c2nnn(-c3c([H])c([H])c([H])c(C(=O)OC([H])([H])[H])c3[H])c2[H])c1[H]


 26 28  0  0  0  0  0  0  0  0999 V2000
  -12.3053   -7.7428    7.7709 N   0  0  0  0  0  0  0  0  0  0  0  0
  -13.4293   -8.0510    7.1011 C   0  0  0  0  0  0  0  0  0  0  0  0
  -14.4820   -7.2464    7.5623 C   0  0  0  0  0  0  0  0  0  0  0  0
  -13.9173   -6.4939    8.4939 N   0  0  0  0  0  0  0  0  0  0  0  0
  -12.6191   -6.7820    8.6262 N   0  0  0  0  0  0  0  0  0  0  0  0
   -8.6015   -8.1914    7.6833 C   0  0  0  0  0  0  0  0  0  0  0  0
   -8.4902   -9.5135    7.2636 C   0  0  0  0  0  0  0  0  0  0  0  0
   -9.6647  -10.2267    7.0196 C   0  0  0  0  0  0  0  0  0  0  0  0
  -10.8935   -9.6398    7.1892 C   0  0  0  0  0  0  0  0  0  0  0  0
  -11.0144   -8.3322    7.6042 C   0  0  0  0  0  0  0  0  0  0  0  0
   -9.8536   -7.6413    7.8408 C   0  0  0  0  0  0  0  0  0  0  0  0
   -7.3669   -7.4455    7.9360 C   0  0  0  0  0  0  0  0  0  0  0  0
   -6.7295   -7.6582    8.9982 O   0  0  0  0  0  0  0  0  0  0  0  0
   -6.6808   -6.7574    5.6691 C   0  0  0  0  0  0  0  0  0  0  0  0
   -6.8806   -6.5172    7.0466 O   0  0  0  0  0  0  0  0  0  0  0  0
  -15.8128   -7.3264    7.0184 C   0  0  0  0  0  0  0  0  0  0  0  0
  -16.7304   -7.9668    7.6725 O   0  0  0  0  0  0  0  0  0  0  0  0
  -16.1849   -6.7234    5.7688 C   0  0  0  0  0  0  0  0  0  0  0  0
  -15.7948   -5.4775    5.3644 C   0  0  0  0  0  0  0  0  0  0  0  0
  -16.2136   -4.9677    4.1354 C   0  0  0  0  0  0  0  0  0  0  0  0
  -17.0302   -5.6898    3.2847 C   0  0  0  0  0  0  0  0  0  0  0  0
  -17.4199   -6.9406    3.6945 C   0  0  0  0  0  0  0  0  0  0  0  0
  -17.0139   -7.4483    4.8980 C   0  0  0  0  0  0  0  0  0  0  0  0
  -17.4418   -8.7622    5.2988 N   0  0  0  0  0  0  0  0  0  0  0  0
  -18.2883   -8.8319    5.8927 H   0  0  0  0  0  0  0  0  0  0  0  0
  -16.9128   -9.5974    4.9968 H   0  0  0  0  0  0  0  0  0  0  0  0
 14 15  1  0  0  0
 15 12  1  0  0  0
 12 13  2  0  0  0
 12  6  1  0  0  0
  6  7  2  0  0  0
  7  8  1  0  0  0
  8  9  2  0  0  0
  9 10  1  0  0  0
 10 11  2  0  0  0
 10  1  1  0  0  0
  1  2  1  0  0  0
  2  3  2  0  0  0
  3  4  1  0  0  0
  4  5  2  0  0  0
  3 16  1  0  0  0
 16 17  2  0  0  0
 16 18  1  0  0  0
 18 19  2  0  0  0
 19 20  1  0  0  0
 20 21  2  0  0  0
 21 22  1  0  0  0
 22 23  2  0  0  0
 23 24  1  0  0  0
 11  6  1  0  0  0
  5  1  1  0  0  0
 23 18  1  0  0  0
 24 25  1  0  0  0
 24 26  1  0  0  0
M  END
> <minimizedAffinity>
-9.14463

> <CNNscore>
0.5381913185

> <CNNaffinity>
6.4510993958

> <CNN_VS>
3.4719257355

> <CNNaffinity_variance>
0.2006439716

$$$$
[H]c1c([H])c([H])c(N([H])[H])c(C(=O)c2nnn(-c3c([H])c([H])c([H])c(C(=O)OC([H])([H])[H])c3[H])c2[H])c1[H]


 26 28  0  0  0  0  0  0  0  0999 V2000
   -7.3126   -8.0492    7.4141 N   0  0  0  0  0  0  0  0  0  0  0  0
   -8.6209   -7.7479    7.3464 C   0  0  0  0  0  0  0  0  0  0  0  0
   -9.3779   -8.9141    7.5337 C   0  0  0  0  0  0  0  0  0  0  0  0
   -8.4645   -9.8573    7.7047 N   0  0  0  0  0  0  0  0  0  0  0  0
   -7.2294   -9.3520    7.6352 N   0  0  0  0  0  0  0  0  0  0  0  0
   -4.4612   -5.7860    8.2356 C   0  0  0  0  0  0  0  0  0  0  0  0
   -4.0585   -5.3732    6.9693 C   0  0  0  0  0  0  0  0  0  0  0  0
   -4.7550   -5.8661    5.8649 C   0  0  0  0  0  0  0  0  0  0  0  0
   -5.8066   -6.7331    6.0247 C   0  0  0  0  0  0  0  0  0  0  0  0
   -6.2129   -7.1478    7.2736 C   0  0  0  0  0  0  0  0  0  0  0  0
   -5.5212   -6.6568    8.3512 C   0  0  0  0  0  0  0  0  0  0  0  0
   -3.7295   -5.2648    9.3921 C   0  0  0  0  0  0  0  0  0  0  0  0
   -4.3734   -4.7774   10.3552 O   0  0  0  0  0  0  0  0  0  0  0  0
   -1.6100   -5.0973   10.6424 C   0  0  0  0  0  0  0  0  0  0  0  0
   -2.3569   -5.2913    9.4592 O   0  0  0  0  0  0  0  0  0  0  0  0
  -10.8178   -8.9097    7.5387 C   0  0  0  0  0  0  0  0  0  0  0  0
  -11.4596   -9.6584    6.6975 O   0  0  0  0  0  0  0  0  0  0  0  0
  -11.5946   -8.1071    8.4420 C   0  0  0  0  0  0  0  0  0  0  0  0
  -11.3892   -6.7744    8.6651 C   0  0  0  0  0  0  0  0  0  0  0  0
  -12.1884   -6.0757    9.5698 C   0  0  0  0  0  0  0  0  0  0  0  0
  -13.2087   -6.6917   10.2710 C   0  0  0  0  0  0  0  0  0  0  0  0
  -13.4117   -8.0302   10.0442 C   0  0  0  0  0  0  0  0  0  0  0  0
  -12.6327   -8.7231    9.1587 C   0  0  0  0  0  0  0  0  0  0  0  0
  -12.8705  -10.1260    8.9455 N   0  0  0  0  0  0  0  0  0  0  0  0
  -12.3130  -10.7985    9.5031 H   0  0  0  0  0  0  0  0  0  0  0  0
  -13.5761  -10.4363    8.2565 H   0  0  0  0  0  0  0  0  0  0  0  0
 14 15  1  0  0  0
 15 12  1  0  0  0
 12 13  2  0  0  0
 12  6  1  0  0  0
  6  7  2  0  0  0
  7  8  1  0  0  0
  8  9  2  0  0  0
  9 10  1  0  0  0
 10 11  2  0  0  0
 10  1  1  0  0  0
  1  2  1  0  0  0
  2  3  2  0  0  0
  3  4  1  0  0  0
  4  5  2  0  0  0
  3 16  1  0  0  0
 16 17  2  0  0  0
 16 18  1  0  0  0
 18 19  2  0  0  0
 19 20  1  0  0  0
 20 21  2  0  0  0
 21 22  1  0  0  0
 22 23  2  0  0  0
 23 24  1  0  0  0
 11  6  1  0  0  0
  5  1  1  0  0  0
 23 18  1  0  0  0
 24 25  1  0  0  0
 24 26  1  0  0  0
M  END
> <minimizedAffinity>
-7.69193

> <CNNscore>
0.5082208514

> <CNNaffinity>
5.6373038292

> <CNN_VS>
2.8649952412

> <CNNaffinity_variance>
0.1238051429

$$$$
[H]c1c([H])c([H])c(N([H])[H])c(C(=O)c2nnn(-c3c([H])c([H])c([H])c(C(=O)OC([H])([H])[H])c3[H])c2[H])c1[H]


 26 28  0  0  0  0  0  0  0  0999 V2000
   -9.6329   -7.4294    7.7668 N   0  0  0  0  0  0  0  0  0  0  0  0
   -8.7692   -6.6414    7.1034 C   0  0  0  0  0  0  0  0  0  0  0  0
   -7.7032   -7.4179    6.6249 C   0  0  0  0  0  0  0  0  0  0  0  0
   -7.9966   -8.6417    7.0364 N   0  0  0  0  0  0  0  0  0  0  0  0
   -9.1456   -8.6595    7.7184 N   0  0  0  0  0  0  0  0  0  0  0  0
  -13.2563   -7.0860    8.5919 C   0  0  0  0  0  0  0  0  0  0  0  0
  -13.2137   -6.2236    9.6830 C   0  0  0  0  0  0  0  0  0  0  0  0
  -11.9657   -5.7761   10.1188 C   0  0  0  0  0  0  0  0  0  0  0  0
  -10.8143   -6.1760    9.4885 C   0  0  0  0  0  0  0  0  0  0  0  0
  -10.8456   -7.0294    8.4079 C   0  0  0  0  0  0  0  0  0  0  0  0
  -12.0774   -7.4624    7.9886 C   0  0  0  0  0  0  0  0  0  0  0  0
  -14.5677   -7.5516    8.1360 C   0  0  0  0  0  0  0  0  0  0  0  0
  -15.2921   -8.2095    8.9246 O   0  0  0  0  0  0  0  0  0  0  0  0
  -16.3329   -7.6101    6.4143 C   0  0  0  0  0  0  0  0  0  0  0  0
  -15.0341   -7.2917    6.8694 O   0  0  0  0  0  0  0  0  0  0  0  0
   -6.6250   -6.8592    5.8512 C   0  0  0  0  0  0  0  0  0  0  0  0
   -6.8966   -6.1251    4.8181 O   0  0  0  0  0  0  0  0  0  0  0  0
   -5.2407   -7.0745    6.1688 C   0  0  0  0  0  0  0  0  0  0  0  0
   -4.7321   -8.2446    6.6588 C   0  0  0  0  0  0  0  0  0  0  0  0
   -3.3726   -8.3604    6.9486 C   0  0  0  0  0  0  0  0  0  0  0  0
   -2.4924   -7.3115    6.7560 C   0  0  0  0  0  0  0  0  0  0  0  0
   -3.0071   -6.1380    6.2638 C   0  0  0  0  0  0  0  0  0  0  0  0
   -4.3389   -6.0158    5.9768 C   0  0  0  0  0  0  0  0  0  0  0  0
   -4.8467   -4.7711    5.4639 N   0  0  0  0  0  0  0  0  0  0  0  0
   -5.2364   -4.0937    6.1446 H   0  0  0  0  0  0  0  0  0  0  0  0
   -4.8169   -4.5744    4.4495 H   0  0  0  0  0  0  0  0  0  0  0  0
 14 15  1  0  0  0
 15 12  1  0  0  0
 12 13  2  0  0  0
 12  6  1  0  0  0
  6  7  2  0  0  0
  7  8  1  0  0  0
  8  9  2  0  0  0
  9 10  1  0  0  0
 10 11  2  0  0  0
 10  1  1  0  0  0
  1  2  1  0  0  0
  2  3  2  0  0  0
  3  4  1  0  0  0
  4  5  2  0  0  0
  3 16  1  0  0  0
 16 17  2  0  0  0
 16 18  1  0  0  0
 18 19  2  0  0  0
 19 20  1  0  0  0
 20 21  2  0  0  0
 21 22  1  0  0  0
 22 23  2  0  0  0
 23 24  1  0  0  0
 11  6  1  0  0  0
  5  1  1  0  0  0
 23 18  1  0  0  0
 24 25  1  0  0  0
 24 26  1  0  0  0
M  END
> <minimizedAffinity>
-8.31118

> <CNNscore>
0.4932518303

> <CNNaffinity>
5.6956696510

> <CNN_VS>
2.8093993664

> <CNNaffinity_variance>
0.3622557819

$$$$
[H]c1c([H])c([H])c(N([H])[H])c(C(=O)c2nnn(-c3c([H])c([H])c([H])c(C(=O)OC([H])([H])[H])c3[H])c2[H])c1[H]


 26 28  0  0  0  0  0  0  0  0999 V2000
   -6.8155   -6.9418    7.4415 N   0  0  0  0  0  0  0  0  0  0  0  0
   -7.7596   -7.6292    8.1073 C   0  0  0  0  0  0  0  0  0  0  0  0
   -9.0200   -7.3327    7.5671 C   0  0  0  0  0  0  0  0  0  0  0  0
   -8.7512   -6.4733    6.5963 N   0  0  0  0  0  0  0  0  0  0  0  0
   -7.4393   -6.2334    6.5129 N   0  0  0  0  0  0  0  0  0  0  0  0
   -3.2255   -7.9591    7.3769 C   0  0  0  0  0  0  0  0  0  0  0  0
   -2.6425   -6.9765    8.1712 C   0  0  0  0  0  0  0  0  0  0  0  0
   -3.4703   -5.9913    8.7115 C   0  0  0  0  0  0  0  0  0  0  0  0
   -4.8203   -5.9927    8.4656 C   0  0  0  0  0  0  0  0  0  0  0  0
   -5.4070   -6.9605    7.6808 C   0  0  0  0  0  0  0  0  0  0  0  0
   -4.5838   -7.9234    7.1554 C   0  0  0  0  0  0  0  0  0  0  0  0
   -2.3541   -8.9925    6.8137 C   0  0  0  0  0  0  0  0  0  0  0  0
   -1.7181   -9.7478    7.5913 O   0  0  0  0  0  0  0  0  0  0  0  0
   -1.4155  -10.1684    4.8593 C   0  0  0  0  0  0  0  0  0  0  0  0
   -2.2084   -9.1641    5.4577 O   0  0  0  0  0  0  0  0  0  0  0  0
  -10.2327   -7.9357    8.0557 C   0  0  0  0  0  0  0  0  0  0  0  0
  -10.4272   -9.2053    7.8821 O   0  0  0  0  0  0  0  0  0  0  0  0
  -11.2559   -7.1933    8.7380 C   0  0  0  0  0  0  0  0  0  0  0  0
  -11.0501   -6.4486    9.8654 C   0  0  0  0  0  0  0  0  0  0  0  0
  -12.1076   -5.7666   10.4673 C   0  0  0  0  0  0  0  0  0  0  0  0
  -13.3921   -5.8138    9.9576 C   0  0  0  0  0  0  0  0  0  0  0  0
  -13.5947   -6.5629    8.8252 C   0  0  0  0  0  0  0  0  0  0  0  0
  -12.5634   -7.2346    8.2284 C   0  0  0  0  0  0  0  0  0  0  0  0
  -12.8099   -8.0126    7.0435 N   0  0  0  0  0  0  0  0  0  0  0  0
  -13.0046   -9.0234    7.1637 H   0  0  0  0  0  0  0  0  0  0  0  0
  -12.7898   -7.5644    6.1121 H   0  0  0  0  0  0  0  0  0  0  0  0
 14 15  1  0  0  0
 15 12  1  0  0  0
 12 13  2  0  0  0
 12  6  1  0  0  0
  6  7  2  0  0  0
  7  8  1  0  0  0
  8  9  2  0  0  0
  9 10  1  0  0  0
 10 11  2  0  0  0
 10  1  1  0  0  0
  1  2  1  0  0  0
  2  3  2  0  0  0
  3  4  1  0  0  0
  4  5  2  0  0  0
  3 16  1  0  0  0
 16 17  2  0  0  0
 16 18  1  0  0  0
 18 19  2  0  0  0
 19 20  1  0  0  0
 20 21  2  0  0  0
 21 22  1  0  0  0
 22 23  2  0  0  0
 23 24  1  0  0  0
 11  6  1  0  0  0
  5  1  1  0  0  0
 23 18  1  0  0  0
 24 25  1  0  0  0
 24 26  1  0  0  0
M  END
> <minimizedAffinity>
-7.50182

> <CNNscore>
0.3689392805

> <CNNaffinity>
5.4551773071

> <CNN_VS>
2.0126292706

> <CNNaffinity_variance>
0.1493026614

$$$$
[H]c1c([H])c([H])c(N([H])[H])c(C(=O)c2nnn(-c3c([H])c([H])c([H])c(C(=O)OC([H])([H])[H])c3[H])c2[H])c1[H]


 26 28  0  0  0  0  0  0  0  0999 V2000
   -7.3000   -7.9783    7.3205 N   0  0  0  0  0  0  0  0  0  0  0  0
   -6.7215   -6.8234    7.6931 C   0  0  0  0  0  0  0  0  0  0  0  0
   -5.3548   -6.8643    7.3793 C   0  0  0  0  0  0  0  0  0  0  0  0
   -5.1943   -8.0582    6.8297 N   0  0  0  0  0  0  0  0  0  0  0  0
   -6.3484   -8.7307    6.7898 N   0  0  0  0  0  0  0  0  0  0  0  0
  -10.9305   -7.8259    8.1711 C   0  0  0  0  0  0  0  0  0  0  0  0
  -11.3702   -9.0748    7.7432 C   0  0  0  0  0  0  0  0  0  0  0  0
  -10.4352   -9.9421    7.1764 C   0  0  0  0  0  0  0  0  0  0  0  0
   -9.1202   -9.5725    7.0453 C   0  0  0  0  0  0  0  0  0  0  0  0
   -8.6750   -8.3388    7.4655 C   0  0  0  0  0  0  0  0  0  0  0  0
   -9.6026   -7.4951    8.0210 C   0  0  0  0  0  0  0  0  0  0  0  0
  -11.9139   -6.9194    8.7675 C   0  0  0  0  0  0  0  0  0  0  0  0
  -13.0131   -6.7396    8.1852 O   0  0  0  0  0  0  0  0  0  0  0  0
  -12.5696   -5.3461   10.5502 C   0  0  0  0  0  0  0  0  0  0  0  0
  -11.6734   -6.2565    9.9473 O   0  0  0  0  0  0  0  0  0  0  0  0
   -4.4682   -5.7594    7.6370 C   0  0  0  0  0  0  0  0  0  0  0  0
   -4.2747   -4.8699    6.7143 O   0  0  0  0  0  0  0  0  0  0  0  0
   -3.7754   -5.5864    8.8834 C   0  0  0  0  0  0  0  0  0  0  0  0
   -4.3396   -5.0728   10.0174 C   0  0  0  0  0  0  0  0  0  0  0  0
   -3.5861   -4.9318   11.1828 C   0  0  0  0  0  0  0  0  0  0  0  0
   -2.2544   -5.2996   11.2410 C   0  0  0  0  0  0  0  0  0  0  0  0
   -1.6915   -5.8148   10.1000 C   0  0  0  0  0  0  0  0  0  0  0  0
   -2.4230   -5.9568    8.9529 C   0  0  0  0  0  0  0  0  0  0  0  0
   -1.8022   -6.4985    7.7735 N   0  0  0  0  0  0  0  0  0  0  0  0
   -1.4098   -5.8295    7.0861 H   0  0  0  0  0  0  0  0  0  0  0  0
   -1.7572   -7.5214    7.6312 H   0  0  0  0  0  0  0  0  0  0  0  0
 14 15  1  0  0  0
 15 12  1  0  0  0
 12 13  2  0  0  0
 12  6  1  0  0  0
  6  7  2  0  0  0
  7  8  1  0  0  0
  8  9  2  0  0  0
  9 10  1  0  0  0
 10 11  2  0  0  0
 10  1  1  0  0  0
  1  2  1  0  0  0
  2  3  2  0  0  0
  3  4  1  0  0  0
  4  5  2  0  0  0
  3 16  1  0  0  0
 16 17  2  0  0  0
 16 18  1  0  0  0
 18 19  2  0  0  0
 19 20  1  0  0  0
 20 21  2  0  0  0
 21 22  1  0  0  0
 22 23  2  0  0  0
 23 24  1  0  0  0
 11  6  1  0  0  0
  5  1  1  0  0  0
 23 18  1  0  0  0
 24 25  1  0  0  0
 24 26  1  0  0  0
M  END
> <minimizedAffinity>
-6.76147

> <CNNscore>
0.3628689647

> <CNNaffinity>
5.0762410164

> <CNN_VS>
1.8420103788

> <CNNaffinity_variance>
0.1734833419

$$$$
[H]c1c([H])c([H])c(N([H])[H])c(C(=O)c2nnn(-c3c([H])c([H])c([H])c(C(=O)OC([H])([H])[H])c3[H])c2[H])c1[H]


 26 28  0  0  0  0  0  0  0  0999 V2000
  -10.6437   -8.1561    7.5691 N   0  0  0  0  0  0  0  0  0  0  0  0
  -11.4804   -8.7690    6.7139 C   0  0  0  0  0  0  0  0  0  0  0  0
  -12.7473   -8.1716    6.7928 C   0  0  0  0  0  0  0  0  0  0  0  0
  -12.5912   -7.2233    7.7036 N   0  0  0  0  0  0  0  0  0  0  0  0
  -11.3401   -7.2055    8.1729 N   0  0  0  0  0  0  0  0  0  0  0  0
   -6.9738   -7.7676    8.1244 C   0  0  0  0  0  0  0  0  0  0  0  0
   -6.5661   -9.0935    8.2342 C   0  0  0  0  0  0  0  0  0  0  0  0
   -7.5355  -10.0909    8.1198 C   0  0  0  0  0  0  0  0  0  0  0  0
   -8.8528   -9.7717    7.9052 C   0  0  0  0  0  0  0  0  0  0  0  0
   -9.2665   -8.4627    7.7951 C   0  0  0  0  0  0  0  0  0  0  0  0
   -8.3052   -7.4913    7.9091 C   0  0  0  0  0  0  0  0  0  0  0  0
   -5.9534   -6.7239    8.2426 C   0  0  0  0  0  0  0  0  0  0  0  0
   -5.5925   -6.3471    9.3860 O   0  0  0  0  0  0  0  0  0  0  0  0
   -5.4305   -6.6726    5.8328 C   0  0  0  0  0  0  0  0  0  0  0  0
   -5.3755   -6.1407    7.1402 O   0  0  0  0  0  0  0  0  0  0  0  0
  -13.8550   -8.5954    5.9764 C   0  0  0  0  0  0  0  0  0  0  0  0
  -13.8650   -9.7973    5.4912 O   0  0  0  0  0  0  0  0  0  0  0  0
  -14.9693   -7.7437    5.6661 C   0  0  0  0  0  0  0  0  0  0  0  0
  -15.0340   -6.9200    4.5773 C   0  0  0  0  0  0  0  0  0  0  0  0
  -16.1548   -6.1185    4.3603 C   0  0  0  0  0  0  0  0  0  0  0  0
  -17.2340   -6.1217    5.2249 C   0  0  0  0  0  0  0  0  0  0  0  0
  -17.1651   -6.9502    6.3172 C   0  0  0  0  0  0  0  0  0  0  0  0
  -16.0699   -7.7395    6.5376 C   0  0  0  0  0  0  0  0  0  0  0  0
  -16.0285   -8.5954    7.6934 N   0  0  0  0  0  0  0  0  0  0  0  0
  -15.5658   -8.2303    8.5459 H   0  0  0  0  0  0  0  0  0  0  0  0
  -16.4500   -9.5387    7.6589 H   0  0  0  0  0  0  0  0  0  0  0  0
 14 15  1  0  0  0
 15 12  1  0  0  0
 12 13  2  0  0  0
 12  6  1  0  0  0
  6  7  2  0  0  0
  7  8  1  0  0  0
  8  9  2  0  0  0
  9 10  1  0  0  0
 10 11  2  0  0  0
 10  1  1  0  0  0
  1  2  1  0  0  0
  2  3  2  0  0  0
  3  4  1  0  0  0
  4  5  2  0  0  0
  3 16  1  0  0  0
 16 17  2  0  0  0
 16 18  1  0  0  0
 18 19  2  0  0  0
 19 20  1  0  0  0
 20 21  2  0  0  0
 21 22  1  0  0  0
 22 23  2  0  0  0
 23 24  1  0  0  0
 11  6  1  0  0  0
  5  1  1  0  0  0
 23 18  1  0  0  0
 24 25  1  0  0  0
 24 26  1  0  0  0
M  END
> <minimizedAffinity>
-6.15436

> <CNNscore>
0.3592488170

> <CNNaffinity>
6.1241383553

> <CNN_VS>
2.2000894547

> <CNNaffinity_variance>
0.4055517614

$$$$
[H]c1c([H])c([H])c(N([H])[H])c(C(=O)c2nnn(-c3c([H])c([H])c([H])c(C(=O)OC([H])([H])[H])c3[H])c2[H])c1[H]


 26 28  0  0  0  0  0  0  0  0999 V2000
  -12.5968   -8.3768    7.2116 N   0  0  0  0  0  0  0  0  0  0  0  0
  -13.7019   -7.6173    7.3056 C   0  0  0  0  0  0  0  0  0  0  0  0
  -14.7892   -8.3055    6.7467 C   0  0  0  0  0  0  0  0  0  0  0  0
  -14.2625   -9.4521    6.3457 N   0  0  0  0  0  0  0  0  0  0  0  0
  -12.9554   -9.5049    6.6182 N   0  0  0  0  0  0  0  0  0  0  0  0
   -8.9333   -8.5696    7.8967 C   0  0  0  0  0  0  0  0  0  0  0  0
   -8.7081   -7.3635    8.5530 C   0  0  0  0  0  0  0  0  0  0  0  0
   -9.7944   -6.5098    8.7505 C   0  0  0  0  0  0  0  0  0  0  0  0
  -11.0482   -6.8514    8.3096 C   0  0  0  0  0  0  0  0  0  0  0  0
  -11.2815   -8.0426    7.6590 C   0  0  0  0  0  0  0  0  0  0  0  0
  -10.2067   -8.8733    7.4706 C   0  0  0  0  0  0  0  0  0  0  0  0
   -7.7916   -9.4638    7.6933 C   0  0  0  0  0  0  0  0  0  0  0  0
   -7.8384  -10.6316    8.1555 O   0  0  0  0  0  0  0  0  0  0  0  0
   -6.6747   -8.4893    5.7219 C   0  0  0  0  0  0  0  0  0  0  0  0
   -6.6663   -9.0663    7.0113 O   0  0  0  0  0  0  0  0  0  0  0  0
  -16.1207   -7.7579    6.7201 C   0  0  0  0  0  0  0  0  0  0  0  0
  -16.8918   -7.9091    7.7508 O   0  0  0  0  0  0  0  0  0  0  0  0
  -16.6490   -7.0399    5.5937 C   0  0  0  0  0  0  0  0  0  0  0  0
  -16.2959   -5.7637    5.2548 C   0  0  0  0  0  0  0  0  0  0  0  0
  -16.8692   -5.1401    4.1466 C   0  0  0  0  0  0  0  0  0  0  0  0
  -17.8068   -5.7762    3.3539 C   0  0  0  0  0  0  0  0  0  0  0  0
  -18.1588   -7.0577    3.6976 C   0  0  0  0  0  0  0  0  0  0  0  0
  -17.6015   -7.6768    4.7826 C   0  0  0  0  0  0  0  0  0  0  0  0
  -17.9938   -9.0201    5.1168 N   0  0  0  0  0  0  0  0  0  0  0  0
  -18.7526   -9.1405    5.8125 H   0  0  0  0  0  0  0  0  0  0  0  0
  -17.5256   -9.8263    4.6702 H   0  0  0  0  0  0  0  0  0  0  0  0
 14 15  1  0  0  0
 15 12  1  0  0  0
 12 13  2  0  0  0
 12  6  1  0  0  0
  6  7  2  0  0  0
  7  8  1  0  0  0
  8  9  2  0  0  0
  9 10  1  0  0  0
 10 11  2  0  0  0
 10  1  1  0  0  0
  1  2  1  0  0  0
  2  3  2  0  0  0
  3  4  1  0  0  0
  4  5  2  0  0  0
  3 16  1  0  0  0
 16 17  2  0  0  0
 16 18  1  0  0  0
 18 19  2  0  0  0
 19 20  1  0  0  0
 20 21  2  0  0  0
 21 22  1  0  0  0
 22 23  2  0  0  0
 23 24  1  0  0  0
 11  6  1  0  0  0
  5  1  1  0  0  0
 23 18  1  0  0  0
 24 25  1  0  0  0
 24 26  1  0  0  0
M  END
> <minimizedAffinity>
-8.85329

> <CNNscore>
0.3468974531

> <CNNaffinity>
6.2418427467

> <CNN_VS>
2.1652793884

> <CNNaffinity_variance>
0.1609070003

$$$$
[H]Oc1c([H])c([H])c(-n2c([H])c(Br)c3c([H])c(O[H])c([H])c(O[H])c3c2=O)c([H])c1[H]


 24 26  0  0  0  0  0  0  0  0999 V2000
  -10.1888   -7.2612    8.2710 N   0  0  0  0  0  0  0  0  0  0  0  0
  -10.7001   -6.3003    9.0841 C   0  0  0  0  0  0  0  0  0  0  0  0
  -12.0536   -6.3562    9.3556 C   0  0  0  0  0  0  0  0  0  0  0  0
  -12.7917   -5.0188   10.4931 Br  0  0  0  0  0  0  0  0  0  0  0  0
  -12.8644   -7.3417    8.8295 C   0  0  0  0  0  0  0  0  0  0  0  0
  -14.2211   -7.4082    9.0940 C   0  0  0  0  0  0  0  0  0  0  0  0
  -15.0122   -8.4068    8.5539 C   0  0  0  0  0  0  0  0  0  0  0  0
  -16.3718   -8.4664    8.8242 O   0  0  0  0  0  0  0  0  0  0  0  0
  -14.4768   -9.3744    7.7305 C   0  0  0  0  0  0  0  0  0  0  0  0
  -13.1249   -9.3092    7.4661 C   0  0  0  0  0  0  0  0  0  0  0  0
  -12.5491  -10.2661    6.6413 O   0  0  0  0  0  0  0  0  0  0  0  0
  -12.3260   -8.3178    7.9992 C   0  0  0  0  0  0  0  0  0  0  0  0
  -10.9702   -8.2265    7.7528 C   0  0  0  0  0  0  0  0  0  0  0  0
  -10.4722   -9.1113    6.9980 O   0  0  0  0  0  0  0  0  0  0  0  0
  -16.8584   -7.8162    9.4067 H   0  0  0  0  0  0  0  0  0  0  0  0
  -13.0475  -11.0101    6.2178 H   0  0  0  0  0  0  0  0  0  0  0  0
   -4.7312   -7.1989    6.9900 O   0  0  0  0  0  0  0  0  0  0  0  0
   -6.0792   -7.2258    7.3219 C   0  0  0  0  0  0  0  0  0  0  0  0
   -6.9763   -6.5182    6.5657 C   0  0  0  0  0  0  0  0  0  0  0  0
   -8.3166   -6.5367    6.8846 C   0  0  0  0  0  0  0  0  0  0  0  0
   -8.8024   -7.2538    7.9568 C   0  0  0  0  0  0  0  0  0  0  0  0
   -7.8892   -7.9615    8.7095 C   0  0  0  0  0  0  0  0  0  0  0  0
   -6.5412   -7.9607    8.4128 C   0  0  0  0  0  0  0  0  0  0  0  0
   -4.0978   -7.7171    7.5490 H   0  0  0  0  0  0  0  0  0  0  0  0
 17 18  1  0  0  0
 18 19  2  0  0  0
 19 20  1  0  0  0
 20 21  2  0  0  0
 21 22  1  0  0  0
 22 23  2  0  0  0
 21  1  1  0  0  0
  1  2  1  0  0  0
  2  3  2  0  0  0
  3  4  1  0  0  0
  3  5  1  0  0  0
  5  6  2  0  0  0
  6  7  1  0  0  0
  7  8  1  0  0  0
  7  9  2  0  0  0
  9 10  1  0  0  0
 10 11  1  0  0  0
 10 12  2  0  0  0
 12 13  1  0  0  0
 13 14  2  0  0  0
 23 18  1  0  0  0
 13  1  1  0  0  0
 12  5  1  0  0  0
 17 24  1  0  0  0
  8 15  1  0  0  0
 11 16  1  0  0  0
M  END
> <minimizedAffinity>
-8.88975

> <CNNscore>
0.6776335239

> <CNNaffinity>
6.2045364380

> <CNN_VS>
4.2044019699

> <CNNaffinity_variance>
0.0408195816

$$$$
[H]Oc1c([H])c([H])c(-n2c([H])c(Br)c3c([H])c(O[H])c([H])c(O[H])c3c2=O)c([H])c1[H]


 24 26  0  0  0  0  0  0  0  0999 V2000
  -10.1891   -7.2612    8.2700 N   0  0  0  0  0  0  0  0  0  0  0  0
  -10.7004   -6.2988    9.0814 C   0  0  0  0  0  0  0  0  0  0  0  0
  -12.0540   -6.3539    9.3524 C   0  0  0  0  0  0  0  0  0  0  0  0
  -12.7922   -5.0145   10.4875 Br  0  0  0  0  0  0  0  0  0  0  0  0
  -12.8649   -7.3400    8.8275 C   0  0  0  0  0  0  0  0  0  0  0  0
  -14.2217   -7.4057    9.0915 C   0  0  0  0  0  0  0  0  0  0  0  0
  -15.0129   -8.4049    8.5526 C   0  0  0  0  0  0  0  0  0  0  0  0
  -16.3727   -8.4636    8.8223 O   0  0  0  0  0  0  0  0  0  0  0  0
  -14.4774   -9.3739    7.7310 C   0  0  0  0  0  0  0  0  0  0  0  0
  -13.1254   -9.3095    7.4670 C   0  0  0  0  0  0  0  0  0  0  0  0
  -12.5495  -10.2679    6.6440 O   0  0  0  0  0  0  0  0  0  0  0  0
  -12.3264   -8.3175    7.9990 C   0  0  0  0  0  0  0  0  0  0  0  0
  -10.9705   -8.2270    7.7531 C   0  0  0  0  0  0  0  0  0  0  0  0
  -10.4724   -9.1132    6.9998 O   0  0  0  0  0  0  0  0  0  0  0  0
  -16.8593   -7.8124    9.4037 H   0  0  0  0  0  0  0  0  0  0  0  0
  -13.0480  -11.0125    6.2215 H   0  0  0  0  0  0  0  0  0  0  0  0
   -4.7116   -7.2688    7.0752 O   0  0  0  0  0  0  0  0  0  0  0  0
   -6.0713   -7.2554    7.3565 C   0  0  0  0  0  0  0  0  0  0  0  0
   -6.5494   -7.9762    8.4190 C   0  0  0  0  0  0  0  0  0  0  0  0
   -7.8965   -7.9712    8.7086 C   0  0  0  0  0  0  0  0  0  0  0  0
   -8.8025   -7.2547    7.9565 C   0  0  0  0  0  0  0  0  0  0  0  0
   -8.3083   -6.5337    6.8901 C   0  0  0  0  0  0  0  0  0  0  0  0
   -6.9640   -6.5209    6.5773 C   0  0  0  0  0  0  0  0  0  0  0  0
   -4.3849   -6.7412    6.3025 H   0  0  0  0  0  0  0  0  0  0  0  0
 17 18  1  0  0  0
 18 19  2  0  0  0
 19 20  1  0  0  0
 20 21  2  0  0  0
 21 22  1  0  0  0
 22 23  2  0  0  0
 21  1  1  0  0  0
  1  2  1  0  0  0
  2  3  2  0  0  0
  3  4  1  0  0  0
  3  5  1  0  0  0
  5  6  2  0  0  0
  6  7  1  0  0  0
  7  8  1  0  0  0
  7  9  2  0  0  0
  9 10  1  0  0  0
 10 11  1  0  0  0
 10 12  2  0  0  0
 12 13  1  0  0  0
 13 14  2  0  0  0
 23 18  1  0  0  0
 13  1  1  0  0  0
 12  5  1  0  0  0
 17 24  1  0  0  0
  8 15  1  0  0  0
 11 16  1  0  0  0
M  END
> <minimizedAffinity>
-8.89302

> <CNNscore>
0.6755090952

> <CNNaffinity>
6.2069234848

> <CNN_VS>
4.1928334236

> <CNNaffinity_variance>
0.0442814790

$$$$
[H]Oc1c([H])c([H])c(-n2c([H])c(Br)c3c([H])c(O[H])c([H])c(O[H])c3c2=O)c([H])c1[H]


 24 26  0  0  0  0  0  0  0  0999 V2000
   -6.0685   -8.4935    5.5547 N   0  0  0  0  0  0  0  0  0  0  0  0
   -4.8169   -8.0199    5.3199 C   0  0  0  0  0  0  0  0  0  0  0  0
   -4.2335   -7.2559    6.3122 C   0  0  0  0  0  0  0  0  0  0  0  0
   -2.4791   -6.5815    6.0042 Br  0  0  0  0  0  0  0  0  0  0  0  0
   -4.8836   -6.9776    7.4977 C   0  0  0  0  0  0  0  0  0  0  0  0
   -4.3098   -6.2138    8.4989 C   0  0  0  0  0  0  0  0  0  0  0  0
   -4.9830   -5.9492    9.6785 C   0  0  0  0  0  0  0  0  0  0  0  0
   -4.4005   -5.1825   10.6775 O   0  0  0  0  0  0  0  0  0  0  0  0
   -6.2529   -6.4379    9.9004 C   0  0  0  0  0  0  0  0  0  0  0  0
   -6.8259   -7.1992    8.9034 C   0  0  0  0  0  0  0  0  0  0  0  0
   -8.1037   -7.7091    9.0900 O   0  0  0  0  0  0  0  0  0  0  0  0
   -6.1639   -7.4696    7.7227 C   0  0  0  0  0  0  0  0  0  0  0  0
   -6.7112   -8.2282    6.7068 C   0  0  0  0  0  0  0  0  0  0  0  0
   -7.8765   -8.6799    6.9037 O   0  0  0  0  0  0  0  0  0  0  0  0
   -3.4869   -4.7816   10.6182 H   0  0  0  0  0  0  0  0  0  0  0  0
   -8.6485   -7.5640    9.9046 H   0  0  0  0  0  0  0  0  0  0  0  0
   -8.6668  -11.6340    1.7057 O   0  0  0  0  0  0  0  0  0  0  0  0
   -8.0112  -10.8502    2.6457 C   0  0  0  0  0  0  0  0  0  0  0  0
   -8.4479  -10.8441    3.9443 C   0  0  0  0  0  0  0  0  0  0  0  0
   -7.8059  -10.0705    4.8867 C   0  0  0  0  0  0  0  0  0  0  0  0
   -6.7185   -9.2854    4.5692 C   0  0  0  0  0  0  0  0  0  0  0  0
   -6.2892   -9.3005    3.2589 C   0  0  0  0  0  0  0  0  0  0  0  0
   -6.9134  -10.0659    2.2947 C   0  0  0  0  0  0  0  0  0  0  0  0
   -8.3362  -11.6251    0.7714 H   0  0  0  0  0  0  0  0  0  0  0  0
 17 18  1  0  0  0
 18 19  2  0  0  0
 19 20  1  0  0  0
 20 21  2  0  0  0
 21 22  1  0  0  0
 22 23  2  0  0  0
 21  1  1  0  0  0
  1  2  1  0  0  0
  2  3  2  0  0  0
  3  4  1  0  0  0
  3  5  1  0  0  0
  5  6  2  0  0  0
  6  7  1  0  0  0
  7  8  1  0  0  0
  7  9  2  0  0  0
  9 10  1  0  0  0
 10 11  1  0  0  0
 10 12  2  0  0  0
 12 13  1  0  0  0
 13 14  2  0  0  0
 23 18  1  0  0  0
 13  1  1  0  0  0
 12  5  1  0  0  0
 17 24  1  0  0  0
  8 15  1  0  0  0
 11 16  1  0  0  0
M  END
> <minimizedAffinity>
11.08970

> <CNNscore>
0.4366938472

> <CNNaffinity>
4.8952574730

> <CNN_VS>
2.1377289295

> <CNNaffinity_variance>
0.9274986386

$$$$
[H]Oc1c([H])c([H])c(-n2c([H])c(Br)c3c([H])c(O[H])c([H])c(O[H])c3c2=O)c([H])c1[H]


 24 26  0  0  0  0  0  0  0  0999 V2000
  -15.2694   -8.4593    4.5421 N   0  0  0  0  0  0  0  0  0  0  0  0
  -14.6102   -8.2205    5.7059 C   0  0  0  0  0  0  0  0  0  0  0  0
  -15.3752   -8.0685    6.8462 C   0  0  0  0  0  0  0  0  0  0  0  0
  -14.4717   -7.7329    8.4890 Br  0  0  0  0  0  0  0  0  0  0  0  0
  -16.7527   -8.1533    6.8188 C   0  0  0  0  0  0  0  0  0  0  0  0
  -17.5296   -8.0028    7.9540 C   0  0  0  0  0  0  0  0  0  0  0  0
  -18.9094   -8.0923    7.8996 C   0  0  0  0  0  0  0  0  0  0  0  0
  -19.6812   -7.9402    9.0427 O   0  0  0  0  0  0  0  0  0  0  0  0
  -19.5624   -8.3352    6.7100 C   0  0  0  0  0  0  0  0  0  0  0  0
  -18.7892   -8.4853    5.5779 C   0  0  0  0  0  0  0  0  0  0  0  0
  -19.4106   -8.7312    4.3609 O   0  0  0  0  0  0  0  0  0  0  0  0
  -17.4123   -8.3980    5.6201 C   0  0  0  0  0  0  0  0  0  0  0  0
  -16.6119   -8.5438    4.5042 C   0  0  0  0  0  0  0  0  0  0  0  0
  -17.2045   -8.7670    3.4089 O   0  0  0  0  0  0  0  0  0  0  0  0
  -19.3090   -7.7618    9.9529 H   0  0  0  0  0  0  0  0  0  0  0  0
  -20.3909   -8.8088    4.2409 H   0  0  0  0  0  0  0  0  0  0  0  0
  -12.3989   -9.0708   -0.2345 O   0  0  0  0  0  0  0  0  0  0  0  0
  -13.0993   -8.9328    0.9565 C   0  0  0  0  0  0  0  0  0  0  0  0
  -14.1136   -8.0159    1.0424 C   0  0  0  0  0  0  0  0  0  0  0  0
  -14.8162   -7.8693    2.2186 C   0  0  0  0  0  0  0  0  0  0  0  0
  -14.5340   -8.6242    3.3368 C   0  0  0  0  0  0  0  0  0  0  0  0
  -13.5108   -9.5432    3.2370 C   0  0  0  0  0  0  0  0  0  0  0  0
  -12.7908   -9.7109    2.0715 C   0  0  0  0  0  0  0  0  0  0  0  0
  -11.6685   -9.7394   -0.2771 H   0  0  0  0  0  0  0  0  0  0  0  0
 17 18  1  0  0  0
 18 19  2  0  0  0
 19 20  1  0  0  0
 20 21  2  0  0  0
 21 22  1  0  0  0
 22 23  2  0  0  0
 21  1  1  0  0  0
  1  2  1  0  0  0
  2  3  2  0  0  0
  3  4  1  0  0  0
  3  5  1  0  0  0
  5  6  2  0  0  0
  6  7  1  0  0  0
  7  8  1  0  0  0
  7  9  2  0  0  0
  9 10  1  0  0  0
 10 11  1  0  0  0
 10 12  2  0  0  0
 12 13  1  0  0  0
 13 14  2  0  0  0
 23 18  1  0  0  0
 13  1  1  0  0  0
 12  5  1  0  0  0
 17 24  1  0  0  0
  8 15  1  0  0  0
 11 16  1  0  0  0
M  END
> <minimizedAffinity>
24.20119

> <CNNscore>
0.4130983651

> <CNNaffinity>
5.7533588409

> <CNN_VS>
2.3767030239

> <CNNaffinity_variance>
1.4964716434

$$$$
[H]Oc1c([H])c([H])c(-n2c([H])c(Br)c3c([H])c(O[H])c([H])c(O[H])c3c2=O)c([H])c1[H]


 24 26  0  0  0  0  0  0  0  0999 V2000
  -14.9878   -7.5235    7.2008 N   0  0  0  0  0  0  0  0  0  0  0  0
  -15.4315   -7.7557    8.4639 C   0  0  0  0  0  0  0  0  0  0  0  0
  -14.5216   -7.6017    9.4919 C   0  0  0  0  0  0  0  0  0  0  0  0
  -15.1220   -7.9223   11.2708 Br  0  0  0  0  0  0  0  0  0  0  0  0
  -13.2131   -7.2279    9.2600 C   0  0  0  0  0  0  0  0  0  0  0  0
  -12.2926   -7.0705   10.2812 C   0  0  0  0  0  0  0  0  0  0  0  0
  -10.9863   -6.6949   10.0218 C   0  0  0  0  0  0  0  0  0  0  0  0
  -10.0695   -6.5392   11.0516 O   0  0  0  0  0  0  0  0  0  0  0  0
  -10.5528   -6.4631    8.7338 C   0  0  0  0  0  0  0  0  0  0  0  0
  -11.4692   -6.6197    7.7152 C   0  0  0  0  0  0  0  0  0  0  0  0
  -11.0701   -6.3951    6.4045 O   0  0  0  0  0  0  0  0  0  0  0  0
  -12.7747   -6.9940    7.9619 C   0  0  0  0  0  0  0  0  0  0  0  0
  -13.7146   -7.1587    6.9635 C   0  0  0  0  0  0  0  0  0  0  0  0
  -13.3235   -6.9476    5.7789 O   0  0  0  0  0  0  0  0  0  0  0  0
  -10.2797   -6.6820   12.0182 H   0  0  0  0  0  0  0  0  0  0  0  0
  -10.1549   -6.1245    6.1388 H   0  0  0  0  0  0  0  0  0  0  0  0
  -18.5316   -8.0420    2.8877 O   0  0  0  0  0  0  0  0  0  0  0  0
  -17.6451   -7.9294    3.9505 C   0  0  0  0  0  0  0  0  0  0  0  0
  -17.7610   -6.8764    4.8194 C   0  0  0  0  0  0  0  0  0  0  0  0
  -16.8876   -6.7534    5.8779 C   0  0  0  0  0  0  0  0  0  0  0  0
  -15.8800   -7.6665    6.1033 C   0  0  0  0  0  0  0  0  0  0  0  0
  -15.7743   -8.7213    5.2216 C   0  0  0  0  0  0  0  0  0  0  0  0
  -16.6354   -8.8691    4.1530 C   0  0  0  0  0  0  0  0  0  0  0  0
  -18.4317   -8.8106    2.2700 H   0  0  0  0  0  0  0  0  0  0  0  0
 17 18  1  0  0  0
 18 19  2  0  0  0
 19 20  1  0  0  0
 20 21  2  0  0  0
 21 22  1  0  0  0
 22 23  2  0  0  0
 21  1  1  0  0  0
  1  2  1  0  0  0
  2  3  2  0  0  0
  3  4  1  0  0  0
  3  5  1  0  0  0
  5  6  2  0  0  0
  6  7  1  0  0  0
  7  8  1  0  0  0
  7  9  2  0  0  0
  9 10  1  0  0  0
 10 11  1  0  0  0
 10 12  2  0  0  0
 12 13  1  0  0  0
 13 14  2  0  0  0
 23 18  1  0  0  0
 13  1  1  0  0  0
 12  5  1  0  0  0
 17 24  1  0  0  0
  8 15  1  0  0  0
 11 16  1  0  0  0
M  END
> <minimizedAffinity>
1.26518

> <CNNscore>
0.4021315277

> <CNNaffinity>
6.0459098816

> <CNN_VS>
2.4312510490

> <CNNaffinity_variance>
0.9708964229

$$$$
[H]Oc1c([H])c([H])c(-n2c([H])c(Br)c3c([H])c(O[H])c([H])c(O[H])c3c2=O)c([H])c1[H]


 24 26  0  0  0  0  0  0  0  0999 V2000
  -14.0070   -7.7047    6.5635 N   0  0  0  0  0  0  0  0  0  0  0  0
  -14.2290   -8.9772    6.9849 C   0  0  0  0  0  0  0  0  0  0  0  0
  -13.1422   -9.6833    7.4636 C   0  0  0  0  0  0  0  0  0  0  0  0
  -13.4303  -11.4691    8.0596 Br  0  0  0  0  0  0  0  0  0  0  0  0
  -11.8781   -9.1314    7.5171 C   0  0  0  0  0  0  0  0  0  0  0  0
  -10.7820   -9.8284    7.9943 C   0  0  0  0  0  0  0  0  0  0  0  0
   -9.5247   -9.2519    8.0374 C   0  0  0  0  0  0  0  0  0  0  0  0
   -8.4308   -9.9578    8.5174 O   0  0  0  0  0  0  0  0  0  0  0  0
   -9.3173   -7.9592    7.6057 C   0  0  0  0  0  0  0  0  0  0  0  0
  -10.4088   -7.2635    7.1299 C   0  0  0  0  0  0  0  0  0  0  0  0
  -10.2398   -5.9588    6.6861 O   0  0  0  0  0  0  0  0  0  0  0  0
  -11.6675   -7.8281    7.0821 C   0  0  0  0  0  0  0  0  0  0  0  0
  -12.7789   -7.1570    6.6114 C   0  0  0  0  0  0  0  0  0  0  0  0
  -12.5958   -5.9700    6.2135 O   0  0  0  0  0  0  0  0  0  0  0  0
   -8.4717  -10.8980    8.8537 H   0  0  0  0  0  0  0  0  0  0  0  0
   -9.3736   -5.4779    6.6852 H   0  0  0  0  0  0  0  0  0  0  0  0
  -18.3056   -4.6852    4.6053 O   0  0  0  0  0  0  0  0  0  0  0  0
  -17.2290   -5.4210    5.0821 C   0  0  0  0  0  0  0  0  0  0  0  0
  -17.4566   -6.5435    5.8341 C   0  0  0  0  0  0  0  0  0  0  0  0
  -16.3968   -7.2822    6.3131 C   0  0  0  0  0  0  0  0  0  0  0  0
  -15.0881   -6.9304    6.0610 C   0  0  0  0  0  0  0  0  0  0  0  0
  -14.8729   -5.7988    5.3032 C   0  0  0  0  0  0  0  0  0  0  0  0
  -15.9156   -5.0402    4.8107 C   0  0  0  0  0  0  0  0  0  0  0  0
  -18.1207   -3.8764    4.0632 H   0  0  0  0  0  0  0  0  0  0  0  0
 17 18  1  0  0  0
 18 19  2  0  0  0
 19 20  1  0  0  0
 20 21  2  0  0  0
 21 22  1  0  0  0
 22 23  2  0  0  0
 21  1  1  0  0  0
  1  2  1  0  0  0
  2  3  2  0  0  0
  3  4  1  0  0  0
  3  5  1  0  0  0
  5  6  2  0  0  0
  6  7  1  0  0  0
  7  8  1  0  0  0
  7  9  2  0  0  0
  9 10  1  0  0  0
 10 11  1  0  0  0
 10 12  2  0  0  0
 12 13  1  0  0  0
 13 14  2  0  0  0
 23 18  1  0  0  0
 13  1  1  0  0  0
 12  5  1  0  0  0
 17 24  1  0  0  0
  8 15  1  0  0  0
 11 16  1  0  0  0
M  END
> <minimizedAffinity>
3.80127

> <CNNscore>
0.2831154466

> <CNNaffinity>
5.6510043144

> <CNN_VS>
1.5998866558

> <CNNaffinity_variance>
0.5667181015

$$$$
[H]Oc1c([H])c([H])c(-n2c([H])c(Br)c3c([H])c(O[H])c([H])c(O[H])c3c2=O)c([H])c1[H]


 24 26  0  0  0  0  0  0  0  0999 V2000
   -9.6147   -7.6243    7.9156 N   0  0  0  0  0  0  0  0  0  0  0  0
  -10.1281   -8.7034    7.2690 C   0  0  0  0  0  0  0  0  0  0  0  0
  -11.4660   -8.9834    7.4701 C   0  0  0  0  0  0  0  0  0  0  0  0
  -12.2067  -10.4917    6.5735 Br  0  0  0  0  0  0  0  0  0  0  0  0
  -12.2597   -8.2077    8.2908 C   0  0  0  0  0  0  0  0  0  0  0  0
  -13.6007   -8.4780    8.5001 C   0  0  0  0  0  0  0  0  0  0  0  0
  -14.3748   -7.6844    9.3282 C   0  0  0  0  0  0  0  0  0  0  0  0
  -15.7187   -7.9624    9.5326 O   0  0  0  0  0  0  0  0  0  0  0  0
  -13.8375   -6.5928    9.9767 C   0  0  0  0  0  0  0  0  0  0  0  0
  -12.5013   -6.3224    9.7690 C   0  0  0  0  0  0  0  0  0  0  0  0
  -11.9242   -5.2314   10.4048 O   0  0  0  0  0  0  0  0  0  0  0  0
  -11.7194   -7.1069    8.9453 C   0  0  0  0  0  0  0  0  0  0  0  0
  -10.3795   -6.8614    8.7179 C   0  0  0  0  0  0  0  0  0  0  0  0
   -9.8799   -5.8611    9.3099 O   0  0  0  0  0  0  0  0  0  0  0  0
  -16.2052   -8.7273    9.1118 H   0  0  0  0  0  0  0  0  0  0  0  0
  -12.4110   -4.6175   11.0111 H   0  0  0  0  0  0  0  0  0  0  0  0
   -4.2203   -6.2757    7.2003 O   0  0  0  0  0  0  0  0  0  0  0  0
   -5.5521   -6.6175    7.3941 C   0  0  0  0  0  0  0  0  0  0  0  0
   -6.4787   -6.2982    6.4367 C   0  0  0  0  0  0  0  0  0  0  0  0
   -7.8033   -6.6318    6.6172 C   0  0  0  0  0  0  0  0  0  0  0  0
   -8.2439   -7.2881    7.7464 C   0  0  0  0  0  0  0  0  0  0  0  0
   -7.3013   -7.6035    8.7020 C   0  0  0  0  0  0  0  0  0  0  0  0
   -5.9681   -7.2815    8.5473 C   0  0  0  0  0  0  0  0  0  0  0  0
   -3.5650   -6.5152    7.9041 H   0  0  0  0  0  0  0  0  0  0  0  0
 17 18  1  0  0  0
 18 19  2  0  0  0
 19 20  1  0  0  0
 20 21  2  0  0  0
 21 22  1  0  0  0
 22 23  2  0  0  0
 21  1  1  0  0  0
  1  2  1  0  0  0
  2  3  2  0  0  0
  3  4  1  0  0  0
  3  5  1  0  0  0
  5  6  2  0  0  0
  6  7  1  0  0  0
  7  8  1  0  0  0
  7  9  2  0  0  0
  9 10  1  0  0  0
 10 11  1  0  0  0
 10 12  2  0  0  0
 12 13  1  0  0  0
 13 14  2  0  0  0
 23 18  1  0  0  0
 13  1  1  0  0  0
 12  5  1  0  0  0
 17 24  1  0  0  0
  8 15  1  0  0  0
 11 16  1  0  0  0
M  END
> <minimizedAffinity>
-5.83193

> <CNNscore>
0.2689491212

> <CNNaffinity>
5.5777902603

> <CNN_VS>
1.5001417398

> <CNNaffinity_variance>
0.0226602070

$$$$
[H]Oc1c([H])c([H])c(-n2c([H])c(Br)c3c([H])c(O[H])c([H])c(O[H])c3c2=O)c([H])c1[H]


 24 26  0  0  0  0  0  0  0  0999 V2000
  -15.7284   -6.9184    6.2915 N   0  0  0  0  0  0  0  0  0  0  0  0
  -16.6213   -7.5904    7.0643 C   0  0  0  0  0  0  0  0  0  0  0  0
  -16.1122   -8.3816    8.0760 C   0  0  0  0  0  0  0  0  0  0  0  0
  -17.3460   -9.3328    9.1717 Br  0  0  0  0  0  0  0  0  0  0  0  0
  -14.7554   -8.4939    8.3035 C   0  0  0  0  0  0  0  0  0  0  0  0
  -14.2336   -9.2830    9.3134 C   0  0  0  0  0  0  0  0  0  0  0  0
  -12.8687   -9.3786    9.5207 C   0  0  0  0  0  0  0  0  0  0  0  0
  -12.3537  -10.1721   10.5357 O   0  0  0  0  0  0  0  0  0  0  0  0
  -11.9766   -8.6896    8.7269 C   0  0  0  0  0  0  0  0  0  0  0  0
  -12.4953   -7.9028    7.7201 C   0  0  0  0  0  0  0  0  0  0  0  0
  -11.6284   -7.1936    6.8997 O   0  0  0  0  0  0  0  0  0  0  0  0
  -13.8547   -7.7999    7.5040 C   0  0  0  0  0  0  0  0  0  0  0  0
  -14.4037   -7.0207    6.5046 C   0  0  0  0  0  0  0  0  0  0  0  0
  -13.5906   -6.3856    5.7723 O   0  0  0  0  0  0  0  0  0  0  0  0
  -12.9113  -10.7111   11.1660 H   0  0  0  0  0  0  0  0  0  0  0  0
  -10.6415   -7.2101    6.9846 H   0  0  0  0  0  0  0  0  0  0  0  0
  -17.6101   -3.6804    2.1197 O   0  0  0  0  0  0  0  0  0  0  0  0
  -17.1293   -4.4708    3.1551 C   0  0  0  0  0  0  0  0  0  0  0  0
  -17.8238   -5.5907    3.5299 C   0  0  0  0  0  0  0  0  0  0  0  0
  -17.3572   -6.3833    4.5558 C   0  0  0  0  0  0  0  0  0  0  0  0
  -16.1947   -6.0890    5.2353 C   0  0  0  0  0  0  0  0  0  0  0  0
  -15.5054   -4.9592    4.8484 C   0  0  0  0  0  0  0  0  0  0  0  0
  -15.9497   -4.1475    3.8243 C   0  0  0  0  0  0  0  0  0  0  0  0
  -17.0938   -2.8743    1.8631 H   0  0  0  0  0  0  0  0  0  0  0  0
 17 18  1  0  0  0
 18 19  2  0  0  0
 19 20  1  0  0  0
 20 21  2  0  0  0
 21 22  1  0  0  0
 22 23  2  0  0  0
 21  1  1  0  0  0
  1  2  1  0  0  0
  2  3  2  0  0  0
  3  4  1  0  0  0
  3  5  1  0  0  0
  5  6  2  0  0  0
  6  7  1  0  0  0
  7  8  1  0  0  0
  7  9  2  0  0  0
  9 10  1  0  0  0
 10 11  1  0  0  0
 10 12  2  0  0  0
 12 13  1  0  0  0
 13 14  2  0  0  0
 23 18  1  0  0  0
 13  1  1  0  0  0
 12  5  1  0  0  0
 17 24  1  0  0  0
  8 15  1  0  0  0
 11 16  1  0  0  0
M  END
> <minimizedAffinity>
4.12571

> <CNNscore>
0.2619127333

> <CNNaffinity>
5.8003020287

> <CNN_VS>
1.5191729069

> <CNNaffinity_variance>
1.7939888239

$$$$
[H]Oc1c([H])c([H])c(-n2c([H])c(Br)c3c([H])c(O[H])c([H])c(O[H])c3c2=O)c([H])c1[H]


 24 26  0  0  0  0  0  0  0  0999 V2000
   -7.6716   -7.7708    7.1895 N   0  0  0  0  0  0  0  0  0  0  0  0
   -7.9561   -9.0206    6.7389 C   0  0  0  0  0  0  0  0  0  0  0  0
   -9.2316   -9.4999    6.9672 C   0  0  0  0  0  0  0  0  0  0  0  0
   -9.6522  -11.2499    6.3441 Br  0  0  0  0  0  0  0  0  0  0  0  0
  -10.1870   -8.7511    7.6242 C   0  0  0  0  0  0  0  0  0  0  0  0
  -11.4676   -9.2201    7.8588 C   0  0  0  0  0  0  0  0  0  0  0  0
  -12.4073   -8.4491    8.5202 C   0  0  0  0  0  0  0  0  0  0  0  0
  -13.6893   -8.9270    8.7513 O   0  0  0  0  0  0  0  0  0  0  0  0
  -12.1017   -7.1825    8.9708 C   0  0  0  0  0  0  0  0  0  0  0  0
  -10.8258   -6.7139    8.7377 C   0  0  0  0  0  0  0  0  0  0  0  0
  -10.4803   -5.4429    9.1765 O   0  0  0  0  0  0  0  0  0  0  0  0
   -9.8803   -7.4740    8.0791 C   0  0  0  0  0  0  0  0  0  0  0  0
   -8.5955   -7.0323    7.8311 C   0  0  0  0  0  0  0  0  0  0  0  0
   -8.3082   -5.8707    8.2420 O   0  0  0  0  0  0  0  0  0  0  0  0
  -14.0132   -9.8287    8.4669 H   0  0  0  0  0  0  0  0  0  0  0  0
  -11.0954   -4.8320    9.6560 H   0  0  0  0  0  0  0  0  0  0  0  0
   -2.5755   -5.5987    6.3283 O   0  0  0  0  0  0  0  0  0  0  0  0
   -3.8316   -6.1442    6.5579 C   0  0  0  0  0  0  0  0  0  0  0  0
   -4.8342   -5.9411    5.6464 C   0  0  0  0  0  0  0  0  0  0  0  0
   -6.0850   -6.4770    5.8626 C   0  0  0  0  0  0  0  0  0  0  0  0
   -6.3751   -7.2256    6.9830 C   0  0  0  0  0  0  0  0  0  0  0  0
   -5.3575   -7.4224    7.8923 C   0  0  0  0  0  0  0  0  0  0  0  0
   -4.0954   -6.8973    7.7010 C   0  0  0  0  0  0  0  0  0  0  0  0
   -1.8633   -5.7566    6.9992 H   0  0  0  0  0  0  0  0  0  0  0  0
 17 18  1  0  0  0
 18 19  2  0  0  0
 19 20  1  0  0  0
 20 21  2  0  0  0
 21 22  1  0  0  0
 22 23  2  0  0  0
 21  1  1  0  0  0
  1  2  1  0  0  0
  2  3  2  0  0  0
  3  4  1  0  0  0
  3  5  1  0  0  0
  5  6  2  0  0  0
  6  7  1  0  0  0
  7  8  1  0  0  0
  7  9  2  0  0  0
  9 10  1  0  0  0
 10 11  1  0  0  0
 10 12  2  0  0  0
 12 13  1  0  0  0
 13 14  2  0  0  0
 23 18  1  0  0  0
 13  1  1  0  0  0
 12  5  1  0  0  0
 17 24  1  0  0  0
  8 15  1  0  0  0
 11 16  1  0  0  0
M  END
> <minimizedAffinity>
-5.81880

> <CNNscore>
0.2271500528

> <CNNaffinity>
5.1809854507

> <CNN_VS>
1.1768611670

> <CNNaffinity_variance>
0.0341828689

$$$$
[H]OC(=O)C1([H])C([H])([H])C([H])([H])C([H])(N2C(=O)S/C(=C(/[H])c3c([H])c([H])c4c(c([H])nn4C([H])([H])c4c([H])c([H])c(Cl)c([H])c4C(F)(F)F)c3[H])C2=O)C([H])([H])C1([H])[H]


 39 43  0  0  0  0  0  0  0  0999 V2000
  -12.2741   -8.3062    8.2382 C   0  0  0  0  0  0  0  0  0  0  0  0
  -11.1687   -9.0904    8.5872 C   0  0  0  0  0  0  0  0  0  0  0  0
  -10.5596   -9.9526    7.6900 C   0  0  0  0  0  0  0  0  0  0  0  0
  -11.0667  -10.0333    6.4134 C   0  0  0  0  0  0  0  0  0  0  0  0
  -10.6872  -10.7753    5.3404 N   0  0  0  0  0  0  0  0  0  0  0  0
  -11.4958  -10.4931    4.3490 N   0  0  0  0  0  0  0  0  0  0  0  0
  -12.4146   -9.5677    4.7493 C   0  0  0  0  0  0  0  0  0  0  0  0
  -12.1533   -9.2659    6.0621 C   0  0  0  0  0  0  0  0  0  0  0  0
  -12.7521   -8.4103    6.9650 C   0  0  0  0  0  0  0  0  0  0  0  0
  -11.4781   -5.6193   12.1399 N   0  0  0  0  0  0  0  0  0  0  0  0
  -10.1628   -5.9883   11.7819 C   0  0  0  0  0  0  0  0  0  0  0  0
   -9.0542   -5.5788   12.2053 O   0  0  0  0  0  0  0  0  0  0  0  0
  -10.3688   -7.2467   10.5135 S   0  0  0  0  0  0  0  0  0  0  0  0
  -12.1072   -6.9757   10.2584 C   0  0  0  0  0  0  0  0  0  0  0  0
  -12.8273   -7.4553    9.2829 C   0  0  0  0  0  0  0  0  0  0  0  0
  -12.5051   -6.1223   11.3600 C   0  0  0  0  0  0  0  0  0  0  0  0
  -13.7519   -5.8836   11.5503 O   0  0  0  0  0  0  0  0  0  0  0  0
  -10.9936   -2.8823   15.3684 C   0  0  0  0  0  0  0  0  0  0  0  0
  -11.7329   -2.4343   14.0999 C   0  0  0  0  0  0  0  0  0  0  0  0
  -11.1897   -3.3201   12.9856 C   0  0  0  0  0  0  0  0  0  0  0  0
  -11.6972   -4.7335   13.3010 C   0  0  0  0  0  0  0  0  0  0  0  0
  -10.9212   -5.2065   14.4973 C   0  0  0  0  0  0  0  0  0  0  0  0
  -11.3635   -4.3245   15.6685 C   0  0  0  0  0  0  0  0  0  0  0  0
  -10.4324   -1.1133   17.0643 O   0  0  0  0  0  0  0  0  0  0  0  0
  -11.3227   -2.0219   16.5052 C   0  0  0  0  0  0  0  0  0  0  0  0
  -12.4679   -2.0755   17.0386 O   0  0  0  0  0  0  0  0  0  0  0  0
  -10.4630   -0.1685   16.6941 H   0  0  0  0  0  0  0  0  0  0  0  0
   -9.5731  -11.7043    5.3489 C   0  0  0  0  0  0  0  0  0  0  0  0
   -9.0101  -11.9241    4.0048 C   0  0  0  0  0  0  0  0  0  0  0  0
   -8.8756  -10.8555    3.1133 C   0  0  0  0  0  0  0  0  0  0  0  0
   -8.3573  -11.0352    1.8526 C   0  0  0  0  0  0  0  0  0  0  0  0
   -7.9521  -12.2828    1.4277 C   0  0  0  0  0  0  0  0  0  0  0  0
   -7.2910  -12.5116   -0.1806 Cl  0  0  0  0  0  0  0  0  0  0  0  0
   -8.0918  -13.3148    2.3151 C   0  0  0  0  0  0  0  0  0  0  0  0
   -8.6163  -13.1588    3.6038 C   0  0  0  0  0  0  0  0  0  0  0  0
   -8.7097  -14.3724    4.4730 C   0  0  0  0  0  0  0  0  0  0  0  0
   -7.8033  -15.3462    4.1150 F   0  0  0  0  0  0  0  0  0  0  0  0
   -8.3977  -14.0287    5.7827 F   0  0  0  0  0  0  0  0  0  0  0  0
  -10.0131  -14.8564    4.5350 F   0  0  0  0  0  0  0  0  0  0  0  0
 24 25  1  0  0  0
 25 26  2  0  0  0
 25 18  1  0  0  0
 18 19  1  0  0  0
 19 20  1  0  0  0
 20 21  1  0  0  0
 21 22  1  0  0  0
 22 23  1  0  0  0
 21 10  1  0  0  0
 10 11  1  0  0  0
 11 12  2  0  0  0
 11 13  1  0  0  0
 13 14  1  0  0  0
 14 15  2  0  0  0
 15  1  1  0  0  0
  1  2  2  0  0  0
  2  3  1  0  0  0
  3  4  2  0  0  0
  4  5  1  0  0  0
  5 28  1  0  0  0
 28 29  1  0  0  0
 29 30  2  0  0  0
 30 31  1  0  0  0
 31 32  2  0  0  0
 32 33  1  0  0  0
 32 34  1  0  0  0
 34 35  2  0  0  0
 35 36  1  0  0  0
 36 37  1  0  0  0
 36 38  1  0  0  0
 36 39  1  0  0  0
  5  6  1  0  0  0
  6  7  2  0  0  0
  7  8  1  0  0  0
  8  9  2  0  0  0
 14 16  1  0  0  0
 16 17  2  0  0  0
 23 18  1  0  0  0
 16 10  1  0  0  0
  9  1  1  0  0  0
  8  4  1  0  0  0
 35 29  1  0  0  0
 24 27  1  0  0  0
M  END
> <minimizedAffinity>
39.99813

> <CNNscore>
0.4358711541

> <CNNaffinity>
5.9574704170

> <CNN_VS>
2.5966894627

> <CNNaffinity_variance>
1.0997112989

$$$$
[H]OC(=O)C1([H])C([H])([H])C([H])([H])C([H])(N2C(=O)S/C(=C(/[H])c3c([H])c([H])c4c(c([H])nn4C([H])([H])c4c([H])c([H])c(Cl)c([H])c4C(F)(F)F)c3[H])C2=O)C([H])([H])C1([H])[H]


 39 43  0  0  0  0  0  0  0  0999 V2000
   -3.7465   -5.2388    8.3233 C   0  0  0  0  0  0  0  0  0  0  0  0
   -4.1867   -6.0144    9.4018 C   0  0  0  0  0  0  0  0  0  0  0  0
   -3.8905   -5.6912   10.7160 C   0  0  0  0  0  0  0  0  0  0  0  0
   -3.1366   -4.5660   10.9588 C   0  0  0  0  0  0  0  0  0  0  0  0
   -2.6967   -4.0114   12.1184 N   0  0  0  0  0  0  0  0  0  0  0  0
   -2.0101   -2.9372   11.8163 N   0  0  0  0  0  0  0  0  0  0  0  0
   -1.9862   -2.7677   10.4630 C   0  0  0  0  0  0  0  0  0  0  0  0
   -2.6997   -3.7980    9.9040 C   0  0  0  0  0  0  0  0  0  0  0  0
   -3.0011   -4.1303    8.5985 C   0  0  0  0  0  0  0  0  0  0  0  0
   -6.4267   -8.1892    5.6421 N   0  0  0  0  0  0  0  0  0  0  0  0
   -6.9059   -8.4776    6.9388 C   0  0  0  0  0  0  0  0  0  0  0  0
   -7.8983   -9.1489    7.3139 O   0  0  0  0  0  0  0  0  0  0  0  0
   -5.7562   -7.6502    8.0471 S   0  0  0  0  0  0  0  0  0  0  0  0
   -4.9399   -6.6916    6.7920 C   0  0  0  0  0  0  0  0  0  0  0  0
   -4.1152   -5.7016    6.9924 C   0  0  0  0  0  0  0  0  0  0  0  0
   -5.4034   -7.2623    5.5432 C   0  0  0  0  0  0  0  0  0  0  0  0
   -4.8580   -6.8901    4.4425 O   0  0  0  0  0  0  0  0  0  0  0  0
   -7.5253  -11.0260    2.6597 C   0  0  0  0  0  0  0  0  0  0  0  0
   -8.5500  -10.6113    3.7248 C   0  0  0  0  0  0  0  0  0  0  0  0
   -7.7229  -10.1606    4.9225 C   0  0  0  0  0  0  0  0  0  0  0  0
   -7.0231   -8.8702    4.4754 C   0  0  0  0  0  0  0  0  0  0  0  0
   -5.9667   -9.2797    3.4887 C   0  0  0  0  0  0  0  0  0  0  0  0
   -6.7127   -9.8068    2.2595 C   0  0  0  0  0  0  0  0  0  0  0  0
   -8.8806  -12.8110    1.5206 O   0  0  0  0  0  0  0  0  0  0  0  0
   -8.1834  -11.6093    1.4903 C   0  0  0  0  0  0  0  0  0  0  0  0
   -8.1403  -11.0217    0.3715 O   0  0  0  0  0  0  0  0  0  0  0  0
   -9.8767  -12.7479    1.7058 H   0  0  0  0  0  0  0  0  0  0  0  0
   -2.9687   -4.5581   13.4342 C   0  0  0  0  0  0  0  0  0  0  0  0
   -4.1560   -3.9527   14.0633 C   0  0  0  0  0  0  0  0  0  0  0  0
   -5.4391   -4.3198   13.6467 C   0  0  0  0  0  0  0  0  0  0  0  0
   -6.5625   -3.7668   14.2148 C   0  0  0  0  0  0  0  0  0  0  0  0
   -6.4558   -2.8278   15.2189 C   0  0  0  0  0  0  0  0  0  0  0  0
   -7.8889   -2.1225   15.9433 Cl  0  0  0  0  0  0  0  0  0  0  0  0
   -5.1916   -2.4826   15.6122 C   0  0  0  0  0  0  0  0  0  0  0  0
   -4.0320   -3.0304   15.0504 C   0  0  0  0  0  0  0  0  0  0  0  0
   -2.7119   -2.5656   15.5780 C   0  0  0  0  0  0  0  0  0  0  0  0
   -1.8798   -3.6128   15.9083 F   0  0  0  0  0  0  0  0  0  0  0  0
   -2.0453   -1.8498   14.5911 F   0  0  0  0  0  0  0  0  0  0  0  0
   -2.8704   -1.6621   16.6247 F   0  0  0  0  0  0  0  0  0  0  0  0
 24 25  1  0  0  0
 25 26  2  0  0  0
 25 18  1  0  0  0
 18 19  1  0  0  0
 19 20  1  0  0  0
 20 21  1  0  0  0
 21 22  1  0  0  0
 22 23  1  0  0  0
 21 10  1  0  0  0
 10 11  1  0  0  0
 11 12  2  0  0  0
 11 13  1  0  0  0
 13 14  1  0  0  0
 14 15  2  0  0  0
 15  1  1  0  0  0
  1  2  2  0  0  0
  2  3  1  0  0  0
  3  4  2  0  0  0
  4  5  1  0  0  0
  5 28  1  0  0  0
 28 29  1  0  0  0
 29 30  2  0  0  0
 30 31  1  0  0  0
 31 32  2  0  0  0
 32 33  1  0  0  0
 32 34  1  0  0  0
 34 35  2  0  0  0
 35 36  1  0  0  0
 36 37  1  0  0  0
 36 38  1  0  0  0
 36 39  1  0  0  0
  5  6  1  0  0  0
  6  7  2  0  0  0
  7  8  1  0  0  0
  8  9  2  0  0  0
 14 16  1  0  0  0
 16 17  2  0  0  0
 23 18  1  0  0  0
 16 10  1  0  0  0
  9  1  1  0  0  0
  8  4  1  0  0  0
 35 29  1  0  0  0
 24 27  1  0  0  0
M  END
> <minimizedAffinity>
11.54115

> <CNNscore>
0.4153390825

> <CNNaffinity>
5.8958911896

> <CNN_VS>
2.4487941265

> <CNNaffinity_variance>
1.5562531948

$$$$
[H]OC(=O)C1([H])C([H])([H])C([H])([H])C([H])(N2C(=O)S/C(=C(/[H])c3c([H])c([H])c4c(c([H])nn4C([H])([H])c4c([H])c([H])c(Cl)c([H])c4C(F)(F)F)c3[H])C2=O)C([H])([H])C1([H])[H]


 39 43  0  0  0  0  0  0  0  0999 V2000
   -3.7050   -6.1881    8.2359 C   0  0  0  0  0  0  0  0  0  0  0  0
   -4.1919   -6.2500    9.5465 C   0  0  0  0  0  0  0  0  0  0  0  0
   -4.1175   -5.1738   10.4156 C   0  0  0  0  0  0  0  0  0  0  0  0
   -3.5431   -4.0075    9.9648 C   0  0  0  0  0  0  0  0  0  0  0  0
   -3.3339   -2.8129   10.5772 N   0  0  0  0  0  0  0  0  0  0  0  0
   -2.7456   -2.0173    9.7184 N   0  0  0  0  0  0  0  0  0  0  0  0
   -2.5587   -2.6697    8.5351 C   0  0  0  0  0  0  0  0  0  0  0  0
   -3.0617   -3.9384    8.6777 C   0  0  0  0  0  0  0  0  0  0  0  0
   -3.1413   -5.0177    7.8207 C   0  0  0  0  0  0  0  0  0  0  0  0
   -6.0554   -8.5399    4.7686 N   0  0  0  0  0  0  0  0  0  0  0  0
   -6.7095   -7.2884    4.7500 C   0  0  0  0  0  0  0  0  0  0  0  0
   -7.5318   -6.8071    3.9326 O   0  0  0  0  0  0  0  0  0  0  0  0
   -6.1119   -6.4369    6.2172 S   0  0  0  0  0  0  0  0  0  0  0  0
   -4.7973   -7.5785    6.5765 C   0  0  0  0  0  0  0  0  0  0  0  0
   -3.8319   -7.3975    7.4342 C   0  0  0  0  0  0  0  0  0  0  0  0
   -5.0568   -8.7120    5.7117 C   0  0  0  0  0  0  0  0  0  0  0  0
   -4.3681   -9.7850    5.8598 O   0  0  0  0  0  0  0  0  0  0  0  0
   -8.0471  -10.8248    1.7751 C   0  0  0  0  0  0  0  0  0  0  0  0
   -6.6975  -10.1679    1.4537 C   0  0  0  0  0  0  0  0  0  0  0  0
   -6.5943   -8.9797    2.4020 C   0  0  0  0  0  0  0  0  0  0  0  0
   -6.4531   -9.5856    3.8048 C   0  0  0  0  0  0  0  0  0  0  0  0
   -7.7949  -10.1634    4.1552 C   0  0  0  0  0  0  0  0  0  0  0  0
   -8.0135  -11.3424    3.2026 C   0  0  0  0  0  0  0  0  0  0  0  0
   -8.5906  -11.7190   -0.5108 O   0  0  0  0  0  0  0  0  0  0  0  0
   -8.3420  -11.9130    0.8425 C   0  0  0  0  0  0  0  0  0  0  0  0
   -8.3829  -13.1102    1.2474 O   0  0  0  0  0  0  0  0  0  0  0  0
   -7.7867  -11.7773   -1.1282 H   0  0  0  0  0  0  0  0  0  0  0  0
   -3.7149   -2.5252   11.9470 C   0  0  0  0  0  0  0  0  0  0  0  0
   -3.0692   -1.3077   12.4694 C   0  0  0  0  0  0  0  0  0  0  0  0
   -3.0332   -0.1423   11.6979 C   0  0  0  0  0  0  0  0  0  0  0  0
   -2.4335    1.0051   12.1608 C   0  0  0  0  0  0  0  0  0  0  0  0
   -1.8462    1.0403   13.4079 C   0  0  0  0  0  0  0  0  0  0  0  0
   -1.0812    2.5040   13.9980 Cl  0  0  0  0  0  0  0  0  0  0  0  0
   -1.8925   -0.1102   14.1468 C   0  0  0  0  0  0  0  0  0  0  0  0
   -2.4965   -1.2913   13.6990 C   0  0  0  0  0  0  0  0  0  0  0  0
   -2.4786   -2.4761   14.6118 C   0  0  0  0  0  0  0  0  0  0  0  0
   -3.7414   -2.9684   14.8588 F   0  0  0  0  0  0  0  0  0  0  0  0
   -1.7795   -3.5144   14.0084 F   0  0  0  0  0  0  0  0  0  0  0  0
   -1.7742   -2.2080   15.7818 F   0  0  0  0  0  0  0  0  0  0  0  0
 24 25  1  0  0  0
 25 26  2  0  0  0
 25 18  1  0  0  0
 18 19  1  0  0  0
 19 20  1  0  0  0
 20 21  1  0  0  0
 21 22  1  0  0  0
 22 23  1  0  0  0
 21 10  1  0  0  0
 10 11  1  0  0  0
 11 12  2  0  0  0
 11 13  1  0  0  0
 13 14  1  0  0  0
 14 15  2  0  0  0
 15  1  1  0  0  0
  1  2  2  0  0  0
  2  3  1  0  0  0
  3  4  2  0  0  0
  4  5  1  0  0  0
  5 28  1  0  0  0
 28 29  1  0  0  0
 29 30  2  0  0  0
 30 31  1  0  0  0
 31 32  2  0  0  0
 32 33  1  0  0  0
 32 34  1  0  0  0
 34 35  2  0  0  0
 35 36  1  0  0  0
 36 37  1  0  0  0
 36 38  1  0  0  0
 36 39  1  0  0  0
  5  6  1  0  0  0
  6  7  2  0  0  0
  7  8  1  0  0  0
  8  9  2  0  0  0
 14 16  1  0  0  0
 16 17  2  0  0  0
 23 18  1  0  0  0
 16 10  1  0  0  0
  9  1  1  0  0  0
  8  4  1  0  0  0
 35 29  1  0  0  0
 24 27  1  0  0  0
M  END
> <minimizedAffinity>
13.00215

> <CNNscore>
0.3738256097

> <CNNaffinity>
5.5805506706

> <CNN_VS>
2.0861527920

> <CNNaffinity_variance>
1.0245821476

$$$$
[H]OC(=O)C1([H])C([H])([H])C([H])([H])C([H])(N2C(=O)S/C(=C(/[H])c3c([H])c([H])c4c(c([H])nn4C([H])([H])c4c([H])c([H])c(Cl)c([H])c4C(F)(F)F)c3[H])C2=O)C([H])([H])C1([H])[H]


 39 43  0  0  0  0  0  0  0  0999 V2000
   -7.8981   -6.5648    6.3782 C   0  0  0  0  0  0  0  0  0  0  0  0
   -7.0093   -5.6734    5.7666 C   0  0  0  0  0  0  0  0  0  0  0  0
   -5.6454   -5.7055    6.0076 C   0  0  0  0  0  0  0  0  0  0  0  0
   -5.1575   -6.6508    6.8804 C   0  0  0  0  0  0  0  0  0  0  0  0
   -3.8943   -6.9164    7.3043 N   0  0  0  0  0  0  0  0  0  0  0  0
   -3.9535   -7.9214    8.1427 N   0  0  0  0  0  0  0  0  0  0  0  0
   -5.2468   -8.3313    8.2843 C   0  0  0  0  0  0  0  0  0  0  0  0
   -6.0247   -7.5308    7.4861 C   0  0  0  0  0  0  0  0  0  0  0  0
   -7.3820   -7.4890    7.2382 C   0  0  0  0  0  0  0  0  0  0  0  0
  -12.4720   -7.3791    7.6002 N   0  0  0  0  0  0  0  0  0  0  0  0
  -11.7870   -7.8989    8.7203 C   0  0  0  0  0  0  0  0  0  0  0  0
  -12.2155   -8.2796    9.8372 O   0  0  0  0  0  0  0  0  0  0  0  0
  -10.0569   -7.9223    8.2295 S   0  0  0  0  0  0  0  0  0  0  0  0
  -10.2629   -6.9389    6.7628 C   0  0  0  0  0  0  0  0  0  0  0  0
   -9.3085   -6.4101    6.0487 C   0  0  0  0  0  0  0  0  0  0  0  0
  -11.6976   -6.8744    6.5698 C   0  0  0  0  0  0  0  0  0  0  0  0
  -12.1629   -6.3676    5.4862 O   0  0  0  0  0  0  0  0  0  0  0  0
  -16.5583   -8.1981    6.7166 C   0  0  0  0  0  0  0  0  0  0  0  0
  -15.9559   -8.6907    8.0398 C   0  0  0  0  0  0  0  0  0  0  0  0
  -14.4618   -8.8266    7.7737 C   0  0  0  0  0  0  0  0  0  0  0  0
  -13.9485   -7.3940    7.5760 C   0  0  0  0  0  0  0  0  0  0  0  0
  -14.4733   -6.9345    6.2454 C   0  0  0  0  0  0  0  0  0  0  0  0
  -15.9928   -6.8242    6.4013 C   0  0  0  0  0  0  0  0  0  0  0  0
  -18.8305   -9.2740    6.7340 O   0  0  0  0  0  0  0  0  0  0  0  0
  -18.0189   -8.1472    6.7860 C   0  0  0  0  0  0  0  0  0  0  0  0
  -18.6165   -7.0386    6.8995 O   0  0  0  0  0  0  0  0  0  0  0  0
  -19.0779   -9.6909    7.6260 H   0  0  0  0  0  0  0  0  0  0  0  0
   -2.7214   -6.1807    6.8715 C   0  0  0  0  0  0  0  0  0  0  0  0
   -2.4199   -5.0329    7.7452 C   0  0  0  0  0  0  0  0  0  0  0  0
   -1.5603   -5.1847    8.8373 C   0  0  0  0  0  0  0  0  0  0  0  0
   -1.2663   -4.1306    9.6696 C   0  0  0  0  0  0  0  0  0  0  0  0
   -1.8142   -2.8844    9.4502 C   0  0  0  0  0  0  0  0  0  0  0  0
   -1.4391   -1.5400   10.5122 Cl  0  0  0  0  0  0  0  0  0  0  0  0
   -2.6524   -2.7569    8.3764 C   0  0  0  0  0  0  0  0  0  0  0  0
   -2.9680   -3.8137    7.5139 C   0  0  0  0  0  0  0  0  0  0  0  0
   -3.8966   -3.5342    6.3751 C   0  0  0  0  0  0  0  0  0  0  0  0
   -4.0602   -2.1850    6.1495 F   0  0  0  0  0  0  0  0  0  0  0  0
   -3.3594   -4.0511    5.2025 F   0  0  0  0  0  0  0  0  0  0  0  0
   -5.1098   -4.1980    6.5315 F   0  0  0  0  0  0  0  0  0  0  0  0
 24 25  1  0  0  0
 25 26  2  0  0  0
 25 18  1  0  0  0
 18 19  1  0  0  0
 19 20  1  0  0  0
 20 21  1  0  0  0
 21 22  1  0  0  0
 22 23  1  0  0  0
 21 10  1  0  0  0
 10 11  1  0  0  0
 11 12  2  0  0  0
 11 13  1  0  0  0
 13 14  1  0  0  0
 14 15  2  0  0  0
 15  1  1  0  0  0
  1  2  2  0  0  0
  2  3  1  0  0  0
  3  4  2  0  0  0
  4  5  1  0  0  0
  5 28  1  0  0  0
 28 29  1  0  0  0
 29 30  2  0  0  0
 30 31  1  0  0  0
 31 32  2  0  0  0
 32 33  1  0  0  0
 32 34  1  0  0  0
 34 35  2  0  0  0
 35 36  1  0  0  0
 36 37  1  0  0  0
 36 38  1  0  0  0
 36 39  1  0  0  0
  5  6  1  0  0  0
  6  7  2  0  0  0
  7  8  1  0  0  0
  8  9  2  0  0  0
 14 16  1  0  0  0
 16 17  2  0  0  0
 23 18  1  0  0  0
 16 10  1  0  0  0
  9  1  1  0  0  0
  8  4  1  0  0  0
 35 29  1  0  0  0
 24 27  1  0  0  0
M  END
> <minimizedAffinity>
6.97875

> <CNNscore>
0.3461161256

> <CNNaffinity>
6.5477867126

> <CNN_VS>
2.2662944794

> <CNNaffinity_variance>
1.1866002083

$$$$
[H]OC(=O)C1([H])C([H])([H])C([H])([H])C([H])(N2C(=O)S/C(=C(/[H])c3c([H])c([H])c4c(c([H])nn4C([H])([H])c4c([H])c([H])c(Cl)c([H])c4C(F)(F)F)c3[H])C2=O)C([H])([H])C1([H])[H]


 39 43  0  0  0  0  0  0  0  0999 V2000
  -15.2972   -6.9763    5.4830 C   0  0  0  0  0  0  0  0  0  0  0  0
  -14.1105   -6.6010    6.1229 C   0  0  0  0  0  0  0  0  0  0  0  0
  -13.5800   -7.3210    7.1809 C   0  0  0  0  0  0  0  0  0  0  0  0
  -14.2509   -8.4432    7.6100 C   0  0  0  0  0  0  0  0  0  0  0  0
  -13.9786   -9.3286    8.6039 N   0  0  0  0  0  0  0  0  0  0  0  0
  -14.9301  -10.2291    8.6132 N   0  0  0  0  0  0  0  0  0  0  0  0
  -15.8383   -9.9539    7.6334 C   0  0  0  0  0  0  0  0  0  0  0  0
  -15.4185   -8.8190    6.9865 C   0  0  0  0  0  0  0  0  0  0  0  0
  -15.9375   -8.0932    5.9331 C   0  0  0  0  0  0  0  0  0  0  0  0
  -15.2144   -2.6423    3.4128 N   0  0  0  0  0  0  0  0  0  0  0  0
  -14.2990   -2.4627    4.4730 C   0  0  0  0  0  0  0  0  0  0  0  0
  -13.5030   -1.5230    4.7165 O   0  0  0  0  0  0  0  0  0  0  0  0
  -14.4870   -3.9311    5.4946 S   0  0  0  0  0  0  0  0  0  0  0  0
  -15.4598   -4.8518    4.3256 C   0  0  0  0  0  0  0  0  0  0  0  0
  -15.7516   -6.1208    4.3953 C   0  0  0  0  0  0  0  0  0  0  0  0
  -15.8299   -3.8785    3.3178 C   0  0  0  0  0  0  0  0  0  0  0  0
  -16.6834   -4.2028    2.4157 O   0  0  0  0  0  0  0  0  0  0  0  0
  -16.5563   -0.2375    0.1623 C   0  0  0  0  0  0  0  0  0  0  0  0
  -17.1338   -0.0052    1.5654 C   0  0  0  0  0  0  0  0  0  0  0  0
  -16.9801   -1.3380    2.2877 C   0  0  0  0  0  0  0  0  0  0  0  0
  -15.4692   -1.5323    2.4727 C   0  0  0  0  0  0  0  0  0  0  0  0
  -14.9100   -1.8357    1.1117 C   0  0  0  0  0  0  0  0  0  0  0  0
  -15.0765   -0.5560    0.2872 C   0  0  0  0  0  0  0  0  0  0  0  0
  -17.9998    1.5128   -0.9208 O   0  0  0  0  0  0  0  0  0  0  0  0
  -16.7582    0.9317   -0.6939 C   0  0  0  0  0  0  0  0  0  0  0  0
  -15.7772    1.4745   -1.2786 O   0  0  0  0  0  0  0  0  0  0  0  0
  -18.2630    2.2687   -0.2962 H   0  0  0  0  0  0  0  0  0  0  0  0
  -12.8212   -9.2415    9.4741 C   0  0  0  0  0  0  0  0  0  0  0  0
  -12.2049   -7.9028    9.4625 C   0  0  0  0  0  0  0  0  0  0  0  0
  -12.8583   -6.8206   10.0595 C   0  0  0  0  0  0  0  0  0  0  0  0
  -12.3064   -5.5613   10.0587 C   0  0  0  0  0  0  0  0  0  0  0  0
  -11.0840   -5.3273    9.4650 C   0  0  0  0  0  0  0  0  0  0  0  0
  -10.3803   -3.7208    9.4639 Cl  0  0  0  0  0  0  0  0  0  0  0  0
  -10.4611   -6.3995    8.8867 C   0  0  0  0  0  0  0  0  0  0  0  0
  -11.0012   -7.6911    8.8738 C   0  0  0  0  0  0  0  0  0  0  0  0
  -10.2112   -8.7734    8.2090 C   0  0  0  0  0  0  0  0  0  0  0  0
  -10.9832   -9.8702    7.8948 F   0  0  0  0  0  0  0  0  0  0  0  0
   -9.7103   -8.3049    7.0006 F   0  0  0  0  0  0  0  0  0  0  0  0
   -9.0840   -9.1119    8.9520 F   0  0  0  0  0  0  0  0  0  0  0  0
 24 25  1  0  0  0
 25 26  2  0  0  0
 25 18  1  0  0  0
 18 19  1  0  0  0
 19 20  1  0  0  0
 20 21  1  0  0  0
 21 22  1  0  0  0
 22 23  1  0  0  0
 21 10  1  0  0  0
 10 11  1  0  0  0
 11 12  2  0  0  0
 11 13  1  0  0  0
 13 14  1  0  0  0
 14 15  2  0  0  0
 15  1  1  0  0  0
  1  2  2  0  0  0
  2  3  1  0  0  0
  3  4  2  0  0  0
  4  5  1  0  0  0
  5 28  1  0  0  0
 28 29  1  0  0  0
 29 30  2  0  0  0
 30 31  1  0  0  0
 31 32  2  0  0  0
 32 33  1  0  0  0
 32 34  1  0  0  0
 34 35  2  0  0  0
 35 36  1  0  0  0
 36 37  1  0  0  0
 36 38  1  0  0  0
 36 39  1  0  0  0
  5  6  1  0  0  0
  6  7  2  0  0  0
  7  8  1  0  0  0
  8  9  2  0  0  0
 14 16  1  0  0  0
 16 17  2  0  0  0
 23 18  1  0  0  0
 16 10  1  0  0  0
  9  1  1  0  0  0
  8  4  1  0  0  0
 35 29  1  0  0  0
 24 27  1  0  0  0
M  END
> <minimizedAffinity>
35.25710

> <CNNscore>
0.3054892123

> <CNNaffinity>
6.7540998459

> <CNN_VS>
2.0633046627

> <CNNaffinity_variance>
0.7757475972

$$$$
[H]OC(=O)C1([H])C([H])([H])C([H])([H])C([H])(N2C(=O)S/C(=C(/[H])c3c([H])c([H])c4c(c([H])nn4C([H])([H])c4c([H])c([H])c(Cl)c([H])c4C(F)(F)F)c3[H])C2=O)C([H])([H])C1([H])[H]


 39 43  0  0  0  0  0  0  0  0999 V2000
  -15.8037   -7.6878    7.5703 C   0  0  0  0  0  0  0  0  0  0  0  0
  -16.6000   -8.2820    8.5558 C   0  0  0  0  0  0  0  0  0  0  0  0
  -17.9037   -8.6826    8.3124 C   0  0  0  0  0  0  0  0  0  0  0  0
  -18.4245   -8.4849    7.0542 C   0  0  0  0  0  0  0  0  0  0  0  0
  -19.6465   -8.7681    6.5322 N   0  0  0  0  0  0  0  0  0  0  0  0
  -19.6490   -8.3824    5.2801 N   0  0  0  0  0  0  0  0  0  0  0  0
  -18.4381   -7.8425    4.9590 C   0  0  0  0  0  0  0  0  0  0  0  0
  -17.6484   -7.9011    6.0796 C   0  0  0  0  0  0  0  0  0  0  0  0
  -16.3504   -7.5059    6.3341 C   0  0  0  0  0  0  0  0  0  0  0  0
  -11.0711   -8.1886    6.9153 N   0  0  0  0  0  0  0  0  0  0  0  0
  -11.5837   -9.0111    5.8883 C   0  0  0  0  0  0  0  0  0  0  0  0
  -11.0084   -9.5648    4.9196 O   0  0  0  0  0  0  0  0  0  0  0  0
  -13.3437   -9.1371    6.2371 S   0  0  0  0  0  0  0  0  0  0  0  0
  -13.3867   -7.8491    7.4616 C   0  0  0  0  0  0  0  0  0  0  0  0
  -14.4566   -7.2995    7.9653 C   0  0  0  0  0  0  0  0  0  0  0  0
  -11.9925   -7.5741    7.7458 C   0  0  0  0  0  0  0  0  0  0  0  0
  -11.6925   -6.7982    8.7232 O   0  0  0  0  0  0  0  0  0  0  0  0
   -6.9340   -8.7532    7.7605 C   0  0  0  0  0  0  0  0  0  0  0  0
   -7.4180   -8.7649    6.3038 C   0  0  0  0  0  0  0  0  0  0  0  0
   -8.8812   -9.1849    6.3712 C   0  0  0  0  0  0  0  0  0  0  0  0
   -9.6107   -8.0214    7.0561 C   0  0  0  0  0  0  0  0  0  0  0  0
   -9.1985   -8.0528    8.5005 C   0  0  0  0  0  0  0  0  0  0  0  0
   -7.7095   -7.6958    8.5269 C   0  0  0  0  0  0  0  0  0  0  0  0
   -4.8907   -7.8432    8.9083 O   0  0  0  0  0  0  0  0  0  0  0  0
   -5.4966   -8.4916    7.8389 C   0  0  0  0  0  0  0  0  0  0  0  0
   -4.7269   -8.8581    6.9050 O   0  0  0  0  0  0  0  0  0  0  0  0
   -4.5437   -8.4366    9.6553 H   0  0  0  0  0  0  0  0  0  0  0  0
  -20.7242   -9.3888    7.2788 C   0  0  0  0  0  0  0  0  0  0  0  0
  -20.8890  -10.8164    6.9521 C   0  0  0  0  0  0  0  0  0  0  0  0
  -21.4437  -11.1999    5.7274 C   0  0  0  0  0  0  0  0  0  0  0  0
  -21.6117  -12.5248    5.4005 C   0  0  0  0  0  0  0  0  0  0  0  0
  -21.2356  -13.5208    6.2768 C   0  0  0  0  0  0  0  0  0  0  0  0
  -21.4502  -15.2107    5.8595 Cl  0  0  0  0  0  0  0  0  0  0  0  0
  -20.6948  -13.1245    7.4694 C   0  0  0  0  0  0  0  0  0  0  0  0
  -20.5130  -11.7829    7.8265 C   0  0  0  0  0  0  0  0  0  0  0  0
  -19.9058  -11.4904    9.1618 C   0  0  0  0  0  0  0  0  0  0  0  0
  -20.2399  -10.2377    9.6279 F   0  0  0  0  0  0  0  0  0  0  0  0
  -20.3997  -12.3873   10.1012 F   0  0  0  0  0  0  0  0  0  0  0  0
  -18.5309  -11.7059    9.1553 F   0  0  0  0  0  0  0  0  0  0  0  0
 24 25  1  0  0  0
 25 26  2  0  0  0
 25 18  1  0  0  0
 18 19  1  0  0  0
 19 20  1  0  0  0
 20 21  1  0  0  0
 21 22  1  0  0  0
 22 23  1  0  0  0
 21 10  1  0  0  0
 10 11  1  0  0  0
 11 12  2  0  0  0
 11 13  1  0  0  0
 13 14  1  0  0  0
 14 15  2  0  0  0
 15  1  1  0  0  0
  1  2  2  0  0  0
  2  3  1  0  0  0
  3  4  2  0  0  0
  4  5  1  0  0  0
  5 28  1  0  0  0
 28 29  1  0  0  0
 29 30  2  0  0  0
 30 31  1  0  0  0
 31 32  2  0  0  0
 32 33  1  0  0  0
 32 34  1  0  0  0
 34 35  2  0  0  0
 35 36  1  0  0  0
 36 37  1  0  0  0
 36 38  1  0  0  0
 36 39  1  0  0  0
  5  6  1  0  0  0
  6  7  2  0  0  0
  7  8  1  0  0  0
  8  9  2  0  0  0
 14 16  1  0  0  0
 16 17  2  0  0  0
 23 18  1  0  0  0
 16 10  1  0  0  0
  9  1  1  0  0  0
  8  4  1  0  0  0
 35 29  1  0  0  0
 24 27  1  0  0  0
M  END
> <minimizedAffinity>
13.95164

> <CNNscore>
0.2819636166

> <CNNaffinity>
6.5154891014

> <CNN_VS>
1.8371309042

> <CNNaffinity_variance>
1.0841108561

$$$$
[H]OC(=O)C1([H])C([H])([H])C([H])([H])C([H])(N2C(=O)S/C(=C(/[H])c3c([H])c([H])c4c(c([H])nn4C([H])([H])c4c([H])c([H])c(Cl)c([H])c4C(F)(F)F)c3[H])C2=O)C([H])([H])C1([H])[H]


 39 43  0  0  0  0  0  0  0  0999 V2000
  -11.1030   -8.4709    7.7319 C   0  0  0  0  0  0  0  0  0  0  0  0
  -12.3495   -8.2456    8.3268 C   0  0  0  0  0  0  0  0  0  0  0  0
  -13.5410   -8.5353    7.6821 C   0  0  0  0  0  0  0  0  0  0  0  0
  -13.4861   -9.0629    6.4123 C   0  0  0  0  0  0  0  0  0  0  0  0
  -14.4678   -9.4374    5.5510 N   0  0  0  0  0  0  0  0  0  0  0  0
  -13.8974   -9.8812    4.4583 N   0  0  0  0  0  0  0  0  0  0  0  0
  -12.5408   -9.8068    4.5804 C   0  0  0  0  0  0  0  0  0  0  0  0
  -12.2646   -9.2872    5.8201 C   0  0  0  0  0  0  0  0  0  0  0  0
  -11.0839   -8.9943    6.4726 C   0  0  0  0  0  0  0  0  0  0  0  0
   -6.6622   -6.6398    7.7897 N   0  0  0  0  0  0  0  0  0  0  0  0
   -7.0147   -6.4745    6.4322 C   0  0  0  0  0  0  0  0  0  0  0  0
   -6.4463   -5.8391    5.5108 O   0  0  0  0  0  0  0  0  0  0  0  0
   -8.5407   -7.4065    6.2380 S   0  0  0  0  0  0  0  0  0  0  0  0
   -8.8316   -7.6573    7.9738 C   0  0  0  0  0  0  0  0  0  0  0  0
   -9.9301   -8.1059    8.5145 C   0  0  0  0  0  0  0  0  0  0  0  0
   -7.5937   -7.2533    8.6096 C   0  0  0  0  0  0  0  0  0  0  0  0
   -7.4292   -7.4779    9.8626 O   0  0  0  0  0  0  0  0  0  0  0  0
   -2.9908   -6.1299    9.8895 C   0  0  0  0  0  0  0  0  0  0  0  0
   -2.9721   -6.6574    8.4481 C   0  0  0  0  0  0  0  0  0  0  0  0
   -4.3327   -7.3120    8.2433 C   0  0  0  0  0  0  0  0  0  0  0  0
   -5.3486   -6.1621    8.2660 C   0  0  0  0  0  0  0  0  0  0  0  0
   -5.4270   -5.6924    9.6909 C   0  0  0  0  0  0  0  0  0  0  0  0
   -4.0667   -5.0645   10.0083 C   0  0  0  0  0  0  0  0  0  0  0  0
   -1.0619   -4.5441    9.5978 O   0  0  0  0  0  0  0  0  0  0  0  0
   -1.6872   -5.5862   10.2716 C   0  0  0  0  0  0  0  0  0  0  0  0
   -1.0606   -6.0608   11.2620 O   0  0  0  0  0  0  0  0  0  0  0  0
   -1.2459   -3.6088    9.9472 H   0  0  0  0  0  0  0  0  0  0  0  0
  -15.8852   -9.3387    5.8432 C   0  0  0  0  0  0  0  0  0  0  0  0
  -16.4939   -8.1183    5.2845 C   0  0  0  0  0  0  0  0  0  0  0  0
  -16.4697   -7.8858    3.9061 C   0  0  0  0  0  0  0  0  0  0  0  0
  -17.0268   -6.7534    3.3607 C   0  0  0  0  0  0  0  0  0  0  0  0
  -17.6299   -5.8074    4.1625 C   0  0  0  0  0  0  0  0  0  0  0  0
  -18.3404   -4.3629    3.4664 Cl  0  0  0  0  0  0  0  0  0  0  0  0
  -17.6432   -6.0540    5.5082 C   0  0  0  0  0  0  0  0  0  0  0  0
  -17.0833   -7.1985    6.0887 C   0  0  0  0  0  0  0  0  0  0  0  0
  -17.1714   -7.3439    7.5748 C   0  0  0  0  0  0  0  0  0  0  0  0
  -17.1509   -8.6617    7.9760 F   0  0  0  0  0  0  0  0  0  0  0  0
  -16.0610   -6.7520    8.1642 F   0  0  0  0  0  0  0  0  0  0  0  0
  -18.2599   -6.6476    8.0918 F   0  0  0  0  0  0  0  0  0  0  0  0
 24 25  1  0  0  0
 25 26  2  0  0  0
 25 18  1  0  0  0
 18 19  1  0  0  0
 19 20  1  0  0  0
 20 21  1  0  0  0
 21 22  1  0  0  0
 22 23  1  0  0  0
 21 10  1  0  0  0
 10 11  1  0  0  0
 11 12  2  0  0  0
 11 13  1  0  0  0
 13 14  1  0  0  0
 14 15  2  0  0  0
 15  1  1  0  0  0
  1  2  2  0  0  0
  2  3  1  0  0  0
  3  4  2  0  0  0
  4  5  1  0  0  0
  5 28  1  0  0  0
 28 29  1  0  0  0
 29 30  2  0  0  0
 30 31  1  0  0  0
 31 32  2  0  0  0
 32 33  1  0  0  0
 32 34  1  0  0  0
 34 35  2  0  0  0
 35 36  1  0  0  0
 36 37  1  0  0  0
 36 38  1  0  0  0
 36 39  1  0  0  0
  5  6  1  0  0  0
  6  7  2  0  0  0
  7  8  1  0  0  0
  8  9  2  0  0  0
 14 16  1  0  0  0
 16 17  2  0  0  0
 23 18  1  0  0  0
 16 10  1  0  0  0
  9  1  1  0  0  0
  8  4  1  0  0  0
 35 29  1  0  0  0
 24 27  1  0  0  0
M  END
> <minimizedAffinity>
4.27440

> <CNNscore>
0.2733324170

> <CNNaffinity>
6.6548299789

> <CNN_VS>
1.8189808130

> <CNNaffinity_variance>
0.6538807154

$$$$
[H]OC(=O)C1([H])C([H])([H])C([H])([H])C([H])(N2C(=O)S/C(=C(/[H])c3c([H])c([H])c4c(c([H])nn4C([H])([H])c4c([H])c([H])c(Cl)c([H])c4C(F)(F)F)c3[H])C2=O)C([H])([H])C1([H])[H]


 39 43  0  0  0  0  0  0  0  0999 V2000
   -9.0583   -7.5173    7.5207 C   0  0  0  0  0  0  0  0  0  0  0  0
   -9.6911   -8.7594    7.6446 C   0  0  0  0  0  0  0  0  0  0  0  0
  -10.9211   -9.0249    7.0651 C   0  0  0  0  0  0  0  0  0  0  0  0
  -11.5339   -8.0255    6.3444 C   0  0  0  0  0  0  0  0  0  0  0  0
  -12.7178   -7.9935    5.6787 N   0  0  0  0  0  0  0  0  0  0  0  0
  -12.8511   -6.8018    5.1509 N   0  0  0  0  0  0  0  0  0  0  0  0
  -11.7657   -6.0347    5.4581 C   0  0  0  0  0  0  0  0  0  0  0  0
  -10.9186   -6.8014    6.2180 C   0  0  0  0  0  0  0  0  0  0  0  0
   -9.6927   -6.5486    6.8002 C   0  0  0  0  0  0  0  0  0  0  0  0
   -6.6807   -6.3352   11.5241 N   0  0  0  0  0  0  0  0  0  0  0  0
   -8.0218   -6.2180   11.9509 C   0  0  0  0  0  0  0  0  0  0  0  0
   -8.5043   -6.0620   13.0993 O   0  0  0  0  0  0  0  0  0  0  0  0
   -8.9951   -6.3409   10.4434 S   0  0  0  0  0  0  0  0  0  0  0  0
   -7.6630   -6.8904    9.4022 C   0  0  0  0  0  0  0  0  0  0  0  0
   -7.7754   -7.3678    8.1940 C   0  0  0  0  0  0  0  0  0  0  0  0
   -6.4716   -6.6843   10.2010 C   0  0  0  0  0  0  0  0  0  0  0  0
   -5.3183   -6.8318    9.6574 O   0  0  0  0  0  0  0  0  0  0  0  0
   -3.4903   -6.7594   14.3152 C   0  0  0  0  0  0  0  0  0  0  0  0
   -3.1922   -6.2626   12.8937 C   0  0  0  0  0  0  0  0  0  0  0  0
   -4.3160   -6.8217   12.0300 C   0  0  0  0  0  0  0  0  0  0  0  0
   -5.5854   -6.0881   12.4831 C   0  0  0  0  0  0  0  0  0  0  0  0
   -5.9247   -6.6271   13.8439 C   0  0  0  0  0  0  0  0  0  0  0  0
   -4.8061   -6.1590   14.7791 C   0  0  0  0  0  0  0  0  0  0  0  0
   -2.2629   -6.9669   16.4994 O   0  0  0  0  0  0  0  0  0  0  0  0
   -2.4116   -6.4040   15.2377 C   0  0  0  0  0  0  0  0  0  0  0  0
   -1.5461   -5.5425   14.9096 O   0  0  0  0  0  0  0  0  0  0  0  0
   -1.6692   -7.7884   16.5577 H   0  0  0  0  0  0  0  0  0  0  0  0
  -13.6360   -9.1138    5.6009 C   0  0  0  0  0  0  0  0  0  0  0  0
  -14.8769   -8.8814    6.3612 C   0  0  0  0  0  0  0  0  0  0  0  0
  -16.0168   -8.3906    5.7174 C   0  0  0  0  0  0  0  0  0  0  0  0
  -17.1852   -8.1617    6.4049 C   0  0  0  0  0  0  0  0  0  0  0  0
  -17.2677   -8.4111    7.7586 C   0  0  0  0  0  0  0  0  0  0  0  0
  -18.7583   -8.1188    8.6353 Cl  0  0  0  0  0  0  0  0  0  0  0  0
  -16.1415   -8.8912    8.3695 C   0  0  0  0  0  0  0  0  0  0  0  0
  -14.9398   -9.1328    7.6928 C   0  0  0  0  0  0  0  0  0  0  0  0
  -13.7858   -9.6623    8.4833 C   0  0  0  0  0  0  0  0  0  0  0  0
  -13.0133   -8.6574    9.0231 F   0  0  0  0  0  0  0  0  0  0  0  0
  -14.2622  -10.3947    9.5637 F   0  0  0  0  0  0  0  0  0  0  0  0
  -13.0347  -10.5710    7.7434 F   0  0  0  0  0  0  0  0  0  0  0  0
 24 25  1  0  0  0
 25 26  2  0  0  0
 25 18  1  0  0  0
 18 19  1  0  0  0
 19 20  1  0  0  0
 20 21  1  0  0  0
 21 22  1  0  0  0
 22 23  1  0  0  0
 21 10  1  0  0  0
 10 11  1  0  0  0
 11 12  2  0  0  0
 11 13  1  0  0  0
 13 14  1  0  0  0
 14 15  2  0  0  0
 15  1  1  0  0  0
  1  2  2  0  0  0
  2  3  1  0  0  0
  3  4  2  0  0  0
  4  5  1  0  0  0
  5 28  1  0  0  0
 28 29  1  0  0  0
 29 30  2  0  0  0
 30 31  1  0  0  0
 31 32  2  0  0  0
 32 33  1  0  0  0
 32 34  1  0  0  0
 34 35  2  0  0  0
 35 36  1  0  0  0
 36 37  1  0  0  0
 36 38  1  0  0  0
 36 39  1  0  0  0
  5  6  1  0  0  0
  6  7  2  0  0  0
  7  8  1  0  0  0
  8  9  2  0  0  0
 14 16  1  0  0  0
 16 17  2  0  0  0
 23 18  1  0  0  0
 16 10  1  0  0  0
  9  1  1  0  0  0
  8  4  1  0  0  0
 35 29  1  0  0  0
 24 27  1  0  0  0
M  END
> <minimizedAffinity>
26.61859

> <CNNscore>
0.2681640685

> <CNNaffinity>
6.2168898582

> <CNN_VS>
1.6671464443

> <CNNaffinity_variance>
1.7333068848

$$$$
[H]OC(=O)C1([H])C([H])([H])C([H])([H])C([H])(N2C(=O)S/C(=C(/[H])c3c([H])c([H])c4c(c([H])nn4C([H])([H])c4c([H])c([H])c(Cl)c([H])c4C(F)(F)F)c3[H])C2=O)C([H])([H])C1([H])[H]


 39 43  0  0  0  0  0  0  0  0999 V2000
  -10.6208   -6.2109    8.1752 C   0  0  0  0  0  0  0  0  0  0  0  0
  -10.1475   -6.4325    9.4734 C   0  0  0  0  0  0  0  0  0  0  0  0
  -10.9949   -6.7146   10.5325 C   0  0  0  0  0  0  0  0  0  0  0  0
  -12.3478   -6.7769   10.2889 C   0  0  0  0  0  0  0  0  0  0  0  0
  -13.3991   -7.0269   11.1125 N   0  0  0  0  0  0  0  0  0  0  0  0
  -14.4943   -6.9722   10.3956 N   0  0  0  0  0  0  0  0  0  0  0  0
  -14.1852   -6.6872    9.0980 C   0  0  0  0  0  0  0  0  0  0  0  0
  -12.8214   -6.5600    9.0155 C   0  0  0  0  0  0  0  0  0  0  0  0
  -11.9671   -6.2795    7.9680 C   0  0  0  0  0  0  0  0  0  0  0  0
   -5.9844   -6.1541    6.9194 N   0  0  0  0  0  0  0  0  0  0  0  0
   -5.9209   -6.7571    8.1948 C   0  0  0  0  0  0  0  0  0  0  0  0
   -4.9706   -7.3287    8.7831 O   0  0  0  0  0  0  0  0  0  0  0  0
   -7.5689   -6.5471    8.8839 S   0  0  0  0  0  0  0  0  0  0  0  0
   -8.3410   -6.0214    7.3713 C   0  0  0  0  0  0  0  0  0  0  0  0
   -9.6226   -5.9078    7.1588 C   0  0  0  0  0  0  0  0  0  0  0  0
   -7.2347   -5.7635    6.4716 C   0  0  0  0  0  0  0  0  0  0  0  0
   -7.4637   -5.2034    5.3397 O   0  0  0  0  0  0  0  0  0  0  0  0
   -2.9849   -4.7337    4.2483 C   0  0  0  0  0  0  0  0  0  0  0  0
   -2.7892   -4.5722    5.7622 C   0  0  0  0  0  0  0  0  0  0  0  0
   -4.1955   -4.5546    6.3484 C   0  0  0  0  0  0  0  0  0  0  0  0
   -4.7461   -5.9712    6.1360 C   0  0  0  0  0  0  0  0  0  0  0  0
   -5.0112   -6.1076    4.6635 C   0  0  0  0  0  0  0  0  0  0  0  0
   -3.6417   -6.0764    3.9789 C   0  0  0  0  0  0  0  0  0  0  0  0
   -1.0733   -5.7199    2.9469 O   0  0  0  0  0  0  0  0  0  0  0  0
   -1.7108   -4.6347    3.5359 C   0  0  0  0  0  0  0  0  0  0  0  0
   -1.1230   -3.5205    3.4264 O   0  0  0  0  0  0  0  0  0  0  0  0
   -1.2903   -5.8926    1.9703 H   0  0  0  0  0  0  0  0  0  0  0  0
  -13.2718   -7.2988   12.5316 C   0  0  0  0  0  0  0  0  0  0  0  0
  -13.0731   -8.7310   12.8171 C   0  0  0  0  0  0  0  0  0  0  0  0
  -12.7047   -9.1499   14.0990 C   0  0  0  0  0  0  0  0  0  0  0  0
  -12.5094  -10.4795   14.3898 C   0  0  0  0  0  0  0  0  0  0  0  0
  -12.6722  -11.4451   13.4190 C   0  0  0  0  0  0  0  0  0  0  0  0
  -12.4229  -13.1410   13.7902 Cl  0  0  0  0  0  0  0  0  0  0  0  0
  -13.0330  -11.0144   12.1715 C   0  0  0  0  0  0  0  0  0  0  0  0
  -13.2380   -9.6674   11.8495 C   0  0  0  0  0  0  0  0  0  0  0  0
  -13.6341   -9.3359   10.4457 C   0  0  0  0  0  0  0  0  0  0  0  0
  -12.7527   -8.4656    9.8426 F   0  0  0  0  0  0  0  0  0  0  0  0
  -13.6126  -10.4911    9.6739 F   0  0  0  0  0  0  0  0  0  0  0  0
  -14.9509   -8.8901   10.3790 F   0  0  0  0  0  0  0  0  0  0  0  0
 24 25  1  0  0  0
 25 26  2  0  0  0
 25 18  1  0  0  0
 18 19  1  0  0  0
 19 20  1  0  0  0
 20 21  1  0  0  0
 21 22  1  0  0  0
 22 23  1  0  0  0
 21 10  1  0  0  0
 10 11  1  0  0  0
 11 12  2  0  0  0
 11 13  1  0  0  0
 13 14  1  0  0  0
 14 15  2  0  0  0
 15  1  1  0  0  0
  1  2  2  0  0  0
  2  3  1  0  0  0
  3  4  2  0  0  0
  4  5  1  0  0  0
  5 28  1  0  0  0
 28 29  1  0  0  0
 29 30  2  0  0  0
 30 31  1  0  0  0
 31 32  2  0  0  0
 32 33  1  0  0  0
 32 34  1  0  0  0
 34 35  2  0  0  0
 35 36  1  0  0  0
 36 37  1  0  0  0
 36 38  1  0  0  0
 36 39  1  0  0  0
  5  6  1  0  0  0
  6  7  2  0  0  0
  7  8  1  0  0  0
  8  9  2  0  0  0
 14 16  1  0  0  0
 16 17  2  0  0  0
 23 18  1  0  0  0
 16 10  1  0  0  0
  9  1  1  0  0  0
  8  4  1  0  0  0
 35 29  1  0  0  0
 24 27  1  0  0  0
M  END
> <minimizedAffinity>
27.62997

> <CNNscore>
0.2637028396

> <CNNaffinity>
6.0641179085

> <CNN_VS>
1.5991251469

> <CNNaffinity_variance>
0.5602169037

$$$$
[H]c1c([H])c([H])c(N([H])[H])c(C(=O)c2nnn(-c3c([H])c([H])c(C([H])(C([H])([H])[H])C([H])([H])[H])c([H])c3[H])c2[H])c1[H]


 25 27  0  0  0  0  0  0  0  0999 V2000
  -12.3236   -9.0914    7.5667 N   0  0  0  0  0  0  0  0  0  0  0  0
  -13.2027   -8.1001    7.2826 C   0  0  0  0  0  0  0  0  0  0  0  0
  -14.4996   -8.6263    7.3864 C   0  0  0  0  0  0  0  0  0  0  0  0
  -14.3041   -9.8953    7.7252 N   0  0  0  0  0  0  0  0  0  0  0  0
  -12.9997  -10.1821    7.8353 N   0  0  0  0  0  0  0  0  0  0  0  0
   -8.1735   -8.6404    7.5038 C   0  0  0  0  0  0  0  0  0  0  0  0
   -8.7449   -9.8194    7.1431 C   0  0  0  0  0  0  0  0  0  0  0  0
  -10.1133   -9.9920    7.1600 C   0  0  0  0  0  0  0  0  0  0  0  0
  -10.8925   -8.9142    7.5601 C   0  0  0  0  0  0  0  0  0  0  0  0
  -10.3526   -7.6964    7.9359 C   0  0  0  0  0  0  0  0  0  0  0  0
   -8.9821   -7.5902    7.8972 C   0  0  0  0  0  0  0  0  0  0  0  0
   -6.2945   -7.2524    8.3317 C   0  0  0  0  0  0  0  0  0  0  0  0
   -6.7123   -8.4411    7.4800 C   0  0  0  0  0  0  0  0  0  0  0  0
   -6.2758   -8.1973    6.0512 C   0  0  0  0  0  0  0  0  0  0  0  0
  -15.6958   -7.8528    7.1698 C   0  0  0  0  0  0  0  0  0  0  0  0
  -16.6038   -7.8853    8.0755 O   0  0  0  0  0  0  0  0  0  0  0  0
  -15.9602   -7.0335    6.0034 C   0  0  0  0  0  0  0  0  0  0  0  0
  -15.3351   -5.8494    5.7211 C   0  0  0  0  0  0  0  0  0  0  0  0
  -15.6303   -5.0936    4.5945 C   0  0  0  0  0  0  0  0  0  0  0  0
  -16.5776   -5.5036    3.6971 C   0  0  0  0  0  0  0  0  0  0  0  0
  -17.2215   -6.6859    3.9524 C   0  0  0  0  0  0  0  0  0  0  0  0
  -16.9285   -7.4382    5.0723 C   0  0  0  0  0  0  0  0  0  0  0  0
  -17.6146   -8.6592    5.3067 N   0  0  0  0  0  0  0  0  0  0  0  0
  -17.2290   -9.5358    4.9285 H   0  0  0  0  0  0  0  0  0  0  0  0
  -18.4949   -8.6734    5.8523 H   0  0  0  0  0  0  0  0  0  0  0  0
 12 13  1  0  0  0
 13 14  1  0  0  0
 13  6  1  0  0  0
  6  7  2  0  0  0
  7  8  1  0  0  0
  8  9  2  0  0  0
  9 10  1  0  0  0
 10 11  2  0  0  0
  9  1  1  0  0  0
  1  2  1  0  0  0
  2  3  2  0  0  0
  3  4  1  0  0  0
  4  5  2  0  0  0
  3 15  1  0  0  0
 15 16  2  0  0  0
 15 17  1  0  0  0
 17 18  2  0  0  0
 18 19  1  0  0  0
 19 20  2  0  0  0
 20 21  1  0  0  0
 21 22  2  0  0  0
 22 23  1  0  0  0
 11  6  1  0  0  0
  5  1  1  0  0  0
 22 17  1  0  0  0
 23 24  1  0  0  0
 23 25  1  0  0  0
M  END
> <minimizedAffinity>
-9.86584

> <CNNscore>
0.7457696795

> <CNNaffinity>
6.9134392738

> <CNN_VS>
5.1558332443

> <CNNaffinity_variance>
0.1501300037

$$$$
[H]c1c([H])c([H])c(N([H])[H])c(C(=O)c2nnn(-c3c([H])c([H])c(C([H])(C([H])([H])[H])C([H])([H])[H])c([H])c3[H])c2[H])c1[H]


 25 27  0  0  0  0  0  0  0  0999 V2000
  -10.3216   -8.3934    7.6211 N   0  0  0  0  0  0  0  0  0  0  0  0
  -11.3033   -7.5041    7.9070 C   0  0  0  0  0  0  0  0  0  0  0  0
  -12.5195   -8.2022    7.9626 C   0  0  0  0  0  0  0  0  0  0  0  0
  -12.1788   -9.4598    7.7060 N   0  0  0  0  0  0  0  0  0  0  0  0
  -10.8604   -9.5824    7.4997 N   0  0  0  0  0  0  0  0  0  0  0  0
   -6.2806   -7.4200    7.2296 C   0  0  0  0  0  0  0  0  0  0  0  0
   -6.6566   -8.6793    7.5749 C   0  0  0  0  0  0  0  0  0  0  0  0
   -7.9854   -9.0222    7.7136 C   0  0  0  0  0  0  0  0  0  0  0  0
   -8.9322   -8.0316    7.4871 C   0  0  0  0  0  0  0  0  0  0  0  0
   -8.5937   -6.7367    7.1343 C   0  0  0  0  0  0  0  0  0  0  0  0
   -7.2521   -6.4604    7.0130 C   0  0  0  0  0  0  0  0  0  0  0  0
   -4.6899   -5.9373    6.0405 C   0  0  0  0  0  0  0  0  0  0  0  0
   -4.8634   -7.0445    7.0685 C   0  0  0  0  0  0  0  0  0  0  0  0
   -4.0846   -8.2606    6.6146 C   0  0  0  0  0  0  0  0  0  0  0  0
  -13.7846   -7.5812    8.2624 C   0  0  0  0  0  0  0  0  0  0  0  0
  -14.0508   -7.3237    9.4908 O   0  0  0  0  0  0  0  0  0  0  0  0
  -14.7899   -7.2196    7.2826 C   0  0  0  0  0  0  0  0  0  0  0  0
  -14.5776   -6.3948    6.2116 C   0  0  0  0  0  0  0  0  0  0  0  0
  -15.5766   -6.0689    5.3042 C   0  0  0  0  0  0  0  0  0  0  0  0
  -16.8439   -6.5652    5.4403 C   0  0  0  0  0  0  0  0  0  0  0  0
  -17.0879   -7.3944    6.5035 C   0  0  0  0  0  0  0  0  0  0  0  0
  -16.0951   -7.7192    7.4062 C   0  0  0  0  0  0  0  0  0  0  0  0
  -16.3821   -8.5817    8.4971 N   0  0  0  0  0  0  0  0  0  0  0  0
  -16.2597   -9.5977    8.3835 H   0  0  0  0  0  0  0  0  0  0  0  0
  -16.7117   -8.1977    9.4009 H   0  0  0  0  0  0  0  0  0  0  0  0
 12 13  1  0  0  0
 13 14  1  0  0  0
 13  6  1  0  0  0
  6  7  2  0  0  0
  7  8  1  0  0  0
  8  9  2  0  0  0
  9 10  1  0  0  0
 10 11  2  0  0  0
  9  1  1  0  0  0
  1  2  1  0  0  0
  2  3  2  0  0  0
  3  4  1  0  0  0
  4  5  2  0  0  0
  3 15  1  0  0  0
 15 16  2  0  0  0
 15 17  1  0  0  0
 17 18  2  0  0  0
 18 19  1  0  0  0
 19 20  2  0  0  0
 20 21  1  0  0  0
 21 22  2  0  0  0
 22 23  1  0  0  0
 11  6  1  0  0  0
  5  1  1  0  0  0
 22 17  1  0  0  0
 23 24  1  0  0  0
 23 25  1  0  0  0
M  END
> <minimizedAffinity>
-8.95218

> <CNNscore>
0.7006283998

> <CNNaffinity>
6.7169675827

> <CNN_VS>
4.7060980797

> <CNNaffinity_variance>
0.1385962963

$$$$
[H]c1c([H])c([H])c(N([H])[H])c(C(=O)c2nnn(-c3c([H])c([H])c(C([H])(C([H])([H])[H])C([H])([H])[H])c([H])c3[H])c2[H])c1[H]


 25 27  0  0  0  0  0  0  0  0999 V2000
  -10.2365   -8.3861    7.5961 N   0  0  0  0  0  0  0  0  0  0  0  0
  -11.1918   -7.4656    7.8724 C   0  0  0  0  0  0  0  0  0  0  0  0
  -12.4274   -8.1277    7.9381 C   0  0  0  0  0  0  0  0  0  0  0  0
  -12.1234   -9.3976    7.6964 N   0  0  0  0  0  0  0  0  0  0  0  0
  -10.8094   -9.5605    7.4900 N   0  0  0  0  0  0  0  0  0  0  0  0
   -6.2035   -7.3848    7.1924 C   0  0  0  0  0  0  0  0  0  0  0  0
   -7.1710   -6.4606    6.9551 C   0  0  0  0  0  0  0  0  0  0  0  0
   -8.5094   -6.7702    7.0786 C   0  0  0  0  0  0  0  0  0  0  0  0
   -8.8375   -8.0660    7.4560 C   0  0  0  0  0  0  0  0  0  0  0  0
   -7.8851   -9.0384    7.7069 C   0  0  0  0  0  0  0  0  0  0  0  0
   -6.5692   -8.6649    7.5655 C   0  0  0  0  0  0  0  0  0  0  0  0
   -4.5253   -5.9573    6.0573 C   0  0  0  0  0  0  0  0  0  0  0  0
   -4.7692   -7.0624    7.0733 C   0  0  0  0  0  0  0  0  0  0  0  0
   -4.0243   -8.3047    6.6338 C   0  0  0  0  0  0  0  0  0  0  0  0
  -13.6738   -7.4671    8.2319 C   0  0  0  0  0  0  0  0  0  0  0  0
  -13.8848   -7.0938    9.4410 O   0  0  0  0  0  0  0  0  0  0  0  0
  -14.7176   -7.1863    7.2659 C   0  0  0  0  0  0  0  0  0  0  0  0
  -14.5775   -6.3678    6.1782 C   0  0  0  0  0  0  0  0  0  0  0  0
  -15.6114   -6.1210    5.2852 C   0  0  0  0  0  0  0  0  0  0  0  0
  -16.8419   -6.6941    5.4532 C   0  0  0  0  0  0  0  0  0  0  0  0
  -17.0136   -7.5190    6.5338 C   0  0  0  0  0  0  0  0  0  0  0  0
  -15.9860   -7.7652    7.4223 C   0  0  0  0  0  0  0  0  0  0  0  0
  -16.1978   -8.6257    8.5318 N   0  0  0  0  0  0  0  0  0  0  0  0
  -16.0131   -9.6337    8.4317 H   0  0  0  0  0  0  0  0  0  0  0  0
  -16.5347   -8.2481    9.4356 H   0  0  0  0  0  0  0  0  0  0  0  0
 12 13  1  0  0  0
 13 14  1  0  0  0
 13  6  1  0  0  0
  6  7  2  0  0  0
  7  8  1  0  0  0
  8  9  2  0  0  0
  9 10  1  0  0  0
 10 11  2  0  0  0
  9  1  1  0  0  0
  1  2  1  0  0  0
  2  3  2  0  0  0
  3  4  1  0  0  0
  4  5  2  0  0  0
  3 15  1  0  0  0
 15 16  2  0  0  0
 15 17  1  0  0  0
 17 18  2  0  0  0
 18 19  1  0  0  0
 19 20  2  0  0  0
 20 21  1  0  0  0
 21 22  2  0  0  0
 22 23  1  0  0  0
 11  6  1  0  0  0
  5  1  1  0  0  0
 22 17  1  0  0  0
 23 24  1  0  0  0
 23 25  1  0  0  0
M  END
> <minimizedAffinity>
-8.92205

> <CNNscore>
0.6808199883

> <CNNaffinity>
6.6697525978

> <CNN_VS>
4.5409007072

> <CNNaffinity_variance>
0.1451615542

$$$$
[H]c1c([H])c([H])c(N([H])[H])c(C(=O)c2nnn(-c3c([H])c([H])c(C([H])(C([H])([H])[H])C([H])([H])[H])c([H])c3[H])c2[H])c1[H]


 25 27  0  0  0  0  0  0  0  0999 V2000
   -8.2744   -9.3523    5.6228 N   0  0  0  0  0  0  0  0  0  0  0  0
   -8.4437   -9.8691    4.3816 C   0  0  0  0  0  0  0  0  0  0  0  0
   -7.2008   -9.8512    3.7301 C   0  0  0  0  0  0  0  0  0  0  0  0
   -6.3761   -9.3249    4.6281 N   0  0  0  0  0  0  0  0  0  0  0  0
   -7.0138   -9.0226    5.7673 N   0  0  0  0  0  0  0  0  0  0  0  0
  -11.3267   -8.9010    8.4354 C   0  0  0  0  0  0  0  0  0  0  0  0
  -10.0842   -8.4085    8.6806 C   0  0  0  0  0  0  0  0  0  0  0  0
   -9.0599   -8.5493    7.7675 C   0  0  0  0  0  0  0  0  0  0  0  0
   -9.3424   -9.2153    6.5819 C   0  0  0  0  0  0  0  0  0  0  0  0
  -10.5928   -9.7329    6.2916 C   0  0  0  0  0  0  0  0  0  0  0  0
  -11.5695   -9.5589    7.2439 C   0  0  0  0  0  0  0  0  0  0  0  0
  -13.0091  -10.0934    9.8102 C   0  0  0  0  0  0  0  0  0  0  0  0
  -12.4320   -8.7476    9.3998 C   0  0  0  0  0  0  0  0  0  0  0  0
  -13.5264   -7.9199    8.7606 C   0  0  0  0  0  0  0  0  0  0  0  0
   -6.9925  -10.3432    2.3920 C   0  0  0  0  0  0  0  0  0  0  0  0
   -6.2711   -9.6387    1.5988 O   0  0  0  0  0  0  0  0  0  0  0  0
   -7.5347  -11.5794    1.8634 C   0  0  0  0  0  0  0  0  0  0  0  0
   -7.3703  -12.0195    0.5782 C   0  0  0  0  0  0  0  0  0  0  0  0
   -7.9187  -13.2077    0.1147 C   0  0  0  0  0  0  0  0  0  0  0  0
   -8.6634  -14.0096    0.9353 C   0  0  0  0  0  0  0  0  0  0  0  0
   -8.8461  -13.5956    2.2287 C   0  0  0  0  0  0  0  0  0  0  0  0
   -8.3010  -12.4143    2.6905 C   0  0  0  0  0  0  0  0  0  0  0  0
   -8.5096  -12.0150    4.0372 N   0  0  0  0  0  0  0  0  0  0  0  0
   -7.8404  -12.3114    4.7613 H   0  0  0  0  0  0  0  0  0  0  0  0
   -9.3256  -11.4309    4.2940 H   0  0  0  0  0  0  0  0  0  0  0  0
 12 13  1  0  0  0
 13 14  1  0  0  0
 13  6  1  0  0  0
  6  7  2  0  0  0
  7  8  1  0  0  0
  8  9  2  0  0  0
  9 10  1  0  0  0
 10 11  2  0  0  0
  9  1  1  0  0  0
  1  2  1  0  0  0
  2  3  2  0  0  0
  3  4  1  0  0  0
  4  5  2  0  0  0
  3 15  1  0  0  0
 15 16  2  0  0  0
 15 17  1  0  0  0
 17 18  2  0  0  0
 18 19  1  0  0  0
 19 20  2  0  0  0
 20 21  1  0  0  0
 21 22  2  0  0  0
 22 23  1  0  0  0
 11  6  1  0  0  0
  5  1  1  0  0  0
 22 17  1  0  0  0
 23 24  1  0  0  0
 23 25  1  0  0  0
M  END
> <minimizedAffinity>
13.05501

> <CNNscore>
0.5979961157

> <CNNaffinity>
5.6797938347

> <CNN_VS>
3.3964946270

> <CNNaffinity_variance>
0.6786882281

$$$$
[H]c1c([H])c([H])c(N([H])[H])c(C(=O)c2nnn(-c3c([H])c([H])c(C([H])(C([H])([H])[H])C([H])([H])[H])c([H])c3[H])c2[H])c1[H]


 25 27  0  0  0  0  0  0  0  0999 V2000
  -10.2131   -8.0577    7.9689 N   0  0  0  0  0  0  0  0  0  0  0  0
  -11.0883   -8.8211    7.2706 C   0  0  0  0  0  0  0  0  0  0  0  0
  -12.3298   -8.7656    7.9225 C   0  0  0  0  0  0  0  0  0  0  0  0
  -12.1091   -7.9729    8.9647 N   0  0  0  0  0  0  0  0  0  0  0  0
  -10.8401   -7.5440    8.9993 N   0  0  0  0  0  0  0  0  0  0  0  0
   -6.2105   -7.6118    6.8686 C   0  0  0  0  0  0  0  0  0  0  0  0
   -6.6727   -8.8070    7.3206 C   0  0  0  0  0  0  0  0  0  0  0  0
   -7.9900   -8.9761    7.6931 C   0  0  0  0  0  0  0  0  0  0  0  0
   -8.8335   -7.8775    7.5902 C   0  0  0  0  0  0  0  0  0  0  0  0
   -8.4049   -6.6424    7.1357 C   0  0  0  0  0  0  0  0  0  0  0  0
   -7.0803   -6.5406    6.7808 C   0  0  0  0  0  0  0  0  0  0  0  0
   -3.8532   -7.5742    7.6330 C   0  0  0  0  0  0  0  0  0  0  0  0
   -4.8067   -7.4219    6.4580 C   0  0  0  0  0  0  0  0  0  0  0  0
   -4.6511   -6.0324    5.8781 C   0  0  0  0  0  0  0  0  0  0  0  0
  -13.5103   -9.4452    7.4528 C   0  0  0  0  0  0  0  0  0  0  0  0
  -13.7735  -10.6006    7.9444 O   0  0  0  0  0  0  0  0  0  0  0  0
  -14.4337   -8.9268    6.4627 C   0  0  0  0  0  0  0  0  0  0  0  0
  -14.2237   -8.9470    5.1107 C   0  0  0  0  0  0  0  0  0  0  0  0
  -15.1347   -8.4278    4.2007 C   0  0  0  0  0  0  0  0  0  0  0  0
  -16.3066   -7.8605    4.6198 C   0  0  0  0  0  0  0  0  0  0  0  0
  -16.5457   -7.8251    5.9686 C   0  0  0  0  0  0  0  0  0  0  0  0
  -15.6404   -8.3413    6.8742 C   0  0  0  0  0  0  0  0  0  0  0  0
  -15.9197   -8.2886    8.2655 N   0  0  0  0  0  0  0  0  0  0  0  0
  -16.4234   -9.0692    8.7095 H   0  0  0  0  0  0  0  0  0  0  0  0
  -15.6215   -7.4750    8.8330 H   0  0  0  0  0  0  0  0  0  0  0  0
 12 13  1  0  0  0
 13 14  1  0  0  0
 13  6  1  0  0  0
  6  7  2  0  0  0
  7  8  1  0  0  0
  8  9  2  0  0  0
  9 10  1  0  0  0
 10 11  2  0  0  0
  9  1  1  0  0  0
  1  2  1  0  0  0
  2  3  2  0  0  0
  3  4  1  0  0  0
  4  5  2  0  0  0
  3 15  1  0  0  0
 15 16  2  0  0  0
 15 17  1  0  0  0
 17 18  2  0  0  0
 18 19  1  0  0  0
 19 20  2  0  0  0
 20 21  1  0  0  0
 21 22  2  0  0  0
 22 23  1  0  0  0
 11  6  1  0  0  0
  5  1  1  0  0  0
 22 17  1  0  0  0
 23 24  1  0  0  0
 23 25  1  0  0  0
M  END
> <minimizedAffinity>
-8.78859

> <CNNscore>
0.4785289764

> <CNNaffinity>
6.4689574242

> <CNN_VS>
3.0955836773

> <CNNaffinity_variance>
0.1736457646

$$$$
[H]c1c([H])c([H])c(N([H])[H])c(C(=O)c2nnn(-c3c([H])c([H])c(C([H])(C([H])([H])[H])C([H])([H])[H])c([H])c3[H])c2[H])c1[H]


 25 27  0  0  0  0  0  0  0  0999 V2000
   -5.8899   -5.4954    5.3601 N   0  0  0  0  0  0  0  0  0  0  0  0
   -5.6628   -6.8187    5.5433 C   0  0  0  0  0  0  0  0  0  0  0  0
   -6.8017   -7.5184    5.1158 C   0  0  0  0  0  0  0  0  0  0  0  0
   -7.6294   -6.5638    4.7071 N   0  0  0  0  0  0  0  0  0  0  0  0
   -7.0887   -5.3461    4.8508 N   0  0  0  0  0  0  0  0  0  0  0  0
   -3.1543   -2.4745    6.2665 C   0  0  0  0  0  0  0  0  0  0  0  0
   -3.9928   -2.3500    5.2045 C   0  0  0  0  0  0  0  0  0  0  0  0
   -4.9018   -3.3369    4.8843 C   0  0  0  0  0  0  0  0  0  0  0  0
   -4.9317   -4.4690    5.6884 C   0  0  0  0  0  0  0  0  0  0  0  0
   -4.0959   -4.6373    6.7787 C   0  0  0  0  0  0  0  0  0  0  0  0
   -3.2131   -3.6167    7.0434 C   0  0  0  0  0  0  0  0  0  0  0  0
   -1.0853   -1.2941    5.5822 C   0  0  0  0  0  0  0  0  0  0  0  0
   -2.1855   -1.4215    6.6244 C   0  0  0  0  0  0  0  0  0  0  0  0
   -1.5589   -1.7674    7.9582 C   0  0  0  0  0  0  0  0  0  0  0  0
   -6.9154   -8.9545    5.1451 C   0  0  0  0  0  0  0  0  0  0  0  0
   -6.6743   -9.5532    6.2538 O   0  0  0  0  0  0  0  0  0  0  0  0
   -7.2835   -9.7858    4.0160 C   0  0  0  0  0  0  0  0  0  0  0  0
   -6.6564   -9.7761    2.7998 C   0  0  0  0  0  0  0  0  0  0  0  0
   -7.0527  -10.5850    1.7433 C   0  0  0  0  0  0  0  0  0  0  0  0
   -8.1084  -11.4454    1.8697 C   0  0  0  0  0  0  0  0  0  0  0  0
   -8.7572  -11.4780    3.0762 C   0  0  0  0  0  0  0  0  0  0  0  0
   -8.3637  -10.6742    4.1274 C   0  0  0  0  0  0  0  0  0  0  0  0
   -9.0581  -10.7331    5.3647 N   0  0  0  0  0  0  0  0  0  0  0  0
   -8.7466  -11.3968    6.0876 H   0  0  0  0  0  0  0  0  0  0  0  0
   -9.8709  -10.1165    5.5435 H   0  0  0  0  0  0  0  0  0  0  0  0
 12 13  1  0  0  0
 13 14  1  0  0  0
 13  6  1  0  0  0
  6  7  2  0  0  0
  7  8  1  0  0  0
  8  9  2  0  0  0
  9 10  1  0  0  0
 10 11  2  0  0  0
  9  1  1  0  0  0
  1  2  1  0  0  0
  2  3  2  0  0  0
  3  4  1  0  0  0
  4  5  2  0  0  0
  3 15  1  0  0  0
 15 16  2  0  0  0
 15 17  1  0  0  0
 17 18  2  0  0  0
 18 19  1  0  0  0
 19 20  2  0  0  0
 20 21  1  0  0  0
 21 22  2  0  0  0
 22 23  1  0  0  0
 11  6  1  0  0  0
  5  1  1  0  0  0
 22 17  1  0  0  0
 23 24  1  0  0  0
 23 25  1  0  0  0
M  END
> <minimizedAffinity>
11.48769

> <CNNscore>
0.4559251666

> <CNNaffinity>
5.3815469742

> <CNN_VS>
2.4535827637

> <CNNaffinity_variance>
1.9724662304

$$$$
[H]c1c([H])c([H])c(N([H])[H])c(C(=O)c2nnn(-c3c([H])c([H])c(C([H])(C([H])([H])[H])C([H])([H])[H])c([H])c3[H])c2[H])c1[H]


 25 27  0  0  0  0  0  0  0  0999 V2000
  -12.7479   -8.7245    7.1239 N   0  0  0  0  0  0  0  0  0  0  0  0
  -13.2859   -8.5446    5.8932 C   0  0  0  0  0  0  0  0  0  0  0  0
  -14.6829   -8.5917    6.0185 C   0  0  0  0  0  0  0  0  0  0  0  0
  -14.8814   -8.7965    7.3154 N   0  0  0  0  0  0  0  0  0  0  0  0
  -13.7239   -8.8775    7.9857 N   0  0  0  0  0  0  0  0  0  0  0  0
   -8.6320   -8.8125    7.8188 C   0  0  0  0  0  0  0  0  0  0  0  0
   -9.2621   -9.8840    7.2698 C   0  0  0  0  0  0  0  0  0  0  0  0
  -10.6213   -9.8785    7.0349 C   0  0  0  0  0  0  0  0  0  0  0  0
  -11.3288   -8.7342    7.3801 C   0  0  0  0  0  0  0  0  0  0  0  0
  -10.7278   -7.6211    7.9417 C   0  0  0  0  0  0  0  0  0  0  0  0
   -9.3703   -7.6914    8.1500 C   0  0  0  0  0  0  0  0  0  0  0  0
   -6.7598   -7.6099    8.9101 C   0  0  0  0  0  0  0  0  0  0  0  0
   -7.1779   -8.8032    8.0651 C   0  0  0  0  0  0  0  0  0  0  0  0
   -6.4577   -8.7380    6.7353 C   0  0  0  0  0  0  0  0  0  0  0  0
  -15.5908   -8.4201    4.9129 C   0  0  0  0  0  0  0  0  0  0  0  0
  -15.7297   -9.3971    4.0930 O   0  0  0  0  0  0  0  0  0  0  0  0
  -16.3674   -7.2250    4.6483 C   0  0  0  0  0  0  0  0  0  0  0  0
  -15.8449   -5.9689    4.5014 C   0  0  0  0  0  0  0  0  0  0  0  0
  -16.6319   -4.8512    4.2588 C   0  0  0  0  0  0  0  0  0  0  0  0
  -17.9917   -4.9539    4.1536 C   0  0  0  0  0  0  0  0  0  0  0  0
  -18.5451   -6.1993    4.2962 C   0  0  0  0  0  0  0  0  0  0  0  0
  -17.7634   -7.3114    4.5373 C   0  0  0  0  0  0  0  0  0  0  0  0
  -18.3694   -8.5877    4.6798 N   0  0  0  0  0  0  0  0  0  0  0  0
  -18.5057   -9.1779    3.8472 H   0  0  0  0  0  0  0  0  0  0  0  0
  -18.6732   -8.9266    5.6102 H   0  0  0  0  0  0  0  0  0  0  0  0
 12 13  1  0  0  0
 13 14  1  0  0  0
 13  6  1  0  0  0
  6  7  2  0  0  0
  7  8  1  0  0  0
  8  9  2  0  0  0
  9 10  1  0  0  0
 10 11  2  0  0  0
  9  1  1  0  0  0
  1  2  1  0  0  0
  2  3  2  0  0  0
  3  4  1  0  0  0
  4  5  2  0  0  0
  3 15  1  0  0  0
 15 16  2  0  0  0
 15 17  1  0  0  0
 17 18  2  0  0  0
 18 19  1  0  0  0
 19 20  2  0  0  0
 20 21  1  0  0  0
 21 22  2  0  0  0
 22 23  1  0  0  0
 11  6  1  0  0  0
  5  1  1  0  0  0
 22 17  1  0  0  0
 23 24  1  0  0  0
 23 25  1  0  0  0
M  END
> <minimizedAffinity>
-9.37586

> <CNNscore>
0.4233381152

> <CNNaffinity>
6.3945703506

> <CNN_VS>
2.7070653439

> <CNNaffinity_variance>
0.1664759368

$$$$
[H]c1c([H])c([H])c(N([H])[H])c(C(=O)c2nnn(-c3c([H])c([H])c(C([H])(C([H])([H])[H])C([H])([H])[H])c([H])c3[H])c2[H])c1[H]


 25 27  0  0  0  0  0  0  0  0999 V2000
   -9.2099   -6.7450    6.6949 N   0  0  0  0  0  0  0  0  0  0  0  0
   -9.9028   -7.8784    6.9626 C   0  0  0  0  0  0  0  0  0  0  0  0
  -11.2711   -7.5889    6.8469 C   0  0  0  0  0  0  0  0  0  0  0  0
  -11.2996   -6.3026    6.5181 N   0  0  0  0  0  0  0  0  0  0  0  0
  -10.0654   -5.7889    6.4251 N   0  0  0  0  0  0  0  0  0  0  0  0
   -5.0453   -6.4514    6.7214 C   0  0  0  0  0  0  0  0  0  0  0  0
   -5.7852   -5.6906    5.8726 C   0  0  0  0  0  0  0  0  0  0  0  0
   -7.1618   -5.7739    5.8441 C   0  0  0  0  0  0  0  0  0  0  0  0
   -7.7702   -6.6665    6.7170 C   0  0  0  0  0  0  0  0  0  0  0  0
   -7.0556   -7.4605    7.5972 C   0  0  0  0  0  0  0  0  0  0  0  0
   -5.6869   -7.3294    7.5752 C   0  0  0  0  0  0  0  0  0  0  0  0
   -2.9459   -6.7661    5.4424 C   0  0  0  0  0  0  0  0  0  0  0  0
   -3.5738   -6.3635    6.7677 C   0  0  0  0  0  0  0  0  0  0  0  0
   -3.0633   -7.2881    7.8522 C   0  0  0  0  0  0  0  0  0  0  0  0
  -12.3139   -8.5633    7.0448 C   0  0  0  0  0  0  0  0  0  0  0  0
  -12.0302   -9.6177    7.7183 O   0  0  0  0  0  0  0  0  0  0  0  0
  -13.6688   -8.4497    6.5421 C   0  0  0  0  0  0  0  0  0  0  0  0
  -14.0772   -8.8444    5.2972 C   0  0  0  0  0  0  0  0  0  0  0  0
  -15.3864   -8.7054    4.8564 C   0  0  0  0  0  0  0  0  0  0  0  0
  -16.3478   -8.1567    5.6598 C   0  0  0  0  0  0  0  0  0  0  0  0
  -15.9695   -7.7514    6.9129 C   0  0  0  0  0  0  0  0  0  0  0  0
  -14.6680   -7.8894    7.3521 C   0  0  0  0  0  0  0  0  0  0  0  0
  -14.3099   -7.4590    8.6571 N   0  0  0  0  0  0  0  0  0  0  0  0
  -14.3772   -8.1203    9.4433 H   0  0  0  0  0  0  0  0  0  0  0  0
  -13.9832   -6.4899    8.8220 H   0  0  0  0  0  0  0  0  0  0  0  0
 12 13  1  0  0  0
 13 14  1  0  0  0
 13  6  1  0  0  0
  6  7  2  0  0  0
  7  8  1  0  0  0
  8  9  2  0  0  0
  9 10  1  0  0  0
 10 11  2  0  0  0
  9  1  1  0  0  0
  1  2  1  0  0  0
  2  3  2  0  0  0
  3  4  1  0  0  0
  4  5  2  0  0  0
  3 15  1  0  0  0
 15 16  2  0  0  0
 15 17  1  0  0  0
 17 18  2  0  0  0
 18 19  1  0  0  0
 19 20  2  0  0  0
 20 21  1  0  0  0
 21 22  2  0  0  0
 22 23  1  0  0  0
 11  6  1  0  0  0
  5  1  1  0  0  0
 22 17  1  0  0  0
 23 24  1  0  0  0
 23 25  1  0  0  0
M  END
> <minimizedAffinity>
1.79267

> <CNNscore>
0.3903907239

> <CNNaffinity>
5.9371175766

> <CNN_VS>
2.3177955151

> <CNNaffinity_variance>
1.2452985048

$$$$
[H]c1c([H])c([H])c(N([H])[H])c(C(=O)c2nnn(-c3c([H])c([H])c(C([H])(C([H])([H])[H])C([H])([H])[H])c([H])c3[H])c2[H])c1[H]


 25 27  0  0  0  0  0  0  0  0999 V2000
  -12.3237   -9.1878    7.5035 N   0  0  0  0  0  0  0  0  0  0  0  0
  -13.2255   -8.2155    7.2245 C   0  0  0  0  0  0  0  0  0  0  0  0
  -14.5101   -8.7695    7.3356 C   0  0  0  0  0  0  0  0  0  0  0  0
  -14.2855  -10.0340    7.6732 N   0  0  0  0  0  0  0  0  0  0  0  0
  -12.9747  -10.2927    7.7759 N   0  0  0  0  0  0  0  0  0  0  0  0
   -8.2017   -8.5243    7.5058 C   0  0  0  0  0  0  0  0  0  0  0  0
   -9.0590   -7.5409    7.8858 C   0  0  0  0  0  0  0  0  0  0  0  0
  -10.4244   -7.7366    7.8893 C   0  0  0  0  0  0  0  0  0  0  0  0
  -10.8968   -8.9799    7.4889 C   0  0  0  0  0  0  0  0  0  0  0  0
  -10.0599  -10.0089    7.0937 C   0  0  0  0  0  0  0  0  0  0  0  0
   -8.7097   -9.7487    7.1128 C   0  0  0  0  0  0  0  0  0  0  0  0
   -6.3532   -6.9885    8.1116 C   0  0  0  0  0  0  0  0  0  0  0  0
   -6.7397   -8.3297    7.5077 C   0  0  0  0  0  0  0  0  0  0  0  0
   -6.2375   -8.3872    6.0809 C   0  0  0  0  0  0  0  0  0  0  0  0
  -15.7238   -8.0218    7.1259 C   0  0  0  0  0  0  0  0  0  0  0  0
  -16.3834   -7.6456    8.1600 O   0  0  0  0  0  0  0  0  0  0  0  0
  -16.2657   -7.6559    5.8320 C   0  0  0  0  0  0  0  0  0  0  0  0
  -17.1524   -8.4105    5.1133 C   0  0  0  0  0  0  0  0  0  0  0  0
  -17.6361   -8.0221    3.8712 C   0  0  0  0  0  0  0  0  0  0  0  0
  -17.2417   -6.8455    3.2960 C   0  0  0  0  0  0  0  0  0  0  0  0
  -16.3538   -6.0674    3.9916 C   0  0  0  0  0  0  0  0  0  0  0  0
  -15.8725   -6.4527    5.2268 C   0  0  0  0  0  0  0  0  0  0  0  0
  -14.9532   -5.6224    5.9210 N   0  0  0  0  0  0  0  0  0  0  0  0
  -15.3096   -4.9038    6.5666 H   0  0  0  0  0  0  0  0  0  0  0  0
  -13.9328   -5.7343    5.7830 H   0  0  0  0  0  0  0  0  0  0  0  0
 12 13  1  0  0  0
 13 14  1  0  0  0
 13  6  1  0  0  0
  6  7  2  0  0  0
  7  8  1  0  0  0
  8  9  2  0  0  0
  9 10  1  0  0  0
 10 11  2  0  0  0
  9  1  1  0  0  0
  1  2  1  0  0  0
  2  3  2  0  0  0
  3  4  1  0  0  0
  4  5  2  0  0  0
  3 15  1  0  0  0
 15 16  2  0  0  0
 15 17  1  0  0  0
 17 18  2  0  0  0
 18 19  1  0  0  0
 19 20  2  0  0  0
 20 21  1  0  0  0
 21 22  2  0  0  0
 22 23  1  0  0  0
 11  6  1  0  0  0
  5  1  1  0  0  0
 22 17  1  0  0  0
 23 24  1  0  0  0
 23 25  1  0  0  0
M  END
> <minimizedAffinity>
-9.05439

> <CNNscore>
0.3628452718

> <CNNaffinity>
6.4829726219

> <CNN_VS>
2.3523159027

> <CNNaffinity_variance>
0.0631903410

$$$$
[H]OC1=NC(=O)C(=C([H])c2c([H])c([H])c(Oc3c([H])c([H])c(C(F)(F)F)c([H])c3C(F)(F)F)c(OC([H])([H])[H])c2[H])S1


 32 34  0  0  0  0  0  0  0  0999 V2000
  -10.3265   -7.8740    7.9616 C   0  0  0  0  0  0  0  0  0  0  0  0
   -8.9525   -7.8220    7.9438 C   0  0  0  0  0  0  0  0  0  0  0  0
   -8.2089   -8.8932    7.4671 C   0  0  0  0  0  0  0  0  0  0  0  0
   -8.8488  -10.0091    7.0123 C   0  0  0  0  0  0  0  0  0  0  0  0
  -10.2551  -10.0546    7.0358 C   0  0  0  0  0  0  0  0  0  0  0  0
  -11.0360   -9.0284    7.4915 C   0  0  0  0  0  0  0  0  0  0  0  0
   -6.7501   -8.7571    7.4498 C   0  0  0  0  0  0  0  0  0  0  0  0
   -6.1192   -7.8077    6.8540 C   0  0  0  0  0  0  0  0  0  0  0  0
   -6.7836   -6.4524    5.9146 S   0  0  0  0  0  0  0  0  0  0  0  0
   -5.1606   -5.6954    5.5835 C   0  0  0  0  0  0  0  0  0  0  0  0
   -5.0157   -4.5296    4.8343 O   0  0  0  0  0  0  0  0  0  0  0  0
   -4.3229   -6.4285    6.1433 N   0  0  0  0  0  0  0  0  0  0  0  0
   -4.6980   -7.5557    6.8359 C   0  0  0  0  0  0  0  0  0  0  0  0
   -3.8803   -8.3475    7.4317 O   0  0  0  0  0  0  0  0  0  0  0  0
   -5.6763   -3.7669    5.0620 H   0  0  0  0  0  0  0  0  0  0  0  0
  -11.0249   -6.2103    9.6499 C   0  0  0  0  0  0  0  0  0  0  0  0
  -11.1179   -6.8455    8.4151 O   0  0  0  0  0  0  0  0  0  0  0  0
  -12.3708   -9.0112    7.5331 O   0  0  0  0  0  0  0  0  0  0  0  0
  -13.4472   -8.7968    6.7944 C   0  0  0  0  0  0  0  0  0  0  0  0
  -13.5879   -9.0767    5.4623 C   0  0  0  0  0  0  0  0  0  0  0  0
  -14.7620   -8.8278    4.7605 C   0  0  0  0  0  0  0  0  0  0  0  0
  -15.8313   -8.2813    5.3970 C   0  0  0  0  0  0  0  0  0  0  0  0
  -15.7112   -7.9950    6.7280 C   0  0  0  0  0  0  0  0  0  0  0  0
  -14.5780   -8.2249    7.4548 C   0  0  0  0  0  0  0  0  0  0  0  0
  -14.5204   -7.8656    8.9120 C   0  0  0  0  0  0  0  0  0  0  0  0
  -13.5593   -8.5801    9.5959 F   0  0  0  0  0  0  0  0  0  0  0  0
  -14.2413   -6.5287    9.0180 F   0  0  0  0  0  0  0  0  0  0  0  0
  -15.7861   -8.0767    9.4823 F   0  0  0  0  0  0  0  0  0  0  0  0
  -17.0811   -8.0019    4.6927 C   0  0  0  0  0  0  0  0  0  0  0  0
  -17.7171   -6.8853    5.1767 F   0  0  0  0  0  0  0  0  0  0  0  0
  -16.9380   -7.8217    3.3497 F   0  0  0  0  0  0  0  0  0  0  0  0
  -17.9736   -9.0822    4.8411 F   0  0  0  0  0  0  0  0  0  0  0  0
 16 17  1  0  0  0
 17  1  1  0  0  0
  1  2  2  0  0  0
  2  3  1  0  0  0
  3  7  1  0  0  0
  7  8  2  0  0  0
  8  9  1  0  0  0
  9 10  1  0  0  0
 10 11  1  0  0  0
 10 12  2  0  0  0
 12 13  1  0  0  0
 13 14  2  0  0  0
  3  4  2  0  0  0
  4  5  1  0  0  0
  5  6  2  0  0  0
  6 18  1  0  0  0
 18 19  1  0  0  0
 19 20  2  0  0  0
 20 21  1  0  0  0
 21 22  2  0  0  0
 22 23  1  0  0  0
 23 24  2  0  0  0
 24 25  1  0  0  0
 25 26  1  0  0  0
 25 27  1  0  0  0
 25 28  1  0  0  0
 22 29  1  0  0  0
 29 30  1  0  0  0
 29 31  1  0  0  0
 29 32  1  0  0  0
  6  1  1  0  0  0
 24 19  1  0  0  0
 13  8  1  0  0  0
 11 15  1  0  0  0
M  END
> <minimizedAffinity>
-10.18819

> <CNNscore>
0.4449760914

> <CNNaffinity>
6.6832618713

> <CNN_VS>
2.9738917351

> <CNNaffinity_variance>
0.2384164780

$$$$
[H]OC1=NC(=O)C(=C([H])c2c([H])c([H])c(Oc3c([H])c([H])c(C(F)(F)F)c([H])c3C(F)(F)F)c(OC([H])([H])[H])c2[H])S1


 32 34  0  0  0  0  0  0  0  0999 V2000
   -8.8131   -8.8769    7.3556 C   0  0  0  0  0  0  0  0  0  0  0  0
   -7.5039   -8.7544    6.9536 C   0  0  0  0  0  0  0  0  0  0  0  0
   -6.9236   -7.5023    6.8008 C   0  0  0  0  0  0  0  0  0  0  0  0
   -7.6610   -6.3822    7.0516 C   0  0  0  0  0  0  0  0  0  0  0  0
   -9.0007   -6.5166    7.4607 C   0  0  0  0  0  0  0  0  0  0  0  0
   -9.6209   -7.7238    7.6297 C   0  0  0  0  0  0  0  0  0  0  0  0
   -5.5157   -7.4474    6.3986 C   0  0  0  0  0  0  0  0  0  0  0  0
   -4.5874   -6.8862    7.0896 C   0  0  0  0  0  0  0  0  0  0  0  0
   -4.7201   -6.0449    8.6502 S   0  0  0  0  0  0  0  0  0  0  0  0
   -2.9357   -5.7064    8.7853 C   0  0  0  0  0  0  0  0  0  0  0  0
   -2.3824   -5.0193    9.8636 O   0  0  0  0  0  0  0  0  0  0  0  0
   -2.4180   -6.1982    7.7641 N   0  0  0  0  0  0  0  0  0  0  0  0
   -3.1722   -6.8382    6.8088 C   0  0  0  0  0  0  0  0  0  0  0  0
   -2.6943   -7.3633    5.7381 O   0  0  0  0  0  0  0  0  0  0  0  0
   -2.7176   -5.3094   10.7982 H   0  0  0  0  0  0  0  0  0  0  0  0
   -9.9187  -10.9260    6.5279 C   0  0  0  0  0  0  0  0  0  0  0  0
   -9.4421  -10.0867    7.5306 O   0  0  0  0  0  0  0  0  0  0  0  0
  -10.8838   -7.9142    8.0201 O   0  0  0  0  0  0  0  0  0  0  0  0
  -12.1367   -7.8751    7.5971 C   0  0  0  0  0  0  0  0  0  0  0  0
  -12.6508   -8.5382    6.5161 C   0  0  0  0  0  0  0  0  0  0  0  0
  -13.9875   -8.4498    6.1444 C   0  0  0  0  0  0  0  0  0  0  0  0
  -14.8434   -7.6773    6.8643 C   0  0  0  0  0  0  0  0  0  0  0  0
  -14.3495   -7.0073    7.9483 C   0  0  0  0  0  0  0  0  0  0  0  0
  -13.0452   -7.0680    8.3488 C   0  0  0  0  0  0  0  0  0  0  0  0
  -12.5769   -6.2867    9.5430 C   0  0  0  0  0  0  0  0  0  0  0  0
  -11.4419   -5.5486    9.2809 F   0  0  0  0  0  0  0  0  0  0  0  0
  -13.5814   -5.4382    9.9268 F   0  0  0  0  0  0  0  0  0  0  0  0
  -12.3487   -7.1753   10.6061 F   0  0  0  0  0  0  0  0  0  0  0  0
  -16.2543   -7.5564    6.5029 C   0  0  0  0  0  0  0  0  0  0  0  0
  -17.0875   -7.7161    7.5827 F   0  0  0  0  0  0  0  0  0  0  0  0
  -16.5836   -6.3673    5.9249 F   0  0  0  0  0  0  0  0  0  0  0  0
  -16.6014   -8.5477    5.5636 F   0  0  0  0  0  0  0  0  0  0  0  0
 16 17  1  0  0  0
 17  1  1  0  0  0
  1  2  2  0  0  0
  2  3  1  0  0  0
  3  7  1  0  0  0
  7  8  2  0  0  0
  8  9  1  0  0  0
  9 10  1  0  0  0
 10 11  1  0  0  0
 10 12  2  0  0  0
 12 13  1  0  0  0
 13 14  2  0  0  0
  3  4  2  0  0  0
  4  5  1  0  0  0
  5  6  2  0  0  0
  6 18  1  0  0  0
 18 19  1  0  0  0
 19 20  2  0  0  0
 20 21  1  0  0  0
 21 22  2  0  0  0
 22 23  1  0  0  0
 23 24  2  0  0  0
 24 25  1  0  0  0
 25 26  1  0  0  0
 25 27  1  0  0  0
 25 28  1  0  0  0
 22 29  1  0  0  0
 29 30  1  0  0  0
 29 31  1  0  0  0
 29 32  1  0  0  0
  6  1  1  0  0  0
 24 19  1  0  0  0
 13  8  1  0  0  0
 11 15  1  0  0  0
M  END
> <minimizedAffinity>
-9.10753

> <CNNscore>
0.4313683510

> <CNNaffinity>
6.5276932716

> <CNN_VS>
2.8158402443

> <CNNaffinity_variance>
0.2564894557

$$$$
[H]OC1=NC(=O)C(=C([H])c2c([H])c([H])c(Oc3c([H])c([H])c(C(F)(F)F)c([H])c3C(F)(F)F)c(OC([H])([H])[H])c2[H])S1


 32 34  0  0  0  0  0  0  0  0999 V2000
  -13.1263   -8.2579    6.3924 C   0  0  0  0  0  0  0  0  0  0  0  0
  -14.1191   -8.2927    5.4418 C   0  0  0  0  0  0  0  0  0  0  0  0
  -15.0025   -7.2309    5.3003 C   0  0  0  0  0  0  0  0  0  0  0  0
  -14.8839   -6.1421    6.1138 C   0  0  0  0  0  0  0  0  0  0  0  0
  -13.8662   -6.1154    7.0853 C   0  0  0  0  0  0  0  0  0  0  0  0
  -12.9683   -7.1312    7.2659 C   0  0  0  0  0  0  0  0  0  0  0  0
  -16.0168   -7.3231    4.2469 C   0  0  0  0  0  0  0  0  0  0  0  0
  -17.1880   -7.8281    4.4126 C   0  0  0  0  0  0  0  0  0  0  0  0
  -17.8928   -8.5373    5.8827 S   0  0  0  0  0  0  0  0  0  0  0  0
  -19.5138   -8.8688    5.1216 C   0  0  0  0  0  0  0  0  0  0  0  0
  -20.5616   -9.4663    5.8191 O   0  0  0  0  0  0  0  0  0  0  0  0
  -19.4267   -8.4646    3.9462 N   0  0  0  0  0  0  0  0  0  0  0  0
  -18.2695   -7.9034    3.4595 C   0  0  0  0  0  0  0  0  0  0  0  0
  -18.1218   -7.4699    2.2591 O   0  0  0  0  0  0  0  0  0  0  0  0
  -20.7319   -9.0989    6.7710 H   0  0  0  0  0  0  0  0  0  0  0  0
  -11.2092   -9.3187    7.5349 C   0  0  0  0  0  0  0  0  0  0  0  0
  -12.2185   -9.2734    6.5777 O   0  0  0  0  0  0  0  0  0  0  0  0
  -11.9805   -7.1606    8.1643 O   0  0  0  0  0  0  0  0  0  0  0  0
  -11.6280   -6.7188    9.3605 C   0  0  0  0  0  0  0  0  0  0  0  0
  -10.5240   -5.9664    9.6564 C   0  0  0  0  0  0  0  0  0  0  0  0
  -10.2310   -5.5334   10.9446 C   0  0  0  0  0  0  0  0  0  0  0  0
  -11.0561   -5.8580   11.9747 C   0  0  0  0  0  0  0  0  0  0  0  0
  -12.1648   -6.6085   11.6998 C   0  0  0  0  0  0  0  0  0  0  0  0
  -12.4904   -7.0524   10.4499 C   0  0  0  0  0  0  0  0  0  0  0  0
  -13.7192   -7.8884   10.2334 C   0  0  0  0  0  0  0  0  0  0  0  0
  -14.6859   -7.2295    9.5033 F   0  0  0  0  0  0  0  0  0  0  0  0
  -13.3560   -9.0279    9.5657 F   0  0  0  0  0  0  0  0  0  0  0  0
  -14.2293   -8.2782   11.4823 F   0  0  0  0  0  0  0  0  0  0  0  0
  -10.7801   -5.4245   13.3428 C   0  0  0  0  0  0  0  0  0  0  0  0
   -9.4533   -5.5487   13.6743 F   0  0  0  0  0  0  0  0  0  0  0  0
  -11.1308   -4.1336   13.6019 F   0  0  0  0  0  0  0  0  0  0  0  0
  -11.5094   -6.2102   14.2573 F   0  0  0  0  0  0  0  0  0  0  0  0
 16 17  1  0  0  0
 17  1  1  0  0  0
  1  2  2  0  0  0
  2  3  1  0  0  0
  3  7  1  0  0  0
  7  8  2  0  0  0
  8  9  1  0  0  0
  9 10  1  0  0  0
 10 11  1  0  0  0
 10 12  2  0  0  0
 12 13  1  0  0  0
 13 14  2  0  0  0
  3  4  2  0  0  0
  4  5  1  0  0  0
  5  6  2  0  0  0
  6 18  1  0  0  0
 18 19  1  0  0  0
 19 20  2  0  0  0
 20 21  1  0  0  0
 21 22  2  0  0  0
 22 23  1  0  0  0
 23 24  2  0  0  0
 24 25  1  0  0  0
 25 26  1  0  0  0
 25 27  1  0  0  0
 25 28  1  0  0  0
 22 29  1  0  0  0
 29 30  1  0  0  0
 29 31  1  0  0  0
 29 32  1  0  0  0
  6  1  1  0  0  0
 24 19  1  0  0  0
 13  8  1  0  0  0
 11 15  1  0  0  0
M  END
> <minimizedAffinity>
1.60673

> <CNNscore>
0.3384913802

> <CNNaffinity>
6.2393465042

> <CNN_VS>
2.1119649410

> <CNNaffinity_variance>
0.6453736424

$$$$
[H]OC1=NC(=O)C(=C([H])c2c([H])c([H])c(Oc3c([H])c([H])c(C(F)(F)F)c([H])c3C(F)(F)F)c(OC([H])([H])[H])c2[H])S1


 32 34  0  0  0  0  0  0  0  0999 V2000
   -8.8085   -9.1211    7.6245 C   0  0  0  0  0  0  0  0  0  0  0  0
   -7.4706   -9.1566    7.3093 C   0  0  0  0  0  0  0  0  0  0  0  0
   -6.6740   -8.0310    7.4715 C   0  0  0  0  0  0  0  0  0  0  0  0
   -7.2255   -6.8777    7.9482 C   0  0  0  0  0  0  0  0  0  0  0  0
   -8.5959   -6.8495    8.2666 C   0  0  0  0  0  0  0  0  0  0  0  0
   -9.4252   -7.9283    8.1289 C   0  0  0  0  0  0  0  0  0  0  0  0
   -5.2508   -8.1494    7.1439 C   0  0  0  0  0  0  0  0  0  0  0  0
   -4.5792   -7.2585    6.5042 C   0  0  0  0  0  0  0  0  0  0  0  0
   -5.1402   -5.7035    5.8499 S   0  0  0  0  0  0  0  0  0  0  0  0
   -3.5008   -5.2054    5.2325 C   0  0  0  0  0  0  0  0  0  0  0  0
   -3.2841   -3.9996    4.5688 O   0  0  0  0  0  0  0  0  0  0  0  0
   -2.7279   -6.1360    5.5310 N   0  0  0  0  0  0  0  0  0  0  0  0
   -3.1694   -7.2571    6.1937 C   0  0  0  0  0  0  0  0  0  0  0  0
   -2.4200   -8.2460    6.5268 O   0  0  0  0  0  0  0  0  0  0  0  0
   -3.7227   -3.1675    4.9989 H   0  0  0  0  0  0  0  0  0  0  0  0
   -9.8050  -10.9949    6.3590 C   0  0  0  0  0  0  0  0  0  0  0  0
   -9.6474  -10.2020    7.4919 O   0  0  0  0  0  0  0  0  0  0  0  0
  -10.7284   -7.9638    8.4190 O   0  0  0  0  0  0  0  0  0  0  0  0
  -11.9328   -7.8785    7.8783 C   0  0  0  0  0  0  0  0  0  0  0  0
  -12.3950   -8.5921    6.8061 C   0  0  0  0  0  0  0  0  0  0  0  0
  -13.6837   -8.4482    6.3047 C   0  0  0  0  0  0  0  0  0  0  0  0
  -14.5427   -7.5668    6.8814 C   0  0  0  0  0  0  0  0  0  0  0  0
  -14.1003   -6.8447    7.9542 C   0  0  0  0  0  0  0  0  0  0  0  0
  -12.8444   -6.9566    8.4790 C   0  0  0  0  0  0  0  0  0  0  0  0
  -12.4293   -6.1133    9.6505 C   0  0  0  0  0  0  0  0  0  0  0  0
  -11.3067   -5.3569    9.3871 F   0  0  0  0  0  0  0  0  0  0  0  0
  -13.4654   -5.2764    9.9707 F   0  0  0  0  0  0  0  0  0  0  0  0
  -12.2081   -6.9497   10.7566 F   0  0  0  0  0  0  0  0  0  0  0  0
  -15.9037   -7.3849    6.3810 C   0  0  0  0  0  0  0  0  0  0  0  0
  -16.8502   -7.5626    7.3599 F   0  0  0  0  0  0  0  0  0  0  0  0
  -16.1368   -6.1624    5.8261 F   0  0  0  0  0  0  0  0  0  0  0  0
  -16.1773   -8.3241    5.3668 F   0  0  0  0  0  0  0  0  0  0  0  0
 16 17  1  0  0  0
 17  1  1  0  0  0
  1  2  2  0  0  0
  2  3  1  0  0  0
  3  7  1  0  0  0
  7  8  2  0  0  0
  8  9  1  0  0  0
  9 10  1  0  0  0
 10 11  1  0  0  0
 10 12  2  0  0  0
 12 13  1  0  0  0
 13 14  2  0  0  0
  3  4  2  0  0  0
  4  5  1  0  0  0
  5  6  2  0  0  0
  6 18  1  0  0  0
 18 19  1  0  0  0
 19 20  2  0  0  0
 20 21  1  0  0  0
 21 22  2  0  0  0
 22 23  1  0  0  0
 23 24  2  0  0  0
 24 25  1  0  0  0
 25 26  1  0  0  0
 25 27  1  0  0  0
 25 28  1  0  0  0
 22 29  1  0  0  0
 29 30  1  0  0  0
 29 31  1  0  0  0
 29 32  1  0  0  0
  6  1  1  0  0  0
 24 19  1  0  0  0
 13  8  1  0  0  0
 11 15  1  0  0  0
M  END
> <minimizedAffinity>
-8.69527

> <CNNscore>
0.2959564030

> <CNNaffinity>
6.3330860138

> <CNN_VS>
1.8743174076

> <CNNaffinity_variance>
0.2248101681

$$$$
[H]OC1=NC(=O)C(=C([H])c2c([H])c([H])c(Oc3c([H])c([H])c(C(F)(F)F)c([H])c3C(F)(F)F)c(OC([H])([H])[H])c2[H])S1


 32 34  0  0  0  0  0  0  0  0999 V2000
  -13.2554   -8.7317    6.2510 C   0  0  0  0  0  0  0  0  0  0  0  0
  -14.3359   -8.5022    5.4321 C   0  0  0  0  0  0  0  0  0  0  0  0
  -14.9534   -7.2589    5.4053 C   0  0  0  0  0  0  0  0  0  0  0  0
  -14.4830   -6.2550    6.2005 C   0  0  0  0  0  0  0  0  0  0  0  0
  -13.3780   -6.4991    7.0370 C   0  0  0  0  0  0  0  0  0  0  0  0
  -12.7309   -7.7023    7.1009 C   0  0  0  0  0  0  0  0  0  0  0  0
  -16.0805   -7.0766    4.4870 C   0  0  0  0  0  0  0  0  0  0  0  0
  -17.2351   -7.6219    4.6416 C   0  0  0  0  0  0  0  0  0  0  0  0
  -17.7844   -8.7090    5.9367 S   0  0  0  0  0  0  0  0  0  0  0  0
  -19.4861   -8.8434    5.3020 C   0  0  0  0  0  0  0  0  0  0  0  0
  -20.4603   -9.6192    5.9266 O   0  0  0  0  0  0  0  0  0  0  0  0
  -19.5232   -8.1368    4.2763 N   0  0  0  0  0  0  0  0  0  0  0  0
  -18.4174   -7.4512    3.8313 C   0  0  0  0  0  0  0  0  0  0  0  0
  -18.3967   -6.7090    2.7828 O   0  0  0  0  0  0  0  0  0  0  0  0
  -20.5164   -9.5236    6.9550 H   0  0  0  0  0  0  0  0  0  0  0  0
  -12.4456  -10.7364    7.4474 C   0  0  0  0  0  0  0  0  0  0  0  0
  -12.5981   -9.9372    6.3183 O   0  0  0  0  0  0  0  0  0  0  0  0
  -11.6768   -7.9914    7.8684 O   0  0  0  0  0  0  0  0  0  0  0  0
  -10.3634   -7.8565    7.9522 C   0  0  0  0  0  0  0  0  0  0  0  0
   -9.4302   -8.4852    7.1734 C   0  0  0  0  0  0  0  0  0  0  0  0
   -8.0634   -8.2790    7.3215 C   0  0  0  0  0  0  0  0  0  0  0  0
   -7.6043   -7.4246    8.2736 C   0  0  0  0  0  0  0  0  0  0  0  0
   -8.5205   -6.7860    9.0616 C   0  0  0  0  0  0  0  0  0  0  0  0
   -9.8706   -6.9583    8.9483 C   0  0  0  0  0  0  0  0  0  0  0  0
  -10.8119   -6.2315    9.8656 C   0  0  0  0  0  0  0  0  0  0  0  0
  -10.2108   -5.8486   11.0461 F   0  0  0  0  0  0  0  0  0  0  0  0
  -11.2728   -5.1158    9.2180 F   0  0  0  0  0  0  0  0  0  0  0  0
  -11.9200   -7.0544   10.1245 F   0  0  0  0  0  0  0  0  0  0  0  0
   -6.1751   -7.1842    8.4621 C   0  0  0  0  0  0  0  0  0  0  0  0
   -5.4014   -8.1961    7.9490 F   0  0  0  0  0  0  0  0  0  0  0  0
   -5.7249   -6.0246    7.9060 F   0  0  0  0  0  0  0  0  0  0  0  0
   -5.8756   -7.0916    9.8358 F   0  0  0  0  0  0  0  0  0  0  0  0
 16 17  1  0  0  0
 17  1  1  0  0  0
  1  2  2  0  0  0
  2  3  1  0  0  0
  3  7  1  0  0  0
  7  8  2  0  0  0
  8  9  1  0  0  0
  9 10  1  0  0  0
 10 11  1  0  0  0
 10 12  2  0  0  0
 12 13  1  0  0  0
 13 14  2  0  0  0
  3  4  2  0  0  0
  4  5  1  0  0  0
  5  6  2  0  0  0
  6 18  1  0  0  0
 18 19  1  0  0  0
 19 20  2  0  0  0
 20 21  1  0  0  0
 21 22  2  0  0  0
 22 23  1  0  0  0
 23 24  2  0  0  0
 24 25  1  0  0  0
 25 26  1  0  0  0
 25 27  1  0  0  0
 25 28  1  0  0  0
 22 29  1  0  0  0
 29 30  1  0  0  0
 29 31  1  0  0  0
 29 32  1  0  0  0
  6  1  1  0  0  0
 24 19  1  0  0  0
 13  8  1  0  0  0
 11 15  1  0  0  0
M  END
> <minimizedAffinity>
-2.93656

> <CNNscore>
0.2453850061

> <CNNaffinity>
6.4090185165

> <CNN_VS>
1.5726770163

> <CNNaffinity_variance>
0.6482661963

$$$$
[H]OC1=NC(=O)C(=C([H])c2c([H])c([H])c(Oc3c([H])c([H])c(C(F)(F)F)c([H])c3C(F)(F)F)c(OC([H])([H])[H])c2[H])S1


 32 34  0  0  0  0  0  0  0  0999 V2000
   -9.1510   -9.3111    7.7136 C   0  0  0  0  0  0  0  0  0  0  0  0
   -7.8771   -8.8487    7.9462 C   0  0  0  0  0  0  0  0  0  0  0  0
   -7.6511   -7.5102    8.2379 C   0  0  0  0  0  0  0  0  0  0  0  0
   -8.7046   -6.6450    8.2935 C   0  0  0  0  0  0  0  0  0  0  0  0
  -10.0048   -7.1262    8.0523 C   0  0  0  0  0  0  0  0  0  0  0  0
  -10.2844   -8.4335    7.7637 C   0  0  0  0  0  0  0  0  0  0  0  0
   -6.2719   -7.0933    8.5040 C   0  0  0  0  0  0  0  0  0  0  0  0
   -5.5006   -6.5460    7.6324 C   0  0  0  0  0  0  0  0  0  0  0  0
   -5.8469   -6.1579    5.9323 S   0  0  0  0  0  0  0  0  0  0  0  0
   -4.2227   -5.3940    5.6236 C   0  0  0  0  0  0  0  0  0  0  0  0
   -3.8641   -4.8698    4.3836 O   0  0  0  0  0  0  0  0  0  0  0  0
   -3.6010   -5.4698    6.7009 N   0  0  0  0  0  0  0  0  0  0  0  0
   -4.1591   -6.0462    7.8177 C   0  0  0  0  0  0  0  0  0  0  0  0
   -3.5670   -6.1522    8.9529 O   0  0  0  0  0  0  0  0  0  0  0  0
   -4.5793   -4.2812    3.9232 H   0  0  0  0  0  0  0  0  0  0  0  0
   -9.6298  -11.1734    6.1617 C   0  0  0  0  0  0  0  0  0  0  0  0
   -9.4400  -10.6240    7.4262 O   0  0  0  0  0  0  0  0  0  0  0  0
  -11.4945   -8.9489    7.5318 O   0  0  0  0  0  0  0  0  0  0  0  0
  -12.7299   -8.6273    7.1846 C   0  0  0  0  0  0  0  0  0  0  0  0
  -13.2444   -8.6287    5.9166 C   0  0  0  0  0  0  0  0  0  0  0  0
  -14.5625   -8.2849    5.6384 C   0  0  0  0  0  0  0  0  0  0  0  0
  -15.3984   -7.9251    6.6478 C   0  0  0  0  0  0  0  0  0  0  0  0
  -14.9038   -7.9181    7.9219 C   0  0  0  0  0  0  0  0  0  0  0  0
  -13.6176   -8.2502    8.2389 C   0  0  0  0  0  0  0  0  0  0  0  0
  -13.1461   -8.2005    9.6640 C   0  0  0  0  0  0  0  0  0  0  0  0
  -12.2314   -7.1923    9.8843 F   0  0  0  0  0  0  0  0  0  0  0  0
  -14.2330   -8.0007   10.4734 F   0  0  0  0  0  0  0  0  0  0  0  0
  -12.5934   -9.4461   10.0033 F   0  0  0  0  0  0  0  0  0  0  0  0
  -16.7892   -7.5539    6.3949 C   0  0  0  0  0  0  0  0  0  0  0  0
  -17.5579   -7.5955    7.5320 F   0  0  0  0  0  0  0  0  0  0  0  0
  -16.9477   -6.3115    5.8584 F   0  0  0  0  0  0  0  0  0  0  0  0
  -17.3694   -8.4464    5.4716 F   0  0  0  0  0  0  0  0  0  0  0  0
 16 17  1  0  0  0
 17  1  1  0  0  0
  1  2  2  0  0  0
  2  3  1  0  0  0
  3  7  1  0  0  0
  7  8  2  0  0  0
  8  9  1  0  0  0
  9 10  1  0  0  0
 10 11  1  0  0  0
 10 12  2  0  0  0
 12 13  1  0  0  0
 13 14  2  0  0  0
  3  4  2  0  0  0
  4  5  1  0  0  0
  5  6  2  0  0  0
  6 18  1  0  0  0
 18 19  1  0  0  0
 19 20  2  0  0  0
 20 21  1  0  0  0
 21 22  2  0  0  0
 22 23  1  0  0  0
 23 24  2  0  0  0
 24 25  1  0  0  0
 25 26  1  0  0  0
 25 27  1  0  0  0
 25 28  1  0  0  0
 22 29  1  0  0  0
 29 30  1  0  0  0
 29 31  1  0  0  0
 29 32  1  0  0  0
  6  1  1  0  0  0
 24 19  1  0  0  0
 13  8  1  0  0  0
 11 15  1  0  0  0
M  END
> <minimizedAffinity>
-8.27900

> <CNNscore>
0.1914971173

> <CNNaffinity>
6.2397317886

> <CNN_VS>
1.1948906183

> <CNNaffinity_variance>
0.2520875037

$$$$
[H]OC1=NC(=O)C(=C([H])c2c([H])c([H])c(Oc3c([H])c([H])c(C(F)(F)F)c([H])c3C(F)(F)F)c(OC([H])([H])[H])c2[H])S1


 32 34  0  0  0  0  0  0  0  0999 V2000
   -8.9026  -10.4773    7.5785 C   0  0  0  0  0  0  0  0  0  0  0  0
  -10.2462  -10.6226    7.8326 C   0  0  0  0  0  0  0  0  0  0  0  0
  -11.1610   -9.6888    7.3645 C   0  0  0  0  0  0  0  0  0  0  0  0
  -10.7214   -8.6159    6.6455 C   0  0  0  0  0  0  0  0  0  0  0  0
   -9.3445   -8.4739    6.3917 C   0  0  0  0  0  0  0  0  0  0  0  0
   -8.4013   -9.3640    6.8260 C   0  0  0  0  0  0  0  0  0  0  0  0
  -12.5796   -9.9227    7.6469 C   0  0  0  0  0  0  0  0  0  0  0  0
  -13.5098   -9.0581    7.4433 C   0  0  0  0  0  0  0  0  0  0  0  0
  -13.3681   -7.4058    6.8025 S   0  0  0  0  0  0  0  0  0  0  0  0
  -15.1595   -7.0801    6.8425 C   0  0  0  0  0  0  0  0  0  0  0  0
  -15.7099   -5.8648    6.4408 O   0  0  0  0  0  0  0  0  0  0  0  0
  -15.6848   -8.1213    7.2815 N   0  0  0  0  0  0  0  0  0  0  0  0
  -14.9324   -9.2188    7.6284 C   0  0  0  0  0  0  0  0  0  0  0  0
  -15.4179  -10.3170    8.0853 O   0  0  0  0  0  0  0  0  0  0  0  0
  -15.3411   -5.4780    5.5552 H   0  0  0  0  0  0  0  0  0  0  0  0
   -8.1197  -12.3695    8.9615 C   0  0  0  0  0  0  0  0  0  0  0  0
   -7.9492  -11.3693    8.0089 O   0  0  0  0  0  0  0  0  0  0  0  0
   -7.0853   -9.2859    6.6121 O   0  0  0  0  0  0  0  0  0  0  0  0
   -6.0173   -8.5462    6.8622 C   0  0  0  0  0  0  0  0  0  0  0  0
   -4.7453   -9.0020    7.0789 C   0  0  0  0  0  0  0  0  0  0  0  0
   -3.6729   -8.1525    7.3263 C   0  0  0  0  0  0  0  0  0  0  0  0
   -3.8659   -6.8076    7.3634 C   0  0  0  0  0  0  0  0  0  0  0  0
   -5.1292   -6.3322    7.1486 C   0  0  0  0  0  0  0  0  0  0  0  0
   -6.2090   -7.1308    6.9006 C   0  0  0  0  0  0  0  0  0  0  0  0
   -7.5698   -6.5304    6.6918 C   0  0  0  0  0  0  0  0  0  0  0  0
   -8.5852   -7.3568    7.1250 F   0  0  0  0  0  0  0  0  0  0  0  0
   -7.6324   -5.3485    7.3814 F   0  0  0  0  0  0  0  0  0  0  0  0
   -7.7298   -6.2304    5.3293 F   0  0  0  0  0  0  0  0  0  0  0  0
   -2.7646   -5.8829    7.6238 C   0  0  0  0  0  0  0  0  0  0  0  0
   -1.5365   -6.4517    7.3915 F   0  0  0  0  0  0  0  0  0  0  0  0
   -2.8118   -4.7360    6.8895 F   0  0  0  0  0  0  0  0  0  0  0  0
   -2.7820   -5.4749    8.9724 F   0  0  0  0  0  0  0  0  0  0  0  0
 16 17  1  0  0  0
 17  1  1  0  0  0
  1  2  2  0  0  0
  2  3  1  0  0  0
  3  7  1  0  0  0
  7  8  2  0  0  0
  8  9  1  0  0  0
  9 10  1  0  0  0
 10 11  1  0  0  0
 10 12  2  0  0  0
 12 13  1  0  0  0
 13 14  2  0  0  0
  3  4  2  0  0  0
  4  5  1  0  0  0
  5  6  2  0  0  0
  6 18  1  0  0  0
 18 19  1  0  0  0
 19 20  2  0  0  0
 20 21  1  0  0  0
 21 22  2  0  0  0
 22 23  1  0  0  0
 23 24  2  0  0  0
 24 25  1  0  0  0
 25 26  1  0  0  0
 25 27  1  0  0  0
 25 28  1  0  0  0
 22 29  1  0  0  0
 29 30  1  0  0  0
 29 31  1  0  0  0
 29 32  1  0  0  0
  6  1  1  0  0  0
 24 19  1  0  0  0
 13  8  1  0  0  0
 11 15  1  0  0  0
M  END
> <minimizedAffinity>
12.48722

> <CNNscore>
0.1552901715

> <CNNaffinity>
5.9248318672

> <CNN_VS>
0.9200681448

> <CNNaffinity_variance>
0.9601193666

$$$$
[H]OC1=NC(=O)C(=C([H])c2c([H])c([H])c(Oc3c([H])c([H])c(C(F)(F)F)c([H])c3C(F)(F)F)c(OC([H])([H])[H])c2[H])S1


 32 34  0  0  0  0  0  0  0  0999 V2000
  -12.2697   -7.2379    8.0058 C   0  0  0  0  0  0  0  0  0  0  0  0
  -10.9739   -7.6515    8.2075 C   0  0  0  0  0  0  0  0  0  0  0  0
  -10.4692   -8.7553    7.5332 C   0  0  0  0  0  0  0  0  0  0  0  0
  -11.2681   -9.4366    6.6619 C   0  0  0  0  0  0  0  0  0  0  0  0
  -12.5935   -9.0076    6.4629 C   0  0  0  0  0  0  0  0  0  0  0  0
  -13.1405   -7.9268    7.0979 C   0  0  0  0  0  0  0  0  0  0  0  0
   -9.0711   -9.1214    7.7742 C   0  0  0  0  0  0  0  0  0  0  0  0
   -8.0645   -8.3972    7.4328 C   0  0  0  0  0  0  0  0  0  0  0  0
   -8.0593   -6.8248    6.6030 S   0  0  0  0  0  0  0  0  0  0  0  0
   -6.2483   -6.6392    6.6543 C   0  0  0  0  0  0  0  0  0  0  0  0
   -5.5922   -5.5347    6.1150 O   0  0  0  0  0  0  0  0  0  0  0  0
   -5.8184   -7.6563    7.2316 N   0  0  0  0  0  0  0  0  0  0  0  0
   -6.6642   -8.6419    7.6837 C   0  0  0  0  0  0  0  0  0  0  0  0
   -6.2788   -9.7101    8.2844 O   0  0  0  0  0  0  0  0  0  0  0  0
   -6.0077   -4.6144    6.3393 H   0  0  0  0  0  0  0  0  0  0  0  0
  -13.1440   -6.0510    9.9889 C   0  0  0  0  0  0  0  0  0  0  0  0
  -12.8253   -6.1509    8.6379 O   0  0  0  0  0  0  0  0  0  0  0  0
  -14.3861   -7.4697    6.9460 O   0  0  0  0  0  0  0  0  0  0  0  0
  -15.6380   -7.8573    6.7645 C   0  0  0  0  0  0  0  0  0  0  0  0
  -16.5584   -8.1176    7.7431 C   0  0  0  0  0  0  0  0  0  0  0  0
  -17.8619   -8.5128    7.4649 C   0  0  0  0  0  0  0  0  0  0  0  0
  -18.2675   -8.6580    6.1758 C   0  0  0  0  0  0  0  0  0  0  0  0
  -17.3632   -8.4019    5.1835 C   0  0  0  0  0  0  0  0  0  0  0  0
  -16.0751   -8.0102    5.4128 C   0  0  0  0  0  0  0  0  0  0  0  0
  -15.1369   -7.7648    4.2659 C   0  0  0  0  0  0  0  0  0  0  0  0
  -15.7946   -7.6482    3.0594 F   0  0  0  0  0  0  0  0  0  0  0  0
  -14.4467   -6.6073    4.5107 F   0  0  0  0  0  0  0  0  0  0  0  0
  -14.1998   -8.8094    4.2140 F   0  0  0  0  0  0  0  0  0  0  0  0
  -19.6283   -9.0748    5.8435 C   0  0  0  0  0  0  0  0  0  0  0  0
  -20.4348   -9.1628    6.9515 F   0  0  0  0  0  0  0  0  0  0  0  0
  -20.2637   -8.2561    4.9588 F   0  0  0  0  0  0  0  0  0  0  0  0
  -19.6123  -10.3491    5.2424 F   0  0  0  0  0  0  0  0  0  0  0  0
 16 17  1  0  0  0
 17  1  1  0  0  0
  1  2  2  0  0  0
  2  3  1  0  0  0
  3  7  1  0  0  0
  7  8  2  0  0  0
  8  9  1  0  0  0
  9 10  1  0  0  0
 10 11  1  0  0  0
 10 12  2  0  0  0
 12 13  1  0  0  0
 13 14  2  0  0  0
  3  4  2  0  0  0
  4  5  1  0  0  0
  5  6  2  0  0  0
  6 18  1  0  0  0
 18 19  1  0  0  0
 19 20  2  0  0  0
 20 21  1  0  0  0
 21 22  2  0  0  0
 22 23  1  0  0  0
 23 24  2  0  0  0
 24 25  1  0  0  0
 25 26  1  0  0  0
 25 27  1  0  0  0
 25 28  1  0  0  0
 22 29  1  0  0  0
 29 30  1  0  0  0
 29 31  1  0  0  0
 29 32  1  0  0  0
  6  1  1  0  0  0
 24 19  1  0  0  0
 13  8  1  0  0  0
 11 15  1  0  0  0
M  END
> <minimizedAffinity>
-3.95269

> <CNNscore>
0.1494972408

> <CNNaffinity>
6.3211174011

> <CNN_VS>
0.9449896216

> <CNNaffinity_variance>
0.3788964748

$$$$
[H]OC1=NC(=O)C(=C([H])c2c([H])c([H])c(Oc3c([H])c([H])c(C(F)(F)F)c([H])c3C(F)(F)F)c(OC([H])([H])[H])c2[H])S1


 32 34  0  0  0  0  0  0  0  0999 V2000
   -9.6576   -7.1332    8.2969 C   0  0  0  0  0  0  0  0  0  0  0  0
   -8.2999   -7.2804    8.1366 C   0  0  0  0  0  0  0  0  0  0  0  0
   -7.7724   -8.4444    7.5938 C   0  0  0  0  0  0  0  0  0  0  0  0
   -8.6105   -9.4525    7.2161 C   0  0  0  0  0  0  0  0  0  0  0  0
   -9.9986   -9.2943    7.3854 C   0  0  0  0  0  0  0  0  0  0  0  0
  -10.5714   -8.1693    7.9116 C   0  0  0  0  0  0  0  0  0  0  0  0
   -6.3189   -8.5206    7.4245 C   0  0  0  0  0  0  0  0  0  0  0  0
   -5.6111   -7.6221    6.8364 C   0  0  0  0  0  0  0  0  0  0  0  0
   -6.1479   -6.1039    6.0829 S   0  0  0  0  0  0  0  0  0  0  0  0
   -4.4682   -5.5634    5.6319 C   0  0  0  0  0  0  0  0  0  0  0  0
   -4.2199   -4.3670    4.9623 O   0  0  0  0  0  0  0  0  0  0  0  0
   -3.7025   -6.4589    6.0373 N   0  0  0  0  0  0  0  0  0  0  0  0
   -4.1768   -7.5786    6.6794 C   0  0  0  0  0  0  0  0  0  0  0  0
   -3.4363   -8.5323    7.1183 O   0  0  0  0  0  0  0  0  0  0  0  0
   -4.7293   -3.5407    5.3196 H   0  0  0  0  0  0  0  0  0  0  0  0
  -10.9696   -5.9215   10.0045 C   0  0  0  0  0  0  0  0  0  0  0  0
  -10.2407   -6.0044    8.8219 O   0  0  0  0  0  0  0  0  0  0  0  0
  -11.8782   -7.9595    8.0909 O   0  0  0  0  0  0  0  0  0  0  0  0
  -13.0124   -7.7502    7.4427 C   0  0  0  0  0  0  0  0  0  0  0  0
  -13.4392   -6.5626    6.9138 C   0  0  0  0  0  0  0  0  0  0  0  0
  -14.6459   -6.4305    6.2360 C   0  0  0  0  0  0  0  0  0  0  0  0
  -15.4585   -7.5086    6.0788 C   0  0  0  0  0  0  0  0  0  0  0  0
  -15.0498   -8.7044    6.5994 C   0  0  0  0  0  0  0  0  0  0  0  0
  -13.8727   -8.8780    7.2698 C   0  0  0  0  0  0  0  0  0  0  0  0
  -13.5036  -10.2228    7.8274 C   0  0  0  0  0  0  0  0  0  0  0  0
  -14.5803  -11.0818    7.8948 F   0  0  0  0  0  0  0  0  0  0  0  0
  -12.5419  -10.7760    7.0239 F   0  0  0  0  0  0  0  0  0  0  0  0
  -12.9369  -10.0469    9.1002 F   0  0  0  0  0  0  0  0  0  0  0  0
  -16.7358   -7.4087    5.3756 C   0  0  0  0  0  0  0  0  0  0  0  0
  -17.5812   -8.4488    5.6742 F   0  0  0  0  0  0  0  0  0  0  0  0
  -17.4233   -6.2592    5.6253 F   0  0  0  0  0  0  0  0  0  0  0  0
  -16.5260   -7.4343    3.9824 F   0  0  0  0  0  0  0  0  0  0  0  0
 16 17  1  0  0  0
 17  1  1  0  0  0
  1  2  2  0  0  0
  2  3  1  0  0  0
  3  7  1  0  0  0
  7  8  2  0  0  0
  8  9  1  0  0  0
  9 10  1  0  0  0
 10 11  1  0  0  0
 10 12  2  0  0  0
 12 13  1  0  0  0
 13 14  2  0  0  0
  3  4  2  0  0  0
  4  5  1  0  0  0
  5  6  2  0  0  0
  6 18  1  0  0  0
 18 19  1  0  0  0
 19 20  2  0  0  0
 20 21  1  0  0  0
 21 22  2  0  0  0
 22 23  1  0  0  0
 23 24  2  0  0  0
 24 25  1  0  0  0
 25 26  1  0  0  0
 25 27  1  0  0  0
 25 28  1  0  0  0
 22 29  1  0  0  0
 29 30  1  0  0  0
 29 31  1  0  0  0
 29 32  1  0  0  0
  6  1  1  0  0  0
 24 19  1  0  0  0
 13  8  1  0  0  0
 11 15  1  0  0  0
M  END
> <minimizedAffinity>
-8.70375

> <CNNscore>
0.1354625523

> <CNNaffinity>
6.3251814842

> <CNN_VS>
0.8568252325

> <CNNaffinity_variance>
0.2720785439

$$$$
[H]OC(=O)C([H])([H])N1C(=O)S/C(=C(/[H])c2c([H])c([H])c3c(c([H])nn3C([H])([H])c3c([H])c([H])c(OC([H])([H])[H])c([H])c3C(F)(F)F)c2[H])C1=O


 35 38  0  0  0  0  0  0  0  0999 V2000
  -10.4677   -9.2257    7.8585 N   0  0  0  0  0  0  0  0  0  0  0  0
  -10.0072  -10.4484    7.4514 N   0  0  0  0  0  0  0  0  0  0  0  0
   -8.8372  -10.3463    6.8452 C   0  0  0  0  0  0  0  0  0  0  0  0
   -8.5078   -9.0196    6.8467 C   0  0  0  0  0  0  0  0  0  0  0  0
   -7.4221   -8.3312    6.3748 C   0  0  0  0  0  0  0  0  0  0  0  0
   -7.3014   -6.9453    6.5108 C   0  0  0  0  0  0  0  0  0  0  0  0
   -8.3196   -6.3118    7.1384 C   0  0  0  0  0  0  0  0  0  0  0  0
   -9.4279   -6.9707    7.6248 C   0  0  0  0  0  0  0  0  0  0  0  0
   -9.5450   -8.3526    7.4860 C   0  0  0  0  0  0  0  0  0  0  0  0
   -6.1138   -6.3429    5.9303 C   0  0  0  0  0  0  0  0  0  0  0  0
   -5.0366   -5.9702    6.5641 C   0  0  0  0  0  0  0  0  0  0  0  0
   -4.7910   -6.1384    8.3427 S   0  0  0  0  0  0  0  0  0  0  0  0
   -2.9965   -6.0944    8.2466 C   0  0  0  0  0  0  0  0  0  0  0  0
   -2.2263   -6.5534    9.0893 O   0  0  0  0  0  0  0  0  0  0  0  0
   -2.7306   -5.4386    7.0282 N   0  0  0  0  0  0  0  0  0  0  0  0
   -3.7936   -5.3600    6.1241 C   0  0  0  0  0  0  0  0  0  0  0  0
   -3.7349   -4.7983    4.9671 O   0  0  0  0  0  0  0  0  0  0  0  0
   -1.3940   -4.8823    6.7094 C   0  0  0  0  0  0  0  0  0  0  0  0
   -1.4013   -3.4080    6.9252 C   0  0  0  0  0  0  0  0  0  0  0  0
   -1.7741   -2.5135    5.9361 O   0  0  0  0  0  0  0  0  0  0  0  0
   -1.0602   -2.9285    8.0459 O   0  0  0  0  0  0  0  0  0  0  0  0
   -0.9966   -2.0180    5.4691 H   0  0  0  0  0  0  0  0  0  0  0  0
  -11.7208   -9.0760    8.5544 C   0  0  0  0  0  0  0  0  0  0  0  0
  -14.7195   -7.1414    6.1166 C   0  0  0  0  0  0  0  0  0  0  0  0
  -14.0764   -8.2927    5.7196 C   0  0  0  0  0  0  0  0  0  0  0  0
  -13.1264   -8.8860    6.5243 C   0  0  0  0  0  0  0  0  0  0  0  0
  -12.7523   -8.3779    7.7734 C   0  0  0  0  0  0  0  0  0  0  0  0
  -13.3996   -7.2232    8.1657 C   0  0  0  0  0  0  0  0  0  0  0  0
  -14.3667   -6.6271    7.3370 C   0  0  0  0  0  0  0  0  0  0  0  0
  -13.1195   -6.6023    9.4687 C   0  0  0  0  0  0  0  0  0  0  0  0
  -11.8257   -6.4178    9.8031 F   0  0  0  0  0  0  0  0  0  0  0  0
  -13.7766   -5.3666    9.5179 F   0  0  0  0  0  0  0  0  0  0  0  0
  -13.7869   -7.3710   10.4409 F   0  0  0  0  0  0  0  0  0  0  0  0
  -15.5919   -5.2653    4.7528 C   0  0  0  0  0  0  0  0  0  0  0  0
  -15.6820   -6.5238    5.3285 O   0  0  0  0  0  0  0  0  0  0  0  0
 34 35  1  0  0  0
 35 24  1  0  0  0
 24 25  2  0  0  0
 25 26  1  0  0  0
 26 27  2  0  0  0
 27 23  1  0  0  0
 23  1  1  0  0  0
  1  2  1  0  0  0
  2  3  2  0  0  0
  3  4  1  0  0  0
  4  5  2  0  0  0
  5  6  1  0  0  0
  6 10  1  0  0  0
 10 11  2  0  0  0
 11 12  1  0  0  0
 12 13  1  0  0  0
 13 14  2  0  0  0
 13 15  1  0  0  0
 15 18  1  0  0  0
 18 19  1  0  0  0
 19 20  1  0  0  0
 19 21  2  0  0  0
 15 16  1  0  0  0
 16 17  2  0  0  0
  6  7  2  0  0  0
  7  8  1  0  0  0
  8  9  2  0  0  0
 27 28  1  0  0  0
 28 29  2  0  0  0
 28 30  1  0  0  0
 30 31  1  0  0  0
 30 32  1  0  0  0
 30 33  1  0  0  0
 29 24  1  0  0  0
  9  1  1  0  0  0
  9  4  1  0  0  0
 16 11  1  0  0  0
 20 22  1  0  0  0
M  END
> <minimizedAffinity>
-8.29532

> <CNNscore>
0.5033394098

> <CNNaffinity>
6.8517022133

> <CNN_VS>
3.4487316608

> <CNNaffinity_variance>
0.1578512788

$$$$
[H]OC(=O)C([H])([H])N1C(=O)S/C(=C(/[H])c2c([H])c([H])c3c(c([H])nn3C([H])([H])c3c([H])c([H])c(OC([H])([H])[H])c([H])c3C(F)(F)F)c2[H])C1=O


 35 38  0  0  0  0  0  0  0  0999 V2000
  -12.8866   -8.1161    8.9153 N   0  0  0  0  0  0  0  0  0  0  0  0
  -13.4071   -9.2363    8.3259 N   0  0  0  0  0  0  0  0  0  0  0  0
  -12.4928   -9.8805    7.6219 C   0  0  0  0  0  0  0  0  0  0  0  0
  -11.3305   -9.1711    7.7435 C   0  0  0  0  0  0  0  0  0  0  0  0
  -10.0684   -9.3634    7.2481 C   0  0  0  0  0  0  0  0  0  0  0  0
   -9.0155   -8.4884    7.5303 C   0  0  0  0  0  0  0  0  0  0  0  0
   -9.3077   -7.4327    8.3254 C   0  0  0  0  0  0  0  0  0  0  0  0
  -10.5655   -7.2062    8.8406 C   0  0  0  0  0  0  0  0  0  0  0  0
  -11.6131   -8.0804    8.5558 C   0  0  0  0  0  0  0  0  0  0  0  0
   -7.7395   -8.7953    6.9076 C   0  0  0  0  0  0  0  0  0  0  0  0
   -6.6561   -8.0702    6.9460 C   0  0  0  0  0  0  0  0  0  0  0  0
   -6.5145   -6.4949    7.8121 S   0  0  0  0  0  0  0  0  0  0  0  0
   -4.7248   -6.5721    7.9628 C   0  0  0  0  0  0  0  0  0  0  0  0
   -4.0541   -5.9740    8.8033 O   0  0  0  0  0  0  0  0  0  0  0  0
   -4.3274   -7.4442    6.9299 N   0  0  0  0  0  0  0  0  0  0  0  0
   -5.3307   -8.2447    6.3769 C   0  0  0  0  0  0  0  0  0  0  0  0
   -5.1527   -9.0957    5.4273 O   0  0  0  0  0  0  0  0  0  0  0  0
   -2.9210   -7.5279    6.4685 C   0  0  0  0  0  0  0  0  0  0  0  0
   -2.1399   -8.3908    7.3987 C   0  0  0  0  0  0  0  0  0  0  0  0
   -1.5084   -7.8895    8.5246 O   0  0  0  0  0  0  0  0  0  0  0  0
   -2.0350   -9.6324    7.1762 O   0  0  0  0  0  0  0  0  0  0  0  0
   -0.4847   -7.7721    8.4446 H   0  0  0  0  0  0  0  0  0  0  0  0
  -13.6854   -7.2503    9.7455 C   0  0  0  0  0  0  0  0  0  0  0  0
  -11.5786   -5.7627   13.2134 C   0  0  0  0  0  0  0  0  0  0  0  0
  -12.0749   -7.0457   13.1459 C   0  0  0  0  0  0  0  0  0  0  0  0
  -12.7396   -7.4890   12.0218 C   0  0  0  0  0  0  0  0  0  0  0  0
  -12.9555   -6.6911   10.8927 C   0  0  0  0  0  0  0  0  0  0  0  0
  -12.4566   -5.4057   10.9664 C   0  0  0  0  0  0  0  0  0  0  0  0
  -11.7804   -4.9647   12.1176 C   0  0  0  0  0  0  0  0  0  0  0  0
  -12.5913   -4.4743    9.8369 C   0  0  0  0  0  0  0  0  0  0  0  0
  -11.4773   -4.1882    9.1319 F   0  0  0  0  0  0  0  0  0  0  0  0
  -13.5590   -4.9816    8.9609 F   0  0  0  0  0  0  0  0  0  0  0  0
  -13.1838   -3.3012   10.3413 F   0  0  0  0  0  0  0  0  0  0  0  0
  -10.9408   -3.9971   14.8310 C   0  0  0  0  0  0  0  0  0  0  0  0
  -10.9029   -5.2901   14.3310 O   0  0  0  0  0  0  0  0  0  0  0  0
 34 35  1  0  0  0
 35 24  1  0  0  0
 24 25  2  0  0  0
 25 26  1  0  0  0
 26 27  2  0  0  0
 27 23  1  0  0  0
 23  1  1  0  0  0
  1  2  1  0  0  0
  2  3  2  0  0  0
  3  4  1  0  0  0
  4  5  2  0  0  0
  5  6  1  0  0  0
  6 10  1  0  0  0
 10 11  2  0  0  0
 11 12  1  0  0  0
 12 13  1  0  0  0
 13 14  2  0  0  0
 13 15  1  0  0  0
 15 18  1  0  0  0
 18 19  1  0  0  0
 19 20  1  0  0  0
 19 21  2  0  0  0
 15 16  1  0  0  0
 16 17  2  0  0  0
  6  7  2  0  0  0
  7  8  1  0  0  0
  8  9  2  0  0  0
 27 28  1  0  0  0
 28 29  2  0  0  0
 28 30  1  0  0  0
 30 31  1  0  0  0
 30 32  1  0  0  0
 30 33  1  0  0  0
 29 24  1  0  0  0
  9  1  1  0  0  0
  9  4  1  0  0  0
 16 11  1  0  0  0
 20 22  1  0  0  0
M  END
> <minimizedAffinity>
2.11429

> <CNNscore>
0.4961163402

> <CNNaffinity>
6.5081167221

> <CNN_VS>
3.2287831306

> <CNNaffinity_variance>
0.4542343616

$$$$
[H]OC(=O)C([H])([H])N1C(=O)S/C(=C(/[H])c2c([H])c([H])c3c(c([H])nn3C([H])([H])c3c([H])c([H])c(OC([H])([H])[H])c([H])c3C(F)(F)F)c2[H])C1=O


 35 38  0  0  0  0  0  0  0  0999 V2000
  -13.0085   -7.1610   10.0389 N   0  0  0  0  0  0  0  0  0  0  0  0
  -13.7129   -7.9978    9.2164 N   0  0  0  0  0  0  0  0  0  0  0  0
  -13.0084   -8.3312    8.1491 C   0  0  0  0  0  0  0  0  0  0  0  0
  -11.8014   -7.6994    8.2612 C   0  0  0  0  0  0  0  0  0  0  0  0
  -10.6841   -7.6828    7.4695 C   0  0  0  0  0  0  0  0  0  0  0  0
   -9.5396   -6.9563    7.8102 C   0  0  0  0  0  0  0  0  0  0  0  0
   -9.5905   -6.2645    8.9725 C   0  0  0  0  0  0  0  0  0  0  0  0
  -10.6972   -6.2564    9.7936 C   0  0  0  0  0  0  0  0  0  0  0  0
  -11.8369   -6.9811    9.4495 C   0  0  0  0  0  0  0  0  0  0  0  0
   -8.4428   -7.0003    6.8589 C   0  0  0  0  0  0  0  0  0  0  0  0
   -8.0151   -8.0452    6.2061 C   0  0  0  0  0  0  0  0  0  0  0  0
   -8.7241   -9.6971    6.3501 S   0  0  0  0  0  0  0  0  0  0  0  0
   -8.1114  -10.2579    4.7558 C   0  0  0  0  0  0  0  0  0  0  0  0
   -8.5863  -11.1803    4.0943 O   0  0  0  0  0  0  0  0  0  0  0  0
   -7.0170   -9.4118    4.4881 N   0  0  0  0  0  0  0  0  0  0  0  0
   -6.9448   -8.2375    5.2426 C   0  0  0  0  0  0  0  0  0  0  0  0
   -6.0177   -7.3505    5.1356 O   0  0  0  0  0  0  0  0  0  0  0  0
   -6.0094   -9.7336    3.4494 C   0  0  0  0  0  0  0  0  0  0  0  0
   -6.6059   -9.5422    2.0975 C   0  0  0  0  0  0  0  0  0  0  0  0
   -6.7536  -10.5829    1.1959 O   0  0  0  0  0  0  0  0  0  0  0  0
   -7.0025   -8.3963    1.7346 O   0  0  0  0  0  0  0  0  0  0  0  0
   -6.0638  -10.6056    0.4267 H   0  0  0  0  0  0  0  0  0  0  0  0
  -13.5594   -6.6653   11.2750 C   0  0  0  0  0  0  0  0  0  0  0  0
  -10.7640   -4.4753   13.7383 C   0  0  0  0  0  0  0  0  0  0  0  0
  -11.1160   -5.7802   14.0035 C   0  0  0  0  0  0  0  0  0  0  0  0
  -12.0090   -6.4507   13.1942 C   0  0  0  0  0  0  0  0  0  0  0  0
  -12.6106   -5.8728   12.0706 C   0  0  0  0  0  0  0  0  0  0  0  0
  -12.2546   -4.5644   11.8102 C   0  0  0  0  0  0  0  0  0  0  0  0
  -11.3430   -3.8908   12.6422 C   0  0  0  0  0  0  0  0  0  0  0  0
  -12.7932   -3.8501   10.6434 C   0  0  0  0  0  0  0  0  0  0  0  0
  -11.9093   -3.3959    9.7311 F   0  0  0  0  0  0  0  0  0  0  0  0
  -13.7121   -4.6882    9.9998 F   0  0  0  0  0  0  0  0  0  0  0  0
  -13.5916   -2.8013   11.1376 F   0  0  0  0  0  0  0  0  0  0  0  0
  -10.0125   -2.4776   14.9972 C   0  0  0  0  0  0  0  0  0  0  0  0
   -9.8654   -3.7765   14.5340 O   0  0  0  0  0  0  0  0  0  0  0  0
 34 35  1  0  0  0
 35 24  1  0  0  0
 24 25  2  0  0  0
 25 26  1  0  0  0
 26 27  2  0  0  0
 27 23  1  0  0  0
 23  1  1  0  0  0
  1  2  1  0  0  0
  2  3  2  0  0  0
  3  4  1  0  0  0
  4  5  2  0  0  0
  5  6  1  0  0  0
  6 10  1  0  0  0
 10 11  2  0  0  0
 11 12  1  0  0  0
 12 13  1  0  0  0
 13 14  2  0  0  0
 13 15  1  0  0  0
 15 18  1  0  0  0
 18 19  1  0  0  0
 19 20  1  0  0  0
 19 21  2  0  0  0
 15 16  1  0  0  0
 16 17  2  0  0  0
  6  7  2  0  0  0
  7  8  1  0  0  0
  8  9  2  0  0  0
 27 28  1  0  0  0
 28 29  2  0  0  0
 28 30  1  0  0  0
 30 31  1  0  0  0
 30 32  1  0  0  0
 30 33  1  0  0  0
 29 24  1  0  0  0
  9  1  1  0  0  0
  9  4  1  0  0  0
 16 11  1  0  0  0
 20 22  1  0  0  0
M  END
> <minimizedAffinity>
18.27126

> <CNNscore>
0.4923137128

> <CNNaffinity>
6.2271561623

> <CNN_VS>
3.0657143593

> <CNNaffinity_variance>
1.4075739384

$$$$
[H]OC(=O)C([H])([H])N1C(=O)S/C(=C(/[H])c2c([H])c([H])c3c(c([H])nn3C([H])([H])c3c([H])c([H])c(OC([H])([H])[H])c([H])c3C(F)(F)F)c2[H])C1=O


 35 38  0  0  0  0  0  0  0  0999 V2000
  -11.2591   -8.0709    7.2037 N   0  0  0  0  0  0  0  0  0  0  0  0
  -11.5286   -6.9440    6.4754 N   0  0  0  0  0  0  0  0  0  0  0  0
  -10.4913   -6.1256    6.4507 C   0  0  0  0  0  0  0  0  0  0  0  0
   -9.5025   -6.7213    7.1829 C   0  0  0  0  0  0  0  0  0  0  0  0
   -8.2211   -6.3488    7.4906 C   0  0  0  0  0  0  0  0  0  0  0  0
   -7.3758   -7.1522    8.2610 C   0  0  0  0  0  0  0  0  0  0  0  0
   -7.8909   -8.3277    8.6912 C   0  0  0  0  0  0  0  0  0  0  0  0
   -9.1754   -8.7349    8.4028 C   0  0  0  0  0  0  0  0  0  0  0  0
  -10.0156   -7.9302    7.6353 C   0  0  0  0  0  0  0  0  0  0  0  0
   -6.0554   -6.6148    8.5399 C   0  0  0  0  0  0  0  0  0  0  0  0
   -4.9387   -6.9380    7.9489 C   0  0  0  0  0  0  0  0  0  0  0  0
   -4.8026   -8.1492    6.6197 S   0  0  0  0  0  0  0  0  0  0  0  0
   -3.2600   -7.4870    5.9768 C   0  0  0  0  0  0  0  0  0  0  0  0
   -2.8433   -7.6380    4.8289 O   0  0  0  0  0  0  0  0  0  0  0  0
   -2.6983   -6.7952    7.0681 N   0  0  0  0  0  0  0  0  0  0  0  0
   -3.5658   -6.4951    8.1221 C   0  0  0  0  0  0  0  0  0  0  0  0
   -3.2289   -5.8719    9.1971 O   0  0  0  0  0  0  0  0  0  0  0  0
   -1.2735   -6.3862    7.0913 C   0  0  0  0  0  0  0  0  0  0  0  0
   -1.1393   -5.0094    6.5376 C   0  0  0  0  0  0  0  0  0  0  0  0
   -1.0943   -4.7563    5.1768 O   0  0  0  0  0  0  0  0  0  0  0  0
   -1.0634   -4.0156    7.3178 O   0  0  0  0  0  0  0  0  0  0  0  0
   -0.1570   -4.5483    4.7944 H   0  0  0  0  0  0  0  0  0  0  0  0
  -12.2311   -9.1219    7.3698 C   0  0  0  0  0  0  0  0  0  0  0  0
  -14.3541   -8.9456   11.1301 C   0  0  0  0  0  0  0  0  0  0  0  0
  -13.0974   -9.4980   11.0176 C   0  0  0  0  0  0  0  0  0  0  0  0
  -12.4468   -9.5347    9.8022 C   0  0  0  0  0  0  0  0  0  0  0  0
  -12.9982   -9.0270    8.6204 C   0  0  0  0  0  0  0  0  0  0  0  0
  -14.2583   -8.4753    8.7391 C   0  0  0  0  0  0  0  0  0  0  0  0
  -14.9120   -8.4432    9.9835 C   0  0  0  0  0  0  0  0  0  0  0  0
  -14.9381   -7.8812    7.5787 C   0  0  0  0  0  0  0  0  0  0  0  0
  -14.4910   -6.6856    7.1423 F   0  0  0  0  0  0  0  0  0  0  0  0
  -14.8815   -8.7956    6.5196 F   0  0  0  0  0  0  0  0  0  0  0  0
  -16.3092   -7.8227    7.8925 F   0  0  0  0  0  0  0  0  0  0  0  0
  -16.3737   -8.5929   12.5220 C   0  0  0  0  0  0  0  0  0  0  0  0
  -15.0316   -8.8924   12.3413 O   0  0  0  0  0  0  0  0  0  0  0  0
 34 35  1  0  0  0
 35 24  1  0  0  0
 24 25  2  0  0  0
 25 26  1  0  0  0
 26 27  2  0  0  0
 27 23  1  0  0  0
 23  1  1  0  0  0
  1  2  1  0  0  0
  2  3  2  0  0  0
  3  4  1  0  0  0
  4  5  2  0  0  0
  5  6  1  0  0  0
  6 10  1  0  0  0
 10 11  2  0  0  0
 11 12  1  0  0  0
 12 13  1  0  0  0
 13 14  2  0  0  0
 13 15  1  0  0  0
 15 18  1  0  0  0
 18 19  1  0  0  0
 19 20  1  0  0  0
 19 21  2  0  0  0
 15 16  1  0  0  0
 16 17  2  0  0  0
  6  7  2  0  0  0
  7  8  1  0  0  0
  8  9  2  0  0  0
 27 28  1  0  0  0
 28 29  2  0  0  0
 28 30  1  0  0  0
 30 31  1  0  0  0
 30 32  1  0  0  0
 30 33  1  0  0  0
 29 24  1  0  0  0
  9  1  1  0  0  0
  9  4  1  0  0  0
 16 11  1  0  0  0
 20 22  1  0  0  0
M  END
> <minimizedAffinity>
6.88444

> <CNNscore>
0.4032895267

> <CNNaffinity>
6.0099058151

> <CNN_VS>
2.4237320423

> <CNNaffinity_variance>
0.8669946790

$$$$
[H]OC(=O)C([H])([H])N1C(=O)S/C(=C(/[H])c2c([H])c([H])c3c(c([H])nn3C([H])([H])c3c([H])c([H])c(OC([H])([H])[H])c([H])c3C(F)(F)F)c2[H])C1=O


 35 38  0  0  0  0  0  0  0  0999 V2000
  -11.5660   -7.7009    7.0370 N   0  0  0  0  0  0  0  0  0  0  0  0
  -11.2550   -8.6621    6.1138 N   0  0  0  0  0  0  0  0  0  0  0  0
   -9.9563   -8.9056    6.0893 C   0  0  0  0  0  0  0  0  0  0  0  0
   -9.3843   -8.0844    7.0205 C   0  0  0  0  0  0  0  0  0  0  0  0
   -8.0911   -7.9086    7.4354 C   0  0  0  0  0  0  0  0  0  0  0  0
   -7.7472   -6.9980    8.4385 C   0  0  0  0  0  0  0  0  0  0  0  0
   -8.7650   -6.2928    8.9851 C   0  0  0  0  0  0  0  0  0  0  0  0
  -10.0775   -6.4416    8.5924 C   0  0  0  0  0  0  0  0  0  0  0  0
  -10.4161   -7.3499    7.5908 C   0  0  0  0  0  0  0  0  0  0  0  0
   -6.3329   -6.8895    8.7516 C   0  0  0  0  0  0  0  0  0  0  0  0
   -5.3463   -6.8255    7.9009 C   0  0  0  0  0  0  0  0  0  0  0  0
   -5.5429   -6.8520    6.1085 S   0  0  0  0  0  0  0  0  0  0  0  0
   -3.9657   -6.0556    5.7774 C   0  0  0  0  0  0  0  0  0  0  0  0
   -3.6809   -5.4377    4.7522 O   0  0  0  0  0  0  0  0  0  0  0  0
   -3.1989   -6.3122    6.9312 N   0  0  0  0  0  0  0  0  0  0  0  0
   -3.9065   -6.7211    8.0650 C   0  0  0  0  0  0  0  0  0  0  0  0
   -3.3737   -6.9999    9.2034 O   0  0  0  0  0  0  0  0  0  0  0  0
   -1.7269   -6.1373    6.9526 C   0  0  0  0  0  0  0  0  0  0  0  0
   -1.3675   -5.0366    7.8903 C   0  0  0  0  0  0  0  0  0  0  0  0
   -1.2293   -5.2366    9.2536 O   0  0  0  0  0  0  0  0  0  0  0  0
   -1.1738   -3.8656    7.4507 O   0  0  0  0  0  0  0  0  0  0  0  0
   -2.0184   -4.9060    9.8334 H   0  0  0  0  0  0  0  0  0  0  0  0
  -12.9225   -7.2679    7.2593 C   0  0  0  0  0  0  0  0  0  0  0  0
  -14.7652   -8.7814   10.8638 C   0  0  0  0  0  0  0  0  0  0  0  0
  -14.7779   -7.4442   10.5343 C   0  0  0  0  0  0  0  0  0  0  0  0
  -14.1829   -6.9957    9.3737 C   0  0  0  0  0  0  0  0  0  0  0  0
  -13.5373   -7.8419    8.4651 C   0  0  0  0  0  0  0  0  0  0  0  0
  -13.5269   -9.1811    8.8012 C   0  0  0  0  0  0  0  0  0  0  0  0
  -14.1370   -9.6269    9.9870 C   0  0  0  0  0  0  0  0  0  0  0  0
  -12.9063  -10.1795    7.9182 C   0  0  0  0  0  0  0  0  0  0  0  0
  -11.5707  -10.1084    7.7428 F   0  0  0  0  0  0  0  0  0  0  0  0
  -13.2288  -11.4543    8.3999 F   0  0  0  0  0  0  0  0  0  0  0  0
  -13.5811  -10.1115    6.6846 F   0  0  0  0  0  0  0  0  0  0  0  0
  -15.7086   -8.5163   13.1399 C   0  0  0  0  0  0  0  0  0  0  0  0
  -15.3586   -9.2618   12.0240 O   0  0  0  0  0  0  0  0  0  0  0  0
 34 35  1  0  0  0
 35 24  1  0  0  0
 24 25  2  0  0  0
 25 26  1  0  0  0
 26 27  2  0  0  0
 27 23  1  0  0  0
 23  1  1  0  0  0
  1  2  1  0  0  0
  2  3  2  0  0  0
  3  4  1  0  0  0
  4  5  2  0  0  0
  5  6  1  0  0  0
  6 10  1  0  0  0
 10 11  2  0  0  0
 11 12  1  0  0  0
 12 13  1  0  0  0
 13 14  2  0  0  0
 13 15  1  0  0  0
 15 18  1  0  0  0
 18 19  1  0  0  0
 19 20  1  0  0  0
 19 21  2  0  0  0
 15 16  1  0  0  0
 16 17  2  0  0  0
  6  7  2  0  0  0
  7  8  1  0  0  0
  8  9  2  0  0  0
 27 28  1  0  0  0
 28 29  2  0  0  0
 28 30  1  0  0  0
 30 31  1  0  0  0
 30 32  1  0  0  0
 30 33  1  0  0  0
 29 24  1  0  0  0
  9  1  1  0  0  0
  9  4  1  0  0  0
 16 11  1  0  0  0
 20 22  1  0  0  0
M  END
> <minimizedAffinity>
8.22580

> <CNNscore>
0.3041002154

> <CNNaffinity>
6.0053739548

> <CNN_VS>
1.8262355328

> <CNNaffinity_variance>
0.8391950727

$$$$
[H]OC(=O)C([H])([H])N1C(=O)S/C(=C(/[H])c2c([H])c([H])c3c(c([H])nn3C([H])([H])c3c([H])c([H])c(OC([H])([H])[H])c([H])c3C(F)(F)F)c2[H])C1=O


 35 38  0  0  0  0  0  0  0  0999 V2000
  -11.3506   -7.8674    7.5183 N   0  0  0  0  0  0  0  0  0  0  0  0
  -11.6063   -9.1853    7.2525 N   0  0  0  0  0  0  0  0  0  0  0  0
  -10.4887   -9.8660    7.0672 C   0  0  0  0  0  0  0  0  0  0  0  0
   -9.4589   -8.9787    7.2123 C   0  0  0  0  0  0  0  0  0  0  0  0
   -8.0981   -9.1149    7.1418 C   0  0  0  0  0  0  0  0  0  0  0  0
   -7.2296   -8.0391    7.3469 C   0  0  0  0  0  0  0  0  0  0  0  0
   -7.8055   -6.8454    7.6220 C   0  0  0  0  0  0  0  0  0  0  0  0
   -9.1701   -6.6703    7.6996 C   0  0  0  0  0  0  0  0  0  0  0  0
  -10.0328   -7.7454    7.4931 C   0  0  0  0  0  0  0  0  0  0  0  0
   -5.8116   -8.3209    7.2050 C   0  0  0  0  0  0  0  0  0  0  0  0
   -4.9487   -7.6511    6.4926 C   0  0  0  0  0  0  0  0  0  0  0  0
   -5.3501   -6.1902    5.5144 S   0  0  0  0  0  0  0  0  0  0  0  0
   -3.6661   -5.5614    5.4943 C   0  0  0  0  0  0  0  0  0  0  0  0
   -3.3461   -4.3874    5.3117 O   0  0  0  0  0  0  0  0  0  0  0  0
   -2.8686   -6.6988    5.7298 N   0  0  0  0  0  0  0  0  0  0  0  0
   -3.5246   -7.8151    6.2560 C   0  0  0  0  0  0  0  0  0  0  0  0
   -2.9587   -8.9382    6.5322 O   0  0  0  0  0  0  0  0  0  0  0  0
   -1.4113   -6.7080    5.4579 C   0  0  0  0  0  0  0  0  0  0  0  0
   -1.1720   -7.0346    4.0240 C   0  0  0  0  0  0  0  0  0  0  0  0
   -1.0613   -8.3369    3.5665 O   0  0  0  0  0  0  0  0  0  0  0  0
   -1.0637   -6.1061    3.1706 O   0  0  0  0  0  0  0  0  0  0  0  0
   -0.0995   -8.6567    3.3647 H   0  0  0  0  0  0  0  0  0  0  0  0
  -12.4084   -6.9208    7.7678 C   0  0  0  0  0  0  0  0  0  0  0  0
  -15.2092   -8.2085   10.7969 C   0  0  0  0  0  0  0  0  0  0  0  0
  -15.2729   -8.6552    9.4956 C   0  0  0  0  0  0  0  0  0  0  0  0
  -14.3603   -8.2262    8.5548 C   0  0  0  0  0  0  0  0  0  0  0  0
  -13.3263   -7.3279    8.8417 C   0  0  0  0  0  0  0  0  0  0  0  0
  -13.2680   -6.8829   10.1474 C   0  0  0  0  0  0  0  0  0  0  0  0
  -14.2038   -7.3273   11.0982 C   0  0  0  0  0  0  0  0  0  0  0  0
  -12.2125   -5.9586   10.5869 C   0  0  0  0  0  0  0  0  0  0  0  0
  -11.9932   -5.8523   11.9137 F   0  0  0  0  0  0  0  0  0  0  0  0
  -11.0151   -6.3288    9.9621 F   0  0  0  0  0  0  0  0  0  0  0  0
  -12.5060   -4.7030   10.0221 F   0  0  0  0  0  0  0  0  0  0  0  0
  -15.8054   -9.2606   12.9599 C   0  0  0  0  0  0  0  0  0  0  0  0
  -16.1126   -8.6255   11.7658 O   0  0  0  0  0  0  0  0  0  0  0  0
 34 35  1  0  0  0
 35 24  1  0  0  0
 24 25  2  0  0  0
 25 26  1  0  0  0
 26 27  2  0  0  0
 27 23  1  0  0  0
 23  1  1  0  0  0
  1  2  1  0  0  0
  2  3  2  0  0  0
  3  4  1  0  0  0
  4  5  2  0  0  0
  5  6  1  0  0  0
  6 10  1  0  0  0
 10 11  2  0  0  0
 11 12  1  0  0  0
 12 13  1  0  0  0
 13 14  2  0  0  0
 13 15  1  0  0  0
 15 18  1  0  0  0
 18 19  1  0  0  0
 19 20  1  0  0  0
 19 21  2  0  0  0
 15 16  1  0  0  0
 16 17  2  0  0  0
  6  7  2  0  0  0
  7  8  1  0  0  0
  8  9  2  0  0  0
 27 28  1  0  0  0
 28 29  2  0  0  0
 28 30  1  0  0  0
 30 31  1  0  0  0
 30 32  1  0  0  0
 30 33  1  0  0  0
 29 24  1  0  0  0
  9  1  1  0  0  0
  9  4  1  0  0  0
 16 11  1  0  0  0
 20 22  1  0  0  0
M  END
> <minimizedAffinity>
-2.79967

> <CNNscore>
0.2720396817

> <CNNaffinity>
6.3973102570

> <CNN_VS>
1.7403222322

> <CNNaffinity_variance>
0.1668910086

$$$$
[H]OC(=O)C([H])([H])N1C(=O)S/C(=C(/[H])c2c([H])c([H])c3c(c([H])nn3C([H])([H])c3c([H])c([H])c(OC([H])([H])[H])c([H])c3C(F)(F)F)c2[H])C1=O


 35 38  0  0  0  0  0  0  0  0999 V2000
  -14.0048   -8.3661    7.8685 N   0  0  0  0  0  0  0  0  0  0  0  0
  -13.7904   -9.5602    7.2352 N   0  0  0  0  0  0  0  0  0  0  0  0
  -12.5018   -9.8460    7.1671 C   0  0  0  0  0  0  0  0  0  0  0  0
  -11.8376   -8.8146    7.7702 C   0  0  0  0  0  0  0  0  0  0  0  0
  -10.5096   -8.5736    8.0018 C   0  0  0  0  0  0  0  0  0  0  0  0
  -10.0648   -7.4282    8.6681 C   0  0  0  0  0  0  0  0  0  0  0  0
  -11.0206   -6.5616    9.0775 C   0  0  0  0  0  0  0  0  0  0  0  0
  -12.3655   -6.7698    8.8611 C   0  0  0  0  0  0  0  0  0  0  0  0
  -12.8048   -7.9127    8.1952 C   0  0  0  0  0  0  0  0  0  0  0  0
   -8.6264   -7.2848    8.8111 C   0  0  0  0  0  0  0  0  0  0  0  0
   -7.7478   -7.2181    7.8496 C   0  0  0  0  0  0  0  0  0  0  0  0
   -8.1519   -7.2848    6.0934 S   0  0  0  0  0  0  0  0  0  0  0  0
   -6.6425   -6.4635    5.5654 C   0  0  0  0  0  0  0  0  0  0  0  0
   -6.4935   -5.8608    4.5031 O   0  0  0  0  0  0  0  0  0  0  0  0
   -5.7405   -6.6812    6.6257 N   0  0  0  0  0  0  0  0  0  0  0  0
   -6.3013   -7.0813    7.8417 C   0  0  0  0  0  0  0  0  0  0  0  0
   -5.6330   -7.3262    8.9145 O   0  0  0  0  0  0  0  0  0  0  0  0
   -4.2804   -6.4762    6.4711 C   0  0  0  0  0  0  0  0  0  0  0  0
   -3.9090   -5.1241    6.9751 C   0  0  0  0  0  0  0  0  0  0  0  0
   -3.6486   -4.8746    8.3121 O   0  0  0  0  0  0  0  0  0  0  0  0
   -3.8192   -4.1496    6.1723 O   0  0  0  0  0  0  0  0  0  0  0  0
   -4.4052   -4.3986    8.8309 H   0  0  0  0  0  0  0  0  0  0  0  0
  -15.3305   -7.8406    8.0764 C   0  0  0  0  0  0  0  0  0  0  0  0
  -17.7010   -7.4463    4.4843 C   0  0  0  0  0  0  0  0  0  0  0  0
  -18.0753   -8.2615    5.5293 C   0  0  0  0  0  0  0  0  0  0  0  0
  -17.2965   -8.3611    6.6631 C   0  0  0  0  0  0  0  0  0  0  0  0
  -16.0975   -7.6603    6.8352 C   0  0  0  0  0  0  0  0  0  0  0  0
  -15.7269   -6.8454    5.7840 C   0  0  0  0  0  0  0  0  0  0  0  0
  -16.5290   -6.7515    4.6330 C   0  0  0  0  0  0  0  0  0  0  0  0
  -14.5034   -6.0327    5.8496 C   0  0  0  0  0  0  0  0  0  0  0  0
  -13.3310   -6.6553    5.6097 F   0  0  0  0  0  0  0  0  0  0  0  0
  -14.6360   -4.9644    4.9539 F   0  0  0  0  0  0  0  0  0  0  0  0
  -14.4936   -5.4078    7.1109 F   0  0  0  0  0  0  0  0  0  0  0  0
  -18.0081   -6.9713    2.0716 C   0  0  0  0  0  0  0  0  0  0  0  0
  -18.4667   -7.3241    3.3320 O   0  0  0  0  0  0  0  0  0  0  0  0
 34 35  1  0  0  0
 35 24  1  0  0  0
 24 25  2  0  0  0
 25 26  1  0  0  0
 26 27  2  0  0  0
 27 23  1  0  0  0
 23  1  1  0  0  0
  1  2  1  0  0  0
  2  3  2  0  0  0
  3  4  1  0  0  0
  4  5  2  0  0  0
  5  6  1  0  0  0
  6 10  1  0  0  0
 10 11  2  0  0  0
 11 12  1  0  0  0
 12 13  1  0  0  0
 13 14  2  0  0  0
 13 15  1  0  0  0
 15 18  1  0  0  0
 18 19  1  0  0  0
 19 20  1  0  0  0
 19 21  2  0  0  0
 15 16  1  0  0  0
 16 17  2  0  0  0
  6  7  2  0  0  0
  7  8  1  0  0  0
  8  9  2  0  0  0
 27 28  1  0  0  0
 28 29  2  0  0  0
 28 30  1  0  0  0
 30 31  1  0  0  0
 30 32  1  0  0  0
 30 33  1  0  0  0
 29 24  1  0  0  0
  9  1  1  0  0  0
  9  4  1  0  0  0
 16 11  1  0  0  0
 20 22  1  0  0  0
M  END
> <minimizedAffinity>
-5.85210

> <CNNscore>
0.2575105429

> <CNNaffinity>
6.7110662460

> <CNN_VS>
1.7281702757

> <CNNaffinity_variance>
0.2095155716

$$$$
[H]OC(=O)C([H])([H])N1C(=O)S/C(=C(/[H])c2c([H])c([H])c3c(c([H])nn3C([H])([H])c3c([H])c([H])c(OC([H])([H])[H])c([H])c3C(F)(F)F)c2[H])C1=O


 35 38  0  0  0  0  0  0  0  0999 V2000
  -11.9838   -8.7395    7.6312 N   0  0  0  0  0  0  0  0  0  0  0  0
  -12.1527   -7.4570    8.0780 N   0  0  0  0  0  0  0  0  0  0  0  0
  -10.9915   -6.8654    8.2974 C   0  0  0  0  0  0  0  0  0  0  0  0
  -10.0208   -7.7775    7.9898 C   0  0  0  0  0  0  0  0  0  0  0  0
   -8.6527   -7.7222    8.0132 C   0  0  0  0  0  0  0  0  0  0  0  0
   -7.8561   -8.8046    7.6292 C   0  0  0  0  0  0  0  0  0  0  0  0
   -8.5099   -9.9200    7.2285 C   0  0  0  0  0  0  0  0  0  0  0  0
   -9.8844  -10.0128    7.1932 C   0  0  0  0  0  0  0  0  0  0  0  0
  -10.6751   -8.9315    7.5782 C   0  0  0  0  0  0  0  0  0  0  0  0
   -6.4198   -8.6176    7.7395 C   0  0  0  0  0  0  0  0  0  0  0  0
   -5.6698   -7.8607    6.9876 C   0  0  0  0  0  0  0  0  0  0  0  0
   -6.2819   -6.8558    5.6210 S   0  0  0  0  0  0  0  0  0  0  0  0
   -4.8907   -5.7175    5.6428 C   0  0  0  0  0  0  0  0  0  0  0  0
   -4.9026   -4.5693    5.2007 O   0  0  0  0  0  0  0  0  0  0  0  0
   -3.8562   -6.4465    6.2621 N   0  0  0  0  0  0  0  0  0  0  0  0
   -4.2437   -7.5830    6.9773 C   0  0  0  0  0  0  0  0  0  0  0  0
   -3.4378   -8.3679    7.6036 O   0  0  0  0  0  0  0  0  0  0  0  0
   -2.4378   -6.0226    6.1816 C   0  0  0  0  0  0  0  0  0  0  0  0
   -1.7533   -6.7708    5.0899 C   0  0  0  0  0  0  0  0  0  0  0  0
   -1.3651   -8.0932    5.2248 O   0  0  0  0  0  0  0  0  0  0  0  0
   -1.5070   -6.2009    3.9869 O   0  0  0  0  0  0  0  0  0  0  0  0
   -0.3563   -8.2455    5.3900 H   0  0  0  0  0  0  0  0  0  0  0  0
  -13.1031   -9.5888    7.3108 C   0  0  0  0  0  0  0  0  0  0  0  0
  -15.7975   -7.8390    4.4200 C   0  0  0  0  0  0  0  0  0  0  0  0
  -14.6554   -8.5138    4.0499 C   0  0  0  0  0  0  0  0  0  0  0  0
  -13.8191   -9.0632    4.9990 C   0  0  0  0  0  0  0  0  0  0  0  0
  -14.0598   -8.9800    6.3750 C   0  0  0  0  0  0  0  0  0  0  0  0
  -15.2056   -8.3017    6.7401 C   0  0  0  0  0  0  0  0  0  0  0  0
  -16.0509   -7.7458    5.7637 C   0  0  0  0  0  0  0  0  0  0  0  0
  -15.5893   -8.1672    8.1531 C   0  0  0  0  0  0  0  0  0  0  0  0
  -15.3943   -9.2352    8.9537 F   0  0  0  0  0  0  0  0  0  0  0  0
  -14.9051   -7.0708    8.6925 F   0  0  0  0  0  0  0  0  0  0  0  0
  -16.9366   -7.7599    8.1749 F   0  0  0  0  0  0  0  0  0  0  0  0
  -18.0409   -7.2031    3.5812 C   0  0  0  0  0  0  0  0  0  0  0  0
  -16.6593   -7.2782    3.4863 O   0  0  0  0  0  0  0  0  0  0  0  0
 34 35  1  0  0  0
 35 24  1  0  0  0
 24 25  2  0  0  0
 25 26  1  0  0  0
 26 27  2  0  0  0
 27 23  1  0  0  0
 23  1  1  0  0  0
  1  2  1  0  0  0
  2  3  2  0  0  0
  3  4  1  0  0  0
  4  5  2  0  0  0
  5  6  1  0  0  0
  6 10  1  0  0  0
 10 11  2  0  0  0
 11 12  1  0  0  0
 12 13  1  0  0  0
 13 14  2  0  0  0
 13 15  1  0  0  0
 15 18  1  0  0  0
 18 19  1  0  0  0
 19 20  1  0  0  0
 19 21  2  0  0  0
 15 16  1  0  0  0
 16 17  2  0  0  0
  6  7  2  0  0  0
  7  8  1  0  0  0
  8  9  2  0  0  0
 27 28  1  0  0  0
 28 29  2  0  0  0
 28 30  1  0  0  0
 30 31  1  0  0  0
 30 32  1  0  0  0
 30 33  1  0  0  0
 29 24  1  0  0  0
  9  1  1  0  0  0
  9  4  1  0  0  0
 16 11  1  0  0  0
 20 22  1  0  0  0
M  END
> <minimizedAffinity>
-9.17300

> <CNNscore>
0.2401220053

> <CNNaffinity>
6.5736694336

> <CNN_VS>
1.5784826279

> <CNNaffinity_variance>
0.1891591847

$$$$
[H]OC(=O)C([H])([H])N1C(=O)S/C(=C(/[H])c2c([H])c([H])c3c(c([H])nn3C([H])([H])c3c([H])c([H])c(OC([H])([H])[H])c([H])c3C(F)(F)F)c2[H])C1=O


 35 38  0  0  0  0  0  0  0  0999 V2000
  -10.7299   -9.3030    7.7890 N   0  0  0  0  0  0  0  0  0  0  0  0
  -10.7478  -10.2792    6.8300 N   0  0  0  0  0  0  0  0  0  0  0  0
   -9.5501  -10.4577    6.3005 C   0  0  0  0  0  0  0  0  0  0  0  0
   -8.7098   -9.5765    6.9219 C   0  0  0  0  0  0  0  0  0  0  0  0
   -7.3706   -9.3214    6.7933 C   0  0  0  0  0  0  0  0  0  0  0  0
   -6.7169   -8.3599    7.5692 C   0  0  0  0  0  0  0  0  0  0  0  0
   -7.4801   -7.6880    8.4627 C   0  0  0  0  0  0  0  0  0  0  0  0
   -8.8300   -7.9165    8.6189 C   0  0  0  0  0  0  0  0  0  0  0  0
   -9.4783   -8.8753    7.8423 C   0  0  0  0  0  0  0  0  0  0  0  0
   -5.3022   -8.1694    7.3003 C   0  0  0  0  0  0  0  0  0  0  0  0
   -4.7698   -7.2832    6.5052 C   0  0  0  0  0  0  0  0  0  0  0  0
   -5.7088   -6.0723    5.5545 S   0  0  0  0  0  0  0  0  0  0  0  0
   -4.3324   -4.9301    5.3738 C   0  0  0  0  0  0  0  0  0  0  0  0
   -4.4318   -3.7240    5.1515 O   0  0  0  0  0  0  0  0  0  0  0  0
   -3.1890   -5.7354    5.5456 N   0  0  0  0  0  0  0  0  0  0  0  0
   -3.3958   -6.9831    6.1403 C   0  0  0  0  0  0  0  0  0  0  0  0
   -2.4717   -7.8486    6.3739 O   0  0  0  0  0  0  0  0  0  0  0  0
   -1.8376   -5.2795    5.1410 C   0  0  0  0  0  0  0  0  0  0  0  0
   -1.7453   -5.2458    3.6543 C   0  0  0  0  0  0  0  0  0  0  0  0
   -2.1332   -4.1443    2.9100 O   0  0  0  0  0  0  0  0  0  0  0  0
   -1.2975   -6.2472    3.0228 O   0  0  0  0  0  0  0  0  0  0  0  0
   -3.0453   -4.2301    2.4317 H   0  0  0  0  0  0  0  0  0  0  0  0
  -11.9146   -8.9314    8.5208 C   0  0  0  0  0  0  0  0  0  0  0  0
  -14.6966   -6.6969    6.0826 C   0  0  0  0  0  0  0  0  0  0  0  0
  -14.2092   -7.9285    5.7052 C   0  0  0  0  0  0  0  0  0  0  0  0
  -13.3248   -8.6162    6.5095 C   0  0  0  0  0  0  0  0  0  0  0  0
  -12.8664   -8.1290    7.7388 C   0  0  0  0  0  0  0  0  0  0  0  0
  -13.3578   -6.8937    8.1114 C   0  0  0  0  0  0  0  0  0  0  0  0
  -14.2592   -6.2017    7.2833 C   0  0  0  0  0  0  0  0  0  0  0  0
  -12.9776   -6.2817    9.3930 C   0  0  0  0  0  0  0  0  0  0  0  0
  -11.6719   -6.0018    9.5842 F   0  0  0  0  0  0  0  0  0  0  0  0
  -13.7178   -5.1040    9.5553 F   0  0  0  0  0  0  0  0  0  0  0  0
  -13.4670   -7.1230   10.4101 F   0  0  0  0  0  0  0  0  0  0  0  0
  -15.3690   -4.7427    4.7152 C   0  0  0  0  0  0  0  0  0  0  0  0
  -15.5901   -5.9832    5.2944 O   0  0  0  0  0  0  0  0  0  0  0  0
 34 35  1  0  0  0
 35 24  1  0  0  0
 24 25  2  0  0  0
 25 26  1  0  0  0
 26 27  2  0  0  0
 27 23  1  0  0  0
 23  1  1  0  0  0
  1  2  1  0  0  0
  2  3  2  0  0  0
  3  4  1  0  0  0
  4  5  2  0  0  0
  5  6  1  0  0  0
  6 10  1  0  0  0
 10 11  2  0  0  0
 11 12  1  0  0  0
 12 13  1  0  0  0
 13 14  2  0  0  0
 13 15  1  0  0  0
 15 18  1  0  0  0
 18 19  1  0  0  0
 19 20  1  0  0  0
 19 21  2  0  0  0
 15 16  1  0  0  0
 16 17  2  0  0  0
  6  7  2  0  0  0
  7  8  1  0  0  0
  8  9  2  0  0  0
 27 28  1  0  0  0
 28 29  2  0  0  0
 28 30  1  0  0  0
 30 31  1  0  0  0
 30 32  1  0  0  0
 30 33  1  0  0  0
 29 24  1  0  0  0
  9  1  1  0  0  0
  9  4  1  0  0  0
 16 11  1  0  0  0
 20 22  1  0  0  0
M  END
> <minimizedAffinity>
-8.05697

> <CNNscore>
0.2281954587

> <CNNaffinity>
6.5742158890

> <CNN_VS>
1.5002062321

> <CNNaffinity_variance>
0.1463501155

$$$$
[H]Oc1c([H])c([H])c2c(c1[H])OC([H])([H])c1c-2nc2c([H])c([H])c(O[H])c([H])c2c1C([H])([H])C([H])([H])[H]


 24 27  0  0  0  0  0  0  0  0999 V2000
   -6.3683   -7.2391    9.1063 C   0  0  0  0  0  0  0  0  0  0  0  0
   -5.7461   -6.4628   10.0619 C   0  0  0  0  0  0  0  0  0  0  0  0
   -6.3315   -6.3284   11.4204 C   0  0  0  0  0  0  0  0  0  0  0  0
   -5.5605   -5.5520   12.2835 O   0  0  0  0  0  0  0  0  0  0  0  0
   -4.4100   -4.8792   12.0263 C   0  0  0  0  0  0  0  0  0  0  0  0
   -3.7786   -4.1126   12.9976 C   0  0  0  0  0  0  0  0  0  0  0  0
   -2.6269   -3.4462   12.7178 C   0  0  0  0  0  0  0  0  0  0  0  0
   -2.0044   -2.6836   13.6951 O   0  0  0  0  0  0  0  0  0  0  0  0
   -2.0818   -3.5425   11.4305 C   0  0  0  0  0  0  0  0  0  0  0  0
   -2.6966   -4.2990   10.4578 C   0  0  0  0  0  0  0  0  0  0  0  0
   -3.8542   -4.9644   10.7519 C   0  0  0  0  0  0  0  0  0  0  0  0
   -4.5692   -5.7861    9.7770 C   0  0  0  0  0  0  0  0  0  0  0  0
   -4.0107   -5.8733    8.5604 N   0  0  0  0  0  0  0  0  0  0  0  0
   -4.6006   -6.6269    7.6055 C   0  0  0  0  0  0  0  0  0  0  0  0
   -4.0043   -6.6936    6.3554 C   0  0  0  0  0  0  0  0  0  0  0  0
   -4.5848   -7.4473    5.3629 C   0  0  0  0  0  0  0  0  0  0  0  0
   -5.7490   -8.1417    5.5766 C   0  0  0  0  0  0  0  0  0  0  0  0
   -6.3633   -8.9120    4.5983 O   0  0  0  0  0  0  0  0  0  0  0  0
   -6.3350   -8.0692    6.8242 C   0  0  0  0  0  0  0  0  0  0  0  0
   -5.7783   -7.3202    7.8489 C   0  0  0  0  0  0  0  0  0  0  0  0
   -1.1616   -2.1676   13.5706 H   0  0  0  0  0  0  0  0  0  0  0  0
   -5.9771   -8.9980    3.6737 H   0  0  0  0  0  0  0  0  0  0  0  0
   -8.8355   -7.3777    8.7275 C   0  0  0  0  0  0  0  0  0  0  0  0
   -7.6154   -7.9436    9.4029 C   0  0  0  0  0  0  0  0  0  0  0  0
 23 24  1  0  0  0
 24  1  1  0  0  0
  1  2  2  0  0  0
  2  3  1  0  0  0
  3  4  1  0  0  0
  4  5  1  0  0  0
  5  6  2  0  0  0
  6  7  1  0  0  0
  7  8  1  0  0  0
  7  9  2  0  0  0
  9 10  1  0  0  0
 10 11  2  0  0  0
 11 12  1  0  0  0
 12 13  2  0  0  0
 13 14  1  0  0  0
 14 15  2  0  0  0
 15 16  1  0  0  0
 16 17  2  0  0  0
 17 18  1  0  0  0
 17 19  1  0  0  0
 19 20  2  0  0  0
 20  1  1  0  0  0
 12  2  1  0  0  0
 20 14  1  0  0  0
 11  5  1  0  0  0
  8 21  1  0  0  0
 18 22  1  0  0  0
M  END
> <minimizedAffinity>
0.03642

> <CNNscore>
0.3677355945

> <CNNaffinity>
4.6309938431

> <CNN_VS>
1.7029812336

> <CNNaffinity_variance>
1.0110876560

$$$$
[H]Oc1c([H])c([H])c2c(c1[H])OC([H])([H])c1c-2nc2c([H])c([H])c(O[H])c([H])c2c1C([H])([H])C([H])([H])[H]


 24 27  0  0  0  0  0  0  0  0999 V2000
  -11.1324   -8.9270    7.8630 C   0  0  0  0  0  0  0  0  0  0  0  0
   -9.8123   -8.8076    7.4810 C   0  0  0  0  0  0  0  0  0  0  0  0
   -9.1882   -9.8283    6.6008 C   0  0  0  0  0  0  0  0  0  0  0  0
   -7.8664   -9.5402    6.2660 O   0  0  0  0  0  0  0  0  0  0  0  0
   -7.0887   -8.5071    6.6788 C   0  0  0  0  0  0  0  0  0  0  0  0
   -5.7647   -8.3828    6.2772 C   0  0  0  0  0  0  0  0  0  0  0  0
   -5.0035   -7.3400    6.7036 C   0  0  0  0  0  0  0  0  0  0  0  0
   -3.6825   -7.2251    6.2964 O   0  0  0  0  0  0  0  0  0  0  0  0
   -5.5740   -6.3871    7.5581 C   0  0  0  0  0  0  0  0  0  0  0  0
   -6.8853   -6.4974    7.9642 C   0  0  0  0  0  0  0  0  0  0  0  0
   -7.6401   -7.5507    7.5281 C   0  0  0  0  0  0  0  0  0  0  0  0
   -9.0373   -7.7415    7.9135 C   0  0  0  0  0  0  0  0  0  0  0  0
   -9.5588   -6.8015    8.7160 N   0  0  0  0  0  0  0  0  0  0  0  0
  -10.8499   -6.8952    9.1057 C   0  0  0  0  0  0  0  0  0  0  0  0
  -11.3604   -5.9126    9.9403 C   0  0  0  0  0  0  0  0  0  0  0  0
  -12.6683   -5.9850   10.3578 C   0  0  0  0  0  0  0  0  0  0  0  0
  -13.4904   -7.0123    9.9681 C   0  0  0  0  0  0  0  0  0  0  0  0
  -14.8152   -7.1179   10.3701 O   0  0  0  0  0  0  0  0  0  0  0  0
  -12.9733   -7.9856    9.1371 C   0  0  0  0  0  0  0  0  0  0  0  0
  -11.6602   -7.9452    8.6958 C   0  0  0  0  0  0  0  0  0  0  0  0
   -3.0610   -6.4938    6.5629 H   0  0  0  0  0  0  0  0  0  0  0  0
  -15.2399   -6.4355   10.9746 H   0  0  0  0  0  0  0  0  0  0  0  0
  -12.9330   -9.7323    6.3272 C   0  0  0  0  0  0  0  0  0  0  0  0
  -11.9468  -10.0571    7.4166 C   0  0  0  0  0  0  0  0  0  0  0  0
 23 24  1  0  0  0
 24  1  1  0  0  0
  1  2  2  0  0  0
  2  3  1  0  0  0
  3  4  1  0  0  0
  4  5  1  0  0  0
  5  6  2  0  0  0
  6  7  1  0  0  0
  7  8  1  0  0  0
  7  9  2  0  0  0
  9 10  1  0  0  0
 10 11  2  0  0  0
 11 12  1  0  0  0
 12 13  2  0  0  0
 13 14  1  0  0  0
 14 15  2  0  0  0
 15 16  1  0  0  0
 16 17  2  0  0  0
 17 18  1  0  0  0
 17 19  1  0  0  0
 19 20  2  0  0  0
 20  1  1  0  0  0
 12  2  1  0  0  0
 20 14  1  0  0  0
 11  5  1  0  0  0
  8 21  1  0  0  0
 18 22  1  0  0  0
M  END
> <minimizedAffinity>
-7.84843

> <CNNscore>
0.3612217009

> <CNNaffinity>
5.8510332108

> <CNN_VS>
2.1135201454

> <CNNaffinity_variance>
0.0291004721

$$$$
[H]Oc1c([H])c([H])c2c(c1[H])OC([H])([H])c1c-2nc2c([H])c([H])c(O[H])c([H])c2c1C([H])([H])C([H])([H])[H]


 24 27  0  0  0  0  0  0  0  0999 V2000
  -15.2022   -8.0515    3.6565 C   0  0  0  0  0  0  0  0  0  0  0  0
  -14.7190   -7.4853    4.8179 C   0  0  0  0  0  0  0  0  0  0  0  0
  -14.4648   -6.0239    4.8938 C   0  0  0  0  0  0  0  0  0  0  0  0
  -14.0259   -5.6004    6.1468 O   0  0  0  0  0  0  0  0  0  0  0  0
  -13.7560   -6.3427    7.2508 C   0  0  0  0  0  0  0  0  0  0  0  0
  -13.2857   -5.7648    8.4232 C   0  0  0  0  0  0  0  0  0  0  0  0
  -13.0211   -6.5277    9.5172 C   0  0  0  0  0  0  0  0  0  0  0  0
  -12.5519   -5.9407   10.6831 O   0  0  0  0  0  0  0  0  0  0  0  0
  -13.2295   -7.9116    9.4469 C   0  0  0  0  0  0  0  0  0  0  0  0
  -13.6956   -8.4981    8.2914 C   0  0  0  0  0  0  0  0  0  0  0  0
  -13.9580   -7.7198    7.1983 C   0  0  0  0  0  0  0  0  0  0  0  0
  -14.4527   -8.2637    5.9348 C   0  0  0  0  0  0  0  0  0  0  0  0
  -14.6603   -9.5887    5.9070 N   0  0  0  0  0  0  0  0  0  0  0  0
  -15.1327  -10.1688    4.7810 C   0  0  0  0  0  0  0  0  0  0  0  0
  -15.3318  -11.5410    4.7789 C   0  0  0  0  0  0  0  0  0  0  0  0
  -15.8055  -12.1592    3.6460 C   0  0  0  0  0  0  0  0  0  0  0  0
  -16.0893  -11.4496    2.5063 C   0  0  0  0  0  0  0  0  0  0  0  0
  -16.5684  -12.0401    1.3445 O   0  0  0  0  0  0  0  0  0  0  0  0
  -15.8880  -10.0841    2.5180 C   0  0  0  0  0  0  0  0  0  0  0  0
  -15.4125   -9.4268    3.6416 C   0  0  0  0  0  0  0  0  0  0  0  0
  -12.3354   -6.4278   11.5244 H   0  0  0  0  0  0  0  0  0  0  0  0
  -16.7322  -13.0306    1.2841 H   0  0  0  0  0  0  0  0  0  0  0  0
  -14.7330   -7.6539    1.2334 C   0  0  0  0  0  0  0  0  0  0  0  0
  -15.4723   -7.2327    2.4748 C   0  0  0  0  0  0  0  0  0  0  0  0
 23 24  1  0  0  0
 24  1  1  0  0  0
  1  2  2  0  0  0
  2  3  1  0  0  0
  3  4  1  0  0  0
  4  5  1  0  0  0
  5  6  2  0  0  0
  6  7  1  0  0  0
  7  8  1  0  0  0
  7  9  2  0  0  0
  9 10  1  0  0  0
 10 11  2  0  0  0
 11 12  1  0  0  0
 12 13  2  0  0  0
 13 14  1  0  0  0
 14 15  2  0  0  0
 15 16  1  0  0  0
 16 17  2  0  0  0
 17 18  1  0  0  0
 17 19  1  0  0  0
 19 20  2  0  0  0
 20  1  1  0  0  0
 12  2  1  0  0  0
 20 14  1  0  0  0
 11  5  1  0  0  0
  8 21  1  0  0  0
 18 22  1  0  0  0
M  END
> <minimizedAffinity>
27.99742

> <CNNscore>
0.3455072045

> <CNNaffinity>
5.7467856407

> <CNN_VS>
1.9855558872

> <CNNaffinity_variance>
1.6157939434

$$$$
[H]Oc1c([H])c([H])c2c(c1[H])OC([H])([H])c1c-2nc2c([H])c([H])c(O[H])c([H])c2c1C([H])([H])C([H])([H])[H]


 24 27  0  0  0  0  0  0  0  0999 V2000
  -12.0392   -6.7881    8.8522 C   0  0  0  0  0  0  0  0  0  0  0  0
  -10.7059   -6.8702    8.5082 C   0  0  0  0  0  0  0  0  0  0  0  0
   -9.7681   -5.7744    8.8630 C   0  0  0  0  0  0  0  0  0  0  0  0
   -8.4496   -6.0287    8.4903 O   0  0  0  0  0  0  0  0  0  0  0  0
   -7.9452   -7.0923    7.8144 C   0  0  0  0  0  0  0  0  0  0  0  0
   -6.5983   -7.1776    7.4855 C   0  0  0  0  0  0  0  0  0  0  0  0
   -6.1146   -8.2522    6.8071 C   0  0  0  0  0  0  0  0  0  0  0  0
   -4.7679   -8.3275    6.4838 O   0  0  0  0  0  0  0  0  0  0  0  0
   -6.9965   -9.2780    6.4416 C   0  0  0  0  0  0  0  0  0  0  0  0
   -8.3341   -9.2071    6.7613 C   0  0  0  0  0  0  0  0  0  0  0  0
   -8.8079   -8.1212    7.4438 C   0  0  0  0  0  0  0  0  0  0  0  0
  -10.2124   -7.9684    7.8193 C   0  0  0  0  0  0  0  0  0  0  0  0
  -11.0262   -8.9768    7.4720 N   0  0  0  0  0  0  0  0  0  0  0  0
  -12.3373   -8.9209    7.7966 C   0  0  0  0  0  0  0  0  0  0  0  0
  -13.1561   -9.9744    7.4193 C   0  0  0  0  0  0  0  0  0  0  0  0
  -14.4949   -9.9423    7.7303 C   0  0  0  0  0  0  0  0  0  0  0  0
  -15.0489   -8.8865    8.4098 C   0  0  0  0  0  0  0  0  0  0  0  0
  -16.3958   -8.8199    8.7402 O   0  0  0  0  0  0  0  0  0  0  0  0
  -14.2259   -7.8425    8.7811 C   0  0  0  0  0  0  0  0  0  0  0  0
  -12.8719   -7.8408    8.4855 C   0  0  0  0  0  0  0  0  0  0  0  0
   -4.3368   -9.0780    5.9907 H   0  0  0  0  0  0  0  0  0  0  0  0
  -17.0373   -9.5540    8.4931 H   0  0  0  0  0  0  0  0  0  0  0  0
  -12.4161   -5.6878   11.0651 C   0  0  0  0  0  0  0  0  0  0  0  0
  -12.5623   -5.6249    9.5686 C   0  0  0  0  0  0  0  0  0  0  0  0
 23 24  1  0  0  0
 24  1  1  0  0  0
  1  2  2  0  0  0
  2  3  1  0  0  0
  3  4  1  0  0  0
  4  5  1  0  0  0
  5  6  2  0  0  0
  6  7  1  0  0  0
  7  8  1  0  0  0
  7  9  2  0  0  0
  9 10  1  0  0  0
 10 11  2  0  0  0
 11 12  1  0  0  0
 12 13  2  0  0  0
 13 14  1  0  0  0
 14 15  2  0  0  0
 15 16  1  0  0  0
 16 17  2  0  0  0
 17 18  1  0  0  0
 17 19  1  0  0  0
 19 20  2  0  0  0
 20  1  1  0  0  0
 12  2  1  0  0  0
 20 14  1  0  0  0
 11  5  1  0  0  0
  8 21  1  0  0  0
 18 22  1  0  0  0
M  END
> <minimizedAffinity>
-7.06728

> <CNNscore>
0.3155210614

> <CNNaffinity>
5.9470853806

> <CNN_VS>
1.8764307499

> <CNNaffinity_variance>
0.0766361803

$$$$
[H]Oc1c([H])c([H])c2c(c1[H])OC([H])([H])c1c-2nc2c([H])c([H])c(O[H])c([H])c2c1C([H])([H])C([H])([H])[H]


 24 27  0  0  0  0  0  0  0  0999 V2000
   -7.0904   -8.4166    6.8095 C   0  0  0  0  0  0  0  0  0  0  0  0
   -5.9056   -7.8477    7.2284 C   0  0  0  0  0  0  0  0  0  0  0  0
   -4.6198   -8.2319    6.5917 C   0  0  0  0  0  0  0  0  0  0  0  0
   -3.5218   -7.5342    7.0916 O   0  0  0  0  0  0  0  0  0  0  0  0
   -3.4775   -6.6206    8.0945 C   0  0  0  0  0  0  0  0  0  0  0  0
   -2.2835   -6.0383    8.5006 C   0  0  0  0  0  0  0  0  0  0  0  0
   -2.2621   -5.1256    9.5082 C   0  0  0  0  0  0  0  0  0  0  0  0
   -1.0644   -4.5499    9.9060 O   0  0  0  0  0  0  0  0  0  0  0  0
   -3.4659   -4.7778   10.1356 C   0  0  0  0  0  0  0  0  0  0  0  0
   -4.6571   -5.3467    9.7432 C   0  0  0  0  0  0  0  0  0  0  0  0
   -4.6650   -6.2631    8.7285 C   0  0  0  0  0  0  0  0  0  0  0  0
   -5.8849   -6.9139    8.2539 C   0  0  0  0  0  0  0  0  0  0  0  0
   -7.0223   -6.5444    8.8619 N   0  0  0  0  0  0  0  0  0  0  0  0
   -8.1971   -7.0872    8.4710 C   0  0  0  0  0  0  0  0  0  0  0  0
   -9.3559   -6.6913    9.1214 C   0  0  0  0  0  0  0  0  0  0  0  0
  -10.5645   -7.2309    8.7494 C   0  0  0  0  0  0  0  0  0  0  0  0
  -10.6569   -8.1594    7.7432 C   0  0  0  0  0  0  0  0  0  0  0  0
  -11.8593   -8.7256    7.3415 O   0  0  0  0  0  0  0  0  0  0  0  0
   -9.4979   -8.5472    7.1016 C   0  0  0  0  0  0  0  0  0  0  0  0
   -8.2623   -8.0245    7.4491 C   0  0  0  0  0  0  0  0  0  0  0  0
   -0.9646   -3.8761   10.6327 H   0  0  0  0  0  0  0  0  0  0  0  0
  -12.7316   -8.4771    7.7762 H   0  0  0  0  0  0  0  0  0  0  0  0
   -6.6311   -8.9062    4.4015 C   0  0  0  0  0  0  0  0  0  0  0  0
   -7.1113   -9.4098    5.7359 C   0  0  0  0  0  0  0  0  0  0  0  0
 23 24  1  0  0  0
 24  1  1  0  0  0
  1  2  2  0  0  0
  2  3  1  0  0  0
  3  4  1  0  0  0
  4  5  1  0  0  0
  5  6  2  0  0  0
  6  7  1  0  0  0
  7  8  1  0  0  0
  7  9  2  0  0  0
  9 10  1  0  0  0
 10 11  2  0  0  0
 11 12  1  0  0  0
 12 13  2  0  0  0
 13 14  1  0  0  0
 14 15  2  0  0  0
 15 16  1  0  0  0
 16 17  2  0  0  0
 17 18  1  0  0  0
 17 19  1  0  0  0
 19 20  2  0  0  0
 20  1  1  0  0  0
 12  2  1  0  0  0
 20 14  1  0  0  0
 11  5  1  0  0  0
  8 21  1  0  0  0
 18 22  1  0  0  0
M  END
> <minimizedAffinity>
-3.08767

> <CNNscore>
0.2868411839

> <CNNaffinity>
4.8428134918

> <CNN_VS>
1.3891183138

> <CNNaffinity_variance>
0.3542874455

$$$$
[H]Oc1c([H])c([H])c2c(c1[H])OC([H])([H])c1c-2nc2c([H])c([H])c(O[H])c([H])c2c1C([H])([H])C([H])([H])[H]


 24 27  0  0  0  0  0  0  0  0999 V2000
   -8.5727   -9.1915    7.2620 C   0  0  0  0  0  0  0  0  0  0  0  0
   -9.6868   -8.6509    7.8697 C   0  0  0  0  0  0  0  0  0  0  0  0
  -10.9607   -9.4130    7.9208 C   0  0  0  0  0  0  0  0  0  0  0  0
  -11.9762   -8.7527    8.6099 O   0  0  0  0  0  0  0  0  0  0  0  0
  -11.9614   -7.5164    9.1702 C   0  0  0  0  0  0  0  0  0  0  0  0
  -13.0815   -6.9839    9.7958 C   0  0  0  0  0  0  0  0  0  0  0  0
  -13.0446   -5.7427   10.3499 C   0  0  0  0  0  0  0  0  0  0  0  0
  -14.1687   -5.2204   10.9725 O   0  0  0  0  0  0  0  0  0  0  0  0
  -11.8563   -5.0032   10.2814 C   0  0  0  0  0  0  0  0  0  0  0  0
  -10.7381   -5.5185    9.6646 C   0  0  0  0  0  0  0  0  0  0  0  0
  -10.7882   -6.7679    9.1115 C   0  0  0  0  0  0  0  0  0  0  0  0
   -9.6475   -7.3861    8.4380 C   0  0  0  0  0  0  0  0  0  0  0  0
   -8.5198   -6.6601    8.4071 N   0  0  0  0  0  0  0  0  0  0  0  0
   -7.4138   -7.1664    7.8171 C   0  0  0  0  0  0  0  0  0  0  0  0
   -6.2643   -6.3912    7.7944 C   0  0  0  0  0  0  0  0  0  0  0  0
   -5.1261   -6.8775    7.1960 C   0  0  0  0  0  0  0  0  0  0  0  0
   -5.0956   -8.1202    6.6146 C   0  0  0  0  0  0  0  0  0  0  0  0
   -3.9650   -8.6432    6.0013 O   0  0  0  0  0  0  0  0  0  0  0  0
   -6.2447   -8.8844    6.6422 C   0  0  0  0  0  0  0  0  0  0  0  0
   -7.4101   -8.4275    7.2369 C   0  0  0  0  0  0  0  0  0  0  0  0
  -14.2229   -4.3229   11.4011 H   0  0  0  0  0  0  0  0  0  0  0  0
   -3.1029   -8.1273    5.9544 H   0  0  0  0  0  0  0  0  0  0  0  0
   -9.7060  -10.7099    5.6312 C   0  0  0  0  0  0  0  0  0  0  0  0
   -8.6170  -10.5205    6.6526 C   0  0  0  0  0  0  0  0  0  0  0  0
 23 24  1  0  0  0
 24  1  1  0  0  0
  1  2  2  0  0  0
  2  3  1  0  0  0
  3  4  1  0  0  0
  4  5  1  0  0  0
  5  6  2  0  0  0
  6  7  1  0  0  0
  7  8  1  0  0  0
  7  9  2  0  0  0
  9 10  1  0  0  0
 10 11  2  0  0  0
 11 12  1  0  0  0
 12 13  2  0  0  0
 13 14  1  0  0  0
 14 15  2  0  0  0
 15 16  1  0  0  0
 16 17  2  0  0  0
 17 18  1  0  0  0
 17 19  1  0  0  0
 19 20  2  0  0  0
 20  1  1  0  0  0
 12  2  1  0  0  0
 20 14  1  0  0  0
 11  5  1  0  0  0
  8 21  1  0  0  0
 18 22  1  0  0  0
M  END
> <minimizedAffinity>
-4.97405

> <CNNscore>
0.2763266265

> <CNNaffinity>
5.4218482971

> <CNN_VS>
1.4982010126

> <CNNaffinity_variance>
0.1607810855

$$$$
[H]Oc1c([H])c([H])c2c(c1[H])OC([H])([H])c1c-2nc2c([H])c([H])c(O[H])c([H])c2c1C([H])([H])C([H])([H])[H]


 24 27  0  0  0  0  0  0  0  0999 V2000
   -3.9029   -5.5090    6.8069 C   0  0  0  0  0  0  0  0  0  0  0  0
   -3.8574   -5.1854    8.1471 C   0  0  0  0  0  0  0  0  0  0  0  0
   -4.8456   -5.7616    9.0946 C   0  0  0  0  0  0  0  0  0  0  0  0
   -4.6368   -5.3770   10.4177 O   0  0  0  0  0  0  0  0  0  0  0  0
   -3.7086   -4.5236   10.9205 C   0  0  0  0  0  0  0  0  0  0  0  0
   -3.6569   -4.2146   12.2738 C   0  0  0  0  0  0  0  0  0  0  0  0
   -2.7189   -3.3564   12.7559 C   0  0  0  0  0  0  0  0  0  0  0  0
   -2.6758   -3.0546   14.1092 O   0  0  0  0  0  0  0  0  0  0  0  0
   -1.8002   -2.7841   11.8660 C   0  0  0  0  0  0  0  0  0  0  0  0
   -1.8394   -3.0816   10.5219 C   0  0  0  0  0  0  0  0  0  0  0  0
   -2.7874   -3.9463   10.0498 C   0  0  0  0  0  0  0  0  0  0  0  0
   -2.8980   -4.3126    8.6389 C   0  0  0  0  0  0  0  0  0  0  0  0
   -1.9915   -3.7630    7.8168 N   0  0  0  0  0  0  0  0  0  0  0  0
   -2.0144   -4.0630    6.4987 C   0  0  0  0  0  0  0  0  0  0  0  0
   -1.0693   -3.4755    5.6716 C   0  0  0  0  0  0  0  0  0  0  0  0
   -1.0722   -3.7571    4.3259 C   0  0  0  0  0  0  0  0  0  0  0  0
   -1.9930   -4.6113    3.7732 C   0  0  0  0  0  0  0  0  0  0  0  0
   -2.0261   -4.9184    2.4195 O   0  0  0  0  0  0  0  0  0  0  0  0
   -2.9298   -5.1914    4.6046 C   0  0  0  0  0  0  0  0  0  0  0  0
   -2.9570   -4.9316    5.9656 C   0  0  0  0  0  0  0  0  0  0  0  0
   -2.0223   -2.4383   14.5396 H   0  0  0  0  0  0  0  0  0  0  0  0
   -1.3662   -4.5228    1.7718 H   0  0  0  0  0  0  0  0  0  0  0  0
   -4.6391   -7.8804    6.5172 C   0  0  0  0  0  0  0  0  0  0  0  0
   -4.9216   -6.4204    6.2860 C   0  0  0  0  0  0  0  0  0  0  0  0
 23 24  1  0  0  0
 24  1  1  0  0  0
  1  2  2  0  0  0
  2  3  1  0  0  0
  3  4  1  0  0  0
  4  5  1  0  0  0
  5  6  2  0  0  0
  6  7  1  0  0  0
  7  8  1  0  0  0
  7  9  2  0  0  0
  9 10  1  0  0  0
 10 11  2  0  0  0
 11 12  1  0  0  0
 12 13  2  0  0  0
 13 14  1  0  0  0
 14 15  2  0  0  0
 15 16  1  0  0  0
 16 17  2  0  0  0
 17 18  1  0  0  0
 17 19  1  0  0  0
 19 20  2  0  0  0
 20  1  1  0  0  0
 12  2  1  0  0  0
 20 14  1  0  0  0
 11  5  1  0  0  0
  8 21  1  0  0  0
 18 22  1  0  0  0
M  END
> <minimizedAffinity>
-3.70297

> <CNNscore>
0.2474561334

> <CNNaffinity>
4.5562486649

> <CNN_VS>
1.1274716854

> <CNNaffinity_variance>
0.5645436645

$$$$
[H]Oc1c([H])c([H])c2c(c1[H])OC([H])([H])c1c-2nc2c([H])c([H])c(O[H])c([H])c2c1C([H])([H])C([H])([H])[H]


 24 27  0  0  0  0  0  0  0  0999 V2000
   -9.5793   -9.6351    7.1230 C   0  0  0  0  0  0  0  0  0  0  0  0
  -10.9459   -9.5000    7.2540 C   0  0  0  0  0  0  0  0  0  0  0  0
  -11.8367  -10.6789    7.1025 C   0  0  0  0  0  0  0  0  0  0  0  0
  -13.1835  -10.3883    7.3117 O   0  0  0  0  0  0  0  0  0  0  0  0
  -13.7664   -9.1902    7.5707 C   0  0  0  0  0  0  0  0  0  0  0  0
  -15.1418   -9.0631    7.7185 C   0  0  0  0  0  0  0  0  0  0  0  0
  -15.7047   -7.8526    7.9769 C   0  0  0  0  0  0  0  0  0  0  0  0
  -17.0792   -7.7367    8.1230 O   0  0  0  0  0  0  0  0  0  0  0  0
  -14.8759   -6.7287    8.0926 C   0  0  0  0  0  0  0  0  0  0  0  0
  -13.5108   -6.8398    7.9488 C   0  0  0  0  0  0  0  0  0  0  0  0
  -12.9571   -8.0627    7.6893 C   0  0  0  0  0  0  0  0  0  0  0  0
  -11.5192   -8.2655    7.5213 C   0  0  0  0  0  0  0  0  0  0  0  0
  -10.7523   -7.1733    7.6576 N   0  0  0  0  0  0  0  0  0  0  0  0
   -9.4102   -7.2781    7.5333 C   0  0  0  0  0  0  0  0  0  0  0  0
   -8.6429   -6.1316    7.6730 C   0  0  0  0  0  0  0  0  0  0  0  0
   -7.2761   -6.2066    7.5457 C   0  0  0  0  0  0  0  0  0  0  0  0
   -6.6439   -7.3956    7.2814 C   0  0  0  0  0  0  0  0  0  0  0  0
   -5.2667   -7.5087    7.1460 O   0  0  0  0  0  0  0  0  0  0  0  0
   -7.4160   -8.5314    7.1441 C   0  0  0  0  0  0  0  0  0  0  0  0
   -8.7960   -8.4941    7.2665 C   0  0  0  0  0  0  0  0  0  0  0  0
  -17.5671   -6.8893    8.3127 H   0  0  0  0  0  0  0  0  0  0  0  0
   -4.6596   -6.7120    7.2370 H   0  0  0  0  0  0  0  0  0  0  0  0
   -9.1055  -11.3822    5.3989 C   0  0  0  0  0  0  0  0  0  0  0  0
   -8.9752  -10.9346    6.8299 C   0  0  0  0  0  0  0  0  0  0  0  0
 23 24  1  0  0  0
 24  1  1  0  0  0
  1  2  2  0  0  0
  2  3  1  0  0  0
  3  4  1  0  0  0
  4  5  1  0  0  0
  5  6  2  0  0  0
  6  7  1  0  0  0
  7  8  1  0  0  0
  7  9  2  0  0  0
  9 10  1  0  0  0
 10 11  2  0  0  0
 11 12  1  0  0  0
 12 13  2  0  0  0
 13 14  1  0  0  0
 14 15  2  0  0  0
 15 16  1  0  0  0
 16 17  2  0  0  0
 17 18  1  0  0  0
 17 19  1  0  0  0
 19 20  2  0  0  0
 20  1  1  0  0  0
 12  2  1  0  0  0
 20 14  1  0  0  0
 11  5  1  0  0  0
  8 21  1  0  0  0
 18 22  1  0  0  0
M  END
> <minimizedAffinity>
-3.96119

> <CNNscore>
0.2349558324

> <CNNaffinity>
5.8125662804

> <CNN_VS>
1.3656963110

> <CNNaffinity_variance>
0.3170081973

$$$$
[H]Oc1c([H])c([H])c2c(c1[H])OC([H])([H])c1c-2nc2c([H])c([H])c(O[H])c([H])c2c1C([H])([H])C([H])([H])[H]


 24 27  0  0  0  0  0  0  0  0999 V2000
  -12.6455   -7.1532    9.0907 C   0  0  0  0  0  0  0  0  0  0  0  0
  -13.7459   -7.3882    8.2927 C   0  0  0  0  0  0  0  0  0  0  0  0
  -15.1179   -7.1803    8.8223 C   0  0  0  0  0  0  0  0  0  0  0  0
  -16.1184   -7.4127    7.8804 O   0  0  0  0  0  0  0  0  0  0  0  0
  -15.9989   -7.8470    6.6000 C   0  0  0  0  0  0  0  0  0  0  0  0
  -17.1101   -8.0656    5.7955 C   0  0  0  0  0  0  0  0  0  0  0  0
  -16.9671   -8.5016    4.5155 C   0  0  0  0  0  0  0  0  0  0  0  0
  -18.0833   -8.7167    3.7205 O   0  0  0  0  0  0  0  0  0  0  0  0
  -15.6781   -8.7292    4.0153 C   0  0  0  0  0  0  0  0  0  0  0  0
  -14.5675   -8.5164    4.8012 C   0  0  0  0  0  0  0  0  0  0  0  0
  -14.7248   -8.0777    6.0866 C   0  0  0  0  0  0  0  0  0  0  0  0
  -13.5993   -7.8295    6.9858 C   0  0  0  0  0  0  0  0  0  0  0  0
  -12.3785   -8.0380    6.4700 N   0  0  0  0  0  0  0  0  0  0  0  0
  -11.2835   -7.8158    7.2311 C   0  0  0  0  0  0  0  0  0  0  0  0
  -10.0348   -8.0457    6.6738 C   0  0  0  0  0  0  0  0  0  0  0  0
   -8.9035   -7.8343    7.4259 C   0  0  0  0  0  0  0  0  0  0  0  0
   -8.9762   -7.3983    8.7250 C   0  0  0  0  0  0  0  0  0  0  0  0
   -7.8558   -7.1747    9.5140 O   0  0  0  0  0  0  0  0  0  0  0  0
  -10.2236   -7.1722    9.2710 C   0  0  0  0  0  0  0  0  0  0  0  0
  -11.3856   -7.3739    8.5430 C   0  0  0  0  0  0  0  0  0  0  0  0
  -18.0635   -9.0340    2.7766 H   0  0  0  0  0  0  0  0  0  0  0  0
   -6.9248   -7.3241    9.1640 H   0  0  0  0  0  0  0  0  0  0  0  0
  -12.4420   -5.2558   10.7055 C   0  0  0  0  0  0  0  0  0  0  0  0
  -12.8000   -6.6988   10.4725 C   0  0  0  0  0  0  0  0  0  0  0  0
 23 24  1  0  0  0
 24  1  1  0  0  0
  1  2  2  0  0  0
  2  3  1  0  0  0
  3  4  1  0  0  0
  4  5  1  0  0  0
  5  6  2  0  0  0
  6  7  1  0  0  0
  7  8  1  0  0  0
  7  9  2  0  0  0
  9 10  1  0  0  0
 10 11  2  0  0  0
 11 12  1  0  0  0
 12 13  2  0  0  0
 13 14  1  0  0  0
 14 15  2  0  0  0
 15 16  1  0  0  0
 16 17  2  0  0  0
 17 18  1  0  0  0
 17 19  1  0  0  0
 19 20  2  0  0  0
 20  1  1  0  0  0
 12  2  1  0  0  0
 20 14  1  0  0  0
 11  5  1  0  0  0
  8 21  1  0  0  0
 18 22  1  0  0  0
M  END
> <minimizedAffinity>
-5.07542

> <CNNscore>
0.2159413993

> <CNNaffinity>
5.9398832321

> <CNN_VS>
1.2826666832

> <CNNaffinity_variance>
0.1634684056

$$$$
[H]/C(=C1/SC(=O)N([C@]2([H])C([H])([H])C([H])([H])N([H])C([H])([H])[C@@]2([H])F)C1=O)c1c([H])c([H])c2c(c([H])nn2C([H])([H])c2c([H])c([H])c(Cl)c([H])c2C(F)(F)F)c1[H]


 37 41  0  0  0  0  0  0  0  0999 V2000
  -13.7857   -7.0991    9.3578 C   0  0  0  0  0  0  0  0  0  0  0  0
  -13.6080   -7.8177   10.5379 C   0  0  0  0  0  0  0  0  0  0  0  0
  -12.7994   -7.3939   11.5608 C   0  0  0  0  0  0  0  0  0  0  0  0
  -12.0962   -6.1944   11.4720 C   0  0  0  0  0  0  0  0  0  0  0  0
  -11.2921   -5.5208   12.2770 N   0  0  0  0  0  0  0  0  0  0  0  0
  -10.9531   -4.3800   11.6402 N   0  0  0  0  0  0  0  0  0  0  0  0
  -11.5338   -4.3497   10.4627 C   0  0  0  0  0  0  0  0  0  0  0  0
  -12.2791   -5.4947   10.3083 C   0  0  0  0  0  0  0  0  0  0  0  0
  -13.1053   -5.9286    9.2619 C   0  0  0  0  0  0  0  0  0  0  0  0
  -15.5870   -6.7840    4.9310 N   0  0  0  0  0  0  0  0  0  0  0  0
  -14.5688   -5.8085    4.9682 C   0  0  0  0  0  0  0  0  0  0  0  0
  -13.8606   -5.2616    4.1006 O   0  0  0  0  0  0  0  0  0  0  0  0
  -14.4261   -5.4136    6.7332 S   0  0  0  0  0  0  0  0  0  0  0  0
  -14.9836   -7.0630    7.2535 C   0  0  0  0  0  0  0  0  0  0  0  0
  -14.6648   -7.6716    8.3539 C   0  0  0  0  0  0  0  0  0  0  0  0
  -15.8235   -7.4627    6.1380 C   0  0  0  0  0  0  0  0  0  0  0  0
  -16.7137   -8.3815    6.2847 O   0  0  0  0  0  0  0  0  0  0  0  0
  -16.5647   -9.3970    4.1117 F   0  0  0  0  0  0  0  0  0  0  0  0
  -17.2050   -8.2317    3.7390 C   0  0  0  0  0  0  0  0  0  0  0  0
  -17.7673   -8.4558    2.3444 C   0  0  0  0  0  0  0  0  0  0  0  0
  -18.6541   -7.3273    2.0709 N   0  0  0  0  0  0  0  0  0  0  0  0
  -17.8223   -6.1261    2.0042 C   0  0  0  0  0  0  0  0  0  0  0  0
  -17.1869   -5.8379    3.3438 C   0  0  0  0  0  0  0  0  0  0  0  0
  -16.3159   -7.0411    3.6705 C   0  0  0  0  0  0  0  0  0  0  0  0
  -19.2262   -7.2011    2.9609 H   0  0  0  0  0  0  0  0  0  0  0  0
  -10.7332   -5.8755   13.5772 C   0  0  0  0  0  0  0  0  0  0  0  0
   -9.4779   -5.2236   13.9114 C   0  0  0  0  0  0  0  0  0  0  0  0
   -8.3286   -5.9518   13.4410 C   0  0  0  0  0  0  0  0  0  0  0  0
   -7.0836   -5.4719   13.6899 C   0  0  0  0  0  0  0  0  0  0  0  0
   -6.8869   -4.2994   14.3854 C   0  0  0  0  0  0  0  0  0  0  0  0
   -5.2574   -3.7027   14.6958 Cl  0  0  0  0  0  0  0  0  0  0  0  0
   -7.9805   -3.6086   14.8315 C   0  0  0  0  0  0  0  0  0  0  0  0
   -9.3017   -4.0696   14.5961 C   0  0  0  0  0  0  0  0  0  0  0  0
  -10.4077   -3.2597   15.1290 C   0  0  0  0  0  0  0  0  0  0  0  0
  -11.1368   -3.8583   16.1318 F   0  0  0  0  0  0  0  0  0  0  0  0
  -11.4098   -3.2901   14.0597 F   0  0  0  0  0  0  0  0  0  0  0  0
  -10.1982   -1.9409   15.2669 F   0  0  0  0  0  0  0  0  0  0  0  0
 18 19  1  0  0  0
 19 20  1  0  0  0
 20 21  1  0  0  0
 21 22  1  0  0  0
 22 23  1  0  0  0
 23 24  1  0  0  0
 24 10  1  0  0  0
 10 11  1  0  0  0
 11 12  2  0  0  0
 11 13  1  0  0  0
 13 14  1  0  0  0
 14 15  2  0  0  0
 15  1  1  0  0  0
  1  2  2  0  0  0
  2  3  1  0  0  0
  3  4  2  0  0  0
  4  5  1  0  0  0
  5 26  1  0  0  0
 26 27  1  0  0  0
 27 28  2  0  0  0
 28 29  1  0  0  0
 29 30  2  0  0  0
 30 31  1  0  0  0
 30 32  1  0  0  0
 32 33  2  0  0  0
 33 34  1  0  0  0
 34 35  1  0  0  0
 34 36  1  0  0  0
 34 37  1  0  0  0
  5  6  1  0  0  0
  6  7  2  0  0  0
  7  8  1  0  0  0
  8  9  2  0  0  0
 14 16  1  0  0  0
 16 17  2  0  0  0
 24 19  1  0  0  0
 16 10  1  0  0  0
  9  1  1  0  0  0
  8  4  1  0  0  0
 33 27  1  0  0  0
 21 25  1  0  0  0
M  END
> <minimizedAffinity>
12.71663

> <CNNscore>
0.5100105405

> <CNNaffinity>
6.7690458298

> <CNN_VS>
3.4522848129

> <CNNaffinity_variance>
1.0719159842

$$$$
[H]/C(=C1/SC(=O)N([C@]2([H])C([H])([H])C([H])([H])N([H])C([H])([H])[C@@]2([H])F)C1=O)c1c([H])c([H])c2c(c([H])nn2C([H])([H])c2c([H])c([H])c(Cl)c([H])c2C(F)(F)F)c1[H]


 37 41  0  0  0  0  0  0  0  0999 V2000
  -13.9236   -7.1667    9.9944 C   0  0  0  0  0  0  0  0  0  0  0  0
  -13.7931   -7.6151   11.3069 C   0  0  0  0  0  0  0  0  0  0  0  0
  -12.8118   -7.1744   12.1569 C   0  0  0  0  0  0  0  0  0  0  0  0
  -11.8713   -6.2332   11.7435 C   0  0  0  0  0  0  0  0  0  0  0  0
  -10.8606   -5.6062   12.3211 N   0  0  0  0  0  0  0  0  0  0  0  0
  -10.3413   -4.7590   11.4075 N   0  0  0  0  0  0  0  0  0  0  0  0
  -11.0159   -4.8620   10.2854 C   0  0  0  0  0  0  0  0  0  0  0  0
  -12.0094   -5.7977   10.4519 C   0  0  0  0  0  0  0  0  0  0  0  0
  -13.0124   -6.2490    9.5823 C   0  0  0  0  0  0  0  0  0  0  0  0
  -16.1460   -7.3235    5.7545 N   0  0  0  0  0  0  0  0  0  0  0  0
  -14.9696   -6.5846    5.5095 C   0  0  0  0  0  0  0  0  0  0  0  0
  -14.2808   -6.3636    4.4946 O   0  0  0  0  0  0  0  0  0  0  0  0
  -14.5502   -5.9052    7.1386 S   0  0  0  0  0  0  0  0  0  0  0  0
  -15.3343   -7.2814    8.0294 C   0  0  0  0  0  0  0  0  0  0  0  0
  -15.0046   -7.7262    9.2026 C   0  0  0  0  0  0  0  0  0  0  0  0
  -16.3585   -7.7034    7.0901 C   0  0  0  0  0  0  0  0  0  0  0  0
  -17.3779   -8.3794    7.4927 O   0  0  0  0  0  0  0  0  0  0  0  0
  -18.2331   -5.5605    4.7593 F   0  0  0  0  0  0  0  0  0  0  0  0
  -17.5864   -6.4593    3.9343 C   0  0  0  0  0  0  0  0  0  0  0  0
  -18.6056   -6.9479    2.9175 C   0  0  0  0  0  0  0  0  0  0  0  0
  -17.8559   -7.6862    1.9039 N   0  0  0  0  0  0  0  0  0  0  0  0
  -17.3011   -8.8743    2.5520 C   0  0  0  0  0  0  0  0  0  0  0  0
  -16.2957   -8.4883    3.6110 C   0  0  0  0  0  0  0  0  0  0  0  0
  -17.0530   -7.6578    4.6356 C   0  0  0  0  0  0  0  0  0  0  0  0
  -17.0047   -7.0814    1.6921 H   0  0  0  0  0  0  0  0  0  0  0  0
  -10.2671   -5.7755   13.6431 C   0  0  0  0  0  0  0  0  0  0  0  0
   -9.6875   -4.5746   14.2213 C   0  0  0  0  0  0  0  0  0  0  0  0
  -10.6817   -3.6526   14.7051 C   0  0  0  0  0  0  0  0  0  0  0  0
  -10.2914   -2.4776   15.2611 C   0  0  0  0  0  0  0  0  0  0  0  0
   -8.9611   -2.1394   15.3763 C   0  0  0  0  0  0  0  0  0  0  0  0
   -8.4849   -0.6044   16.1007 Cl  0  0  0  0  0  0  0  0  0  0  0  0
   -8.0178   -3.0171   14.9162 C   0  0  0  0  0  0  0  0  0  0  0  0
   -8.3762   -4.2574   14.3274 C   0  0  0  0  0  0  0  0  0  0  0  0
   -7.2860   -5.1233   13.8531 C   0  0  0  0  0  0  0  0  0  0  0  0
   -7.4001   -5.5394   12.5457 F   0  0  0  0  0  0  0  0  0  0  0  0
   -7.5349   -6.4001   14.5287 F   0  0  0  0  0  0  0  0  0  0  0  0
   -6.0422   -4.8351   14.2678 F   0  0  0  0  0  0  0  0  0  0  0  0
 18 19  1  0  0  0
 19 20  1  0  0  0
 20 21  1  0  0  0
 21 22  1  0  0  0
 22 23  1  0  0  0
 23 24  1  0  0  0
 24 10  1  0  0  0
 10 11  1  0  0  0
 11 12  2  0  0  0
 11 13  1  0  0  0
 13 14  1  0  0  0
 14 15  2  0  0  0
 15  1  1  0  0  0
  1  2  2  0  0  0
  2  3  1  0  0  0
  3  4  2  0  0  0
  4  5  1  0  0  0
  5 26  1  0  0  0
 26 27  1  0  0  0
 27 28  2  0  0  0
 28 29  1  0  0  0
 29 30  2  0  0  0
 30 31  1  0  0  0
 30 32  1  0  0  0
 32 33  2  0  0  0
 33 34  1  0  0  0
 34 35  1  0  0  0
 34 36  1  0  0  0
 34 37  1  0  0  0
  5  6  1  0  0  0
  6  7  2  0  0  0
  7  8  1  0  0  0
  8  9  2  0  0  0
 14 16  1  0  0  0
 16 17  2  0  0  0
 24 19  1  0  0  0
 16 10  1  0  0  0
  9  1  1  0  0  0
  8  4  1  0  0  0
 33 27  1  0  0  0
 21 25  1  0  0  0
M  END
> <minimizedAffinity>
15.03490

> <CNNscore>
0.4936966598

> <CNNaffinity>
6.7735776901

> <CNN_VS>
3.3440926075

> <CNNaffinity_variance>
1.0602194071

$$$$
[H]/C(=C1/SC(=O)N([C@]2([H])C([H])([H])C([H])([H])N([H])C([H])([H])[C@@]2([H])F)C1=O)c1c([H])c([H])c2c(c([H])nn2C([H])([H])c2c([H])c([H])c(Cl)c([H])c2C(F)(F)F)c1[H]


 37 41  0  0  0  0  0  0  0  0999 V2000
   -7.9360   -7.8684    8.1819 C   0  0  0  0  0  0  0  0  0  0  0  0
   -9.0939   -7.3644    8.7701 C   0  0  0  0  0  0  0  0  0  0  0  0
  -10.3368   -7.9061    8.5661 C   0  0  0  0  0  0  0  0  0  0  0  0
  -10.5116   -9.0148    7.7406 C   0  0  0  0  0  0  0  0  0  0  0  0
  -11.5430   -9.7622    7.3857 N   0  0  0  0  0  0  0  0  0  0  0  0
  -11.0706  -10.7407    6.5848 N   0  0  0  0  0  0  0  0  0  0  0  0
   -9.7725  -10.5996    6.4445 C   0  0  0  0  0  0  0  0  0  0  0  0
   -9.3667   -9.5035    7.1684 C   0  0  0  0  0  0  0  0  0  0  0  0
   -8.0958   -8.9489    7.3763 C   0  0  0  0  0  0  0  0  0  0  0  0
   -4.2327   -5.3353    6.5057 N   0  0  0  0  0  0  0  0  0  0  0  0
   -5.1381   -5.3941    5.4256 C   0  0  0  0  0  0  0  0  0  0  0  0
   -5.3408   -4.6794    4.4249 O   0  0  0  0  0  0  0  0  0  0  0  0
   -6.1061   -6.8902    5.7665 S   0  0  0  0  0  0  0  0  0  0  0  0
   -5.8764   -6.7545    7.5640 C   0  0  0  0  0  0  0  0  0  0  0  0
   -6.6872   -7.1895    8.4785 C   0  0  0  0  0  0  0  0  0  0  0  0
   -4.6075   -6.0536    7.6533 C   0  0  0  0  0  0  0  0  0  0  0  0
   -3.9022   -6.1104    8.7292 O   0  0  0  0  0  0  0  0  0  0  0  0
   -2.1356   -5.8689    4.5635 F   0  0  0  0  0  0  0  0  0  0  0  0
   -2.3931   -4.5924    5.0229 C   0  0  0  0  0  0  0  0  0  0  0  0
   -1.0612   -3.8624    5.0877 C   0  0  0  0  0  0  0  0  0  0  0  0
   -1.3735   -2.4541    5.3200 N   0  0  0  0  0  0  0  0  0  0  0  0
   -1.9757   -2.3552    6.6493 C   0  0  0  0  0  0  0  0  0  0  0  0
   -3.2972   -3.0853    6.6958 C   0  0  0  0  0  0  0  0  0  0  0  0
   -2.9908   -4.5420    6.3842 C   0  0  0  0  0  0  0  0  0  0  0  0
   -2.1738   -2.2329    4.6524 H   0  0  0  0  0  0  0  0  0  0  0  0
  -12.9676   -9.6090    7.6607 C   0  0  0  0  0  0  0  0  0  0  0  0
  -13.6001   -8.4598    7.0346 C   0  0  0  0  0  0  0  0  0  0  0  0
  -13.8144   -8.6415    5.6227 C   0  0  0  0  0  0  0  0  0  0  0  0
  -14.3857   -7.6459    4.8984 C   0  0  0  0  0  0  0  0  0  0  0  0
  -14.7689   -6.4576    5.4800 C   0  0  0  0  0  0  0  0  0  0  0  0
  -15.5061   -5.1816    4.5125 Cl  0  0  0  0  0  0  0  0  0  0  0  0
  -14.5646   -6.2869    6.8221 C   0  0  0  0  0  0  0  0  0  0  0  0
  -13.9713   -7.2982    7.6214 C   0  0  0  0  0  0  0  0  0  0  0  0
  -13.7842   -7.0098    9.0514 C   0  0  0  0  0  0  0  0  0  0  0  0
  -12.8666   -7.8120    9.6917 F   0  0  0  0  0  0  0  0  0  0  0  0
  -15.0119   -7.5147    9.6732 F   0  0  0  0  0  0  0  0  0  0  0  0
  -13.7985   -5.7219    9.4298 F   0  0  0  0  0  0  0  0  0  0  0  0
 18 19  1  0  0  0
 19 20  1  0  0  0
 20 21  1  0  0  0
 21 22  1  0  0  0
 22 23  1  0  0  0
 23 24  1  0  0  0
 24 10  1  0  0  0
 10 11  1  0  0  0
 11 12  2  0  0  0
 11 13  1  0  0  0
 13 14  1  0  0  0
 14 15  2  0  0  0
 15  1  1  0  0  0
  1  2  2  0  0  0
  2  3  1  0  0  0
  3  4  2  0  0  0
  4  5  1  0  0  0
  5 26  1  0  0  0
 26 27  1  0  0  0
 27 28  2  0  0  0
 28 29  1  0  0  0
 29 30  2  0  0  0
 30 31  1  0  0  0
 30 32  1  0  0  0
 32 33  2  0  0  0
 33 34  1  0  0  0
 34 35  1  0  0  0
 34 36  1  0  0  0
 34 37  1  0  0  0
  5  6  1  0  0  0
  6  7  2  0  0  0
  7  8  1  0  0  0
  8  9  2  0  0  0
 14 16  1  0  0  0
 16 17  2  0  0  0
 24 19  1  0  0  0
 16 10  1  0  0  0
  9  1  1  0  0  0
  8  4  1  0  0  0
 33 27  1  0  0  0
 21 25  1  0  0  0
M  END
> <minimizedAffinity>
-8.52680

> <CNNscore>
0.3655438423

> <CNNaffinity>
7.1389970779

> <CNN_VS>
2.6096165180

> <CNNaffinity_variance>
0.1951501071

$$$$
[H]/C(=C1/SC(=O)N([C@]2([H])C([H])([H])C([H])([H])N([H])C([H])([H])[C@@]2([H])F)C1=O)c1c([H])c([H])c2c(c([H])nn2C([H])([H])c2c([H])c([H])c(Cl)c([H])c2C(F)(F)F)c1[H]


 37 41  0  0  0  0  0  0  0  0999 V2000
   -9.0864   -9.2267    7.4023 C   0  0  0  0  0  0  0  0  0  0  0  0
   -9.3900   -8.2989    8.3962 C   0  0  0  0  0  0  0  0  0  0  0  0
  -10.6661   -8.0624    8.8383 C   0  0  0  0  0  0  0  0  0  0  0  0
  -11.7519   -8.7533    8.3045 C   0  0  0  0  0  0  0  0  0  0  0  0
  -13.0531   -8.7736    8.5385 N   0  0  0  0  0  0  0  0  0  0  0  0
  -13.5922   -9.7003    7.7184 N   0  0  0  0  0  0  0  0  0  0  0  0
  -12.6433  -10.2408    6.9889 C   0  0  0  0  0  0  0  0  0  0  0  0
  -11.4424   -9.6643    7.3290 C   0  0  0  0  0  0  0  0  0  0  0  0
  -10.1375   -9.9054    6.8763 C   0  0  0  0  0  0  0  0  0  0  0  0
   -4.8236   -7.1077    6.8738 N   0  0  0  0  0  0  0  0  0  0  0  0
   -5.6164   -6.1463    7.5348 C   0  0  0  0  0  0  0  0  0  0  0  0
   -5.3642   -5.1769    8.2764 O   0  0  0  0  0  0  0  0  0  0  0  0
   -7.3098   -6.6047    7.0727 S   0  0  0  0  0  0  0  0  0  0  0  0
   -6.8892   -8.3605    6.8673 C   0  0  0  0  0  0  0  0  0  0  0  0
   -7.6913   -9.3678    7.0250 C   0  0  0  0  0  0  0  0  0  0  0  0
   -5.4831   -8.2934    6.5096 C   0  0  0  0  0  0  0  0  0  0  0  0
   -4.9147   -9.2753    5.9004 O   0  0  0  0  0  0  0  0  0  0  0  0
   -2.7367   -9.1314    6.9363 F   0  0  0  0  0  0  0  0  0  0  0  0
   -2.6487   -8.0216    6.1194 C   0  0  0  0  0  0  0  0  0  0  0  0
   -1.1803   -7.6351    6.0452 C   0  0  0  0  0  0  0  0  0  0  0  0
   -1.0697   -6.6359    4.9850 N   0  0  0  0  0  0  0  0  0  0  0  0
   -1.7985   -5.4478    5.4286 C   0  0  0  0  0  0  0  0  0  0  0  0
   -3.2733   -5.7431    5.5669 C   0  0  0  0  0  0  0  0  0  0  0  0
   -3.3930   -6.8345    6.6192 C   0  0  0  0  0  0  0  0  0  0  0  0
   -1.6552   -7.0177    4.1809 H   0  0  0  0  0  0  0  0  0  0  0  0
  -13.8748   -7.9444    9.4136 C   0  0  0  0  0  0  0  0  0  0  0  0
  -13.1487   -7.2211   10.4442 C   0  0  0  0  0  0  0  0  0  0  0  0
  -13.1013   -7.9309   11.6957 C   0  0  0  0  0  0  0  0  0  0  0  0
  -12.4670   -7.3734   12.7583 C   0  0  0  0  0  0  0  0  0  0  0  0
  -11.8630   -6.1385   12.6728 C   0  0  0  0  0  0  0  0  0  0  0  0
  -11.0489   -5.4389   14.0712 Cl  0  0  0  0  0  0  0  0  0  0  0  0
  -11.9089   -5.4655   11.4824 C   0  0  0  0  0  0  0  0  0  0  0  0
  -12.5598   -6.0067   10.3436 C   0  0  0  0  0  0  0  0  0  0  0  0
  -12.5633   -5.1971    9.1157 C   0  0  0  0  0  0  0  0  0  0  0  0
  -13.7477   -4.5471    8.8506 F   0  0  0  0  0  0  0  0  0  0  0  0
  -12.5961   -6.1929    8.0406 F   0  0  0  0  0  0  0  0  0  0  0  0
  -11.4447   -4.5162    8.8205 F   0  0  0  0  0  0  0  0  0  0  0  0
 18 19  1  0  0  0
 19 20  1  0  0  0
 20 21  1  0  0  0
 21 22  1  0  0  0
 22 23  1  0  0  0
 23 24  1  0  0  0
 24 10  1  0  0  0
 10 11  1  0  0  0
 11 12  2  0  0  0
 11 13  1  0  0  0
 13 14  1  0  0  0
 14 15  2  0  0  0
 15  1  1  0  0  0
  1  2  2  0  0  0
  2  3  1  0  0  0
  3  4  2  0  0  0
  4  5  1  0  0  0
  5 26  1  0  0  0
 26 27  1  0  0  0
 27 28  2  0  0  0
 28 29  1  0  0  0
 29 30  2  0  0  0
 30 31  1  0  0  0
 30 32  1  0  0  0
 32 33  2  0  0  0
 33 34  1  0  0  0
 34 35  1  0  0  0
 34 36  1  0  0  0
 34 37  1  0  0  0
  5  6  1  0  0  0
  6  7  2  0  0  0
  7  8  1  0  0  0
  8  9  2  0  0  0
 14 16  1  0  0  0
 16 17  2  0  0  0
 24 19  1  0  0  0
 16 10  1  0  0  0
  9  1  1  0  0  0
  8  4  1  0  0  0
 33 27  1  0  0  0
 21 25  1  0  0  0
M  END
> <minimizedAffinity>
2.49332

> <CNNscore>
0.3582218885

> <CNNaffinity>
6.6980452538

> <CNN_VS>
2.3993864059

> <CNNaffinity_variance>
0.2845680416

$$$$
[H]/C(=C1/SC(=O)N([C@]2([H])C([H])([H])C([H])([H])N([H])C([H])([H])[C@@]2([H])F)C1=O)c1c([H])c([H])c2c(c([H])nn2C([H])([H])c2c([H])c([H])c(Cl)c([H])c2C(F)(F)F)c1[H]


 37 41  0  0  0  0  0  0  0  0999 V2000
  -15.6125   -8.2984    8.1826 C   0  0  0  0  0  0  0  0  0  0  0  0
  -16.3418   -8.4462    9.3602 C   0  0  0  0  0  0  0  0  0  0  0  0
  -15.7939   -8.9050   10.5303 C   0  0  0  0  0  0  0  0  0  0  0  0
  -14.4476   -9.2558   10.6051 C   0  0  0  0  0  0  0  0  0  0  0  0
  -13.6449   -9.6819   11.5657 N   0  0  0  0  0  0  0  0  0  0  0  0
  -12.4120   -9.8059   11.0304 N   0  0  0  0  0  0  0  0  0  0  0  0
  -12.4516   -9.4661    9.7625 C   0  0  0  0  0  0  0  0  0  0  0  0
  -13.7391   -9.1053    9.4422 C   0  0  0  0  0  0  0  0  0  0  0  0
  -14.2997   -8.6370    8.2454 C   0  0  0  0  0  0  0  0  0  0  0  0
  -15.6625   -5.2685    4.4734 N   0  0  0  0  0  0  0  0  0  0  0  0
  -14.3611   -5.1539    5.0055 C   0  0  0  0  0  0  0  0  0  0  0  0
  -13.2599   -4.8081    4.5352 O   0  0  0  0  0  0  0  0  0  0  0  0
  -14.5654   -5.6626    6.7350 S   0  0  0  0  0  0  0  0  0  0  0  0
  -15.9734   -6.7476    6.3579 C   0  0  0  0  0  0  0  0  0  0  0  0
  -16.3236   -7.8104    7.0143 C   0  0  0  0  0  0  0  0  0  0  0  0
  -16.5361   -6.1121    5.1794 C   0  0  0  0  0  0  0  0  0  0  0  0
  -17.7578   -6.3322    4.8368 O   0  0  0  0  0  0  0  0  0  0  0  0
  -18.1431   -5.6542    3.0063 F   0  0  0  0  0  0  0  0  0  0  0  0
  -17.4909   -4.4372    3.0241 C   0  0  0  0  0  0  0  0  0  0  0  0
  -17.7039   -3.7947    1.6629 C   0  0  0  0  0  0  0  0  0  0  0  0
  -17.2395   -2.4144    1.7810 N   0  0  0  0  0  0  0  0  0  0  0  0
  -15.7950   -2.4588    2.0069 C   0  0  0  0  0  0  0  0  0  0  0  0
  -15.4784   -3.1166    3.3292 C   0  0  0  0  0  0  0  0  0  0  0  0
  -16.0225   -4.5341    3.2416 C   0  0  0  0  0  0  0  0  0  0  0  0
  -17.6389   -2.0647    2.7047 H   0  0  0  0  0  0  0  0  0  0  0  0
  -13.9318  -10.0676   12.9432 C   0  0  0  0  0  0  0  0  0  0  0  0
  -13.3977  -11.3565   13.3504 C   0  0  0  0  0  0  0  0  0  0  0  0
  -14.0986  -12.4641   12.7550 C   0  0  0  0  0  0  0  0  0  0  0  0
  -13.7209  -13.7334   13.0521 C   0  0  0  0  0  0  0  0  0  0  0  0
  -12.6785  -13.9942   13.9138 C   0  0  0  0  0  0  0  0  0  0  0  0
  -12.2127  -15.6539   14.2826 Cl  0  0  0  0  0  0  0  0  0  0  0  0
  -12.0134  -12.9402   14.4785 C   0  0  0  0  0  0  0  0  0  0  0  0
  -12.3709  -11.5958   14.1990 C   0  0  0  0  0  0  0  0  0  0  0  0
  -11.6009  -10.5361   14.8678 C   0  0  0  0  0  0  0  0  0  0  0  0
  -12.0387  -10.2076   16.1311 F   0  0  0  0  0  0  0  0  0  0  0  0
  -11.9958   -9.3160   14.1577 F   0  0  0  0  0  0  0  0  0  0  0  0
  -10.2701  -10.5335   14.6918 F   0  0  0  0  0  0  0  0  0  0  0  0
 18 19  1  0  0  0
 19 20  1  0  0  0
 20 21  1  0  0  0
 21 22  1  0  0  0
 22 23  1  0  0  0
 23 24  1  0  0  0
 24 10  1  0  0  0
 10 11  1  0  0  0
 11 12  2  0  0  0
 11 13  1  0  0  0
 13 14  1  0  0  0
 14 15  2  0  0  0
 15  1  1  0  0  0
  1  2  2  0  0  0
  2  3  1  0  0  0
  3  4  2  0  0  0
  4  5  1  0  0  0
  5 26  1  0  0  0
 26 27  1  0  0  0
 27 28  2  0  0  0
 28 29  1  0  0  0
 29 30  2  0  0  0
 30 31  1  0  0  0
 30 32  1  0  0  0
 32 33  2  0  0  0
 33 34  1  0  0  0
 34 35  1  0  0  0
 34 36  1  0  0  0
 34 37  1  0  0  0
  5  6  1  0  0  0
  6  7  2  0  0  0
  7  8  1  0  0  0
  8  9  2  0  0  0
 14 16  1  0  0  0
 16 17  2  0  0  0
 24 19  1  0  0  0
 16 10  1  0  0  0
  9  1  1  0  0  0
  8  4  1  0  0  0
 33 27  1  0  0  0
 21 25  1  0  0  0
M  END
> <minimizedAffinity>
48.13943

> <CNNscore>
0.3566391468

> <CNNaffinity>
6.2223024368

> <CNN_VS>
2.2191166878

> <CNNaffinity_variance>
0.9191020727

$$$$
[H]/C(=C1/SC(=O)N([C@]2([H])C([H])([H])C([H])([H])N([H])C([H])([H])[C@@]2([H])F)C1=O)c1c([H])c([H])c2c(c([H])nn2C([H])([H])c2c([H])c([H])c(Cl)c([H])c2C(F)(F)F)c1[H]


 37 41  0  0  0  0  0  0  0  0999 V2000
   -9.2449   -6.2844    6.4219 C   0  0  0  0  0  0  0  0  0  0  0  0
   -8.8043   -6.5708    7.7121 C   0  0  0  0  0  0  0  0  0  0  0  0
   -7.4837   -6.5386    8.0791 C   0  0  0  0  0  0  0  0  0  0  0  0
   -6.4894   -6.2103    7.1599 C   0  0  0  0  0  0  0  0  0  0  0  0
   -5.1765   -6.0637    7.2159 N   0  0  0  0  0  0  0  0  0  0  0  0
   -4.7641   -5.6833    5.9883 N   0  0  0  0  0  0  0  0  0  0  0  0
   -5.8015   -5.5990    5.1873 C   0  0  0  0  0  0  0  0  0  0  0  0
   -6.9334   -5.9289    5.8946 C   0  0  0  0  0  0  0  0  0  0  0  0
   -8.2838   -5.9628    5.5191 C   0  0  0  0  0  0  0  0  0  0  0  0
  -13.4481   -8.2141    7.6668 N   0  0  0  0  0  0  0  0  0  0  0  0
  -12.5607   -8.6108    8.6891 C   0  0  0  0  0  0  0  0  0  0  0  0
  -12.7057   -8.9445    9.8811 O   0  0  0  0  0  0  0  0  0  0  0  0
  -10.9357   -8.5518    7.8847 S   0  0  0  0  0  0  0  0  0  0  0  0
  -11.4442   -7.2533    6.7196 C   0  0  0  0  0  0  0  0  0  0  0  0
  -10.6728   -6.3663    6.1710 C   0  0  0  0  0  0  0  0  0  0  0  0
  -12.8727   -7.4908    6.6089 C   0  0  0  0  0  0  0  0  0  0  0  0
  -13.5331   -7.0515    5.5943 O   0  0  0  0  0  0  0  0  0  0  0  0
  -14.9844   -8.1381   10.1343 F   0  0  0  0  0  0  0  0  0  0  0  0
  -15.5683   -7.8953    8.9068 C   0  0  0  0  0  0  0  0  0  0  0  0
  -16.9830   -8.4488    8.9661 C   0  0  0  0  0  0  0  0  0  0  0  0
  -17.6678   -7.9596    7.7718 N   0  0  0  0  0  0  0  0  0  0  0  0
  -17.0198   -8.5767    6.6148 C   0  0  0  0  0  0  0  0  0  0  0  0
  -15.5880   -8.1122    6.4902 C   0  0  0  0  0  0  0  0  0  0  0  0
  -14.8835   -8.5555    7.7631 C   0  0  0  0  0  0  0  0  0  0  0  0
  -17.4038   -6.9298    7.7020 H   0  0  0  0  0  0  0  0  0  0  0  0
   -4.2364   -6.3224    8.3012 C   0  0  0  0  0  0  0  0  0  0  0  0
   -3.3788   -7.4812    8.1160 C   0  0  0  0  0  0  0  0  0  0  0  0
   -3.8380   -8.3529    7.0663 C   0  0  0  0  0  0  0  0  0  0  0  0
   -3.1450   -9.4855    6.7851 C   0  0  0  0  0  0  0  0  0  0  0  0
   -2.0065   -9.8275    7.4809 C   0  0  0  0  0  0  0  0  0  0  0  0
   -1.1292  -11.3069    7.0946 Cl  0  0  0  0  0  0  0  0  0  0  0  0
   -1.5716   -8.9977    8.4780 C   0  0  0  0  0  0  0  0  0  0  0  0
   -2.2617   -7.8028    8.8089 C   0  0  0  0  0  0  0  0  0  0  0  0
   -1.7185   -6.9873    9.9057 C   0  0  0  0  0  0  0  0  0  0  0  0
   -1.1891   -7.7030   10.9560 F   0  0  0  0  0  0  0  0  0  0  0  0
   -2.9119   -6.4497   10.5656 F   0  0  0  0  0  0  0  0  0  0  0  0
   -1.0623   -5.8638    9.5750 F   0  0  0  0  0  0  0  0  0  0  0  0
 18 19  1  0  0  0
 19 20  1  0  0  0
 20 21  1  0  0  0
 21 22  1  0  0  0
 22 23  1  0  0  0
 23 24  1  0  0  0
 24 10  1  0  0  0
 10 11  1  0  0  0
 11 12  2  0  0  0
 11 13  1  0  0  0
 13 14  1  0  0  0
 14 15  2  0  0  0
 15  1  1  0  0  0
  1  2  2  0  0  0
  2  3  1  0  0  0
  3  4  2  0  0  0
  4  5  1  0  0  0
  5 26  1  0  0  0
 26 27  1  0  0  0
 27 28  2  0  0  0
 28 29  1  0  0  0
 29 30  2  0  0  0
 30 31  1  0  0  0
 30 32  1  0  0  0
 32 33  2  0  0  0
 33 34  1  0  0  0
 34 35  1  0  0  0
 34 36  1  0  0  0
 34 37  1  0  0  0
  5  6  1  0  0  0
  6  7  2  0  0  0
  7  8  1  0  0  0
  8  9  2  0  0  0
 14 16  1  0  0  0
 16 17  2  0  0  0
 24 19  1  0  0  0
 16 10  1  0  0  0
  9  1  1  0  0  0
  8  4  1  0  0  0
 33 27  1  0  0  0
 21 25  1  0  0  0
M  END
> <minimizedAffinity>
4.24369

> <CNNscore>
0.3333407342

> <CNNaffinity>
6.5789275169

> <CNN_VS>
2.1930246353

> <CNNaffinity_variance>
1.6933406591

$$$$
[H]/C(=C1/SC(=O)N([C@]2([H])C([H])([H])C([H])([H])N([H])C([H])([H])[C@@]2([H])F)C1=O)c1c([H])c([H])c2c(c([H])nn2C([H])([H])c2c([H])c([H])c(Cl)c([H])c2C(F)(F)F)c1[H]


 37 41  0  0  0  0  0  0  0  0999 V2000
   -9.9203   -6.4623    6.8353 C   0  0  0  0  0  0  0  0  0  0  0  0
  -10.3440   -7.5451    7.6026 C   0  0  0  0  0  0  0  0  0  0  0  0
  -11.6580   -7.9214    7.7092 C   0  0  0  0  0  0  0  0  0  0  0  0
  -12.6624   -7.2248    7.0404 C   0  0  0  0  0  0  0  0  0  0  0  0
  -13.9721   -7.3599    6.9198 N   0  0  0  0  0  0  0  0  0  0  0  0
  -14.3989   -6.3886    6.0854 N   0  0  0  0  0  0  0  0  0  0  0  0
  -13.3734   -5.6645    5.6996 C   0  0  0  0  0  0  0  0  0  0  0  0
  -12.2349   -6.1629    6.2875 C   0  0  0  0  0  0  0  0  0  0  0  0
  -10.8912   -5.7775    6.1793 C   0  0  0  0  0  0  0  0  0  0  0  0
   -5.4785   -8.0364    7.6918 N   0  0  0  0  0  0  0  0  0  0  0  0
   -6.2908   -9.1821    7.8235 C   0  0  0  0  0  0  0  0  0  0  0  0
   -6.0868  -10.4066    7.7113 O   0  0  0  0  0  0  0  0  0  0  0  0
   -7.9188   -8.5001    8.2428 S   0  0  0  0  0  0  0  0  0  0  0  0
   -7.6061   -6.9397    7.3657 C   0  0  0  0  0  0  0  0  0  0  0  0
   -8.4977   -6.1711    6.8206 C   0  0  0  0  0  0  0  0  0  0  0  0
   -6.1601   -6.8325    7.4482 C   0  0  0  0  0  0  0  0  0  0  0  0
   -5.5784   -5.6929    7.3022 O   0  0  0  0  0  0  0  0  0  0  0  0
   -3.7776   -9.1865    5.6330 F   0  0  0  0  0  0  0  0  0  0  0  0
   -3.3243   -8.1946    6.4799 C   0  0  0  0  0  0  0  0  0  0  0  0
   -1.8520   -8.4680    6.7425 C   0  0  0  0  0  0  0  0  0  0  0  0
   -1.3264   -7.2834    7.4172 N   0  0  0  0  0  0  0  0  0  0  0  0
   -1.9810   -7.1994    8.7226 C   0  0  0  0  0  0  0  0  0  0  0  0
   -3.4643   -6.9620    8.5651 C   0  0  0  0  0  0  0  0  0  0  0  0
   -4.0089   -8.1583    7.8000 C   0  0  0  0  0  0  0  0  0  0  0  0
   -1.7194   -6.4560    6.8730 H   0  0  0  0  0  0  0  0  0  0  0  0
  -14.8982   -8.2751    7.5782 C   0  0  0  0  0  0  0  0  0  0  0  0
  -16.1845   -8.4353    6.9208 C   0  0  0  0  0  0  0  0  0  0  0  0
  -17.2940   -8.3249    7.8314 C   0  0  0  0  0  0  0  0  0  0  0  0
  -18.5606   -8.4657    7.3643 C   0  0  0  0  0  0  0  0  0  0  0  0
  -18.8166   -8.7133    6.0337 C   0  0  0  0  0  0  0  0  0  0  0  0
  -20.4726   -8.8941    5.4570 Cl  0  0  0  0  0  0  0  0  0  0  0  0
  -17.7608   -8.8176    5.1698 C   0  0  0  0  0  0  0  0  0  0  0  0
  -16.4191   -8.6781    5.6103 C   0  0  0  0  0  0  0  0  0  0  0  0
  -15.3564   -8.8207    4.6035 C   0  0  0  0  0  0  0  0  0  0  0  0
  -15.1901   -7.7339    3.7749 F   0  0  0  0  0  0  0  0  0  0  0  0
  -15.9160   -9.7698    3.6368 F   0  0  0  0  0  0  0  0  0  0  0  0
  -14.2298   -9.4475    4.9778 F   0  0  0  0  0  0  0  0  0  0  0  0
 18 19  1  0  0  0
 19 20  1  0  0  0
 20 21  1  0  0  0
 21 22  1  0  0  0
 22 23  1  0  0  0
 23 24  1  0  0  0
 24 10  1  0  0  0
 10 11  1  0  0  0
 11 12  2  0  0  0
 11 13  1  0  0  0
 13 14  1  0  0  0
 14 15  2  0  0  0
 15  1  1  0  0  0
  1  2  2  0  0  0
  2  3  1  0  0  0
  3  4  2  0  0  0
  4  5  1  0  0  0
  5 26  1  0  0  0
 26 27  1  0  0  0
 27 28  2  0  0  0
 28 29  1  0  0  0
 29 30  2  0  0  0
 30 31  1  0  0  0
 30 32  1  0  0  0
 32 33  2  0  0  0
 33 34  1  0  0  0
 34 35  1  0  0  0
 34 36  1  0  0  0
 34 37  1  0  0  0
  5  6  1  0  0  0
  6  7  2  0  0  0
  7  8  1  0  0  0
  8  9  2  0  0  0
 14 16  1  0  0  0
 16 17  2  0  0  0
 24 19  1  0  0  0
 16 10  1  0  0  0
  9  1  1  0  0  0
  8  4  1  0  0  0
 33 27  1  0  0  0
 21 25  1  0  0  0
M  END
> <minimizedAffinity>
10.41654

> <CNNscore>
0.3316926360

> <CNNaffinity>
6.4784784317

> <CNN_VS>
2.1488635540

> <CNNaffinity_variance>
1.4020191431

$$$$
[H]/C(=C1/SC(=O)N([C@]2([H])C([H])([H])C([H])([H])N([H])C([H])([H])[C@@]2([H])F)C1=O)c1c([H])c([H])c2c(c([H])nn2C([H])([H])c2c([H])c([H])c(Cl)c([H])c2C(F)(F)F)c1[H]


 37 41  0  0  0  0  0  0  0  0999 V2000
  -10.5059   -7.6235    8.6131 C   0  0  0  0  0  0  0  0  0  0  0  0
  -11.4668   -6.6406    8.8393 C   0  0  0  0  0  0  0  0  0  0  0  0
  -12.7877   -6.7902    8.5037 C   0  0  0  0  0  0  0  0  0  0  0  0
  -13.2495   -7.9602    7.9046 C   0  0  0  0  0  0  0  0  0  0  0  0
  -14.4305   -8.4044    7.5093 N   0  0  0  0  0  0  0  0  0  0  0  0
  -14.2494   -9.6562    7.0379 N   0  0  0  0  0  0  0  0  0  0  0  0
  -12.9803   -9.9792    7.1370 C   0  0  0  0  0  0  0  0  0  0  0  0
  -12.2971   -8.9210    7.6879 C   0  0  0  0  0  0  0  0  0  0  0  0
  -10.9461   -8.7675    8.0303 C   0  0  0  0  0  0  0  0  0  0  0  0
   -5.9855   -6.8544    7.2294 N   0  0  0  0  0  0  0  0  0  0  0  0
   -6.7246   -6.8706    6.0281 C   0  0  0  0  0  0  0  0  0  0  0  0
   -6.5491   -6.3798    4.8959 O   0  0  0  0  0  0  0  0  0  0  0  0
   -8.1864   -7.8613    6.4445 S   0  0  0  0  0  0  0  0  0  0  0  0
   -8.1308   -7.3945    8.1998 C   0  0  0  0  0  0  0  0  0  0  0  0
   -9.1412   -7.3265    9.0106 C   0  0  0  0  0  0  0  0  0  0  0  0
   -6.7161   -7.1315    8.3968 C   0  0  0  0  0  0  0  0  0  0  0  0
   -6.2029   -7.1591    9.5775 O   0  0  0  0  0  0  0  0  0  0  0  0
   -3.8987   -8.8402    6.8340 F   0  0  0  0  0  0  0  0  0  0  0  0
   -3.7448   -7.5319    6.4201 C   0  0  0  0  0  0  0  0  0  0  0  0
   -2.2784   -7.1741    6.6013 C   0  0  0  0  0  0  0  0  0  0  0  0
   -2.0793   -5.8946    5.9246 N   0  0  0  0  0  0  0  0  0  0  0  0
   -2.8535   -4.8909    6.6543 C   0  0  0  0  0  0  0  0  0  0  0  0
   -4.3327   -5.1821    6.5618 C   0  0  0  0  0  0  0  0  0  0  0  0
   -4.5395   -6.5465    7.2011 C   0  0  0  0  0  0  0  0  0  0  0  0
   -2.5868   -5.9909    4.9928 H   0  0  0  0  0  0  0  0  0  0  0  0
  -15.7271   -7.7377    7.4534 C   0  0  0  0  0  0  0  0  0  0  0  0
  -16.2662   -7.5405    6.1182 C   0  0  0  0  0  0  0  0  0  0  0  0
  -17.4321   -8.3454    5.8628 C   0  0  0  0  0  0  0  0  0  0  0  0
  -18.0401   -8.2784    4.6512 C   0  0  0  0  0  0  0  0  0  0  0  0
  -17.5696   -7.4563    3.6512 C   0  0  0  0  0  0  0  0  0  0  0  0
  -18.3791   -7.3928    2.0865 Cl  0  0  0  0  0  0  0  0  0  0  0  0
  -16.4615   -6.6919    3.8959 C   0  0  0  0  0  0  0  0  0  0  0  0
  -15.7915   -6.7272    5.1462 C   0  0  0  0  0  0  0  0  0  0  0  0
  -14.6020   -5.8764    5.3025 C   0  0  0  0  0  0  0  0  0  0  0  0
  -14.7238   -4.8716    6.2359 F   0  0  0  0  0  0  0  0  0  0  0  0
  -14.5908   -5.0638    4.0826 F   0  0  0  0  0  0  0  0  0  0  0  0
  -13.4015   -6.4741    5.2411 F   0  0  0  0  0  0  0  0  0  0  0  0
 18 19  1  0  0  0
 19 20  1  0  0  0
 20 21  1  0  0  0
 21 22  1  0  0  0
 22 23  1  0  0  0
 23 24  1  0  0  0
 24 10  1  0  0  0
 10 11  1  0  0  0
 11 12  2  0  0  0
 11 13  1  0  0  0
 13 14  1  0  0  0
 14 15  2  0  0  0
 15  1  1  0  0  0
  1  2  2  0  0  0
  2  3  1  0  0  0
  3  4  2  0  0  0
  4  5  1  0  0  0
  5 26  1  0  0  0
 26 27  1  0  0  0
 27 28  2  0  0  0
 28 29  1  0  0  0
 29 30  2  0  0  0
 30 31  1  0  0  0
 30 32  1  0  0  0
 32 33  2  0  0  0
 33 34  1  0  0  0
 34 35  1  0  0  0
 34 36  1  0  0  0
 34 37  1  0  0  0
  5  6  1  0  0  0
  6  7  2  0  0  0
  7  8  1  0  0  0
  8  9  2  0  0  0
 14 16  1  0  0  0
 16 17  2  0  0  0
 24 19  1  0  0  0
 16 10  1  0  0  0
  9  1  1  0  0  0
  8  4  1  0  0  0
 33 27  1  0  0  0
 21 25  1  0  0  0
M  END
> <minimizedAffinity>
-7.39294

> <CNNscore>
0.3309730291

> <CNNaffinity>
7.1706757545

> <CNN_VS>
2.3733003139

> <CNNaffinity_variance>
0.1743843853

$$$$
[H]/C(=C1/SC(=O)N([C@]2([H])C([H])([H])C([H])([H])N([H])C([H])([H])[C@@]2([H])F)C1=O)c1c([H])c([H])c2c(c([H])nn2C([H])([H])c2c([H])c([H])c(Cl)c([H])c2C(F)(F)F)c1[H]


 37 41  0  0  0  0  0  0  0  0999 V2000
   -8.5035   -9.2182    7.0105 C   0  0  0  0  0  0  0  0  0  0  0  0
   -9.1629   -8.1875    7.6765 C   0  0  0  0  0  0  0  0  0  0  0  0
  -10.4936   -8.2350    8.0033 C   0  0  0  0  0  0  0  0  0  0  0  0
  -11.2748   -9.3421    7.6790 C   0  0  0  0  0  0  0  0  0  0  0  0
  -12.5342   -9.6893    7.8834 N   0  0  0  0  0  0  0  0  0  0  0  0
  -12.6969  -10.9256    7.3667 N   0  0  0  0  0  0  0  0  0  0  0  0
  -11.5608  -11.3343    6.8499 C   0  0  0  0  0  0  0  0  0  0  0  0
  -10.6165  -10.3506    7.0257 C   0  0  0  0  0  0  0  0  0  0  0  0
   -9.2559  -10.3015    6.6907 C   0  0  0  0  0  0  0  0  0  0  0  0
   -4.5530   -6.6120    7.7467 N   0  0  0  0  0  0  0  0  0  0  0  0
   -5.4835   -6.1151    8.6832 C   0  0  0  0  0  0  0  0  0  0  0  0
   -5.3819   -5.5281    9.7780 O   0  0  0  0  0  0  0  0  0  0  0  0
   -7.0883   -6.5218    7.9411 S   0  0  0  0  0  0  0  0  0  0  0  0
   -6.4305   -7.9673    7.0581 C   0  0  0  0  0  0  0  0  0  0  0  0
   -7.0934   -9.0297    6.7194 C   0  0  0  0  0  0  0  0  0  0  0  0
   -5.0381   -7.5985    6.8722 C   0  0  0  0  0  0  0  0  0  0  0  0
   -4.3282   -8.1608    5.9565 O   0  0  0  0  0  0  0  0  0  0  0  0
   -3.6200   -4.4402    6.0534 F   0  0  0  0  0  0  0  0  0  0  0  0
   -3.0661   -4.6835    7.2947 C   0  0  0  0  0  0  0  0  0  0  0  0
   -1.5873   -4.3439    7.1998 C   0  0  0  0  0  0  0  0  0  0  0  0
   -1.0732   -4.3538    8.5674 N   0  0  0  0  0  0  0  0  0  0  0  0
   -1.1613   -5.7297    9.0558 C   0  0  0  0  0  0  0  0  0  0  0  0
   -2.6017   -6.1741    9.1519 C   0  0  0  0  0  0  0  0  0  0  0  0
   -3.1664   -6.0986    7.7418 C   0  0  0  0  0  0  0  0  0  0  0  0
   -1.7986   -3.8249    9.1410 H   0  0  0  0  0  0  0  0  0  0  0  0
  -13.6466   -8.9384    8.4555 C   0  0  0  0  0  0  0  0  0  0  0  0
  -14.0956   -7.8003    7.6708 C   0  0  0  0  0  0  0  0  0  0  0  0
  -14.6157   -8.1808    6.3835 C   0  0  0  0  0  0  0  0  0  0  0  0
  -15.0620   -7.2230    5.5317 C   0  0  0  0  0  0  0  0  0  0  0  0
  -15.0309   -5.8872    5.8662 C   0  0  0  0  0  0  0  0  0  0  0  0
  -15.6153   -4.6656    4.7374 Cl  0  0  0  0  0  0  0  0  0  0  0  0
  -14.5365   -5.5276    7.0901 C   0  0  0  0  0  0  0  0  0  0  0  0
  -14.0584   -6.4920    8.0148 C   0  0  0  0  0  0  0  0  0  0  0  0
  -13.5353   -6.0000    9.2983 C   0  0  0  0  0  0  0  0  0  0  0  0
  -13.6318   -4.6391    9.4830 F   0  0  0  0  0  0  0  0  0  0  0  0
  -12.0815   -6.1144    9.1500 F   0  0  0  0  0  0  0  0  0  0  0  0
  -13.7569   -6.7542   10.3865 F   0  0  0  0  0  0  0  0  0  0  0  0
 18 19  1  0  0  0
 19 20  1  0  0  0
 20 21  1  0  0  0
 21 22  1  0  0  0
 22 23  1  0  0  0
 23 24  1  0  0  0
 24 10  1  0  0  0
 10 11  1  0  0  0
 11 12  2  0  0  0
 11 13  1  0  0  0
 13 14  1  0  0  0
 14 15  2  0  0  0
 15  1  1  0  0  0
  1  2  2  0  0  0
  2  3  1  0  0  0
  3  4  2  0  0  0
  4  5  1  0  0  0
  5 26  1  0  0  0
 26 27  1  0  0  0
 27 28  2  0  0  0
 28 29  1  0  0  0
 29 30  2  0  0  0
 30 31  1  0  0  0
 30 32  1  0  0  0
 32 33  2  0  0  0
 33 34  1  0  0  0
 34 35  1  0  0  0
 34 36  1  0  0  0
 34 37  1  0  0  0
  5  6  1  0  0  0
  6  7  2  0  0  0
  7  8  1  0  0  0
  8  9  2  0  0  0
 14 16  1  0  0  0
 16 17  2  0  0  0
 24 19  1  0  0  0
 16 10  1  0  0  0
  9  1  1  0  0  0
  8  4  1  0  0  0
 33 27  1  0  0  0
 21 25  1  0  0  0
M  END
> <minimizedAffinity>
-3.65802

> <CNNscore>
0.3120111227

> <CNNaffinity>
7.1663179398

> <CNN_VS>
2.2359709740

> <CNNaffinity_variance>
0.9388262630

$$$$
[H]Oc1c([H])c([H])c2c(c1[H])C([H])([H])C([H])([H])[C@]1([H])[C@]2([H])C([H])([H])C([H])([H])[C@]2(C([H])([H])[H])[C@@]([H])(O[H])C([H])([H])C([H])([H])[C@]21[H]


 22 25  0  0  0  0  0  0  0  0999 V2000
   -3.6132   -5.5765    5.7425 C   0  0  0  0  0  0  0  0  0  0  0  0
   -2.2354   -4.9637    5.8151 C   0  0  0  0  0  0  0  0  0  0  0  0
   -1.2750   -5.9723    6.3457 C   0  0  0  0  0  0  0  0  0  0  0  0
   -1.4869   -6.2566    7.7976 C   0  0  0  0  0  0  0  0  0  0  0  0
   -1.6650   -5.0212    8.6196 C   0  0  0  0  0  0  0  0  0  0  0  0
   -2.7679   -4.1327    8.0240 C   0  0  0  0  0  0  0  0  0  0  0  0
   -3.1037   -3.0499    8.9849 C   0  0  0  0  0  0  0  0  0  0  0  0
   -3.8415   -3.7094   10.1597 C   0  0  0  0  0  0  0  0  0  0  0  0
   -2.8935   -4.7021   10.7724 C   0  0  0  0  0  0  0  0  0  0  0  0
   -3.0363   -5.0206   12.1069 C   0  0  0  0  0  0  0  0  0  0  0  0
   -2.2061   -5.9256   12.7556 C   0  0  0  0  0  0  0  0  0  0  0  0
   -2.3769   -6.2281   14.1130 O   0  0  0  0  0  0  0  0  0  0  0  0
   -1.2084   -6.5129   12.0086 C   0  0  0  0  0  0  0  0  0  0  0  0
   -1.0600   -6.1981   10.6704 C   0  0  0  0  0  0  0  0  0  0  0  0
   -1.8866   -5.2992   10.0312 C   0  0  0  0  0  0  0  0  0  0  0  0
   -2.2558   -3.7080    6.7029 C   0  0  0  0  0  0  0  0  0  0  0  0
   -3.0933   -2.7918    5.9124 C   0  0  0  0  0  0  0  0  0  0  0  0
   -2.6676   -3.0777    4.4780 C   0  0  0  0  0  0  0  0  0  0  0  0
   -1.8649   -4.3572    4.5075 C   0  0  0  0  0  0  0  0  0  0  0  0
   -2.1977   -5.2157    3.4717 O   0  0  0  0  0  0  0  0  0  0  0  0
   -3.1246   -5.7647   14.6017 H   0  0  0  0  0  0  0  0  0  0  0  0
   -1.9851   -6.1599    3.7259 H   0  0  0  0  0  0  0  0  0  0  0  0
  2  1  1  0  0  0
  2  3  1  0  0  0
  3  4  1  0  0  0
  4  5  1  0  0  0
  5  6  1  0  0  0
  6  7  1  0  0  0
  7  8  1  0  0  0
  8  9  1  0  0  0
  9 10  2  0  0  0
 10 11  1  0  0  0
 11 12  1  0  0  0
 11 13  2  0  0  0
 13 14  1  0  0  0
 14 15  2  0  0  0
  6 16  1  0  0  0
 16 17  1  0  0  0
 17 18  1  0  0  0
 18 19  1  0  0  0
 19 20  1  0  0  0
 16  2  1  0  0  0
 19  2  1  0  0  0
 15  5  1  0  0  0
 15  9  1  0  0  0
 12 21  1  0  0  0
 20 22  1  0  0  0
M  END
> <minimizedAffinity>
-3.01803

> <CNNscore>
0.3928277194

> <CNNaffinity>
4.1578159332

> <CNN_VS>
1.6333053112

> <CNNaffinity_variance>
0.1890236139

$$$$
[H]Oc1c([H])c([H])c2c(c1[H])C([H])([H])C([H])([H])[C@]1([H])[C@]2([H])C([H])([H])C([H])([H])[C@]2(C([H])([H])[H])[C@@]([H])(O[H])C([H])([H])C([H])([H])[C@]21[H]


 22 25  0  0  0  0  0  0  0  0999 V2000
   -6.0366   -6.8770    6.1863 C   0  0  0  0  0  0  0  0  0  0  0  0
   -5.8655   -7.9251    7.2593 C   0  0  0  0  0  0  0  0  0  0  0  0
   -6.3640   -9.2349    6.7526 C   0  0  0  0  0  0  0  0  0  0  0  0
   -7.8523   -9.2690    6.6205 C   0  0  0  0  0  0  0  0  0  0  0  0
   -8.5621   -8.7107    7.8114 C   0  0  0  0  0  0  0  0  0  0  0  0
   -8.0302   -7.3088    8.1468 C   0  0  0  0  0  0  0  0  0  0  0  0
   -8.9130   -6.6740    9.1597 C   0  0  0  0  0  0  0  0  0  0  0  0
  -10.2349   -6.3400    8.4524 C   0  0  0  0  0  0  0  0  0  0  0  0
  -10.8145   -7.6394    7.9676 C   0  0  0  0  0  0  0  0  0  0  0  0
  -12.1814   -7.7401    7.8123 C   0  0  0  0  0  0  0  0  0  0  0  0
  -12.8031   -8.9010    7.3707 C   0  0  0  0  0  0  0  0  0  0  0  0
  -14.1947   -8.9718    7.2233 O   0  0  0  0  0  0  0  0  0  0  0  0
  -11.9944   -9.9790    7.0840 C   0  0  0  0  0  0  0  0  0  0  0  0
  -10.6236   -9.8845    7.2374 C   0  0  0  0  0  0  0  0  0  0  0  0
  -10.0113   -8.7301    7.6760 C   0  0  0  0  0  0  0  0  0  0  0  0
   -6.6173   -7.5103    8.5354 C   0  0  0  0  0  0  0  0  0  0  0  0
   -5.8555   -6.3265    8.9644 C   0  0  0  0  0  0  0  0  0  0  0  0
   -4.4137   -6.7053    8.6508 C   0  0  0  0  0  0  0  0  0  0  0  0
   -4.4661   -7.9288    7.7661 C   0  0  0  0  0  0  0  0  0  0  0  0
   -3.5747   -7.8559    6.7074 O   0  0  0  0  0  0  0  0  0  0  0  0
  -14.7282   -8.1491    7.4496 H   0  0  0  0  0  0  0  0  0  0  0  0
   -3.8926   -8.4280    5.9505 H   0  0  0  0  0  0  0  0  0  0  0  0
  2  1  1  0  0  0
  2  3  1  0  0  0
  3  4  1  0  0  0
  4  5  1  0  0  0
  5  6  1  0  0  0
  6  7  1  0  0  0
  7  8  1  0  0  0
  8  9  1  0  0  0
  9 10  2  0  0  0
 10 11  1  0  0  0
 11 12  1  0  0  0
 11 13  2  0  0  0
 13 14  1  0  0  0
 14 15  2  0  0  0
  6 16  1  0  0  0
 16 17  1  0  0  0
 17 18  1  0  0  0
 18 19  1  0  0  0
 19 20  1  0  0  0
 16  2  1  0  0  0
 19  2  1  0  0  0
 15  5  1  0  0  0
 15  9  1  0  0  0
 12 21  1  0  0  0
 20 22  1  0  0  0
M  END
> <minimizedAffinity>
-6.12596

> <CNNscore>
0.3569467962

> <CNNaffinity>
5.4100198746

> <CNN_VS>
1.9310892820

> <CNNaffinity_variance>
0.1373759955

$$$$
[H]Oc1c([H])c([H])c2c(c1[H])C([H])([H])C([H])([H])[C@]1([H])[C@]2([H])C([H])([H])C([H])([H])[C@]2(C([H])([H])[H])[C@@]([H])(O[H])C([H])([H])C([H])([H])[C@]21[H]


 22 25  0  0  0  0  0  0  0  0999 V2000
   -7.8716   -7.3943    6.0239 C   0  0  0  0  0  0  0  0  0  0  0  0
   -7.6555   -8.4215    7.1088 C   0  0  0  0  0  0  0  0  0  0  0  0
   -8.3348   -9.6918    6.7270 C   0  0  0  0  0  0  0  0  0  0  0  0
   -9.8243   -9.5864    6.7910 C   0  0  0  0  0  0  0  0  0  0  0  0
  -10.3148   -8.9272    8.0394 C   0  0  0  0  0  0  0  0  0  0  0  0
   -9.6170   -7.5737    8.2433 C   0  0  0  0  0  0  0  0  0  0  0  0
  -10.2950   -6.8270    9.3347 C   0  0  0  0  0  0  0  0  0  0  0  0
  -11.6633   -6.3885    8.7917 C   0  0  0  0  0  0  0  0  0  0  0  0
  -12.4187   -7.6400    8.4415 C   0  0  0  0  0  0  0  0  0  0  0  0
  -13.7976   -7.6133    8.4696 C   0  0  0  0  0  0  0  0  0  0  0  0
  -14.5762   -8.7216    8.1620 C   0  0  0  0  0  0  0  0  0  0  0  0
  -15.9756   -8.6626    8.1998 O   0  0  0  0  0  0  0  0  0  0  0  0
  -13.9150   -9.8805    7.8184 C   0  0  0  0  0  0  0  0  0  0  0  0
  -12.5330   -9.9138    7.7882 C   0  0  0  0  0  0  0  0  0  0  0  0
  -11.7648   -8.8111    8.0944 C   0  0  0  0  0  0  0  0  0  0  0  0
   -8.1893   -7.8985    8.4531 C   0  0  0  0  0  0  0  0  0  0  0  0
   -7.2721   -6.7812    8.7291 C   0  0  0  0  0  0  0  0  0  0  0  0
   -5.9257   -7.3061    8.2471 C   0  0  0  0  0  0  0  0  0  0  0  0
   -6.2073   -8.5447    7.4292 C   0  0  0  0  0  0  0  0  0  0  0  0
   -5.4621   -8.5895    6.2615 O   0  0  0  0  0  0  0  0  0  0  0  0
  -16.3967   -7.7860    8.4586 H   0  0  0  0  0  0  0  0  0  0  0  0
   -5.9291   -9.1506    5.5771 H   0  0  0  0  0  0  0  0  0  0  0  0
  2  1  1  0  0  0
  2  3  1  0  0  0
  3  4  1  0  0  0
  4  5  1  0  0  0
  5  6  1  0  0  0
  6  7  1  0  0  0
  7  8  1  0  0  0
  8  9  1  0  0  0
  9 10  2  0  0  0
 10 11  1  0  0  0
 11 12  1  0  0  0
 11 13  2  0  0  0
 13 14  1  0  0  0
 14 15  2  0  0  0
  6 16  1  0  0  0
 16 17  1  0  0  0
 17 18  1  0  0  0
 18 19  1  0  0  0
 19 20  1  0  0  0
 16  2  1  0  0  0
 19  2  1  0  0  0
 15  5  1  0  0  0
 15  9  1  0  0  0
 12 21  1  0  0  0
 20 22  1  0  0  0
M  END
> <minimizedAffinity>
-7.90108

> <CNNscore>
0.3527343869

> <CNNaffinity>
5.8005366325

> <CNN_VS>
2.0460486412

> <CNNaffinity_variance>
0.1421109885

$$$$
[H]Oc1c([H])c([H])c2c(c1[H])C([H])([H])C([H])([H])[C@]1([H])[C@]2([H])C([H])([H])C([H])([H])[C@]2(C([H])([H])[H])[C@@]([H])(O[H])C([H])([H])C([H])([H])[C@]21[H]


 22 25  0  0  0  0  0  0  0  0999 V2000
   -9.1532   -9.3897    8.8432 C   0  0  0  0  0  0  0  0  0  0  0  0
   -9.3515   -8.8214    7.4587 C   0  0  0  0  0  0  0  0  0  0  0  0
   -8.6067   -9.6545    6.4728 C   0  0  0  0  0  0  0  0  0  0  0  0
   -7.1255   -9.4915    6.5882 C   0  0  0  0  0  0  0  0  0  0  0  0
   -6.6973   -8.0639    6.7002 C   0  0  0  0  0  0  0  0  0  0  0  0
   -7.4597   -7.3606    7.8337 C   0  0  0  0  0  0  0  0  0  0  0  0
   -6.8440   -6.0335    8.0949 C   0  0  0  0  0  0  0  0  0  0  0  0
   -5.4830   -6.2960    8.7567 C   0  0  0  0  0  0  0  0  0  0  0  0
   -4.6638   -7.0894    7.7775 C   0  0  0  0  0  0  0  0  0  0  0  0
   -3.2887   -6.9955    7.8321 C   0  0  0  0  0  0  0  0  0  0  0  0
   -2.4539   -7.6913    6.9672 C   0  0  0  0  0  0  0  0  0  0  0  0
   -1.0600   -7.5746    7.0482 O   0  0  0  0  0  0  0  0  0  0  0  0
   -3.0538   -8.5004    6.0272 C   0  0  0  0  0  0  0  0  0  0  0  0
   -4.4316   -8.5991    5.9673 C   0  0  0  0  0  0  0  0  0  0  0  0
   -5.2559   -7.9064    6.8279 C   0  0  0  0  0  0  0  0  0  0  0  0
   -8.8765   -7.3594    7.4087 C   0  0  0  0  0  0  0  0  0  0  0  0
   -9.8493   -6.6945    8.2905 C   0  0  0  0  0  0  0  0  0  0  0  0
  -11.1581   -7.4030    7.9652 C   0  0  0  0  0  0  0  0  0  0  0  0
  -10.8006   -8.6386    7.1727 C   0  0  0  0  0  0  0  0  0  0  0  0
  -11.5125   -9.7550    7.5819 O   0  0  0  0  0  0  0  0  0  0  0  0
   -0.6851   -6.9669    7.7572 H   0  0  0  0  0  0  0  0  0  0  0  0
  -11.0035  -10.5875    7.3602 H   0  0  0  0  0  0  0  0  0  0  0  0
  2  1  1  0  0  0
  2  3  1  0  0  0
  3  4  1  0  0  0
  4  5  1  0  0  0
  5  6  1  0  0  0
  6  7  1  0  0  0
  7  8  1  0  0  0
  8  9  1  0  0  0
  9 10  2  0  0  0
 10 11  1  0  0  0
 11 12  1  0  0  0
 11 13  2  0  0  0
 13 14  1  0  0  0
 14 15  2  0  0  0
  6 16  1  0  0  0
 16 17  1  0  0  0
 17 18  1  0  0  0
 18 19  1  0  0  0
 19 20  1  0  0  0
 16  2  1  0  0  0
 19  2  1  0  0  0
 15  5  1  0  0  0
 15  9  1  0  0  0
 12 21  1  0  0  0
 20 22  1  0  0  0
M  END
> <minimizedAffinity>
-3.03655

> <CNNscore>
0.3226998746

> <CNNaffinity>
5.0872240067

> <CNN_VS>
1.6416465044

> <CNNaffinity_variance>
0.4020280242

$$$$
[H]Oc1c([H])c([H])c2c(c1[H])C([H])([H])C([H])([H])[C@]1([H])[C@]2([H])C([H])([H])C([H])([H])[C@]2(C([H])([H])[H])[C@@]([H])(O[H])C([H])([H])C([H])([H])[C@]21[H]


 22 25  0  0  0  0  0  0  0  0999 V2000
  -10.3694   -9.5407    6.9365 C   0  0  0  0  0  0  0  0  0  0  0  0
  -10.4241   -8.5623    8.0849 C   0  0  0  0  0  0  0  0  0  0  0  0
  -11.2455   -9.1404    9.1859 C   0  0  0  0  0  0  0  0  0  0  0  0
  -12.7004   -9.1937    8.8478 C   0  0  0  0  0  0  0  0  0  0  0  0
  -13.2107   -7.9266    8.2415 C   0  0  0  0  0  0  0  0  0  0  0  0
  -12.3403   -7.5138    7.0446 C   0  0  0  0  0  0  0  0  0  0  0  0
  -13.0056   -6.4085    6.3069 C   0  0  0  0  0  0  0  0  0  0  0  0
  -14.2285   -7.0152    5.6027 C   0  0  0  0  0  0  0  0  0  0  0  0
  -15.1250   -7.5663    6.6759 C   0  0  0  0  0  0  0  0  0  0  0  0
  -16.4794   -7.6544    6.4296 C   0  0  0  0  0  0  0  0  0  0  0  0
  -17.3814   -8.1495    7.3626 C   0  0  0  0  0  0  0  0  0  0  0  0
  -18.7520   -8.2261    7.0820 O   0  0  0  0  0  0  0  0  0  0  0  0
  -16.8719   -8.5618    8.5744 C   0  0  0  0  0  0  0  0  0  0  0  0
  -15.5153   -8.4763    8.8276 C   0  0  0  0  0  0  0  0  0  0  0  0
  -14.6242   -7.9842    7.8984 C   0  0  0  0  0  0  0  0  0  0  0  0
  -11.0075   -7.2192    7.6147 C   0  0  0  0  0  0  0  0  0  0  0  0
   -9.9647   -6.7424    6.6922 C   0  0  0  0  0  0  0  0  0  0  0  0
   -8.6713   -7.1620    7.3789 C   0  0  0  0  0  0  0  0  0  0  0  0
   -9.0520   -8.1341    8.4710 C   0  0  0  0  0  0  0  0  0  0  0  0
   -8.2064   -9.2309    8.5228 O   0  0  0  0  0  0  0  0  0  0  0  0
  -19.0596   -7.9086    6.1780 H   0  0  0  0  0  0  0  0  0  0  0  0
   -8.6804  -10.0112    8.9324 H   0  0  0  0  0  0  0  0  0  0  0  0
  2  1  1  0  0  0
  2  3  1  0  0  0
  3  4  1  0  0  0
  4  5  1  0  0  0
  5  6  1  0  0  0
  6  7  1  0  0  0
  7  8  1  0  0  0
  8  9  1  0  0  0
  9 10  2  0  0  0
 10 11  1  0  0  0
 11 12  1  0  0  0
 11 13  2  0  0  0
 13 14  1  0  0  0
 14 15  2  0  0  0
  6 16  1  0  0  0
 16 17  1  0  0  0
 17 18  1  0  0  0
 18 19  1  0  0  0
 19 20  1  0  0  0
 16  2  1  0  0  0
 19  2  1  0  0  0
 15  5  1  0  0  0
 15  9  1  0  0  0
 12 21  1  0  0  0
 20 22  1  0  0  0
M  END
> <minimizedAffinity>
-1.21238

> <CNNscore>
0.3148540854

> <CNNaffinity>
5.8378496170

> <CNN_VS>
1.8380707502

> <CNNaffinity_variance>
0.4667563438

$$$$
[H]Oc1c([H])c([H])c2c(c1[H])C([H])([H])C([H])([H])[C@]1([H])[C@]2([H])C([H])([H])C([H])([H])[C@]2(C([H])([H])[H])[C@@]([H])(O[H])C([H])([H])C([H])([H])[C@]21[H]


 22 25  0  0  0  0  0  0  0  0999 V2000
  -12.7191   -9.5857    9.2873 C   0  0  0  0  0  0  0  0  0  0  0  0
  -12.8844   -8.9792    7.9148 C   0  0  0  0  0  0  0  0  0  0  0  0
  -12.1561   -9.8126    6.9168 C   0  0  0  0  0  0  0  0  0  0  0  0
  -10.6718   -9.7000    7.0506 C   0  0  0  0  0  0  0  0  0  0  0  0
  -10.1994   -8.2900    7.2007 C   0  0  0  0  0  0  0  0  0  0  0  0
  -10.9510   -7.5892    8.3429 C   0  0  0  0  0  0  0  0  0  0  0  0
  -10.2961   -6.2891    8.6415 C   0  0  0  0  0  0  0  0  0  0  0  0
   -8.9512   -6.6105    9.3103 C   0  0  0  0  0  0  0  0  0  0  0  0
   -8.1474   -7.4068    8.3207 C   0  0  0  0  0  0  0  0  0  0  0  0
   -6.7707   -7.3585    8.3911 C   0  0  0  0  0  0  0  0  0  0  0  0
   -5.9493   -8.0605    7.5183 C   0  0  0  0  0  0  0  0  0  0  0  0
   -4.5534   -7.9906    7.6158 O   0  0  0  0  0  0  0  0  0  0  0  0
   -6.5648   -8.8277    6.5535 C   0  0  0  0  0  0  0  0  0  0  0  0
   -7.9443   -8.8805    6.4777 C   0  0  0  0  0  0  0  0  0  0  0  0
   -8.7551   -8.1820    7.3463 C   0  0  0  0  0  0  0  0  0  0  0  0
  -12.3624   -7.5324    7.9041 C   0  0  0  0  0  0  0  0  0  0  0  0
  -13.3228   -6.8574    8.7917 C   0  0  0  0  0  0  0  0  0  0  0  0
  -14.6500   -7.5156    8.4368 C   0  0  0  0  0  0  0  0  0  0  0  0
  -14.3238   -8.7432    7.6189 C   0  0  0  0  0  0  0  0  0  0  0  0
  -15.0753   -9.8454    7.9944 O   0  0  0  0  0  0  0  0  0  0  0  0
   -4.1668   -7.4120    8.3427 H   0  0  0  0  0  0  0  0  0  0  0  0
  -14.5907  -10.6885    7.7581 H   0  0  0  0  0  0  0  0  0  0  0  0
  2  1  1  0  0  0
  2  3  1  0  0  0
  3  4  1  0  0  0
  4  5  1  0  0  0
  5  6  1  0  0  0
  6  7  1  0  0  0
  7  8  1  0  0  0
  8  9  1  0  0  0
  9 10  2  0  0  0
 10 11  1  0  0  0
 11 12  1  0  0  0
 11 13  2  0  0  0
 13 14  1  0  0  0
 14 15  2  0  0  0
  6 16  1  0  0  0
 16 17  1  0  0  0
 17 18  1  0  0  0
 18 19  1  0  0  0
 19 20  1  0  0  0
 16  2  1  0  0  0
 19  2  1  0  0  0
 15  5  1  0  0  0
 15  9  1  0  0  0
 12 21  1  0  0  0
 20 22  1  0  0  0
M  END
> <minimizedAffinity>
-7.98925

> <CNNscore>
0.3008843064

> <CNNaffinity>
5.7377567291

> <CNN_VS>
1.7264009714

> <CNNaffinity_variance>
0.0825482458

$$$$
[H]Oc1c([H])c([H])c2c(c1[H])C([H])([H])C([H])([H])[C@]1([H])[C@]2([H])C([H])([H])C([H])([H])[C@]2(C([H])([H])[H])[C@@]([H])(O[H])C([H])([H])C([H])([H])[C@]21[H]


 22 25  0  0  0  0  0  0  0  0999 V2000
  -15.2794   -8.7217    7.9032 C   0  0  0  0  0  0  0  0  0  0  0  0
  -14.8836   -8.4900    6.4649 C   0  0  0  0  0  0  0  0  0  0  0  0
  -14.2914   -9.7397    5.9094 C   0  0  0  0  0  0  0  0  0  0  0  0
  -12.9441  -10.0391    6.4827 C   0  0  0  0  0  0  0  0  0  0  0  0
  -12.0441   -8.8467    6.5253 C   0  0  0  0  0  0  0  0  0  0  0  0
  -12.7394   -7.6724    7.2312 C   0  0  0  0  0  0  0  0  0  0  0  0
  -11.7497   -6.5942    7.4891 C   0  0  0  0  0  0  0  0  0  0  0  0
  -10.8119   -7.1048    8.5934 C   0  0  0  0  0  0  0  0  0  0  0  0
  -10.1403   -8.3404    8.0630 C   0  0  0  0  0  0  0  0  0  0  0  0
   -8.8981   -8.6842    8.5545 C   0  0  0  0  0  0  0  0  0  0  0  0
   -8.2042   -9.8070    8.1221 C   0  0  0  0  0  0  0  0  0  0  0  0
   -6.9433  -10.1294    8.6411 O   0  0  0  0  0  0  0  0  0  0  0  0
   -8.8076  -10.5897    7.1622 C   0  0  0  0  0  0  0  0  0  0  0  0
  -10.0526  -10.2508    6.6655 C   0  0  0  0  0  0  0  0  0  0  0  0
  -10.7373   -9.1353    7.0978 C   0  0  0  0  0  0  0  0  0  0  0  0
  -13.8875   -7.3222    6.3668 C   0  0  0  0  0  0  0  0  0  0  0  0
  -14.7200   -6.1790    6.7738 C   0  0  0  0  0  0  0  0  0  0  0  0
  -16.0705   -6.4857    6.1391 C   0  0  0  0  0  0  0  0  0  0  0  0
  -16.0260   -7.9286    5.6936 C   0  0  0  0  0  0  0  0  0  0  0  0
  -17.1912   -8.6138    5.9994 O   0  0  0  0  0  0  0  0  0  0  0  0
   -6.5581   -9.5164    9.3400 H   0  0  0  0  0  0  0  0  0  0  0  0
  -17.0030   -9.5934    6.0791 H   0  0  0  0  0  0  0  0  0  0  0  0
  2  1  1  0  0  0
  2  3  1  0  0  0
  3  4  1  0  0  0
  4  5  1  0  0  0
  5  6  1  0  0  0
  6  7  1  0  0  0
  7  8  1  0  0  0
  8  9  1  0  0  0
  9 10  2  0  0  0
 10 11  1  0  0  0
 11 12  1  0  0  0
 11 13  2  0  0  0
 13 14  1  0  0  0
 14 15  2  0  0  0
  6 16  1  0  0  0
 16 17  1  0  0  0
 17 18  1  0  0  0
 18 19  1  0  0  0
 19 20  1  0  0  0
 16  2  1  0  0  0
 19  2  1  0  0  0
 15  5  1  0  0  0
 15  9  1  0  0  0
 12 21  1  0  0  0
 20 22  1  0  0  0
M  END
> <minimizedAffinity>
-5.67293

> <CNNscore>
0.2675577104

> <CNNaffinity>
5.7014980316

> <CNN_VS>
1.5254797935

> <CNNaffinity_variance>
0.3785580099

$$$$
[H]Oc1c([H])c([H])c2c(c1[H])C([H])([H])C([H])([H])[C@]1([H])[C@]2([H])C([H])([H])C([H])([H])[C@]2(C([H])([H])[H])[C@@]([H])(O[H])C([H])([H])C([H])([H])[C@]21[H]


 22 25  0  0  0  0  0  0  0  0999 V2000
   -5.3270   -5.9093    6.5573 C   0  0  0  0  0  0  0  0  0  0  0  0
   -4.9533   -6.9858    7.5476 C   0  0  0  0  0  0  0  0  0  0  0  0
   -5.5583   -6.6683    8.8720 C   0  0  0  0  0  0  0  0  0  0  0  0
   -4.9060   -5.4978    9.5339 C   0  0  0  0  0  0  0  0  0  0  0  0
   -3.4131   -5.5522    9.4883 C   0  0  0  0  0  0  0  0  0  0  0  0
   -2.9259   -5.7634    8.0466 C   0  0  0  0  0  0  0  0  0  0  0  0
   -1.4552   -5.5595    7.9865 C   0  0  0  0  0  0  0  0  0  0  0  0
   -1.2054   -4.0560    8.1781 C   0  0  0  0  0  0  0  0  0  0  0  0
   -1.7479   -3.6893    9.5310 C   0  0  0  0  0  0  0  0  0  0  0  0
   -1.1999   -2.6126   10.1968 C   0  0  0  0  0  0  0  0  0  0  0  0
   -1.6375   -2.2031   11.4498 C   0  0  0  0  0  0  0  0  0  0  0  0
   -1.0601   -1.1047   12.1005 O   0  0  0  0  0  0  0  0  0  0  0  0
   -2.6625   -2.9218   12.0252 C   0  0  0  0  0  0  0  0  0  0  0  0
   -3.2162   -4.0019   11.3631 C   0  0  0  0  0  0  0  0  0  0  0  0
   -2.7783   -4.4045   10.1197 C   0  0  0  0  0  0  0  0  0  0  0  0
   -3.4237   -7.1013    7.6586 C   0  0  0  0  0  0  0  0  0  0  0  0
   -3.0598   -7.6001    6.3228 C   0  0  0  0  0  0  0  0  0  0  0  0
   -4.1826   -8.5762    5.9957 C   0  0  0  0  0  0  0  0  0  0  0  0
   -5.2814   -8.3316    7.0033 C   0  0  0  0  0  0  0  0  0  0  0  0
   -6.5397   -8.3180    6.4227 O   0  0  0  0  0  0  0  0  0  0  0  0
   -0.3152   -0.6226   11.6259 H   0  0  0  0  0  0  0  0  0  0  0  0
   -7.1696   -7.7758    6.9800 H   0  0  0  0  0  0  0  0  0  0  0  0
  2  1  1  0  0  0
  2  3  1  0  0  0
  3  4  1  0  0  0
  4  5  1  0  0  0
  5  6  1  0  0  0
  6  7  1  0  0  0
  7  8  1  0  0  0
  8  9  1  0  0  0
  9 10  2  0  0  0
 10 11  1  0  0  0
 11 12  1  0  0  0
 11 13  2  0  0  0
 13 14  1  0  0  0
 14 15  2  0  0  0
  6 16  1  0  0  0
 16 17  1  0  0  0
 17 18  1  0  0  0
 18 19  1  0  0  0
 19 20  1  0  0  0
 16  2  1  0  0  0
 19  2  1  0  0  0
 15  5  1  0  0  0
 15  9  1  0  0  0
 12 21  1  0  0  0
 20 22  1  0  0  0
M  END
> <minimizedAffinity>
-2.93806

> <CNNscore>
0.2619524896

> <CNNaffinity>
4.1340336800

> <CNN_VS>
1.0829204321

> <CNNaffinity_variance>
0.3766921163

$$$$
[H]Oc1c([H])c([H])c2c(c1[H])C([H])([H])C([H])([H])[C@]1([H])[C@]2([H])C([H])([H])C([H])([H])[C@]2(C([H])([H])[H])[C@@]([H])(O[H])C([H])([H])C([H])([H])[C@]21[H]


 22 25  0  0  0  0  0  0  0  0999 V2000
  -10.0190   -8.4600    9.4803 C   0  0  0  0  0  0  0  0  0  0  0  0
   -9.6180   -7.9472    8.1182 C   0  0  0  0  0  0  0  0  0  0  0  0
  -10.1695   -6.5761    7.9259 C   0  0  0  0  0  0  0  0  0  0  0  0
  -11.6542   -6.5748    7.7541 C   0  0  0  0  0  0  0  0  0  0  0  0
  -12.1374   -7.6185    6.7997 C   0  0  0  0  0  0  0  0  0  0  0  0
  -11.5884   -8.9996    7.1890 C   0  0  0  0  0  0  0  0  0  0  0  0
  -12.2775  -10.0483    6.3928 C   0  0  0  0  0  0  0  0  0  0  0  0
  -13.7187  -10.1314    6.9176 C   0  0  0  0  0  0  0  0  0  0  0  0
  -14.3458   -8.7836    6.6953 C   0  0  0  0  0  0  0  0  0  0  0  0
  -15.7140   -8.7052    6.5386 C   0  0  0  0  0  0  0  0  0  0  0  0
  -16.3779   -7.5034    6.3283 C   0  0  0  0  0  0  0  0  0  0  0  0
  -17.7695   -7.4569    6.1726 O   0  0  0  0  0  0  0  0  0  0  0  0
  -15.6108   -6.3600    6.2793 C   0  0  0  0  0  0  0  0  0  0  0  0
  -14.2389   -6.4317    6.4359 C   0  0  0  0  0  0  0  0  0  0  0  0
  -13.5847   -7.6269    6.6443 C   0  0  0  0  0  0  0  0  0  0  0  0
  -10.1224   -8.8986    7.0200 C   0  0  0  0  0  0  0  0  0  0  0  0
   -9.3242  -10.1080    7.2769 C   0  0  0  0  0  0  0  0  0  0  0  0
   -7.9596   -9.5516    7.6625 C   0  0  0  0  0  0  0  0  0  0  0  0
   -8.1479   -8.0757    7.9247 C   0  0  0  0  0  0  0  0  0  0  0  0
   -7.4779   -7.6494    9.0604 O   0  0  0  0  0  0  0  0  0  0  0  0
  -18.2715   -8.3278    6.2188 H   0  0  0  0  0  0  0  0  0  0  0  0
   -7.9195   -6.8328    9.4339 H   0  0  0  0  0  0  0  0  0  0  0  0
  2  1  1  0  0  0
  2  3  1  0  0  0
  3  4  1  0  0  0
  4  5  1  0  0  0
  5  6  1  0  0  0
  6  7  1  0  0  0
  7  8  1  0  0  0
  8  9  1  0  0  0
  9 10  2  0  0  0
 10 11  1  0  0  0
 11 12  1  0  0  0
 11 13  2  0  0  0
 13 14  1  0  0  0
 14 15  2  0  0  0
  6 16  1  0  0  0
 16 17  1  0  0  0
 17 18  1  0  0  0
 18 19  1  0  0  0
 19 20  1  0  0  0
 16  2  1  0  0  0
 19  2  1  0  0  0
 15  5  1  0  0  0
 15  9  1  0  0  0
 12 21  1  0  0  0
 20 22  1  0  0  0
M  END
> <minimizedAffinity>
-2.55850

> <CNNscore>
0.2519474030

> <CNNaffinity>
5.6492047310

> <CNN_VS>
1.4233024120

> <CNNaffinity_variance>
0.3074485660

$$$$
[H]/C(=C1/SC(=O)N(C2([H])C([H])([H])C([H])([H])N(C([H])([H])[H])C([H])([H])C2([H])[H])C1=O)c1c([H])c([H])c2c(c([H])nn2C([H])([H])c2c([H])c([H])c(Cl)c([H])c2C(F)(F)F)c1[H]


 36 40  0  0  0  0  0  0  0  0999 V2000
  -13.1548   -6.5436    6.8233 C   0  0  0  0  0  0  0  0  0  0  0  0
  -14.0166   -7.5850    6.4596 C   0  0  0  0  0  0  0  0  0  0  0  0
  -15.0046   -7.4437    5.5204 C   0  0  0  0  0  0  0  0  0  0  0  0
  -15.1935   -6.2428    4.8823 C   0  0  0  0  0  0  0  0  0  0  0  0
  -16.0384   -5.8481    3.9297 N   0  0  0  0  0  0  0  0  0  0  0  0
  -15.7044   -4.5665    3.6929 N   0  0  0  0  0  0  0  0  0  0  0  0
  -14.7124   -4.1459    4.4383 C   0  0  0  0  0  0  0  0  0  0  0  0
  -14.3338   -5.2080    5.2438 C   0  0  0  0  0  0  0  0  0  0  0  0
  -13.3351   -5.3573    6.1968 C   0  0  0  0  0  0  0  0  0  0  0  0
  -11.7403   -5.9628   11.3955 N   0  0  0  0  0  0  0  0  0  0  0  0
  -12.9631   -5.2765   11.3721 C   0  0  0  0  0  0  0  0  0  0  0  0
  -13.5730   -4.7968   12.3415 O   0  0  0  0  0  0  0  0  0  0  0  0
  -13.4814   -5.2219    9.6733 S   0  0  0  0  0  0  0  0  0  0  0  0
  -12.2292   -6.3491    9.0565 C   0  0  0  0  0  0  0  0  0  0  0  0
  -12.1703   -6.8546    7.8421 C   0  0  0  0  0  0  0  0  0  0  0  0
  -11.3301   -6.5398   10.1827 C   0  0  0  0  0  0  0  0  0  0  0  0
  -10.2378   -7.2096   10.0048 O   0  0  0  0  0  0  0  0  0  0  0  0
   -8.2142   -4.0358   15.1268 C   0  0  0  0  0  0  0  0  0  0  0  0
   -9.0196   -4.4355   13.9890 N   0  0  0  0  0  0  0  0  0  0  0  0
   -8.6901   -5.7277   13.4924 C   0  0  0  0  0  0  0  0  0  0  0  0
   -9.4788   -5.8994   12.1857 C   0  0  0  0  0  0  0  0  0  0  0  0
  -10.8968   -6.0822   12.6095 C   0  0  0  0  0  0  0  0  0  0  0  0
  -11.3637   -5.1602   13.6811 C   0  0  0  0  0  0  0  0  0  0  0  0
  -10.3976   -4.1849   14.2088 C   0  0  0  0  0  0  0  0  0  0  0  0
  -17.1498   -6.4829    3.2745 C   0  0  0  0  0  0  0  0  0  0  0  0
  -17.8271   -7.5640    3.9636 C   0  0  0  0  0  0  0  0  0  0  0  0
  -19.1053   -7.1999    4.4929 C   0  0  0  0  0  0  0  0  0  0  0  0
  -19.8684   -8.0921    5.1649 C   0  0  0  0  0  0  0  0  0  0  0  0
  -19.4508   -9.3886    5.3710 C   0  0  0  0  0  0  0  0  0  0  0  0
  -20.4339  -10.5547    6.2449 Cl  0  0  0  0  0  0  0  0  0  0  0  0
  -18.2323   -9.7311    4.8655 C   0  0  0  0  0  0  0  0  0  0  0  0
  -17.3962   -8.8410    4.1565 C   0  0  0  0  0  0  0  0  0  0  0  0
  -16.0974   -9.3875    3.6910 C   0  0  0  0  0  0  0  0  0  0  0  0
  -15.5162   -8.6532    2.6808 F   0  0  0  0  0  0  0  0  0  0  0  0
  -16.4181  -10.6019    2.9610 F   0  0  0  0  0  0  0  0  0  0  0  0
  -15.2813   -9.8588    4.6632 F   0  0  0  0  0  0  0  0  0  0  0  0
 18 19  1  0  0  0
 19 20  1  0  0  0
 20 21  1  0  0  0
 21 22  1  0  0  0
 22 23  1  0  0  0
 23 24  1  0  0  0
 22 10  1  0  0  0
 10 11  1  0  0  0
 11 12  2  0  0  0
 11 13  1  0  0  0
 13 14  1  0  0  0
 14 15  2  0  0  0
 15  1  1  0  0  0
  1  2  2  0  0  0
  2  3  1  0  0  0
  3  4  2  0  0  0
  4  5  1  0  0  0
  5 25  1  0  0  0
 25 26  1  0  0  0
 26 27  2  0  0  0
 27 28  1  0  0  0
 28 29  2  0  0  0
 29 30  1  0  0  0
 29 31  1  0  0  0
 31 32  2  0  0  0
 32 33  1  0  0  0
 33 34  1  0  0  0
 33 35  1  0  0  0
 33 36  1  0  0  0
  5  6  1  0  0  0
  6  7  2  0  0  0
  7  8  1  0  0  0
  8  9  2  0  0  0
 14 16  1  0  0  0
 16 17  2  0  0  0
 24 19  1  0  0  0
 16 10  1  0  0  0
  9  1  1  0  0  0
  8  4  1  0  0  0
 32 26  1  0  0  0
M  END
> <minimizedAffinity>
15.63458

> <CNNscore>
0.4842800498

> <CNNaffinity>
6.8105406761

> <CNN_VS>
3.2982089520

> <CNNaffinity_variance>
1.2220002413

$$$$
[H]/C(=C1/SC(=O)N(C2([H])C([H])([H])C([H])([H])N(C([H])([H])[H])C([H])([H])C2([H])[H])C1=O)c1c([H])c([H])c2c(c([H])nn2C([H])([H])c2c([H])c([H])c(Cl)c([H])c2C(F)(F)F)c1[H]


 36 40  0  0  0  0  0  0  0  0999 V2000
   -4.2121   -6.3789    7.5781 C   0  0  0  0  0  0  0  0  0  0  0  0
   -4.6030   -7.6494    8.0169 C   0  0  0  0  0  0  0  0  0  0  0  0
   -5.6012   -8.3724    7.4178 C   0  0  0  0  0  0  0  0  0  0  0  0
   -6.2758   -7.8653    6.3348 C   0  0  0  0  0  0  0  0  0  0  0  0
   -7.2440   -8.3568    5.5614 N   0  0  0  0  0  0  0  0  0  0  0  0
   -7.4555   -7.4013    4.6382 N   0  0  0  0  0  0  0  0  0  0  0  0
   -6.6841   -6.3538    4.7939 C   0  0  0  0  0  0  0  0  0  0  0  0
   -5.8843   -6.6018    5.8980 C   0  0  0  0  0  0  0  0  0  0  0  0
   -4.8725   -5.8739    6.5099 C   0  0  0  0  0  0  0  0  0  0  0  0
   -2.7838   -4.5135   11.7880 N   0  0  0  0  0  0  0  0  0  0  0  0
   -4.0648   -4.9950   12.0944 C   0  0  0  0  0  0  0  0  0  0  0  0
   -4.5952   -5.0560   13.2155 O   0  0  0  0  0  0  0  0  0  0  0  0
   -4.7948   -5.5074   10.5575 S   0  0  0  0  0  0  0  0  0  0  0  0
   -3.3016   -5.3481    9.5757 C   0  0  0  0  0  0  0  0  0  0  0  0
   -3.1466   -5.7428    8.3291 C   0  0  0  0  0  0  0  0  0  0  0  0
   -2.3566   -4.6888   10.4618 C   0  0  0  0  0  0  0  0  0  0  0  0
   -1.2125   -4.3137    9.9889 O   0  0  0  0  0  0  0  0  0  0  0  0
   -1.8651   -1.5592   16.3155 C   0  0  0  0  0  0  0  0  0  0  0  0
   -2.2771   -2.1956   15.0792 N   0  0  0  0  0  0  0  0  0  0  0  0
   -1.5138   -1.7819   13.9517 C   0  0  0  0  0  0  0  0  0  0  0  0
   -2.2076   -2.3822   12.7200 C   0  0  0  0  0  0  0  0  0  0  0  0
   -1.9080   -3.8418   12.7787 C   0  0  0  0  0  0  0  0  0  0  0  0
   -2.0425   -4.4645   14.1243 C   0  0  0  0  0  0  0  0  0  0  0  0
   -2.4431   -3.5944   15.2402 C   0  0  0  0  0  0  0  0  0  0  0  0
   -8.0364   -9.5553    5.6178 C   0  0  0  0  0  0  0  0  0  0  0  0
   -8.0450  -10.4280    4.4599 C   0  0  0  0  0  0  0  0  0  0  0  0
   -7.5121   -9.8236    3.2777 C   0  0  0  0  0  0  0  0  0  0  0  0
   -7.4474  -10.5016    2.1091 C   0  0  0  0  0  0  0  0  0  0  0  0
   -7.8914  -11.8014    2.0030 C   0  0  0  0  0  0  0  0  0  0  0  0
   -7.8140  -12.6903    0.4884 Cl  0  0  0  0  0  0  0  0  0  0  0  0
   -8.3987  -12.3731    3.1314 C   0  0  0  0  0  0  0  0  0  0  0  0
   -8.4890  -11.7122    4.3759 C   0  0  0  0  0  0  0  0  0  0  0  0
   -9.0819  -12.4894    5.4926 C   0  0  0  0  0  0  0  0  0  0  0  0
   -8.2422  -12.6348    6.5749 F   0  0  0  0  0  0  0  0  0  0  0  0
   -9.1332  -13.8664    5.0326 F   0  0  0  0  0  0  0  0  0  0  0  0
  -10.3870  -12.2369    5.7500 F   0  0  0  0  0  0  0  0  0  0  0  0
 18 19  1  0  0  0
 19 20  1  0  0  0
 20 21  1  0  0  0
 21 22  1  0  0  0
 22 23  1  0  0  0
 23 24  1  0  0  0
 22 10  1  0  0  0
 10 11  1  0  0  0
 11 12  2  0  0  0
 11 13  1  0  0  0
 13 14  1  0  0  0
 14 15  2  0  0  0
 15  1  1  0  0  0
  1  2  2  0  0  0
  2  3  1  0  0  0
  3  4  2  0  0  0
  4  5  1  0  0  0
  5 25  1  0  0  0
 25 26  1  0  0  0
 26 27  2  0  0  0
 27 28  1  0  0  0
 28 29  2  0  0  0
 29 30  1  0  0  0
 29 31  1  0  0  0
 31 32  2  0  0  0
 32 33  1  0  0  0
 33 34  1  0  0  0
 33 35  1  0  0  0
 33 36  1  0  0  0
  5  6  1  0  0  0
  6  7  2  0  0  0
  7  8  1  0  0  0
  8  9  2  0  0  0
 14 16  1  0  0  0
 16 17  2  0  0  0
 24 19  1  0  0  0
 16 10  1  0  0  0
  9  1  1  0  0  0
  8  4  1  0  0  0
 32 26  1  0  0  0
M  END
> <minimizedAffinity>
15.33300

> <CNNscore>
0.4543862641

> <CNNaffinity>
5.9172811508

> <CNN_VS>
2.6887311935

> <CNNaffinity_variance>
1.1890637875

$$$$
[H]/C(=C1/SC(=O)N(C2([H])C([H])([H])C([H])([H])N(C([H])([H])[H])C([H])([H])C2([H])[H])C1=O)c1c([H])c([H])c2c(c([H])nn2C([H])([H])c2c([H])c([H])c(Cl)c([H])c2C(F)(F)F)c1[H]


 36 40  0  0  0  0  0  0  0  0999 V2000
   -7.4035   -7.3523    6.6431 C   0  0  0  0  0  0  0  0  0  0  0  0
   -8.4843   -6.7191    7.2679 C   0  0  0  0  0  0  0  0  0  0  0  0
   -9.6334   -7.3771    7.6211 C   0  0  0  0  0  0  0  0  0  0  0  0
   -9.7739   -8.7194    7.3688 C   0  0  0  0  0  0  0  0  0  0  0  0
  -10.7484   -9.5911    7.6288 N   0  0  0  0  0  0  0  0  0  0  0  0
  -10.2786  -10.7670    7.1742 N   0  0  0  0  0  0  0  0  0  0  0  0
   -9.0815  -10.6761    6.6494 C   0  0  0  0  0  0  0  0  0  0  0  0
   -8.6967   -9.3486    6.7488 C   0  0  0  0  0  0  0  0  0  0  0  0
   -7.5353   -8.6761    6.3927 C   0  0  0  0  0  0  0  0  0  0  0  0
   -3.6975   -4.7574    8.3088 N   0  0  0  0  0  0  0  0  0  0  0  0
   -4.2241   -5.3135    9.4836 C   0  0  0  0  0  0  0  0  0  0  0  0
   -3.7342   -5.2618   10.6235 O   0  0  0  0  0  0  0  0  0  0  0  0
   -5.7430   -6.1155    9.0283 S   0  0  0  0  0  0  0  0  0  0  0  0
   -5.5186   -5.9546    7.2555 C   0  0  0  0  0  0  0  0  0  0  0  0
   -6.2661   -6.5105    6.3249 C   0  0  0  0  0  0  0  0  0  0  0  0
   -4.3643   -5.0820    7.1164 C   0  0  0  0  0  0  0  0  0  0  0  0
   -4.0311   -4.6686    5.9368 O   0  0  0  0  0  0  0  0  0  0  0  0
   -1.0600   -0.0857    9.4440 C   0  0  0  0  0  0  0  0  0  0  0  0
   -1.9336   -1.1888    9.0932 N   0  0  0  0  0  0  0  0  0  0  0  0
   -1.7520   -1.6480    7.7585 C   0  0  0  0  0  0  0  0  0  0  0  0
   -2.8794   -2.6572    7.4947 C   0  0  0  0  0  0  0  0  0  0  0  0
   -2.5136   -3.8642    8.2905 C   0  0  0  0  0  0  0  0  0  0  0  0
   -2.0245   -3.5917    9.6699 C   0  0  0  0  0  0  0  0  0  0  0  0
   -1.9462   -2.1874   10.0996 C   0  0  0  0  0  0  0  0  0  0  0  0
  -12.0725   -9.4547    8.1722 C   0  0  0  0  0  0  0  0  0  0  0  0
  -12.9605   -8.4737    7.5793 C   0  0  0  0  0  0  0  0  0  0  0  0
  -13.3569   -8.7884    6.2412 C   0  0  0  0  0  0  0  0  0  0  0  0
  -14.1839   -7.9767    5.5433 C   0  0  0  0  0  0  0  0  0  0  0  0
  -14.6806   -6.8123    6.0868 C   0  0  0  0  0  0  0  0  0  0  0  0
  -15.7538   -5.7496    5.1874 Cl  0  0  0  0  0  0  0  0  0  0  0  0
  -14.3000   -6.5162    7.3616 C   0  0  0  0  0  0  0  0  0  0  0  0
  -13.4407   -7.3272    8.1347 C   0  0  0  0  0  0  0  0  0  0  0  0
  -13.1259   -6.8383    9.5001 C   0  0  0  0  0  0  0  0  0  0  0  0
  -13.8901   -7.4198   10.4878 F   0  0  0  0  0  0  0  0  0  0  0  0
  -13.6356   -5.4793    9.5609 F   0  0  0  0  0  0  0  0  0  0  0  0
  -11.8110   -6.6508    9.7632 F   0  0  0  0  0  0  0  0  0  0  0  0
 18 19  1  0  0  0
 19 20  1  0  0  0
 20 21  1  0  0  0
 21 22  1  0  0  0
 22 23  1  0  0  0
 23 24  1  0  0  0
 22 10  1  0  0  0
 10 11  1  0  0  0
 11 12  2  0  0  0
 11 13  1  0  0  0
 13 14  1  0  0  0
 14 15  2  0  0  0
 15  1  1  0  0  0
  1  2  2  0  0  0
  2  3  1  0  0  0
  3  4  2  0  0  0
  4  5  1  0  0  0
  5 25  1  0  0  0
 25 26  1  0  0  0
 26 27  2  0  0  0
 27 28  1  0  0  0
 28 29  2  0  0  0
 29 30  1  0  0  0
 29 31  1  0  0  0
 31 32  2  0  0  0
 32 33  1  0  0  0
 33 34  1  0  0  0
 33 35  1  0  0  0
 33 36  1  0  0  0
  5  6  1  0  0  0
  6  7  2  0  0  0
  7  8  1  0  0  0
  8  9  2  0  0  0
 14 16  1  0  0  0
 16 17  2  0  0  0
 24 19  1  0  0  0
 16 10  1  0  0  0
  9  1  1  0  0  0
  8  4  1  0  0  0
 32 26  1  0  0  0
M  END
> <minimizedAffinity>
-8.25800

> <CNNscore>
0.4396367073

> <CNNaffinity>
7.0841650963

> <CNN_VS>
3.1144590378

> <CNNaffinity_variance>
0.1552688777

$$$$
[H]/C(=C1/SC(=O)N(C2([H])C([H])([H])C([H])([H])N(C([H])([H])[H])C([H])([H])C2([H])[H])C1=O)c1c([H])c([H])c2c(c([H])nn2C([H])([H])c2c([H])c([H])c(Cl)c([H])c2C(F)(F)F)c1[H]


 36 40  0  0  0  0  0  0  0  0999 V2000
   -7.8866   -7.9602    8.1279 C   0  0  0  0  0  0  0  0  0  0  0  0
   -9.0692   -7.4100    8.6363 C   0  0  0  0  0  0  0  0  0  0  0  0
  -10.3052   -7.9575    8.4111 C   0  0  0  0  0  0  0  0  0  0  0  0
  -10.4360   -9.0976    7.6574 C   0  0  0  0  0  0  0  0  0  0  0  0
  -11.4892   -9.8401    7.3162 N   0  0  0  0  0  0  0  0  0  0  0  0
  -10.9692  -10.8546    6.6018 N   0  0  0  0  0  0  0  0  0  0  0  0
   -9.6666  -10.7840    6.4785 C   0  0  0  0  0  0  0  0  0  0  0  0
   -9.2581   -9.6451    7.1540 C   0  0  0  0  0  0  0  0  0  0  0  0
   -8.0087   -9.0851    7.3850 C   0  0  0  0  0  0  0  0  0  0  0  0
   -4.3009   -5.1540    6.5434 N   0  0  0  0  0  0  0  0  0  0  0  0
   -5.1232   -5.2546    5.4119 C   0  0  0  0  0  0  0  0  0  0  0  0
   -5.0097   -4.6311    4.3440 O   0  0  0  0  0  0  0  0  0  0  0  0
   -6.3729   -6.4572    5.7987 S   0  0  0  0  0  0  0  0  0  0  0  0
   -5.9676   -6.5986    7.5407 C   0  0  0  0  0  0  0  0  0  0  0  0
   -6.6623   -7.2518    8.4487 C   0  0  0  0  0  0  0  0  0  0  0  0
   -4.7262   -5.8557    7.6830 C   0  0  0  0  0  0  0  0  0  0  0  0
   -4.1059   -5.8854    8.8178 O   0  0  0  0  0  0  0  0  0  0  0  0
   -1.0604   -1.0268    4.9514 C   0  0  0  0  0  0  0  0  0  0  0  0
   -1.9738   -2.1347    5.1542 N   0  0  0  0  0  0  0  0  0  0  0  0
   -1.3234   -3.3997    5.1969 C   0  0  0  0  0  0  0  0  0  0  0  0
   -2.4387   -4.4557    5.2065 C   0  0  0  0  0  0  0  0  0  0  0  0
   -3.0416   -4.3708    6.5677 C   0  0  0  0  0  0  0  0  0  0  0  0
   -3.2769   -2.9905    7.0737 C   0  0  0  0  0  0  0  0  0  0  0  0
   -2.8930   -1.8708    6.2009 C   0  0  0  0  0  0  0  0  0  0  0  0
  -12.9060   -9.6856    7.5064 C   0  0  0  0  0  0  0  0  0  0  0  0
  -13.5586   -8.5387    6.9054 C   0  0  0  0  0  0  0  0  0  0  0  0
  -13.8088   -8.6856    5.5045 C   0  0  0  0  0  0  0  0  0  0  0  0
  -14.4109   -7.7067    4.7911 C   0  0  0  0  0  0  0  0  0  0  0  0
  -14.8091   -6.5259    5.3785 C   0  0  0  0  0  0  0  0  0  0  0  0
  -15.5901   -5.2468    4.4598 Cl  0  0  0  0  0  0  0  0  0  0  0  0
  -14.5685   -6.3900    6.7131 C   0  0  0  0  0  0  0  0  0  0  0  0
  -13.9448   -7.3789    7.5049 C   0  0  0  0  0  0  0  0  0  0  0  0
  -13.7540   -7.0501    8.9394 C   0  0  0  0  0  0  0  0  0  0  0  0
  -12.7889   -7.8124    9.5601 F   0  0  0  0  0  0  0  0  0  0  0  0
  -14.9373   -7.5474    9.6199 F   0  0  0  0  0  0  0  0  0  0  0  0
  -13.7945   -5.7318    9.2456 F   0  0  0  0  0  0  0  0  0  0  0  0
 18 19  1  0  0  0
 19 20  1  0  0  0
 20 21  1  0  0  0
 21 22  1  0  0  0
 22 23  1  0  0  0
 23 24  1  0  0  0
 22 10  1  0  0  0
 10 11  1  0  0  0
 11 12  2  0  0  0
 11 13  1  0  0  0
 13 14  1  0  0  0
 14 15  2  0  0  0
 15  1  1  0  0  0
  1  2  2  0  0  0
  2  3  1  0  0  0
  3  4  2  0  0  0
  4  5  1  0  0  0
  5 25  1  0  0  0
 25 26  1  0  0  0
 26 27  2  0  0  0
 27 28  1  0  0  0
 28 29  2  0  0  0
 29 30  1  0  0  0
 29 31  1  0  0  0
 31 32  2  0  0  0
 32 33  1  0  0  0
 33 34  1  0  0  0
 33 35  1  0  0  0
 33 36  1  0  0  0
  5  6  1  0  0  0
  6  7  2  0  0  0
  7  8  1  0  0  0
  8  9  2  0  0  0
 14 16  1  0  0  0
 16 17  2  0  0  0
 24 19  1  0  0  0
 16 10  1  0  0  0
  9  1  1  0  0  0
  8  4  1  0  0  0
 32 26  1  0  0  0
M  END
> <minimizedAffinity>
-8.67314

> <CNNscore>
0.3817524910

> <CNNaffinity>
7.1437544823

> <CNN_VS>
2.7271461487

> <CNNaffinity_variance>
0.1143846288

$$$$
[H]/C(=C1/SC(=O)N(C2([H])C([H])([H])C([H])([H])N(C([H])([H])[H])C([H])([H])C2([H])[H])C1=O)c1c([H])c([H])c2c(c([H])nn2C([H])([H])c2c([H])c([H])c(Cl)c([H])c2C(F)(F)F)c1[H]


 36 40  0  0  0  0  0  0  0  0999 V2000
  -10.3349   -7.8628    8.4860 C   0  0  0  0  0  0  0  0  0  0  0  0
  -11.2050   -6.7768    8.6380 C   0  0  0  0  0  0  0  0  0  0  0  0
  -12.5393   -6.8398    8.3318 C   0  0  0  0  0  0  0  0  0  0  0  0
  -13.0901   -8.0018    7.8506 C   0  0  0  0  0  0  0  0  0  0  0  0
  -14.3340   -8.3397    7.5105 N   0  0  0  0  0  0  0  0  0  0  0  0
  -14.2457   -9.6335    7.1522 N   0  0  0  0  0  0  0  0  0  0  0  0
  -13.0300  -10.1130    7.2465 C   0  0  0  0  0  0  0  0  0  0  0  0
  -12.2235   -9.0822    7.7019 C   0  0  0  0  0  0  0  0  0  0  0  0
  -10.8722   -9.0118    8.0131 C   0  0  0  0  0  0  0  0  0  0  0  0
   -5.9230   -6.6204    6.9912 N   0  0  0  0  0  0  0  0  0  0  0  0
   -6.6853   -6.4762    5.8230 C   0  0  0  0  0  0  0  0  0  0  0  0
   -6.3161   -5.9909    4.7413 O   0  0  0  0  0  0  0  0  0  0  0  0
   -8.2984   -7.1269    6.1867 S   0  0  0  0  0  0  0  0  0  0  0  0
   -8.0337   -7.3152    7.9512 C   0  0  0  0  0  0  0  0  0  0  0  0
   -8.9494   -7.6272    8.8444 C   0  0  0  0  0  0  0  0  0  0  0  0
   -6.6135   -7.0626    8.1313 C   0  0  0  0  0  0  0  0  0  0  0  0
   -6.0866   -7.2554    9.2969 O   0  0  0  0  0  0  0  0  0  0  0  0
   -1.0600   -5.4191    4.7602 C   0  0  0  0  0  0  0  0  0  0  0  0
   -2.3737   -5.8741    5.1728 N   0  0  0  0  0  0  0  0  0  0  0  0
   -2.3299   -6.9304    6.1254 C   0  0  0  0  0  0  0  0  0  0  0  0
   -3.7761   -7.4209    6.2891 C   0  0  0  0  0  0  0  0  0  0  0  0
   -4.4674   -6.3428    7.0530 C   0  0  0  0  0  0  0  0  0  0  0  0
   -4.1656   -4.9547    6.6075 C   0  0  0  0  0  0  0  0  0  0  0  0
   -3.2298   -4.7881    5.4853 C   0  0  0  0  0  0  0  0  0  0  0  0
  -15.5624   -7.5994    7.4082 C   0  0  0  0  0  0  0  0  0  0  0  0
  -16.1530   -7.4271    6.0952 C   0  0  0  0  0  0  0  0  0  0  0  0
  -17.2688   -8.2874    5.8469 C   0  0  0  0  0  0  0  0  0  0  0  0
  -17.9344   -8.2540    4.6698 C   0  0  0  0  0  0  0  0  0  0  0  0
  -17.5691   -7.3933    3.6581 C   0  0  0  0  0  0  0  0  0  0  0  0
  -18.4260   -7.3440    2.1240 Cl  0  0  0  0  0  0  0  0  0  0  0  0
  -16.5054   -6.5759    3.8986 C   0  0  0  0  0  0  0  0  0  0  0  0
  -15.7762   -6.5688    5.1078 C   0  0  0  0  0  0  0  0  0  0  0  0
  -14.6392   -5.6183    5.1854 C   0  0  0  0  0  0  0  0  0  0  0  0
  -14.9147   -4.4814    5.9129 F   0  0  0  0  0  0  0  0  0  0  0  0
  -14.5165   -5.0393    3.8587 F   0  0  0  0  0  0  0  0  0  0  0  0
  -13.4193   -6.1813    5.3534 F   0  0  0  0  0  0  0  0  0  0  0  0
 18 19  1  0  0  0
 19 20  1  0  0  0
 20 21  1  0  0  0
 21 22  1  0  0  0
 22 23  1  0  0  0
 23 24  1  0  0  0
 22 10  1  0  0  0
 10 11  1  0  0  0
 11 12  2  0  0  0
 11 13  1  0  0  0
 13 14  1  0  0  0
 14 15  2  0  0  0
 15  1  1  0  0  0
  1  2  2  0  0  0
  2  3  1  0  0  0
  3  4  2  0  0  0
  4  5  1  0  0  0
  5 25  1  0  0  0
 25 26  1  0  0  0
 26 27  2  0  0  0
 27 28  1  0  0  0
 28 29  2  0  0  0
 29 30  1  0  0  0
 29 31  1  0  0  0
 31 32  2  0  0  0
 32 33  1  0  0  0
 33 34  1  0  0  0
 33 35  1  0  0  0
 33 36  1  0  0  0
  5  6  1  0  0  0
  6  7  2  0  0  0
  7  8  1  0  0  0
  8  9  2  0  0  0
 14 16  1  0  0  0
 16 17  2  0  0  0
 24 19  1  0  0  0
 16 10  1  0  0  0
  9  1  1  0  0  0
  8  4  1  0  0  0
 32 26  1  0  0  0
M  END
> <minimizedAffinity>
-7.07438

> <CNNscore>
0.3212793171

> <CNNaffinity>
7.2031984329

> <CNN_VS>
2.3142387867

> <CNNaffinity_variance>
0.1676989496

$$$$
[H]/C(=C1/SC(=O)N(C2([H])C([H])([H])C([H])([H])N(C([H])([H])[H])C([H])([H])C2([H])[H])C1=O)c1c([H])c([H])c2c(c([H])nn2C([H])([H])c2c([H])c([H])c(Cl)c([H])c2C(F)(F)F)c1[H]


 36 40  0  0  0  0  0  0  0  0999 V2000
  -10.1568   -7.9455    8.1996 C   0  0  0  0  0  0  0  0  0  0  0  0
  -11.1386   -7.0205    8.5737 C   0  0  0  0  0  0  0  0  0  0  0  0
  -12.4609   -7.1586    8.2411 C   0  0  0  0  0  0  0  0  0  0  0  0
  -12.8862   -8.2386    7.5077 C   0  0  0  0  0  0  0  0  0  0  0  0
  -14.0889   -8.6259    7.0828 N   0  0  0  0  0  0  0  0  0  0  0  0
  -13.8635   -9.7915    6.4498 N   0  0  0  0  0  0  0  0  0  0  0  0
  -12.6019  -10.1454    6.4546 C   0  0  0  0  0  0  0  0  0  0  0  0
  -11.9084   -9.1593    7.1379 C   0  0  0  0  0  0  0  0  0  0  0  0
  -10.5700   -9.0132    7.4774 C   0  0  0  0  0  0  0  0  0  0  0  0
   -5.7736   -6.3880    6.9328 N   0  0  0  0  0  0  0  0  0  0  0  0
   -6.4992   -6.2380    5.7420 C   0  0  0  0  0  0  0  0  0  0  0  0
   -6.1194   -5.6863    4.6964 O   0  0  0  0  0  0  0  0  0  0  0  0
   -8.0832   -6.9955    6.0147 S   0  0  0  0  0  0  0  0  0  0  0  0
   -7.8737   -7.2438    7.7792 C   0  0  0  0  0  0  0  0  0  0  0  0
   -8.8020   -7.6460    8.6220 C   0  0  0  0  0  0  0  0  0  0  0  0
   -6.4787   -6.9177    8.0256 C   0  0  0  0  0  0  0  0  0  0  0  0
   -5.9851   -7.1296    9.2024 O   0  0  0  0  0  0  0  0  0  0  0  0
   -1.0609   -5.9477    9.7016 C   0  0  0  0  0  0  0  0  0  0  0  0
   -2.4053   -5.9907    9.1593 N   0  0  0  0  0  0  0  0  0  0  0  0
   -2.7445   -4.8334    8.4037 C   0  0  0  0  0  0  0  0  0  0  0  0
   -4.2430   -4.9510    8.0882 C   0  0  0  0  0  0  0  0  0  0  0  0
   -4.3403   -6.0299    7.0635 C   0  0  0  0  0  0  0  0  0  0  0  0
   -3.5073   -7.2350    7.3285 C   0  0  0  0  0  0  0  0  0  0  0  0
   -2.6832   -7.2386    8.5466 C   0  0  0  0  0  0  0  0  0  0  0  0
  -15.3916   -8.0188    7.1274 C   0  0  0  0  0  0  0  0  0  0  0  0
  -15.7504   -7.0852    6.0777 C   0  0  0  0  0  0  0  0  0  0  0  0
  -14.9412   -5.9057    6.0529 C   0  0  0  0  0  0  0  0  0  0  0  0
  -15.1440   -4.9326    5.1354 C   0  0  0  0  0  0  0  0  0  0  0  0
  -16.1371   -5.0315    4.1857 C   0  0  0  0  0  0  0  0  0  0  0  0
  -16.4104   -3.7715    2.9908 Cl  0  0  0  0  0  0  0  0  0  0  0  0
  -16.9059   -6.1565    4.2132 C   0  0  0  0  0  0  0  0  0  0  0  0
  -16.7374   -7.2021    5.1471 C   0  0  0  0  0  0  0  0  0  0  0  0
  -17.6770   -8.3451    5.0325 C   0  0  0  0  0  0  0  0  0  0  0  0
  -17.1622   -9.4198    4.3415 F   0  0  0  0  0  0  0  0  0  0  0  0
  -18.7050   -7.9198    4.0983 F   0  0  0  0  0  0  0  0  0  0  0  0
  -18.4069   -8.6129    6.1411 F   0  0  0  0  0  0  0  0  0  0  0  0
 18 19  1  0  0  0
 19 20  1  0  0  0
 20 21  1  0  0  0
 21 22  1  0  0  0
 22 23  1  0  0  0
 23 24  1  0  0  0
 22 10  1  0  0  0
 10 11  1  0  0  0
 11 12  2  0  0  0
 11 13  1  0  0  0
 13 14  1  0  0  0
 14 15  2  0  0  0
 15  1  1  0  0  0
  1  2  2  0  0  0
  2  3  1  0  0  0
  3  4  2  0  0  0
  4  5  1  0  0  0
  5 25  1  0  0  0
 25 26  1  0  0  0
 26 27  2  0  0  0
 27 28  1  0  0  0
 28 29  2  0  0  0
 29 30  1  0  0  0
 29 31  1  0  0  0
 31 32  2  0  0  0
 32 33  1  0  0  0
 33 34  1  0  0  0
 33 35  1  0  0  0
 33 36  1  0  0  0
  5  6  1  0  0  0
  6  7  2  0  0  0
  7  8  1  0  0  0
  8  9  2  0  0  0
 14 16  1  0  0  0
 16 17  2  0  0  0
 24 19  1  0  0  0
 16 10  1  0  0  0
  9  1  1  0  0  0
  8  4  1  0  0  0
 32 26  1  0  0  0
M  END
> <minimizedAffinity>
-7.67314

> <CNNscore>
0.3143546283

> <CNNaffinity>
7.1601266861

> <CNN_VS>
2.2508189678

> <CNNaffinity_variance>
0.1678971052

$$$$
[H]/C(=C1/SC(=O)N(C2([H])C([H])([H])C([H])([H])N(C([H])([H])[H])C([H])([H])C2([H])[H])C1=O)c1c([H])c([H])c2c(c([H])nn2C([H])([H])c2c([H])c([H])c(Cl)c([H])c2C(F)(F)F)c1[H]


 36 40  0  0  0  0  0  0  0  0999 V2000
   -5.0555   -5.5244    5.7149 C   0  0  0  0  0  0  0  0  0  0  0  0
   -4.9274   -6.4760    6.7335 C   0  0  0  0  0  0  0  0  0  0  0  0
   -5.9929   -7.1666    7.2493 C   0  0  0  0  0  0  0  0  0  0  0  0
   -7.2622   -6.9461    6.7748 C   0  0  0  0  0  0  0  0  0  0  0  0
   -8.4442   -7.4881    7.0687 N   0  0  0  0  0  0  0  0  0  0  0  0
   -9.3090   -6.8832    6.2342 N   0  0  0  0  0  0  0  0  0  0  0  0
   -8.7383   -6.0034    5.4488 C   0  0  0  0  0  0  0  0  0  0  0  0
   -7.3879   -6.0004    5.7597 C   0  0  0  0  0  0  0  0  0  0  0  0
   -6.3044   -5.3033    5.2419 C   0  0  0  0  0  0  0  0  0  0  0  0
   -2.9564   -2.4640    2.6373 N   0  0  0  0  0  0  0  0  0  0  0  0
   -4.3078   -2.3729    2.2735 C   0  0  0  0  0  0  0  0  0  0  0  0
   -4.8165   -1.5736    1.4708 O   0  0  0  0  0  0  0  0  0  0  0  0
   -5.1651   -3.6321    3.1884 S   0  0  0  0  0  0  0  0  0  0  0  0
   -3.7851   -4.0697    4.2481 C   0  0  0  0  0  0  0  0  0  0  0  0
   -3.8308   -4.8743    5.2893 C   0  0  0  0  0  0  0  0  0  0  0  0
   -2.6541   -3.3547    3.6801 C   0  0  0  0  0  0  0  0  0  0  0  0
   -1.4714   -3.5760    4.1553 O   0  0  0  0  0  0  0  0  0  0  0  0
   -1.0828    1.5424   -0.6042 C   0  0  0  0  0  0  0  0  0  0  0  0
   -1.7378    0.4541    0.0956 N   0  0  0  0  0  0  0  0  0  0  0  0
   -1.1261   -0.8105   -0.1324 C   0  0  0  0  0  0  0  0  0  0  0  0
   -2.0544   -1.8569    0.5018 C   0  0  0  0  0  0  0  0  0  0  0  0
   -1.8804   -1.6889    1.9733 C   0  0  0  0  0  0  0  0  0  0  0  0
   -1.8581   -0.2800    2.4538 C   0  0  0  0  0  0  0  0  0  0  0  0
   -2.0005    0.7844    1.4490 C   0  0  0  0  0  0  0  0  0  0  0  0
   -8.8746   -8.4309    8.0652 C   0  0  0  0  0  0  0  0  0  0  0  0
  -10.2941   -8.5391    8.3406 C   0  0  0  0  0  0  0  0  0  0  0  0
  -10.7393   -7.7028    9.4126 C   0  0  0  0  0  0  0  0  0  0  0  0
  -12.0358   -7.6836    9.7978 C   0  0  0  0  0  0  0  0  0  0  0  0
  -12.9847   -8.4670    9.1783 C   0  0  0  0  0  0  0  0  0  0  0  0
  -14.6714   -8.4512    9.6730 Cl  0  0  0  0  0  0  0  0  0  0  0  0
  -12.5562   -9.2625    8.1580 C   0  0  0  0  0  0  0  0  0  0  0  0
  -11.2166   -9.3209    7.7152 C   0  0  0  0  0  0  0  0  0  0  0  0
  -10.9328  -10.2555    6.5978 C   0  0  0  0  0  0  0  0  0  0  0  0
  -10.8524  -11.5751    6.9847 F   0  0  0  0  0  0  0  0  0  0  0  0
   -9.5474  -10.0212    6.2285 F   0  0  0  0  0  0  0  0  0  0  0  0
  -11.5757   -9.9879    5.4366 F   0  0  0  0  0  0  0  0  0  0  0  0
 18 19  1  0  0  0
 19 20  1  0  0  0
 20 21  1  0  0  0
 21 22  1  0  0  0
 22 23  1  0  0  0
 23 24  1  0  0  0
 22 10  1  0  0  0
 10 11  1  0  0  0
 11 12  2  0  0  0
 11 13  1  0  0  0
 13 14  1  0  0  0
 14 15  2  0  0  0
 15  1  1  0  0  0
  1  2  2  0  0  0
  2  3  1  0  0  0
  3  4  2  0  0  0
  4  5  1  0  0  0
  5 25  1  0  0  0
 25 26  1  0  0  0
 26 27  2  0  0  0
 27 28  1  0  0  0
 28 29  2  0  0  0
 29 30  1  0  0  0
 29 31  1  0  0  0
 31 32  2  0  0  0
 32 33  1  0  0  0
 33 34  1  0  0  0
 33 35  1  0  0  0
 33 36  1  0  0  0
  5  6  1  0  0  0
  6  7  2  0  0  0
  7  8  1  0  0  0
  8  9  2  0  0  0
 14 16  1  0  0  0
 16 17  2  0  0  0
 24 19  1  0  0  0
 16 10  1  0  0  0
  9  1  1  0  0  0
  8  4  1  0  0  0
 32 26  1  0  0  0
M  END
> <minimizedAffinity>
2.48621

> <CNNscore>
0.3103478551

> <CNNaffinity>
6.0511131287

> <CNN_VS>
1.8779499531

> <CNNaffinity_variance>
0.6474819183

$$$$
[H]/C(=C1/SC(=O)N(C2([H])C([H])([H])C([H])([H])N(C([H])([H])[H])C([H])([H])C2([H])[H])C1=O)c1c([H])c([H])c2c(c([H])nn2C([H])([H])c2c([H])c([H])c(Cl)c([H])c2C(F)(F)F)c1[H]


 36 40  0  0  0  0  0  0  0  0999 V2000
   -7.3854   -7.1037    6.3134 C   0  0  0  0  0  0  0  0  0  0  0  0
   -8.4684   -6.4963    6.9596 C   0  0  0  0  0  0  0  0  0  0  0  0
   -9.5385   -7.2004    7.4466 C   0  0  0  0  0  0  0  0  0  0  0  0
   -9.5922   -8.5661    7.3159 C   0  0  0  0  0  0  0  0  0  0  0  0
  -10.4784   -9.4784    7.7153 N   0  0  0  0  0  0  0  0  0  0  0  0
   -9.9508  -10.6534    7.3264 N   0  0  0  0  0  0  0  0  0  0  0  0
   -8.8008  -10.5243    6.7119 C   0  0  0  0  0  0  0  0  0  0  0  0
   -8.5128   -9.1693    6.6745 C   0  0  0  0  0  0  0  0  0  0  0  0
   -7.4317   -8.4501    6.1825 C   0  0  0  0  0  0  0  0  0  0  0  0
   -3.3799   -4.6488    7.3967 N   0  0  0  0  0  0  0  0  0  0  0  0
   -3.6394   -5.3379    8.5903 C   0  0  0  0  0  0  0  0  0  0  0  0
   -2.9097   -5.4033    9.5929 O   0  0  0  0  0  0  0  0  0  0  0  0
   -5.2285   -6.1089    8.3954 S   0  0  0  0  0  0  0  0  0  0  0  0
   -5.3992   -5.7521    6.6454 C   0  0  0  0  0  0  0  0  0  0  0  0
   -6.3386   -6.2146    5.8470 C   0  0  0  0  0  0  0  0  0  0  0  0
   -4.2963   -4.8517    6.3522 C   0  0  0  0  0  0  0  0  0  0  0  0
   -4.2278   -4.3069    5.1808 O   0  0  0  0  0  0  0  0  0  0  0  0
   -1.0600    0.1342    6.0513 C   0  0  0  0  0  0  0  0  0  0  0  0
   -1.8045   -1.0981    6.2258 N   0  0  0  0  0  0  0  0  0  0  0  0
   -1.1444   -2.2360    5.6832 C   0  0  0  0  0  0  0  0  0  0  0  0
   -2.1482   -3.3953    5.7675 C   0  0  0  0  0  0  0  0  0  0  0  0
   -2.2213   -3.7407    7.2163 C   0  0  0  0  0  0  0  0  0  0  0  0
   -2.2999   -2.5785    8.1435 C   0  0  0  0  0  0  0  0  0  0  0  0
   -2.2913   -1.2327    7.5506 C   0  0  0  0  0  0  0  0  0  0  0  0
  -11.7709   -9.3889    8.3388 C   0  0  0  0  0  0  0  0  0  0  0  0
  -12.7520   -8.4920    7.7597 C   0  0  0  0  0  0  0  0  0  0  0  0
  -13.2137   -8.8980    6.4680 C   0  0  0  0  0  0  0  0  0  0  0  0
  -14.1307   -8.1719    5.7885 C   0  0  0  0  0  0  0  0  0  0  0  0
  -14.6602   -7.0106    6.3069 C   0  0  0  0  0  0  0  0  0  0  0  0
  -15.8504   -6.0587    5.4309 Cl  0  0  0  0  0  0  0  0  0  0  0  0
  -14.2173   -6.6272    7.5375 C   0  0  0  0  0  0  0  0  0  0  0  0
  -13.2633   -7.3469    8.2898 C   0  0  0  0  0  0  0  0  0  0  0  0
  -12.8916   -6.7704    9.6057 C   0  0  0  0  0  0  0  0  0  0  0  0
  -13.4340   -7.4420   10.6793 F   0  0  0  0  0  0  0  0  0  0  0  0
  -13.6168   -5.5157    9.7069 F   0  0  0  0  0  0  0  0  0  0  0  0
  -11.6076   -6.3555    9.7185 F   0  0  0  0  0  0  0  0  0  0  0  0
 18 19  1  0  0  0
 19 20  1  0  0  0
 20 21  1  0  0  0
 21 22  1  0  0  0
 22 23  1  0  0  0
 23 24  1  0  0  0
 22 10  1  0  0  0
 10 11  1  0  0  0
 11 12  2  0  0  0
 11 13  1  0  0  0
 13 14  1  0  0  0
 14 15  2  0  0  0
 15  1  1  0  0  0
  1  2  2  0  0  0
  2  3  1  0  0  0
  3  4  2  0  0  0
  4  5  1  0  0  0
  5 25  1  0  0  0
 25 26  1  0  0  0
 26 27  2  0  0  0
 27 28  1  0  0  0
 28 29  2  0  0  0
 29 30  1  0  0  0
 29 31  1  0  0  0
 31 32  2  0  0  0
 32 33  1  0  0  0
 33 34  1  0  0  0
 33 35  1  0  0  0
 33 36  1  0  0  0
  5  6  1  0  0  0
  6  7  2  0  0  0
  7  8  1  0  0  0
  8  9  2  0  0  0
 14 16  1  0  0  0
 16 17  2  0  0  0
 24 19  1  0  0  0
 16 10  1  0  0  0
  9  1  1  0  0  0
  8  4  1  0  0  0
 32 26  1  0  0  0
M  END
> <minimizedAffinity>
-8.42211

> <CNNscore>
0.3080478311

> <CNNaffinity>
6.9841370583

> <CNN_VS>
2.1514482498

> <CNNaffinity_variance>
0.1381346881

$$$$
[H]/C(=C1/SC(=O)N(C2([H])C([H])([H])C([H])([H])N(C([H])([H])[H])C([H])([H])C2([H])[H])C1=O)c1c([H])c([H])c2c(c([H])nn2C([H])([H])c2c([H])c([H])c(Cl)c([H])c2C(F)(F)F)c1[H]


 36 40  0  0  0  0  0  0  0  0999 V2000
   -6.5712   -8.0659    6.8089 C   0  0  0  0  0  0  0  0  0  0  0  0
   -7.1894   -6.8256    7.0067 C   0  0  0  0  0  0  0  0  0  0  0  0
   -6.5212   -5.7236    7.4728 C   0  0  0  0  0  0  0  0  0  0  0  0
   -5.1833   -5.7945    7.7726 C   0  0  0  0  0  0  0  0  0  0  0  0
   -4.3037   -4.8895    8.2020 N   0  0  0  0  0  0  0  0  0  0  0  0
   -3.1378   -5.5576    8.2679 N   0  0  0  0  0  0  0  0  0  0  0  0
   -3.2422   -6.8138    7.9104 C   0  0  0  0  0  0  0  0  0  0  0  0
   -4.5690   -7.0288    7.5733 C   0  0  0  0  0  0  0  0  0  0  0  0
   -5.2518   -8.1420    7.1015 C   0  0  0  0  0  0  0  0  0  0  0  0
   -7.8998  -10.7901    3.0597 N   0  0  0  0  0  0  0  0  0  0  0  0
   -6.8601  -10.0215    2.5164 C   0  0  0  0  0  0  0  0  0  0  0  0
   -6.3336  -10.1540    1.3996 O   0  0  0  0  0  0  0  0  0  0  0  0
   -6.4331   -8.8077    3.7419 S   0  0  0  0  0  0  0  0  0  0  0  0
   -7.4292   -9.5092    5.0590 C   0  0  0  0  0  0  0  0  0  0  0  0
   -7.4225   -9.1341    6.3211 C   0  0  0  0  0  0  0  0  0  0  0  0
   -8.2196  -10.5382    4.4037 C   0  0  0  0  0  0  0  0  0  0  0  0
   -9.1436  -11.1420    5.0784 O   0  0  0  0  0  0  0  0  0  0  0  0
   -8.2618  -15.0613   -0.3601 C   0  0  0  0  0  0  0  0  0  0  0  0
   -8.0055  -13.8560    0.4045 N   0  0  0  0  0  0  0  0  0  0  0  0
   -8.9142  -12.8005    0.1127 C   0  0  0  0  0  0  0  0  0  0  0  0
   -8.3782  -11.5590    0.8410 C   0  0  0  0  0  0  0  0  0  0  0  0
   -8.6483  -11.8102    2.2859 C   0  0  0  0  0  0  0  0  0  0  0  0
   -8.3319  -13.1848    2.7620 C   0  0  0  0  0  0  0  0  0  0  0  0
   -7.8014  -14.1408    1.7783 C   0  0  0  0  0  0  0  0  0  0  0  0
   -4.4258   -3.5202    8.6232 C   0  0  0  0  0  0  0  0  0  0  0  0
   -3.5405   -2.5374    8.0293 C   0  0  0  0  0  0  0  0  0  0  0  0
   -3.8200   -2.2661    6.6527 C   0  0  0  0  0  0  0  0  0  0  0  0
   -3.0869   -1.3735    5.9488 C   0  0  0  0  0  0  0  0  0  0  0  0
   -2.0395   -0.6871    6.5228 C   0  0  0  0  0  0  0  0  0  0  0  0
   -1.0792    0.4729    5.6160 Cl  0  0  0  0  0  0  0  0  0  0  0  0
   -1.7763   -0.9489    7.8342 C   0  0  0  0  0  0  0  0  0  0  0  0
   -2.5092   -1.8691    8.6153 C   0  0  0  0  0  0  0  0  0  0  0  0
   -2.0706   -2.0336   10.0234 C   0  0  0  0  0  0  0  0  0  0  0  0
   -1.1014   -2.9976   10.1939 F   0  0  0  0  0  0  0  0  0  0  0  0
   -3.1791   -2.6730   10.7109 F   0  0  0  0  0  0  0  0  0  0  0  0
   -1.9345   -0.8861   10.7293 F   0  0  0  0  0  0  0  0  0  0  0  0
 18 19  1  0  0  0
 19 20  1  0  0  0
 20 21  1  0  0  0
 21 22  1  0  0  0
 22 23  1  0  0  0
 23 24  1  0  0  0
 22 10  1  0  0  0
 10 11  1  0  0  0
 11 12  2  0  0  0
 11 13  1  0  0  0
 13 14  1  0  0  0
 14 15  2  0  0  0
 15  1  1  0  0  0
  1  2  2  0  0  0
  2  3  1  0  0  0
  3  4  2  0  0  0
  4  5  1  0  0  0
  5 25  1  0  0  0
 25 26  1  0  0  0
 26 27  2  0  0  0
 27 28  1  0  0  0
 28 29  2  0  0  0
 29 30  1  0  0  0
 29 31  1  0  0  0
 31 32  2  0  0  0
 32 33  1  0  0  0
 33 34  1  0  0  0
 33 35  1  0  0  0
 33 36  1  0  0  0
  5  6  1  0  0  0
  6  7  2  0  0  0
  7  8  1  0  0  0
  8  9  2  0  0  0
 14 16  1  0  0  0
 16 17  2  0  0  0
 24 19  1  0  0  0
 16 10  1  0  0  0
  9  1  1  0  0  0
  8  4  1  0  0  0
 32 26  1  0  0  0
M  END
> <minimizedAffinity>
15.00003

> <CNNscore>
0.2773798704

> <CNNaffinity>
5.8655719757

> <CNN_VS>
1.6269916296

> <CNNaffinity_variance>
0.7474263906

$$$$
[H]Oc1c([H])c([H])c2c(c1[H])OC([H])([H])c1c-2nc2c([H])c([H])c(O[H])c([H])c2c1C#N


 24 27  0  0  0  0  0  0  0  0999 V2000
   -3.4751   -7.5944    6.3013 O   0  0  0  0  0  0  0  0  0  0  0  0
   -4.7989   -7.5937    6.7146 C   0  0  0  0  0  0  0  0  0  0  0  0
   -5.2711   -6.5892    7.5317 C   0  0  0  0  0  0  0  0  0  0  0  0
   -6.5844   -6.5718    7.9530 C   0  0  0  0  0  0  0  0  0  0  0  0
   -7.4508   -7.5536    7.5685 C   0  0  0  0  0  0  0  0  0  0  0  0
   -7.0117   -8.5712    6.7530 C   0  0  0  0  0  0  0  0  0  0  0  0
   -7.8439   -9.5855    6.3362 O   0  0  0  0  0  0  0  0  0  0  0  0
   -9.1681   -9.6804    6.6859 C   0  0  0  0  0  0  0  0  0  0  0  0
   -9.6446   -8.6090    7.5490 C   0  0  0  0  0  0  0  0  0  0  0  0
   -8.8415   -7.5951    7.9746 C   0  0  0  0  0  0  0  0  0  0  0  0
   -9.3676   -6.6410    8.7750 N   0  0  0  0  0  0  0  0  0  0  0  0
  -10.6492   -6.6428    9.1736 C   0  0  0  0  0  0  0  0  0  0  0  0
  -11.1659   -5.6609    9.9895 C   0  0  0  0  0  0  0  0  0  0  0  0
  -12.4917   -5.7169   10.3657 C   0  0  0  0  0  0  0  0  0  0  0  0
  -13.3324   -6.7295    9.9527 C   0  0  0  0  0  0  0  0  0  0  0  0
  -14.6514   -6.7029   10.3818 O   0  0  0  0  0  0  0  0  0  0  0  0
  -12.8236   -7.7153    9.1365 C   0  0  0  0  0  0  0  0  0  0  0  0
  -11.4771   -7.6632    8.7512 C   0  0  0  0  0  0  0  0  0  0  0  0
  -10.9836   -8.6532    7.9372 C   0  0  0  0  0  0  0  0  0  0  0  0
   -5.6805   -8.5795    6.3322 C   0  0  0  0  0  0  0  0  0  0  0  0
   -2.8101   -6.9046    6.5539 H   0  0  0  0  0  0  0  0  0  0  0  0
  -14.8981   -7.1680   11.2458 H   0  0  0  0  0  0  0  0  0  0  0  0
  -11.8307   -9.7325    7.4817 C   0  0  0  0  0  0  0  0  0  0  0  0
  -12.5257  -10.5855    7.1144 N   0  0  0  0  0  0  0  0  0  0  0  0
  1  2  1  0  0  0
  2  3  2  0  0  0
  3  4  1  0  0  0
  4  5  2  0  0  0
  5  6  1  0  0  0
  6  7  1  0  0  0
  7  8  1  0  0  0
  8  9  1  0  0  0
  9 10  2  0  0  0
 10 11  1  0  0  0
 11 12  2  0  0  0
 12 13  1  0  0  0
 13 14  2  0  0  0
 14 15  1  0  0  0
 15 16  1  0  0  0
 15 17  2  0  0  0
 17 18  1  0  0  0
 18 19  2  0  0  0
 19 23  1  0  0  0
 23 24  3  0  0  0
  6 20  2  0  0  0
 20  2  1  0  0  0
  5 10  1  0  0  0
 18 12  1  0  0  0
 19  9  1  0  0  0
  1 21  1  0  0  0
 16 22  1  0  0  0
M  END
> <minimizedAffinity>
-6.54036

> <CNNscore>
0.5295123458

> <CNNaffinity>
5.8655948639

> <CNN_VS>
3.1059048176

> <CNNaffinity_variance>
0.0537740774

$$$$
[H]Oc1c([H])c([H])c2c(c1[H])OC([H])([H])c1c-2nc2c([H])c([H])c(O[H])c([H])c2c1C#N


 24 27  0  0  0  0  0  0  0  0999 V2000
   -1.0955  -10.2420   13.0899 O   0  0  0  0  0  0  0  0  0  0  0  0
   -1.0912   -9.8523   11.7590 C   0  0  0  0  0  0  0  0  0  0  0  0
   -1.0909   -8.5146   11.4269 C   0  0  0  0  0  0  0  0  0  0  0  0
   -1.0866   -8.1078   10.1089 C   0  0  0  0  0  0  0  0  0  0  0  0
   -1.0825   -9.0250    9.0983 C   0  0  0  0  0  0  0  0  0  0  0  0
   -1.0826  -10.3686    9.3954 C   0  0  0  0  0  0  0  0  0  0  0  0
   -1.0786  -11.3346    8.4146 O   0  0  0  0  0  0  0  0  0  0  0  0
   -1.0741  -11.0588    7.0698 C   0  0  0  0  0  0  0  0  0  0  0  0
   -1.0740   -9.6400    6.7428 C   0  0  0  0  0  0  0  0  0  0  0  0
   -1.0779   -8.6658    7.6943 C   0  0  0  0  0  0  0  0  0  0  0  0
   -1.0774   -7.3725    7.3007 N   0  0  0  0  0  0  0  0  0  0  0  0
   -1.0732   -6.9980    6.0118 C   0  0  0  0  0  0  0  0  0  0  0  0
   -1.0728   -5.6743    5.6317 C   0  0  0  0  0  0  0  0  0  0  0  0
   -1.0683   -5.3514    4.2908 C   0  0  0  0  0  0  0  0  0  0  0  0
   -1.0643   -6.3129    3.3018 C   0  0  0  0  0  0  0  0  0  0  0  0
   -1.0600   -5.8936    1.9794 O   0  0  0  0  0  0  0  0  0  0  0  0
   -1.0646   -7.6391    3.6734 C   0  0  0  0  0  0  0  0  0  0  0  0
   -1.0691   -7.9727    5.0346 C   0  0  0  0  0  0  0  0  0  0  0  0
   -1.0695   -9.2992    5.3902 C   0  0  0  0  0  0  0  0  0  0  0  0
   -1.0870  -10.7697   10.7326 C   0  0  0  0  0  0  0  0  0  0  0  0
   -1.0986   -9.6142   13.8565 H   0  0  0  0  0  0  0  0  0  0  0  0
   -1.9420   -5.7452    1.5064 H   0  0  0  0  0  0  0  0  0  0  0  0
   -1.0653  -10.3384    4.3853 C   0  0  0  0  0  0  0  0  0  0  0  0
   -1.0643  -11.1583    3.5647 N   0  0  0  0  0  0  0  0  0  0  0  0
  1  2  1  0  0  0
  2  3  2  0  0  0
  3  4  1  0  0  0
  4  5  2  0  0  0
  5  6  1  0  0  0
  6  7  1  0  0  0
  7  8  1  0  0  0
  8  9  1  0  0  0
  9 10  2  0  0  0
 10 11  1  0  0  0
 11 12  2  0  0  0
 12 13  1  0  0  0
 13 14  2  0  0  0
 14 15  1  0  0  0
 15 16  1  0  0  0
 15 17  2  0  0  0
 17 18  1  0  0  0
 18 19  2  0  0  0
 19 23  1  0  0  0
 23 24  3  0  0  0
  6 20  2  0  0  0
 20  2  1  0  0  0
  5 10  1  0  0  0
 18 12  1  0  0  0
 19  9  1  0  0  0
  1 21  1  0  0  0
 16 22  1  0  0  0
M  END
> <minimizedAffinity>
-2.58688

> <CNNscore>
0.4893985689

> <CNNaffinity>
4.4799141884

> <CNN_VS>
2.1924636364

> <CNNaffinity_variance>
0.9173291922

$$$$
[H]Oc1c([H])c([H])c2c(c1[H])OC([H])([H])c1c-2nc2c([H])c([H])c(O[H])c([H])c2c1C#N


 24 27  0  0  0  0  0  0  0  0999 V2000
   -8.5832  -11.7742    1.8229 O   0  0  0  0  0  0  0  0  0  0  0  0
   -8.0238  -10.9194    2.7608 C   0  0  0  0  0  0  0  0  0  0  0  0
   -6.9921  -10.0775    2.4053 C   0  0  0  0  0  0  0  0  0  0  0  0
   -6.4232   -9.2204    3.3242 C   0  0  0  0  0  0  0  0  0  0  0  0
   -6.8711   -9.1860    4.6129 C   0  0  0  0  0  0  0  0  0  0  0  0
   -7.8998  -10.0136    5.0007 C   0  0  0  0  0  0  0  0  0  0  0  0
   -8.3891  -10.0186    6.2875 O   0  0  0  0  0  0  0  0  0  0  0  0
   -7.9088   -9.2146    7.2912 C   0  0  0  0  0  0  0  0  0  0  0  0
   -6.8197   -8.3342    6.8929 C   0  0  0  0  0  0  0  0  0  0  0  0
   -6.3185   -8.3105    5.6270 C   0  0  0  0  0  0  0  0  0  0  0  0
   -5.3056   -7.4608    5.3445 N   0  0  0  0  0  0  0  0  0  0  0  0
   -4.7661   -6.6345    6.2542 C   0  0  0  0  0  0  0  0  0  0  0  0
   -3.7343   -5.7760    5.9458 C   0  0  0  0  0  0  0  0  0  0  0  0
   -3.2211   -4.9501    6.9239 C   0  0  0  0  0  0  0  0  0  0  0  0
   -3.7053   -4.9488    8.2155 C   0  0  0  0  0  0  0  0  0  0  0  0
   -3.1265   -4.0831    9.1322 O   0  0  0  0  0  0  0  0  0  0  0  0
   -4.7371   -5.8043    8.5321 C   0  0  0  0  0  0  0  0  0  0  0  0
   -5.2624   -6.6456    7.5420 C   0  0  0  0  0  0  0  0  0  0  0  0
   -6.2911   -7.4935    7.8724 C   0  0  0  0  0  0  0  0  0  0  0  0
   -8.4686  -10.8773    4.0629 C   0  0  0  0  0  0  0  0  0  0  0  0
   -8.2923  -11.8348    0.8776 H   0  0  0  0  0  0  0  0  0  0  0  0
   -2.3357   -4.3999    9.6780 H   0  0  0  0  0  0  0  0  0  0  0  0
   -6.8279   -7.5237    9.2143 C   0  0  0  0  0  0  0  0  0  0  0  0
   -7.2440   -7.5357   10.2971 N   0  0  0  0  0  0  0  0  0  0  0  0
  1  2  1  0  0  0
  2  3  2  0  0  0
  3  4  1  0  0  0
  4  5  2  0  0  0
  5  6  1  0  0  0
  6  7  1  0  0  0
  7  8  1  0  0  0
  8  9  1  0  0  0
  9 10  2  0  0  0
 10 11  1  0  0  0
 11 12  2  0  0  0
 12 13  1  0  0  0
 13 14  2  0  0  0
 14 15  1  0  0  0
 15 16  1  0  0  0
 15 17  2  0  0  0
 17 18  1  0  0  0
 18 19  2  0  0  0
 19 23  1  0  0  0
 23 24  3  0  0  0
  6 20  2  0  0  0
 20  2  1  0  0  0
  5 10  1  0  0  0
 18 12  1  0  0  0
 19  9  1  0  0  0
  1 21  1  0  0  0
 16 22  1  0  0  0
M  END
> <minimizedAffinity>
9.63842

> <CNNscore>
0.4854620099

> <CNNaffinity>
5.0347204208

> <CNN_VS>
2.4441654682

> <CNNaffinity_variance>
1.1761367321

$$$$
[H]Oc1c([H])c([H])c2c(c1[H])OC([H])([H])c1c-2nc2c([H])c([H])c(O[H])c([H])c2c1C#N


 24 27  0  0  0  0  0  0  0  0999 V2000
  -12.3709   -3.9557    2.3931 O   0  0  0  0  0  0  0  0  0  0  0  0
  -13.2712   -4.7076    3.1327 C   0  0  0  0  0  0  0  0  0  0  0  0
  -14.4506   -5.1371    2.5630 C   0  0  0  0  0  0  0  0  0  0  0  0
  -15.3582   -5.8859    3.2829 C   0  0  0  0  0  0  0  0  0  0  0  0
  -15.1082   -6.2204    4.5821 C   0  0  0  0  0  0  0  0  0  0  0  0
  -13.9401   -5.8075    5.1811 C   0  0  0  0  0  0  0  0  0  0  0  0
  -13.6391   -6.1175    6.4882 O   0  0  0  0  0  0  0  0  0  0  0  0
  -14.4581   -6.8543    7.3073 C   0  0  0  0  0  0  0  0  0  0  0  0
  -15.6975   -7.2969    6.6846 C   0  0  0  0  0  0  0  0  0  0  0  0
  -16.0180   -7.0035    5.3941 C   0  0  0  0  0  0  0  0  0  0  0  0
  -17.1909   -7.4555    4.8965 N   0  0  0  0  0  0  0  0  0  0  0  0
  -18.0606   -8.1832    5.6146 C   0  0  0  0  0  0  0  0  0  0  0  0
  -19.2508   -8.6342    5.0886 C   0  0  0  0  0  0  0  0  0  0  0  0
  -20.1042   -9.3783    5.8763 C   0  0  0  0  0  0  0  0  0  0  0  0
  -19.8104   -9.6932    7.1867 C   0  0  0  0  0  0  0  0  0  0  0  0
  -20.7297  -10.4467    7.9022 O   0  0  0  0  0  0  0  0  0  0  0  0
  -18.6221   -9.2460    7.7204 C   0  0  0  0  0  0  0  0  0  0  0  0
  -17.7513   -8.4896    6.9243 C   0  0  0  0  0  0  0  0  0  0  0  0
  -16.5700   -8.0504    7.4700 C   0  0  0  0  0  0  0  0  0  0  0  0
  -13.0282   -5.0501    4.4437 C   0  0  0  0  0  0  0  0  0  0  0  0
  -12.5082   -3.6886    1.4487 H   0  0  0  0  0  0  0  0  0  0  0  0
  -21.4556   -9.9730    8.4242 H   0  0  0  0  0  0  0  0  0  0  0  0
  -16.2235   -8.3583    8.8393 C   0  0  0  0  0  0  0  0  0  0  0  0
  -15.9416   -8.5859    9.9413 N   0  0  0  0  0  0  0  0  0  0  0  0
  1  2  1  0  0  0
  2  3  2  0  0  0
  3  4  1  0  0  0
  4  5  2  0  0  0
  5  6  1  0  0  0
  6  7  1  0  0  0
  7  8  1  0  0  0
  8  9  1  0  0  0
  9 10  2  0  0  0
 10 11  1  0  0  0
 11 12  2  0  0  0
 12 13  1  0  0  0
 13 14  2  0  0  0
 14 15  1  0  0  0
 15 16  1  0  0  0
 15 17  2  0  0  0
 17 18  1  0  0  0
 18 19  2  0  0  0
 19 23  1  0  0  0
 23 24  3  0  0  0
  6 20  2  0  0  0
 20  2  1  0  0  0
  5 10  1  0  0  0
 18 12  1  0  0  0
 19  9  1  0  0  0
  1 21  1  0  0  0
 16 22  1  0  0  0
M  END
> <minimizedAffinity>
15.43564

> <CNNscore>
0.4540672302

> <CNNaffinity>
5.9692468643

> <CNN_VS>
2.7104394436

> <CNNaffinity_variance>
1.8666217327

$$$$
[H]Oc1c([H])c([H])c2c(c1[H])OC([H])([H])c1c-2nc2c([H])c([H])c(O[H])c([H])c2c1C#N


 24 27  0  0  0  0  0  0  0  0999 V2000
  -13.7748   -4.0151    1.9505 O   0  0  0  0  0  0  0  0  0  0  0  0
  -14.0744   -4.6754    3.1325 C   0  0  0  0  0  0  0  0  0  0  0  0
  -13.1353   -4.7612    4.1378 C   0  0  0  0  0  0  0  0  0  0  0  0
  -13.4150   -5.4139    5.3203 C   0  0  0  0  0  0  0  0  0  0  0  0
  -14.6342   -5.9925    5.5233 C   0  0  0  0  0  0  0  0  0  0  0  0
  -15.5945   -5.9252    4.5400 C   0  0  0  0  0  0  0  0  0  0  0  0
  -16.8397   -6.4916    4.6937 O   0  0  0  0  0  0  0  0  0  0  0  0
  -17.2390   -7.1664    5.8206 C   0  0  0  0  0  0  0  0  0  0  0  0
  -16.2311   -7.2444    6.8685 C   0  0  0  0  0  0  0  0  0  0  0  0
  -14.9928   -6.6925    6.7406 C   0  0  0  0  0  0  0  0  0  0  0  0
  -14.1184   -6.8128    7.7646 N   0  0  0  0  0  0  0  0  0  0  0  0
  -14.4110   -7.4525    8.9077 C   0  0  0  0  0  0  0  0  0  0  0  0
  -13.5055   -7.5639    9.9394 C   0  0  0  0  0  0  0  0  0  0  0  0
  -13.8645   -8.2336   11.0904 C   0  0  0  0  0  0  0  0  0  0  0  0
  -15.1098   -8.8041   11.2526 C   0  0  0  0  0  0  0  0  0  0  0  0
  -15.3814   -9.4582   12.4455 O   0  0  0  0  0  0  0  0  0  0  0  0
  -16.0213   -8.6972   10.2256 C   0  0  0  0  0  0  0  0  0  0  0  0
  -15.6617   -8.0176    9.0538 C   0  0  0  0  0  0  0  0  0  0  0  0
  -16.5808   -7.9191    8.0382 C   0  0  0  0  0  0  0  0  0  0  0  0
  -15.3012   -5.2623    3.3469 C   0  0  0  0  0  0  0  0  0  0  0  0
  -12.9055   -3.5804    1.7575 H   0  0  0  0  0  0  0  0  0  0  0  0
  -15.1770  -10.4460   12.5237 H   0  0  0  0  0  0  0  0  0  0  0  0
  -17.8972   -8.5027    8.1673 C   0  0  0  0  0  0  0  0  0  0  0  0
  -18.9462   -8.9883    8.2638 N   0  0  0  0  0  0  0  0  0  0  0  0
  1  2  1  0  0  0
  2  3  2  0  0  0
  3  4  1  0  0  0
  4  5  2  0  0  0
  5  6  1  0  0  0
  6  7  1  0  0  0
  7  8  1  0  0  0
  8  9  1  0  0  0
  9 10  2  0  0  0
 10 11  1  0  0  0
 11 12  2  0  0  0
 12 13  1  0  0  0
 13 14  2  0  0  0
 14 15  1  0  0  0
 15 16  1  0  0  0
 15 17  2  0  0  0
 17 18  1  0  0  0
 18 19  2  0  0  0
 19 23  1  0  0  0
 23 24  3  0  0  0
  6 20  2  0  0  0
 20  2  1  0  0  0
  5 10  1  0  0  0
 18 12  1  0  0  0
 19  9  1  0  0  0
  1 21  1  0  0  0
 16 22  1  0  0  0
M  END
> <minimizedAffinity>
16.22618

> <CNNscore>
0.4388423860

> <CNNaffinity>
6.1025886536

> <CNN_VS>
2.6780745983

> <CNNaffinity_variance>
1.9176172018

$$$$
[H]Oc1c([H])c([H])c2c(c1[H])OC([H])([H])c1c-2nc2c([H])c([H])c(O[H])c([H])c2c1C#N


 24 27  0  0  0  0  0  0  0  0999 V2000
  -14.7459   -2.8852    2.6827 O   0  0  0  0  0  0  0  0  0  0  0  0
  -15.3697   -3.8759    3.4261 C   0  0  0  0  0  0  0  0  0  0  0  0
  -16.5882   -4.3811    3.0264 C   0  0  0  0  0  0  0  0  0  0  0  0
  -17.2237   -5.3665    3.7527 C   0  0  0  0  0  0  0  0  0  0  0  0
  -16.6578   -5.8665    4.8895 C   0  0  0  0  0  0  0  0  0  0  0  0
  -15.4419   -5.3841    5.3164 C   0  0  0  0  0  0  0  0  0  0  0  0
  -14.8277   -5.8536    6.4555 O   0  0  0  0  0  0  0  0  0  0  0  0
  -15.3569   -6.8302    7.2623 C   0  0  0  0  0  0  0  0  0  0  0  0
  -16.6438   -7.3487    6.8208 C   0  0  0  0  0  0  0  0  0  0  0  0
  -17.2713   -6.9009    5.6983 C   0  0  0  0  0  0  0  0  0  0  0  0
  -18.4652   -7.4388    5.3623 N   0  0  0  0  0  0  0  0  0  0  0  0
  -19.0667   -8.3976    6.0837 C   0  0  0  0  0  0  0  0  0  0  0  0
  -20.2838   -8.9326    5.7240 C   0  0  0  0  0  0  0  0  0  0  0  0
  -20.8523   -9.9163    6.5059 C   0  0  0  0  0  0  0  0  0  0  0  0
  -20.2439  -10.3924    7.6486 C   0  0  0  0  0  0  0  0  0  0  0  0
  -20.8911  -11.3835    8.3721 O   0  0  0  0  0  0  0  0  0  0  0  0
  -19.0266   -9.8627    8.0153 C   0  0  0  0  0  0  0  0  0  0  0  0
  -18.4444   -8.8629    7.2243 C   0  0  0  0  0  0  0  0  0  0  0  0
  -17.2303   -8.3440    7.6024 C   0  0  0  0  0  0  0  0  0  0  0  0
  -14.8070   -4.3867    4.5740 C   0  0  0  0  0  0  0  0  0  0  0  0
  -15.1169   -2.4917    1.8524 H   0  0  0  0  0  0  0  0  0  0  0  0
  -21.5340  -11.1174    9.1067 H   0  0  0  0  0  0  0  0  0  0  0  0
  -16.5587   -8.8149    8.7928 C   0  0  0  0  0  0  0  0  0  0  0  0
  -16.0170   -9.1736    9.7538 N   0  0  0  0  0  0  0  0  0  0  0  0
  1  2  1  0  0  0
  2  3  2  0  0  0
  3  4  1  0  0  0
  4  5  2  0  0  0
  5  6  1  0  0  0
  6  7  1  0  0  0
  7  8  1  0  0  0
  8  9  1  0  0  0
  9 10  2  0  0  0
 10 11  1  0  0  0
 11 12  2  0  0  0
 12 13  1  0  0  0
 13 14  2  0  0  0
 14 15  1  0  0  0
 15 16  1  0  0  0
 15 17  2  0  0  0
 17 18  1  0  0  0
 18 19  2  0  0  0
 19 23  1  0  0  0
 23 24  3  0  0  0
  6 20  2  0  0  0
 20  2  1  0  0  0
  5 10  1  0  0  0
 18 12  1  0  0  0
 19  9  1  0  0  0
  1 21  1  0  0  0
 16 22  1  0  0  0
M  END
> <minimizedAffinity>
9.57930

> <CNNscore>
0.4344688356

> <CNNaffinity>
5.7976560593

> <CNN_VS>
2.5189008713

> <CNNaffinity_variance>
1.0381077528

$$$$
[H]Oc1c([H])c([H])c2c(c1[H])OC([H])([H])c1c-2nc2c([H])c([H])c(O[H])c([H])c2c1C#N


 24 27  0  0  0  0  0  0  0  0999 V2000
  -15.9151   -2.2807    2.1250 O   0  0  0  0  0  0  0  0  0  0  0  0
  -15.6367   -3.2500    3.0768 C   0  0  0  0  0  0  0  0  0  0  0  0
  -14.3320   -3.5320    3.4202 C   0  0  0  0  0  0  0  0  0  0  0  0
  -14.0355   -4.4927    4.3646 C   0  0  0  0  0  0  0  0  0  0  0  0
  -15.0323   -5.1895    4.9839 C   0  0  0  0  0  0  0  0  0  0  0  0
  -16.3458   -4.9325    4.6641 C   0  0  0  0  0  0  0  0  0  0  0  0
  -17.3886   -5.6065    5.2587 O   0  0  0  0  0  0  0  0  0  0  0  0
  -17.2248   -6.5821    6.2104 C   0  0  0  0  0  0  0  0  0  0  0  0
  -15.8389   -6.8631    6.5572 C   0  0  0  0  0  0  0  0  0  0  0  0
  -14.7904   -6.2105    5.9836 C   0  0  0  0  0  0  0  0  0  0  0  0
  -13.5348   -6.5352    6.3655 N   0  0  0  0  0  0  0  0  0  0  0  0
  -13.2682   -7.4739    7.2871 C   0  0  0  0  0  0  0  0  0  0  0  0
  -11.9813   -7.7899    7.6623 C   0  0  0  0  0  0  0  0  0  0  0  0
  -11.7703   -8.7643    8.6154 C   0  0  0  0  0  0  0  0  0  0  0  0
  -12.8093   -9.4443    9.2160 C   0  0  0  0  0  0  0  0  0  0  0  0
  -12.5008  -10.4086   10.1645 O   0  0  0  0  0  0  0  0  0  0  0  0
  -14.0994   -9.1343    8.8464 C   0  0  0  0  0  0  0  0  0  0  0  0
  -14.3193   -8.1449    7.8784 C   0  0  0  0  0  0  0  0  0  0  0  0
  -15.6110   -7.8465    7.5198 C   0  0  0  0  0  0  0  0  0  0  0  0
  -16.6350   -3.9583    3.7070 C   0  0  0  0  0  0  0  0  0  0  0  0
  -15.2267   -1.7498    1.6494 H   0  0  0  0  0  0  0  0  0  0  0  0
  -12.3567  -11.3647    9.8667 H   0  0  0  0  0  0  0  0  0  0  0  0
  -16.7288   -8.5354    8.1248 C   0  0  0  0  0  0  0  0  0  0  0  0
  -17.6381   -9.0742    8.6028 N   0  0  0  0  0  0  0  0  0  0  0  0
  1  2  1  0  0  0
  2  3  2  0  0  0
  3  4  1  0  0  0
  4  5  2  0  0  0
  5  6  1  0  0  0
  6  7  1  0  0  0
  7  8  1  0  0  0
  8  9  1  0  0  0
  9 10  2  0  0  0
 10 11  1  0  0  0
 11 12  2  0  0  0
 12 13  1  0  0  0
 13 14  2  0  0  0
 14 15  1  0  0  0
 15 16  1  0  0  0
 15 17  2  0  0  0
 17 18  1  0  0  0
 18 19  2  0  0  0
 19 23  1  0  0  0
 23 24  3  0  0  0
  6 20  2  0  0  0
 20  2  1  0  0  0
  5 10  1  0  0  0
 18 12  1  0  0  0
 19  9  1  0  0  0
  1 21  1  0  0  0
 16 22  1  0  0  0
M  END
> <minimizedAffinity>
4.37490

> <CNNscore>
0.4312888682

> <CNNaffinity>
6.2479557991

> <CNN_VS>
2.6946737766

> <CNNaffinity_variance>
1.4755752087

$$$$
[H]Oc1c([H])c([H])c2c(c1[H])OC([H])([H])c1c-2nc2c([H])c([H])c(O[H])c([H])c2c1C#N


 24 27  0  0  0  0  0  0  0  0999 V2000
   -3.3048   -1.8337   -0.3452 O   0  0  0  0  0  0  0  0  0  0  0  0
   -3.2503   -2.0590    1.0220 C   0  0  0  0  0  0  0  0  0  0  0  0
   -3.5662   -1.0494    1.9056 C   0  0  0  0  0  0  0  0  0  0  0  0
   -3.5178   -1.2546    3.2688 C   0  0  0  0  0  0  0  0  0  0  0  0
   -3.1542   -2.4680    3.7765 C   0  0  0  0  0  0  0  0  0  0  0  0
   -2.8325   -3.4975    2.9219 C   0  0  0  0  0  0  0  0  0  0  0  0
   -2.4595   -4.7403    3.3816 O   0  0  0  0  0  0  0  0  0  0  0  0
   -2.3731   -5.0694    4.7116 C   0  0  0  0  0  0  0  0  0  0  0  0
   -2.7111   -3.9879    5.6260 C   0  0  0  0  0  0  0  0  0  0  0  0
   -3.0829   -2.7504    5.1962 C   0  0  0  0  0  0  0  0  0  0  0  0
   -3.3796   -1.8047    6.1156 N   0  0  0  0  0  0  0  0  0  0  0  0
   -3.3261   -2.0255    7.4385 C   0  0  0  0  0  0  0  0  0  0  0  0
   -3.6326   -1.0481    8.3590 C   0  0  0  0  0  0  0  0  0  0  0  0
   -3.5592   -1.3351    9.7061 C   0  0  0  0  0  0  0  0  0  0  0  0
   -3.1863   -2.5775   10.1752 C   0  0  0  0  0  0  0  0  0  0  0  0
   -3.1407   -2.7738   11.5477 O   0  0  0  0  0  0  0  0  0  0  0  0
   -2.8782   -3.5606    9.2611 C   0  0  0  0  0  0  0  0  0  0  0  0
   -2.9512   -3.2743    7.8911 C   0  0  0  0  0  0  0  0  0  0  0  0
   -2.6410   -4.2644    6.9914 C   0  0  0  0  0  0  0  0  0  0  0  0
   -2.8847   -3.2793    1.5440 C   0  0  0  0  0  0  0  0  0  0  0  0
   -3.5625   -0.9716   -0.7602 H   0  0  0  0  0  0  0  0  0  0  0  0
   -2.2791   -2.5867   12.0441 H   0  0  0  0  0  0  0  0  0  0  0  0
   -2.2457   -5.5803    7.4408 C   0  0  0  0  0  0  0  0  0  0  0  0
   -1.9323   -6.6435    7.7830 N   0  0  0  0  0  0  0  0  0  0  0  0
  1  2  1  0  0  0
  2  3  2  0  0  0
  3  4  1  0  0  0
  4  5  2  0  0  0
  5  6  1  0  0  0
  6  7  1  0  0  0
  7  8  1  0  0  0
  8  9  1  0  0  0
  9 10  2  0  0  0
 10 11  1  0  0  0
 11 12  2  0  0  0
 12 13  1  0  0  0
 13 14  2  0  0  0
 14 15  1  0  0  0
 15 16  1  0  0  0
 15 17  2  0  0  0
 17 18  1  0  0  0
 18 19  2  0  0  0
 19 23  1  0  0  0
 23 24  3  0  0  0
  6 20  2  0  0  0
 20  2  1  0  0  0
  5 10  1  0  0  0
 18 12  1  0  0  0
 19  9  1  0  0  0
  1 21  1  0  0  0
 16 22  1  0  0  0
M  END
> <minimizedAffinity>
-3.31152

> <CNNscore>
0.4244745970

> <CNNaffinity>
4.5748319626

> <CNN_VS>
1.9418998957

> <CNNaffinity_variance>
0.5110009909

$$$$
[H]Oc1c([H])c([H])c2c(c1[H])OC([H])([H])c1c-2nc2c([H])c([H])c(O[H])c([H])c2c1C#N


 24 27  0  0  0  0  0  0  0  0999 V2000
   -1.0602   -4.0899    4.1810 O   0  0  0  0  0  0  0  0  0  0  0  0
   -2.1652   -4.5606    4.8741 C   0  0  0  0  0  0  0  0  0  0  0  0
   -3.3445   -4.8184    4.2088 C   0  0  0  0  0  0  0  0  0  0  0  0
   -4.4541   -5.2869    4.8811 C   0  0  0  0  0  0  0  0  0  0  0  0
   -4.4095   -5.5071    6.2272 C   0  0  0  0  0  0  0  0  0  0  0  0
   -3.2476   -5.2598    6.9217 C   0  0  0  0  0  0  0  0  0  0  0  0
   -3.1491   -5.4650    8.2794 O   0  0  0  0  0  0  0  0  0  0  0  0
   -4.1798   -5.9273    9.0595 C   0  0  0  0  0  0  0  0  0  0  0  0
   -5.4151   -6.1925    8.3358 C   0  0  0  0  0  0  0  0  0  0  0  0
   -5.5375   -5.9977    6.9936 C   0  0  0  0  0  0  0  0  0  0  0  0
   -6.7224   -6.2701    6.4024 N   0  0  0  0  0  0  0  0  0  0  0  0
   -7.7904   -6.7256    7.0757 C   0  0  0  0  0  0  0  0  0  0  0  0
   -8.9891   -6.9972    6.4543 C   0  0  0  0  0  0  0  0  0  0  0  0
  -10.0516   -7.4636    7.1998 C   0  0  0  0  0  0  0  0  0  0  0  0
   -9.9616   -7.6718    8.5604 C   0  0  0  0  0  0  0  0  0  0  0  0
  -11.0830   -8.1431    9.2275 O   0  0  0  0  0  0  0  0  0  0  0  0
   -8.7664   -7.4028    9.1895 C   0  0  0  0  0  0  0  0  0  0  0  0
   -7.6834   -6.9287    8.4367 C   0  0  0  0  0  0  0  0  0  0  0  0
   -6.4979   -6.6647    9.0776 C   0  0  0  0  0  0  0  0  0  0  0  0
   -2.1303   -4.7858    6.2318 C   0  0  0  0  0  0  0  0  0  0  0  0
   -1.0444   -3.9151    3.2057 H   0  0  0  0  0  0  0  0  0  0  0  0
  -11.7447   -7.4797    9.6092 H   0  0  0  0  0  0  0  0  0  0  0  0
   -6.3610   -6.8693   10.5021 C   0  0  0  0  0  0  0  0  0  0  0  0
   -6.2317   -7.0287   11.6438 N   0  0  0  0  0  0  0  0  0  0  0  0
  1  2  1  0  0  0
  2  3  2  0  0  0
  3  4  1  0  0  0
  4  5  2  0  0  0
  5  6  1  0  0  0
  6  7  1  0  0  0
  7  8  1  0  0  0
  8  9  1  0  0  0
  9 10  2  0  0  0
 10 11  1  0  0  0
 11 12  2  0  0  0
 12 13  1  0  0  0
 13 14  2  0  0  0
 14 15  1  0  0  0
 15 16  1  0  0  0
 15 17  2  0  0  0
 17 18  1  0  0  0
 18 19  2  0  0  0
 19 23  1  0  0  0
 23 24  3  0  0  0
  6 20  2  0  0  0
 20  2  1  0  0  0
  5 10  1  0  0  0
 18 12  1  0  0  0
 19  9  1  0  0  0
  1 21  1  0  0  0
 16 22  1  0  0  0
M  END
> <minimizedAffinity>
1.25392

> <CNNscore>
0.4133387506

> <CNNaffinity>
4.9632635117

> <CNN_VS>
2.0515091419

> <CNNaffinity_variance>
1.2211780548

$$$$
[H]/C(=C1/SC(=O)N([C@]2([H])C([H])([H])C([H])([H])N(C([H])([H])[H])C([H])([H])[C@@]2([H])F)C1=O)c1c([H])c([H])c2c(c([H])nn2C([H])([H])c2c([H])c([H])c(Cl)c([H])c2C(F)(F)F)c1[H]


 37 41  0  0  0  0  0  0  0  0999 V2000
  -11.8050   -6.3926    9.8472 C   0  0  0  0  0  0  0  0  0  0  0  0
  -11.2741   -5.1286    9.8723 C   0  0  0  0  0  0  0  0  0  0  0  0
  -11.0356   -4.5287   11.1008 C   0  0  0  0  0  0  0  0  0  0  0  0
  -11.3035   -5.1339   12.3148 C   0  0  0  0  0  0  0  0  0  0  0  0
  -11.1513   -4.7609   13.5753 N   0  0  0  0  0  0  0  0  0  0  0  0
  -11.6035   -5.8144   14.3367 N   0  0  0  0  0  0  0  0  0  0  0  0
  -12.0162   -6.7996   13.5483 C   0  0  0  0  0  0  0  0  0  0  0  0
  -11.8511   -6.4304   12.2448 C   0  0  0  0  0  0  0  0  0  0  0  0
  -12.0879   -7.0272   11.0439 C   0  0  0  0  0  0  0  0  0  0  0  0
  -15.2135   -8.0875    6.9059 N   0  0  0  0  0  0  0  0  0  0  0  0
  -15.9263   -7.6117    8.0320 C   0  0  0  0  0  0  0  0  0  0  0  0
  -17.1380   -7.5694    8.2867 O   0  0  0  0  0  0  0  0  0  0  0  0
  -14.7373   -6.9874    9.2054 S   0  0  0  0  0  0  0  0  0  0  0  0
  -13.3033   -7.2955    8.1807 C   0  0  0  0  0  0  0  0  0  0  0  0
  -12.0405   -7.0042    8.5369 C   0  0  0  0  0  0  0  0  0  0  0  0
  -13.8162   -7.9196    6.9828 C   0  0  0  0  0  0  0  0  0  0  0  0
  -12.9609   -8.2755    6.0732 O   0  0  0  0  0  0  0  0  0  0  0  0
  -16.8377   -9.5600    2.1494 C   0  0  0  0  0  0  0  0  0  0  0  0
  -16.9341   -8.4692    3.0640 N   0  0  0  0  0  0  0  0  0  0  0  0
  -15.6630   -7.8963    3.4145 C   0  0  0  0  0  0  0  0  0  0  0  0
  -15.0272   -8.6625    4.5087 C   0  0  0  0  0  0  0  0  0  0  0  0
  -15.8431   -8.7317    5.7296 C   0  0  0  0  0  0  0  0  0  0  0  0
  -17.1904   -8.0637    5.4586 C   0  0  0  0  0  0  0  0  0  0  0  0
  -18.1286   -8.3832    6.4403 F   0  0  0  0  0  0  0  0  0  0  0  0
  -17.7912   -8.6709    4.1702 C   0  0  0  0  0  0  0  0  0  0  0  0
  -10.6083   -3.5818   14.2152 C   0  0  0  0  0  0  0  0  0  0  0  0
   -9.1559   -3.6320   14.3721 C   0  0  0  0  0  0  0  0  0  0  0  0
   -8.5487   -4.8349   13.9255 C   0  0  0  0  0  0  0  0  0  0  0  0
   -7.2121   -5.0759   14.1171 C   0  0  0  0  0  0  0  0  0  0  0  0
   -6.4444   -4.1352   14.7557 C   0  0  0  0  0  0  0  0  0  0  0  0
   -4.7267   -4.4189   15.0168 Cl  0  0  0  0  0  0  0  0  0  0  0  0
   -7.0364   -2.9769   15.1827 C   0  0  0  0  0  0  0  0  0  0  0  0
   -8.4092   -2.6932   14.9969 C   0  0  0  0  0  0  0  0  0  0  0  0
   -8.9134   -1.3629   15.3497 C   0  0  0  0  0  0  0  0  0  0  0  0
   -9.7365   -1.5294   16.4922 F   0  0  0  0  0  0  0  0  0  0  0  0
   -7.8778   -0.5519   15.8419 F   0  0  0  0  0  0  0  0  0  0  0  0
   -9.6865   -0.6976   14.4665 F   0  0  0  0  0  0  0  0  0  0  0  0
 18 19  1  0  0  0
 19 20  1  0  0  0
 20 21  1  0  0  0
 21 22  1  0  0  0
 22 23  1  0  0  0
 23 24  1  0  0  0
 23 25  1  0  0  0
 22 10  1  0  0  0
 10 11  1  0  0  0
 11 12  2  0  0  0
 11 13  1  0  0  0
 13 14  1  0  0  0
 14 15  2  0  0  0
 15  1  1  0  0  0
  1  2  2  0  0  0
  2  3  1  0  0  0
  3  4  2  0  0  0
  4  5  1  0  0  0
  5 26  1  0  0  0
 26 27  1  0  0  0
 27 28  2  0  0  0
 28 29  1  0  0  0
 29 30  2  0  0  0
 30 31  1  0  0  0
 30 32  1  0  0  0
 32 33  2  0  0  0
 33 34  1  0  0  0
 34 35  1  0  0  0
 34 36  1  0  0  0
 34 37  1  0  0  0
  5  6  1  0  0  0
  6  7  2  0  0  0
  7  8  1  0  0  0
  8  9  2  0  0  0
 14 16  1  0  0  0
 16 17  2  0  0  0
 25 19  1  0  0  0
 16 10  1  0  0  0
  9  1  1  0  0  0
  8  4  1  0  0  0
 33 27  1  0  0  0
M  END
> <minimizedAffinity>
16.07044

> <CNNscore>
0.5044033527

> <CNNaffinity>
6.6997299194

> <CNN_VS>
3.3793661594

> <CNNaffinity_variance>
1.2161470652

$$$$
[H]/C(=C1/SC(=O)N([C@]2([H])C([H])([H])C([H])([H])N(C([H])([H])[H])C([H])([H])[C@@]2([H])F)C1=O)c1c([H])c([H])c2c(c([H])nn2C([H])([H])c2c([H])c([H])c(Cl)c([H])c2C(F)(F)F)c1[H]


 37 41  0  0  0  0  0  0  0  0999 V2000
  -11.7459   -7.8795    8.3601 C   0  0  0  0  0  0  0  0  0  0  0  0
  -10.9588   -6.7675    8.5160 C   0  0  0  0  0  0  0  0  0  0  0  0
  -11.0940   -6.0102    9.6710 C   0  0  0  0  0  0  0  0  0  0  0  0
  -11.9836   -6.3113   10.6859 C   0  0  0  0  0  0  0  0  0  0  0  0
  -12.2671   -5.7486   11.8496 N   0  0  0  0  0  0  0  0  0  0  0  0
  -13.2510   -6.5275   12.4144 N   0  0  0  0  0  0  0  0  0  0  0  0
  -13.5494   -7.5379   11.6065 C   0  0  0  0  0  0  0  0  0  0  0  0
  -12.7754   -7.4595   10.4852 C   0  0  0  0  0  0  0  0  0  0  0  0
  -12.6492   -8.2090    9.3552 C   0  0  0  0  0  0  0  0  0  0  0  0
   -8.7973  -10.9004    6.0532 N   0  0  0  0  0  0  0  0  0  0  0  0
   -8.1502  -10.6517    7.2869 C   0  0  0  0  0  0  0  0  0  0  0  0
   -7.0912  -11.0798    7.7666 O   0  0  0  0  0  0  0  0  0  0  0  0
   -9.1581   -9.5057    8.2095 S   0  0  0  0  0  0  0  0  0  0  0  0
  -10.4662   -9.4059    6.9928 C   0  0  0  0  0  0  0  0  0  0  0  0
  -11.5778   -8.6638    7.1342 C   0  0  0  0  0  0  0  0  0  0  0  0
  -10.0314  -10.2382    5.8947 C   0  0  0  0  0  0  0  0  0  0  0  0
  -10.8023  -10.3154    4.8529 O   0  0  0  0  0  0  0  0  0  0  0  0
   -7.4836  -13.2569    1.5642 C   0  0  0  0  0  0  0  0  0  0  0  0
   -8.6129  -13.0282    2.4057 N   0  0  0  0  0  0  0  0  0  0  0  0
   -8.9095  -11.6360    2.6073 C   0  0  0  0  0  0  0  0  0  0  0  0
   -8.0775  -11.0755    3.6946 C   0  0  0  0  0  0  0  0  0  0  0  0
   -8.2496  -11.7646    4.9817 C   0  0  0  0  0  0  0  0  0  0  0  0
   -9.1828  -12.9575    4.7794 C   0  0  0  0  0  0  0  0  0  0  0  0
   -9.1260  -13.8423    5.8564 F   0  0  0  0  0  0  0  0  0  0  0  0
   -8.6592  -13.7968    3.5914 C   0  0  0  0  0  0  0  0  0  0  0  0
  -11.7430   -4.6061   12.5669 C   0  0  0  0  0  0  0  0  0  0  0  0
  -10.3727   -4.8028   13.0360 C   0  0  0  0  0  0  0  0  0  0  0  0
   -9.6415   -5.8014   12.3408 C   0  0  0  0  0  0  0  0  0  0  0  0
   -8.3867   -6.1808   12.7440 C   0  0  0  0  0  0  0  0  0  0  0  0
   -7.8254   -5.5839   13.8445 C   0  0  0  0  0  0  0  0  0  0  0  0
   -6.2170   -6.0527   14.3857 Cl  0  0  0  0  0  0  0  0  0  0  0  0
   -8.5357   -4.6209   14.5095 C   0  0  0  0  0  0  0  0  0  0  0  0
   -9.8283   -4.2015   14.1183 C   0  0  0  0  0  0  0  0  0  0  0  0
  -10.4401   -3.0573   14.8001 C   0  0  0  0  0  0  0  0  0  0  0  0
  -11.3205   -3.5884   15.7765 F   0  0  0  0  0  0  0  0  0  0  0  0
   -9.4930   -2.3811   15.5864 F   0  0  0  0  0  0  0  0  0  0  0  0
  -11.1985   -2.1973   14.0890 F   0  0  0  0  0  0  0  0  0  0  0  0
 18 19  1  0  0  0
 19 20  1  0  0  0
 20 21  1  0  0  0
 21 22  1  0  0  0
 22 23  1  0  0  0
 23 24  1  0  0  0
 23 25  1  0  0  0
 22 10  1  0  0  0
 10 11  1  0  0  0
 11 12  2  0  0  0
 11 13  1  0  0  0
 13 14  1  0  0  0
 14 15  2  0  0  0
 15  1  1  0  0  0
  1  2  2  0  0  0
  2  3  1  0  0  0
  3  4  2  0  0  0
  4  5  1  0  0  0
  5 26  1  0  0  0
 26 27  1  0  0  0
 27 28  2  0  0  0
 28 29  1  0  0  0
 29 30  2  0  0  0
 30 31  1  0  0  0
 30 32  1  0  0  0
 32 33  2  0  0  0
 33 34  1  0  0  0
 34 35  1  0  0  0
 34 36  1  0  0  0
 34 37  1  0  0  0
  5  6  1  0  0  0
  6  7  2  0  0  0
  7  8  1  0  0  0
  8  9  2  0  0  0
 14 16  1  0  0  0
 16 17  2  0  0  0
 25 19  1  0  0  0
 16 10  1  0  0  0
  9  1  1  0  0  0
  8  4  1  0  0  0
 33 27  1  0  0  0
M  END
> <minimizedAffinity>
33.57838

> <CNNscore>
0.4262033701

> <CNNaffinity>
6.2116184235

> <CNN_VS>
2.6474127769

> <CNNaffinity_variance>
1.0033165216

$$$$
[H]/C(=C1/SC(=O)N([C@]2([H])C([H])([H])C([H])([H])N(C([H])([H])[H])C([H])([H])[C@@]2([H])F)C1=O)c1c([H])c([H])c2c(c([H])nn2C([H])([H])c2c([H])c([H])c(Cl)c([H])c2C(F)(F)F)c1[H]


 37 41  0  0  0  0  0  0  0  0999 V2000
   -8.4317   -7.9560    8.2334 C   0  0  0  0  0  0  0  0  0  0  0  0
   -9.6119   -7.4195    8.6804 C   0  0  0  0  0  0  0  0  0  0  0  0
  -10.8006   -8.0592    8.3582 C   0  0  0  0  0  0  0  0  0  0  0  0
  -10.8690   -9.2173    7.6058 C   0  0  0  0  0  0  0  0  0  0  0  0
  -11.8672   -9.9832    7.1960 N   0  0  0  0  0  0  0  0  0  0  0  0
  -11.2876  -11.0051    6.4791 N   0  0  0  0  0  0  0  0  0  0  0  0
   -9.9685  -10.8555    6.4617 C   0  0  0  0  0  0  0  0  0  0  0  0
   -9.6348   -9.7338    7.1638 C   0  0  0  0  0  0  0  0  0  0  0  0
   -8.4634   -9.1133    7.4754 C   0  0  0  0  0  0  0  0  0  0  0  0
   -4.8489   -5.2507    6.5055 N   0  0  0  0  0  0  0  0  0  0  0  0
   -5.7041   -5.4511    5.3961 C   0  0  0  0  0  0  0  0  0  0  0  0
   -5.6492   -5.0480    4.2258 O   0  0  0  0  0  0  0  0  0  0  0  0
   -7.0588   -6.4800    5.9312 S   0  0  0  0  0  0  0  0  0  0  0  0
   -6.5294   -6.5914    7.6367 C   0  0  0  0  0  0  0  0  0  0  0  0
   -7.1918   -7.2637    8.5935 C   0  0  0  0  0  0  0  0  0  0  0  0
   -5.2869   -5.8568    7.7003 C   0  0  0  0  0  0  0  0  0  0  0  0
   -4.6714   -5.8082    8.8423 O   0  0  0  0  0  0  0  0  0  0  0  0
   -1.0613   -1.6628    6.0452 C   0  0  0  0  0  0  0  0  0  0  0  0
   -2.0262   -2.3615    5.2600 N   0  0  0  0  0  0  0  0  0  0  0  0
   -3.3817   -2.1506    5.6900 C   0  0  0  0  0  0  0  0  0  0  0  0
   -3.7279   -3.0668    6.7988 C   0  0  0  0  0  0  0  0  0  0  0  0
   -3.5795   -4.4884    6.4551 C   0  0  0  0  0  0  0  0  0  0  0  0
   -2.9910   -4.5951    5.0489 C   0  0  0  0  0  0  0  0  0  0  0  0
   -2.5124   -5.8793    4.7887 F   0  0  0  0  0  0  0  0  0  0  0  0
   -1.7233   -3.7132    4.9771 C   0  0  0  0  0  0  0  0  0  0  0  0
  -13.3009   -9.9546    7.3915 C   0  0  0  0  0  0  0  0  0  0  0  0
  -13.9459   -8.8161    6.7399 C   0  0  0  0  0  0  0  0  0  0  0  0
  -14.0691   -8.9267    5.3300 C   0  0  0  0  0  0  0  0  0  0  0  0
  -14.5435   -7.8886    4.5694 C   0  0  0  0  0  0  0  0  0  0  0  0
  -14.9056   -6.7164    5.1834 C   0  0  0  0  0  0  0  0  0  0  0  0
  -15.5157   -5.3668    4.2316 Cl  0  0  0  0  0  0  0  0  0  0  0  0
  -14.7851   -6.6171    6.5435 C   0  0  0  0  0  0  0  0  0  0  0  0
  -14.3057   -7.6685    7.3586 C   0  0  0  0  0  0  0  0  0  0  0  0
  -14.3612   -7.5192    8.8156 C   0  0  0  0  0  0  0  0  0  0  0  0
  -15.6999   -7.7831    9.2012 F   0  0  0  0  0  0  0  0  0  0  0  0
  -13.6566   -8.5554    9.4500 F   0  0  0  0  0  0  0  0  0  0  0  0
  -14.0786   -6.3195    9.3645 F   0  0  0  0  0  0  0  0  0  0  0  0
 18 19  1  0  0  0
 19 20  1  0  0  0
 20 21  1  0  0  0
 21 22  1  0  0  0
 22 23  1  0  0  0
 23 24  1  0  0  0
 23 25  1  0  0  0
 22 10  1  0  0  0
 10 11  1  0  0  0
 11 12  2  0  0  0
 11 13  1  0  0  0
 13 14  1  0  0  0
 14 15  2  0  0  0
 15  1  1  0  0  0
  1  2  2  0  0  0
  2  3  1  0  0  0
  3  4  2  0  0  0
  4  5  1  0  0  0
  5 26  1  0  0  0
 26 27  1  0  0  0
 27 28  2  0  0  0
 28 29  1  0  0  0
 29 30  2  0  0  0
 30 31  1  0  0  0
 30 32  1  0  0  0
 32 33  2  0  0  0
 33 34  1  0  0  0
 34 35  1  0  0  0
 34 36  1  0  0  0
 34 37  1  0  0  0
  5  6  1  0  0  0
  6  7  2  0  0  0
  7  8  1  0  0  0
  8  9  2  0  0  0
 14 16  1  0  0  0
 16 17  2  0  0  0
 25 19  1  0  0  0
 16 10  1  0  0  0
  9  1  1  0  0  0
  8  4  1  0  0  0
 33 27  1  0  0  0
M  END
> <minimizedAffinity>
-7.39639

> <CNNscore>
0.3988946080

> <CNNaffinity>
7.1791877747

> <CNN_VS>
2.8637392521

> <CNNaffinity_variance>
0.2631286681

$$$$
[H]/C(=C1/SC(=O)N([C@]2([H])C([H])([H])C([H])([H])N(C([H])([H])[H])C([H])([H])[C@@]2([H])F)C1=O)c1c([H])c([H])c2c(c([H])nn2C([H])([H])c2c([H])c([H])c(Cl)c([H])c2C(F)(F)F)c1[H]


 37 41  0  0  0  0  0  0  0  0999 V2000
   -9.2655   -7.7634    7.9745 C   0  0  0  0  0  0  0  0  0  0  0  0
  -10.0564   -6.8251    8.5864 C   0  0  0  0  0  0  0  0  0  0  0  0
  -11.4232   -7.0522    8.6647 C   0  0  0  0  0  0  0  0  0  0  0  0
  -12.0438   -8.1791    8.1580 C   0  0  0  0  0  0  0  0  0  0  0  0
  -13.2993   -8.5963    8.1294 N   0  0  0  0  0  0  0  0  0  0  0  0
  -13.2776   -9.8106    7.4821 N   0  0  0  0  0  0  0  0  0  0  0  0
  -12.0339  -10.1159    7.1320 C   0  0  0  0  0  0  0  0  0  0  0  0
  -11.1962   -9.1166    7.5348 C   0  0  0  0  0  0  0  0  0  0  0  0
   -9.8538   -8.9025    7.4537 C   0  0  0  0  0  0  0  0  0  0  0  0
   -5.4863   -6.1991   10.5067 N   0  0  0  0  0  0  0  0  0  0  0  0
   -6.5628   -6.1639   11.4245 C   0  0  0  0  0  0  0  0  0  0  0  0
   -6.6195   -5.8488   12.6214 O   0  0  0  0  0  0  0  0  0  0  0  0
   -8.0302   -6.6996   10.5641 S   0  0  0  0  0  0  0  0  0  0  0  0
   -7.2087   -7.0321    9.0097 C   0  0  0  0  0  0  0  0  0  0  0  0
   -7.8256   -7.5009    7.9116 C   0  0  0  0  0  0  0  0  0  0  0  0
   -5.8280   -6.6618    9.2200 C   0  0  0  0  0  0  0  0  0  0  0  0
   -5.0109   -6.7823    8.2183 O   0  0  0  0  0  0  0  0  0  0  0  0
   -1.0684   -4.3777   12.6503 C   0  0  0  0  0  0  0  0  0  0  0  0
   -2.3388   -3.9285   12.1811 N   0  0  0  0  0  0  0  0  0  0  0  0
   -3.4516   -4.5373   12.8577 C   0  0  0  0  0  0  0  0  0  0  0  0
   -3.7754   -5.8499   12.2568 C   0  0  0  0  0  0  0  0  0  0  0  0
   -4.1025   -5.7768   10.8254 C   0  0  0  0  0  0  0  0  0  0  0  0
   -3.8987   -4.3397   10.3476 C   0  0  0  0  0  0  0  0  0  0  0  0
   -3.8607   -4.2621    8.9553 F   0  0  0  0  0  0  0  0  0  0  0  0
   -2.4886   -3.8732   10.7764 C   0  0  0  0  0  0  0  0  0  0  0  0
  -14.5445   -8.0702    8.6464 C   0  0  0  0  0  0  0  0  0  0  0  0
  -15.5406   -7.8269    7.6048 C   0  0  0  0  0  0  0  0  0  0  0  0
  -16.7409   -8.5724    7.7412 C   0  0  0  0  0  0  0  0  0  0  0  0
  -17.7170   -8.5399    6.7782 C   0  0  0  0  0  0  0  0  0  0  0  0
  -17.5295   -7.7718    5.6570 C   0  0  0  0  0  0  0  0  0  0  0  0
  -18.7647   -7.7129    4.4039 Cl  0  0  0  0  0  0  0  0  0  0  0  0
  -16.3700   -7.0546    5.5325 C   0  0  0  0  0  0  0  0  0  0  0  0
  -15.3460   -7.0602    6.5077 C   0  0  0  0  0  0  0  0  0  0  0  0
  -14.2154   -6.1400    6.3553 C   0  0  0  0  0  0  0  0  0  0  0  0
  -13.1516   -6.8915    5.7948 F   0  0  0  0  0  0  0  0  0  0  0  0
  -14.4752   -5.1932    5.3510 F   0  0  0  0  0  0  0  0  0  0  0  0
  -13.6841   -5.5640    7.4536 F   0  0  0  0  0  0  0  0  0  0  0  0
 18 19  1  0  0  0
 19 20  1  0  0  0
 20 21  1  0  0  0
 21 22  1  0  0  0
 22 23  1  0  0  0
 23 24  1  0  0  0
 23 25  1  0  0  0
 22 10  1  0  0  0
 10 11  1  0  0  0
 11 12  2  0  0  0
 11 13  1  0  0  0
 13 14  1  0  0  0
 14 15  2  0  0  0
 15  1  1  0  0  0
  1  2  2  0  0  0
  2  3  1  0  0  0
  3  4  2  0  0  0
  4  5  1  0  0  0
  5 26  1  0  0  0
 26 27  1  0  0  0
 27 28  2  0  0  0
 28 29  1  0  0  0
 29 30  2  0  0  0
 30 31  1  0  0  0
 30 32  1  0  0  0
 32 33  2  0  0  0
 33 34  1  0  0  0
 34 35  1  0  0  0
 34 36  1  0  0  0
 34 37  1  0  0  0
  5  6  1  0  0  0
  6  7  2  0  0  0
  7  8  1  0  0  0
  8  9  2  0  0  0
 14 16  1  0  0  0
 16 17  2  0  0  0
 25 19  1  0  0  0
 16 10  1  0  0  0
  9  1  1  0  0  0
  8  4  1  0  0  0
 33 27  1  0  0  0
M  END
> <minimizedAffinity>
0.59315

> <CNNscore>
0.3919530213

> <CNNaffinity>
6.7852849960

> <CNN_VS>
2.6595129967

> <CNNaffinity_variance>
1.1296486855

$$$$
[H]/C(=C1/SC(=O)N([C@]2([H])C([H])([H])C([H])([H])N(C([H])([H])[H])C([H])([H])[C@@]2([H])F)C1=O)c1c([H])c([H])c2c(c([H])nn2C([H])([H])c2c([H])c([H])c(Cl)c([H])c2C(F)(F)F)c1[H]


 37 41  0  0  0  0  0  0  0  0999 V2000
  -10.3972   -7.8250    8.3678 C   0  0  0  0  0  0  0  0  0  0  0  0
  -11.3157   -6.8502    8.6619 C   0  0  0  0  0  0  0  0  0  0  0  0
  -12.6294   -7.0243    8.2500 C   0  0  0  0  0  0  0  0  0  0  0  0
  -13.0743   -8.1329    7.5535 C   0  0  0  0  0  0  0  0  0  0  0  0
  -14.2538   -8.5025    7.0807 N   0  0  0  0  0  0  0  0  0  0  0  0
  -14.0523   -9.7243    6.4801 N   0  0  0  0  0  0  0  0  0  0  0  0
  -12.7784  -10.0806    6.5929 C   0  0  0  0  0  0  0  0  0  0  0  0
  -12.0988   -9.1091    7.2689 C   0  0  0  0  0  0  0  0  0  0  0  0
  -10.8074   -8.9470    7.6695 C   0  0  0  0  0  0  0  0  0  0  0  0
   -5.9973   -6.5005    6.9437 N   0  0  0  0  0  0  0  0  0  0  0  0
   -6.7977   -6.3631    5.7848 C   0  0  0  0  0  0  0  0  0  0  0  0
   -6.5331   -5.9767    4.6378 O   0  0  0  0  0  0  0  0  0  0  0  0
   -8.4560   -6.8667    6.2052 S   0  0  0  0  0  0  0  0  0  0  0  0
   -8.1060   -7.1967    7.9285 C   0  0  0  0  0  0  0  0  0  0  0  0
   -9.0192   -7.6180    8.8201 C   0  0  0  0  0  0  0  0  0  0  0  0
   -6.6924   -6.9439    8.0869 C   0  0  0  0  0  0  0  0  0  0  0  0
   -6.1710   -7.1406    9.2595 O   0  0  0  0  0  0  0  0  0  0  0  0
   -1.0610   -4.9571    6.1185 C   0  0  0  0  0  0  0  0  0  0  0  0
   -2.0650   -5.8028    5.5594 N   0  0  0  0  0  0  0  0  0  0  0  0
   -3.2698   -5.1068    5.1982 C   0  0  0  0  0  0  0  0  0  0  0  0
   -4.1571   -4.9519    6.3719 C   0  0  0  0  0  0  0  0  0  0  0  0
   -4.5417   -6.2285    6.9909 C   0  0  0  0  0  0  0  0  0  0  0  0
   -3.8009   -7.3613    6.2818 C   0  0  0  0  0  0  0  0  0  0  0  0
   -3.8495   -8.5459    7.0169 F   0  0  0  0  0  0  0  0  0  0  0  0
   -2.2941   -7.0177    6.2452 C   0  0  0  0  0  0  0  0  0  0  0  0
  -15.5794   -7.9235    7.1240 C   0  0  0  0  0  0  0  0  0  0  0  0
  -15.8466   -7.0184    6.0077 C   0  0  0  0  0  0  0  0  0  0  0  0
  -14.9694   -5.9059    5.9184 C   0  0  0  0  0  0  0  0  0  0  0  0
  -15.1687   -4.9094    4.9973 C   0  0  0  0  0  0  0  0  0  0  0  0
  -16.2402   -4.9875    4.1441 C   0  0  0  0  0  0  0  0  0  0  0  0
  -16.5215   -3.7217    2.9533 Cl  0  0  0  0  0  0  0  0  0  0  0  0
  -17.0816   -6.0637    4.2351 C   0  0  0  0  0  0  0  0  0  0  0  0
  -16.9028   -7.1112    5.1681 C   0  0  0  0  0  0  0  0  0  0  0  0
  -17.7655   -8.2930    5.0824 C   0  0  0  0  0  0  0  0  0  0  0  0
  -18.7666   -7.9975    4.1227 F   0  0  0  0  0  0  0  0  0  0  0  0
  -17.0838   -9.3653    4.4841 F   0  0  0  0  0  0  0  0  0  0  0  0
  -18.4485   -8.6888    6.1766 F   0  0  0  0  0  0  0  0  0  0  0  0
 18 19  1  0  0  0
 19 20  1  0  0  0
 20 21  1  0  0  0
 21 22  1  0  0  0
 22 23  1  0  0  0
 23 24  1  0  0  0
 23 25  1  0  0  0
 22 10  1  0  0  0
 10 11  1  0  0  0
 11 12  2  0  0  0
 11 13  1  0  0  0
 13 14  1  0  0  0
 14 15  2  0  0  0
 15  1  1  0  0  0
  1  2  2  0  0  0
  2  3  1  0  0  0
  3  4  2  0  0  0
  4  5  1  0  0  0
  5 26  1  0  0  0
 26 27  1  0  0  0
 27 28  2  0  0  0
 28 29  1  0  0  0
 29 30  2  0  0  0
 30 31  1  0  0  0
 30 32  1  0  0  0
 32 33  2  0  0  0
 33 34  1  0  0  0
 34 35  1  0  0  0
 34 36  1  0  0  0
 34 37  1  0  0  0
  5  6  1  0  0  0
  6  7  2  0  0  0
  7  8  1  0  0  0
  8  9  2  0  0  0
 14 16  1  0  0  0
 16 17  2  0  0  0
 25 19  1  0  0  0
 16 10  1  0  0  0
  9  1  1  0  0  0
  8  4  1  0  0  0
 33 27  1  0  0  0
M  END
> <minimizedAffinity>
-8.35574

> <CNNscore>
0.3684334457

> <CNNaffinity>
7.2612218857

> <CNN_VS>
2.6752769947

> <CNNaffinity_variance>
0.1783121973

$$$$
[H]/C(=C1/SC(=O)N([C@]2([H])C([H])([H])C([H])([H])N(C([H])([H])[H])C([H])([H])[C@@]2([H])F)C1=O)c1c([H])c([H])c2c(c([H])nn2C([H])([H])c2c([H])c([H])c(Cl)c([H])c2C(F)(F)F)c1[H]


 37 41  0  0  0  0  0  0  0  0999 V2000
  -13.4868   -7.8468   10.2367 C   0  0  0  0  0  0  0  0  0  0  0  0
  -14.8400   -8.0381   10.3492 C   0  0  0  0  0  0  0  0  0  0  0  0
  -15.5917   -8.1887    9.1924 C   0  0  0  0  0  0  0  0  0  0  0  0
  -15.0541   -8.1573    7.9188 C   0  0  0  0  0  0  0  0  0  0  0  0
  -15.5685   -8.2844    6.7062 N   0  0  0  0  0  0  0  0  0  0  0  0
  -14.5109   -8.1624    5.8341 N   0  0  0  0  0  0  0  0  0  0  0  0
  -13.3852   -7.9683    6.5107 C   0  0  0  0  0  0  0  0  0  0  0  0
  -13.6613   -7.9555    7.8471 C   0  0  0  0  0  0  0  0  0  0  0  0
  -12.9156   -7.8073    8.9769 C   0  0  0  0  0  0  0  0  0  0  0  0
  -11.2363   -4.6609   13.0521 N   0  0  0  0  0  0  0  0  0  0  0  0
  -11.7840   -3.8803   12.0066 C   0  0  0  0  0  0  0  0  0  0  0  0
  -11.7689   -2.6606   11.7897 O   0  0  0  0  0  0  0  0  0  0  0  0
  -12.6183   -4.9845   10.8818 S   0  0  0  0  0  0  0  0  0  0  0  0
  -12.2992   -6.4696   11.8273 C   0  0  0  0  0  0  0  0  0  0  0  0
  -12.7171   -7.6972   11.4742 C   0  0  0  0  0  0  0  0  0  0  0  0
  -11.5101   -6.0404   12.9589 C   0  0  0  0  0  0  0  0  0  0  0  0
  -11.1157   -6.9478   13.7995 O   0  0  0  0  0  0  0  0  0  0  0  0
   -8.6135   -1.7050   16.4892 C   0  0  0  0  0  0  0  0  0  0  0  0
   -8.5918   -2.0886   15.1151 N   0  0  0  0  0  0  0  0  0  0  0  0
   -9.7902   -1.7422   14.4006 C   0  0  0  0  0  0  0  0  0  0  0  0
  -10.8332   -2.7731   14.5965 C   0  0  0  0  0  0  0  0  0  0  0  0
  -10.4215   -4.1161   14.1630 C   0  0  0  0  0  0  0  0  0  0  0  0
   -8.9578   -4.0645   13.7272 C   0  0  0  0  0  0  0  0  0  0  0  0
   -8.4066   -5.3420   13.6270 F   0  0  0  0  0  0  0  0  0  0  0  0
   -8.1319   -3.3994   14.8520 C   0  0  0  0  0  0  0  0  0  0  0  0
  -16.8998   -8.5458    6.2023 C   0  0  0  0  0  0  0  0  0  0  0  0
  -17.1930   -7.8332    4.9602 C   0  0  0  0  0  0  0  0  0  0  0  0
  -17.3528   -8.6630    3.8197 C   0  0  0  0  0  0  0  0  0  0  0  0
  -17.5125   -8.1323    2.5651 C   0  0  0  0  0  0  0  0  0  0  0  0
  -17.5162   -6.7694    2.4075 C   0  0  0  0  0  0  0  0  0  0  0  0
  -17.7173   -6.0607    0.8085 Cl  0  0  0  0  0  0  0  0  0  0  0  0
  -17.3626   -5.9751    3.5120 C   0  0  0  0  0  0  0  0  0  0  0  0
  -17.2017   -6.4880    4.8199 C   0  0  0  0  0  0  0  0  0  0  0  0
  -17.2014   -5.5575    5.9523 C   0  0  0  0  0  0  0  0  0  0  0  0
  -15.8571   -5.1484    6.1427 F   0  0  0  0  0  0  0  0  0  0  0  0
  -17.8354   -4.3527    5.6076 F   0  0  0  0  0  0  0  0  0  0  0  0
  -17.5987   -5.9973    7.1644 F   0  0  0  0  0  0  0  0  0  0  0  0
 18 19  1  0  0  0
 19 20  1  0  0  0
 20 21  1  0  0  0
 21 22  1  0  0  0
 22 23  1  0  0  0
 23 24  1  0  0  0
 23 25  1  0  0  0
 22 10  1  0  0  0
 10 11  1  0  0  0
 11 12  2  0  0  0
 11 13  1  0  0  0
 13 14  1  0  0  0
 14 15  2  0  0  0
 15  1  1  0  0  0
  1  2  2  0  0  0
  2  3  1  0  0  0
  3  4  2  0  0  0
  4  5  1  0  0  0
  5 26  1  0  0  0
 26 27  1  0  0  0
 27 28  2  0  0  0
 28 29  1  0  0  0
 29 30  2  0  0  0
 30 31  1  0  0  0
 30 32  1  0  0  0
 32 33  2  0  0  0
 33 34  1  0  0  0
 34 35  1  0  0  0
 34 36  1  0  0  0
 34 37  1  0  0  0
  5  6  1  0  0  0
  6  7  2  0  0  0
  7  8  1  0  0  0
  8  9  2  0  0  0
 14 16  1  0  0  0
 16 17  2  0  0  0
 25 19  1  0  0  0
 16 10  1  0  0  0
  9  1  1  0  0  0
  8  4  1  0  0  0
 33 27  1  0  0  0
M  END
> <minimizedAffinity>
21.49273

> <CNNscore>
0.3644973636

> <CNNaffinity>
6.6302614212

> <CNN_VS>
2.4167127609

> <CNNaffinity_variance>
1.0728623867

$$$$
[H]/C(=C1/SC(=O)N([C@]2([H])C([H])([H])C([H])([H])N(C([H])([H])[H])C([H])([H])[C@@]2([H])F)C1=O)c1c([H])c([H])c2c(c([H])nn2C([H])([H])c2c([H])c([H])c(Cl)c([H])c2C(F)(F)F)c1[H]


 37 41  0  0  0  0  0  0  0  0999 V2000
  -10.3819   -7.7675    8.5595 C   0  0  0  0  0  0  0  0  0  0  0  0
  -11.2748   -6.7929    8.9243 C   0  0  0  0  0  0  0  0  0  0  0  0
  -12.6065   -6.9375    8.5615 C   0  0  0  0  0  0  0  0  0  0  0  0
  -13.0939   -8.0161    7.8467 C   0  0  0  0  0  0  0  0  0  0  0  0
  -14.2964   -8.3555    7.4108 N   0  0  0  0  0  0  0  0  0  0  0  0
  -14.1356   -9.5581    6.7613 N   0  0  0  0  0  0  0  0  0  0  0  0
  -12.8629   -9.9328    6.8089 C   0  0  0  0  0  0  0  0  0  0  0  0
  -12.1436   -8.9932    7.4889 C   0  0  0  0  0  0  0  0  0  0  0  0
  -10.8349   -8.8599    7.8409 C   0  0  0  0  0  0  0  0  0  0  0  0
   -6.0011   -6.5781    6.9670 N   0  0  0  0  0  0  0  0  0  0  0  0
   -6.8376   -6.4329    5.8350 C   0  0  0  0  0  0  0  0  0  0  0  0
   -6.6033   -6.0672    4.6747 O   0  0  0  0  0  0  0  0  0  0  0  0
   -8.4930   -6.8869    6.3189 S   0  0  0  0  0  0  0  0  0  0  0  0
   -8.0917   -7.2060    8.0331 C   0  0  0  0  0  0  0  0  0  0  0  0
   -8.9839   -7.5922    8.9610 C   0  0  0  0  0  0  0  0  0  0  0  0
   -6.6672   -6.9893    8.1392 C   0  0  0  0  0  0  0  0  0  0  0  0
   -6.1105   -7.1861    9.2954 O   0  0  0  0  0  0  0  0  0  0  0  0
   -1.0602   -5.1614    5.9616 C   0  0  0  0  0  0  0  0  0  0  0  0
   -2.1065   -5.9781    5.4381 N   0  0  0  0  0  0  0  0  0  0  0  0
   -3.3052   -5.2492    5.1246 C   0  0  0  0  0  0  0  0  0  0  0  0
   -4.1434   -5.0759    6.3313 C   0  0  0  0  0  0  0  0  0  0  0  0
   -4.5381   -6.3446    6.9604 C   0  0  0  0  0  0  0  0  0  0  0  0
   -3.8546   -7.4935    6.2202 C   0  0  0  0  0  0  0  0  0  0  0  0
   -3.9069   -8.6795    6.9529 F   0  0  0  0  0  0  0  0  0  0  0  0
   -2.3417   -7.1895    6.1281 C   0  0  0  0  0  0  0  0  0  0  0  0
  -15.6116   -7.7631    7.5287 C   0  0  0  0  0  0  0  0  0  0  0  0
  -16.2530   -7.5291    6.2362 C   0  0  0  0  0  0  0  0  0  0  0  0
  -17.3885   -8.3408    5.9779 C   0  0  0  0  0  0  0  0  0  0  0  0
  -18.0219   -8.3194    4.7615 C   0  0  0  0  0  0  0  0  0  0  0  0
  -17.5473   -7.4970    3.7712 C   0  0  0  0  0  0  0  0  0  0  0  0
  -18.3393   -7.4507    2.1996 Cl  0  0  0  0  0  0  0  0  0  0  0  0
  -16.4524   -6.7161    4.0276 C   0  0  0  0  0  0  0  0  0  0  0  0
  -15.7790   -6.7087    5.2710 C   0  0  0  0  0  0  0  0  0  0  0  0
  -14.7155   -5.7256    5.4966 C   0  0  0  0  0  0  0  0  0  0  0  0
  -13.4886   -6.3850    5.2310 F   0  0  0  0  0  0  0  0  0  0  0  0
  -14.7404   -4.7287    4.5077 F   0  0  0  0  0  0  0  0  0  0  0  0
  -14.5591   -5.1978    6.7284 F   0  0  0  0  0  0  0  0  0  0  0  0
 18 19  1  0  0  0
 19 20  1  0  0  0
 20 21  1  0  0  0
 21 22  1  0  0  0
 22 23  1  0  0  0
 23 24  1  0  0  0
 23 25  1  0  0  0
 22 10  1  0  0  0
 10 11  1  0  0  0
 11 12  2  0  0  0
 11 13  1  0  0  0
 13 14  1  0  0  0
 14 15  2  0  0  0
 15  1  1  0  0  0
  1  2  2  0  0  0
  2  3  1  0  0  0
  3  4  2  0  0  0
  4  5  1  0  0  0
  5 26  1  0  0  0
 26 27  1  0  0  0
 27 28  2  0  0  0
 28 29  1  0  0  0
 29 30  2  0  0  0
 30 31  1  0  0  0
 30 32  1  0  0  0
 32 33  2  0  0  0
 33 34  1  0  0  0
 34 35  1  0  0  0
 34 36  1  0  0  0
 34 37  1  0  0  0
  5  6  1  0  0  0
  6  7  2  0  0  0
  7  8  1  0  0  0
  8  9  2  0  0  0
 14 16  1  0  0  0
 16 17  2  0  0  0
 25 19  1  0  0  0
 16 10  1  0  0  0
  9  1  1  0  0  0
  8  4  1  0  0  0
 33 27  1  0  0  0
M  END
> <minimizedAffinity>
-7.58299

> <CNNscore>
0.3204953372

> <CNNaffinity>
7.2031250000

> <CNN_VS>
2.3085680008

> <CNNaffinity_variance>
0.1803998351

$$$$
[H]/C(=C1/SC(=O)N([C@]2([H])C([H])([H])C([H])([H])N(C([H])([H])[H])C([H])([H])[C@@]2([H])F)C1=O)c1c([H])c([H])c2c(c([H])nn2C([H])([H])c2c([H])c([H])c(Cl)c([H])c2C(F)(F)F)c1[H]


 37 41  0  0  0  0  0  0  0  0999 V2000
   -6.4242   -8.1586    7.3030 C   0  0  0  0  0  0  0  0  0  0  0  0
   -5.3964   -7.7677    6.4837 C   0  0  0  0  0  0  0  0  0  0  0  0
   -4.4946   -6.8210    6.9489 C   0  0  0  0  0  0  0  0  0  0  0  0
   -4.5695   -6.2409    8.2019 C   0  0  0  0  0  0  0  0  0  0  0  0
   -3.8321   -5.3469    8.8407 N   0  0  0  0  0  0  0  0  0  0  0  0
   -4.4233   -5.1826   10.0726 N   0  0  0  0  0  0  0  0  0  0  0  0
   -5.4921   -5.9641   10.1707 C   0  0  0  0  0  0  0  0  0  0  0  0
   -5.6416   -6.6676    9.0108 C   0  0  0  0  0  0  0  0  0  0  0  0
   -6.5310   -7.5964    8.5629 C   0  0  0  0  0  0  0  0  0  0  0  0
   -7.7379  -10.5867    3.3635 N   0  0  0  0  0  0  0  0  0  0  0  0
   -6.6428   -9.7967    2.9402 C   0  0  0  0  0  0  0  0  0  0  0  0
   -6.0658   -9.7000    1.8481 O   0  0  0  0  0  0  0  0  0  0  0  0
   -6.1001   -8.8260    4.3343 S   0  0  0  0  0  0  0  0  0  0  0  0
   -7.2784   -9.5119    5.4930 C   0  0  0  0  0  0  0  0  0  0  0  0
   -7.3575   -9.1639    6.7888 C   0  0  0  0  0  0  0  0  0  0  0  0
   -8.0778  -10.4369    4.7231 C   0  0  0  0  0  0  0  0  0  0  0  0
   -9.0407  -11.0573    5.3344 O   0  0  0  0  0  0  0  0  0  0  0  0
   -9.7216  -14.6144    0.6667 C   0  0  0  0  0  0  0  0  0  0  0  0
   -8.5321  -13.8343    0.7773 N   0  0  0  0  0  0  0  0  0  0  0  0
   -7.9409  -13.8667    2.0873 C   0  0  0  0  0  0  0  0  0  0  0  0
   -8.5858  -12.8766    2.9776 C   0  0  0  0  0  0  0  0  0  0  0  0
   -8.5035  -11.4961    2.4792 C   0  0  0  0  0  0  0  0  0  0  0  0
   -7.8519  -11.5107    1.0971 C   0  0  0  0  0  0  0  0  0  0  0  0
   -8.0438  -10.3028    0.4262 F   0  0  0  0  0  0  0  0  0  0  0  0
   -8.5940  -12.5394    0.2134 C   0  0  0  0  0  0  0  0  0  0  0  0
   -2.6192   -4.6279    8.5148 C   0  0  0  0  0  0  0  0  0  0  0  0
   -2.8446   -3.5051    7.6064 C   0  0  0  0  0  0  0  0  0  0  0  0
   -2.8954   -3.8514    6.2308 C   0  0  0  0  0  0  0  0  0  0  0  0
   -2.9811   -2.8925    5.2539 C   0  0  0  0  0  0  0  0  0  0  0  0
   -3.0168   -1.5688    5.6130 C   0  0  0  0  0  0  0  0  0  0  0  0
   -3.1246   -0.3166    4.3802 Cl  0  0  0  0  0  0  0  0  0  0  0  0
   -2.9685   -1.2420    6.9416 C   0  0  0  0  0  0  0  0  0  0  0  0
   -2.8860   -2.2043    7.9746 C   0  0  0  0  0  0  0  0  0  0  0  0
   -2.9968   -1.7619    9.3675 C   0  0  0  0  0  0  0  0  0  0  0  0
   -1.7458   -2.0280    9.9798 F   0  0  0  0  0  0  0  0  0  0  0  0
   -3.0747   -0.3616    9.4409 F   0  0  0  0  0  0  0  0  0  0  0  0
   -3.9034   -2.3516   10.1742 F   0  0  0  0  0  0  0  0  0  0  0  0
 18 19  1  0  0  0
 19 20  1  0  0  0
 20 21  1  0  0  0
 21 22  1  0  0  0
 22 23  1  0  0  0
 23 24  1  0  0  0
 23 25  1  0  0  0
 22 10  1  0  0  0
 10 11  1  0  0  0
 11 12  2  0  0  0
 11 13  1  0  0  0
 13 14  1  0  0  0
 14 15  2  0  0  0
 15  1  1  0  0  0
  1  2  2  0  0  0
  2  3  1  0  0  0
  3  4  2  0  0  0
  4  5  1  0  0  0
  5 26  1  0  0  0
 26 27  1  0  0  0
 27 28  2  0  0  0
 28 29  1  0  0  0
 29 30  2  0  0  0
 30 31  1  0  0  0
 30 32  1  0  0  0
 32 33  2  0  0  0
 33 34  1  0  0  0
 34 35  1  0  0  0
 34 36  1  0  0  0
 34 37  1  0  0  0
  5  6  1  0  0  0
  6  7  2  0  0  0
  7  8  1  0  0  0
  8  9  2  0  0  0
 14 16  1  0  0  0
 16 17  2  0  0  0
 25 19  1  0  0  0
 16 10  1  0  0  0
  9  1  1  0  0  0
  8  4  1  0  0  0
 33 27  1  0  0  0
M  END
> <minimizedAffinity>
13.41920

> <CNNscore>
0.3129386604

> <CNNaffinity>
5.9436178207

> <CNN_VS>
1.8599878550

> <CNNaffinity_variance>
0.9236385226

$$$$
[H]/C(=C1/SC(=O)N([C@]2([H])C([H])([H])C([H])([H])N(C([H])([H])[H])C([H])([H])[C@@]2([H])F)C1=O)c1c([H])c([H])c2c(c([H])nn2C([H])([H])c2c([H])c([H])c(Cl)c([H])c2C(F)(F)F)c1[H]


 37 41  0  0  0  0  0  0  0  0999 V2000
  -11.8235   -9.5036    7.1930 C   0  0  0  0  0  0  0  0  0  0  0  0
  -12.9199   -9.2815    7.9860 C   0  0  0  0  0  0  0  0  0  0  0  0
  -14.1521   -9.0793    7.3806 C   0  0  0  0  0  0  0  0  0  0  0  0
  -14.3447   -9.0882    6.0114 C   0  0  0  0  0  0  0  0  0  0  0  0
  -15.4059   -8.9310    5.2366 N   0  0  0  0  0  0  0  0  0  0  0  0
  -14.9495   -9.0531    3.9440 N   0  0  0  0  0  0  0  0  0  0  0  0
  -13.6416   -9.2811    3.9444 C   0  0  0  0  0  0  0  0  0  0  0  0
  -13.1927   -9.3166    5.2327 C   0  0  0  0  0  0  0  0  0  0  0  0
  -11.9795   -9.5165    5.8180 C   0  0  0  0  0  0  0  0  0  0  0  0
   -7.3702   -7.7577    7.7040 N   0  0  0  0  0  0  0  0  0  0  0  0
   -8.0135   -6.8336    6.8468 C   0  0  0  0  0  0  0  0  0  0  0  0
   -7.6224   -5.7819    6.3215 O   0  0  0  0  0  0  0  0  0  0  0  0
   -9.6759   -7.4156    6.5674 S   0  0  0  0  0  0  0  0  0  0  0  0
   -9.5414   -8.8451    7.6351 C   0  0  0  0  0  0  0  0  0  0  0  0
  -10.5366   -9.7202    7.8588 C   0  0  0  0  0  0  0  0  0  0  0  0
   -8.1825   -8.8296    8.1256 C   0  0  0  0  0  0  0  0  0  0  0  0
   -7.8129   -9.7943    8.9120 O   0  0  0  0  0  0  0  0  0  0  0  0
   -2.5604   -6.2434    9.1195 C   0  0  0  0  0  0  0  0  0  0  0  0
   -3.4314   -6.2509    7.9893 N   0  0  0  0  0  0  0  0  0  0  0  0
   -4.6677   -5.5510    8.2092 C   0  0  0  0  0  0  0  0  0  0  0  0
   -5.6524   -6.4262    8.8822 C   0  0  0  0  0  0  0  0  0  0  0  0
   -5.9561   -7.6544    8.1336 C   0  0  0  0  0  0  0  0  0  0  0  0
   -5.0561   -7.7130    6.9000 C   0  0  0  0  0  0  0  0  0  0  0  0
   -5.0442   -8.9877    6.3333 F   0  0  0  0  0  0  0  0  0  0  0  0
   -3.5919   -7.5006    7.3478 C   0  0  0  0  0  0  0  0  0  0  0  0
  -16.8146   -8.7210    5.4933 C   0  0  0  0  0  0  0  0  0  0  0  0
  -17.2045   -7.3134    5.4350 C   0  0  0  0  0  0  0  0  0  0  0  0
  -17.2595   -6.6569    6.6924 C   0  0  0  0  0  0  0  0  0  0  0  0
  -17.7237   -5.3715    6.8090 C   0  0  0  0  0  0  0  0  0  0  0  0
  -18.1461   -4.7052    5.6866 C   0  0  0  0  0  0  0  0  0  0  0  0
  -18.7486   -3.0554    5.8070 Cl  0  0  0  0  0  0  0  0  0  0  0  0
  -18.0894   -5.3441    4.4771 C   0  0  0  0  0  0  0  0  0  0  0  0
  -17.6114   -6.6657    4.3196 C   0  0  0  0  0  0  0  0  0  0  0  0
  -17.4448   -7.2039    2.9665 C   0  0  0  0  0  0  0  0  0  0  0  0
  -17.8056   -6.1673    2.0689 F   0  0  0  0  0  0  0  0  0  0  0  0
  -16.0854   -7.3968    2.6708 F   0  0  0  0  0  0  0  0  0  0  0  0
  -18.1901   -8.2613    2.5834 F   0  0  0  0  0  0  0  0  0  0  0  0
 18 19  1  0  0  0
 19 20  1  0  0  0
 20 21  1  0  0  0
 21 22  1  0  0  0
 22 23  1  0  0  0
 23 24  1  0  0  0
 23 25  1  0  0  0
 22 10  1  0  0  0
 10 11  1  0  0  0
 11 12  2  0  0  0
 11 13  1  0  0  0
 13 14  1  0  0  0
 14 15  2  0  0  0
 15  1  1  0  0  0
  1  2  2  0  0  0
  2  3  1  0  0  0
  3  4  2  0  0  0
  4  5  1  0  0  0
  5 26  1  0  0  0
 26 27  1  0  0  0
 27 28  2  0  0  0
 28 29  1  0  0  0
 29 30  2  0  0  0
 30 31  1  0  0  0
 30 32  1  0  0  0
 32 33  2  0  0  0
 33 34  1  0  0  0
 34 35  1  0  0  0
 34 36  1  0  0  0
 34 37  1  0  0  0
  5  6  1  0  0  0
  6  7  2  0  0  0
  7  8  1  0  0  0
  8  9  2  0  0  0
 14 16  1  0  0  0
 16 17  2  0  0  0
 25 19  1  0  0  0
 16 10  1  0  0  0
  9  1  1  0  0  0
  8  4  1  0  0  0
 33 27  1  0  0  0
M  END
> <minimizedAffinity>
2.24201

> <CNNscore>
0.2916988134

> <CNNaffinity>
6.7242698669

> <CNN_VS>
1.9614615440

> <CNNaffinity_variance>
0.4556754231

$$$$
[H]/C(=C1/SC(=O)N(C([H])([H])C(=O)N([H])S(=O)(=O)N2C([H])([H])C([H])([H])C([H])([H])C2([H])[H])C1=O)c1c([H])c([H])c2c(c([H])nn2C([H])([H])c2c([H])c([H])c(Cl)c([H])c2C(F)(F)F)c1[H]


 42 46  0  0  0  0  0  0  0  0999 V2000
  -16.9391   -6.5223    4.8471 N   0  0  0  0  0  0  0  0  0  0  0  0
  -17.8857   -6.3845    5.7545 N   0  0  0  0  0  0  0  0  0  0  0  0
  -17.4829   -6.7614    6.9482 C   0  0  0  0  0  0  0  0  0  0  0  0
  -16.1769   -7.1771    6.8109 C   0  0  0  0  0  0  0  0  0  0  0  0
  -15.2720   -7.6871    7.7483 C   0  0  0  0  0  0  0  0  0  0  0  0
  -13.9875   -8.0654    7.3778 C   0  0  0  0  0  0  0  0  0  0  0  0
  -13.6812   -7.9028    6.0467 C   0  0  0  0  0  0  0  0  0  0  0  0
  -14.5613   -7.4029    5.1161 C   0  0  0  0  0  0  0  0  0  0  0  0
  -15.8332   -7.0283    5.4894 C   0  0  0  0  0  0  0  0  0  0  0  0
  -13.0223   -8.5789    8.3447 C   0  0  0  0  0  0  0  0  0  0  0  0
  -11.7424   -8.5625    8.0790 C   0  0  0  0  0  0  0  0  0  0  0  0
  -10.9325   -7.9576    6.5697 S   0  0  0  0  0  0  0  0  0  0  0  0
   -9.4193   -8.8826    6.8306 C   0  0  0  0  0  0  0  0  0  0  0  0
   -8.6060   -9.1947    5.9361 O   0  0  0  0  0  0  0  0  0  0  0  0
   -9.3976   -9.1452    8.2271 N   0  0  0  0  0  0  0  0  0  0  0  0
  -10.6113   -8.9814    8.8894 C   0  0  0  0  0  0  0  0  0  0  0  0
  -10.7762   -9.1785   10.1540 O   0  0  0  0  0  0  0  0  0  0  0  0
   -8.1644   -9.5362    8.8951 C   0  0  0  0  0  0  0  0  0  0  0  0
   -7.0567   -8.6219    8.5637 C   0  0  0  0  0  0  0  0  0  0  0  0
   -7.1345   -7.4267    8.9844 O   0  0  0  0  0  0  0  0  0  0  0  0
   -5.9161   -8.9874    7.8109 N   0  0  0  0  0  0  0  0  0  0  0  0
   -5.7616   -9.9068    7.4286 H   0  0  0  0  0  0  0  0  0  0  0  0
   -4.7108   -7.7525    7.5333 S   0  0  0  0  0  0  0  0  0  0  0  0
   -4.7213   -6.7303    8.6064 O   0  0  0  0  0  0  0  0  0  0  0  0
   -3.3817   -8.4912    7.6129 O   0  0  0  0  0  0  0  0  0  0  0  0
   -4.9463   -7.1505    5.9597 N   0  0  0  0  0  0  0  0  0  0  0  0
   -6.1208   -7.5670    5.2948 C   0  0  0  0  0  0  0  0  0  0  0  0
   -6.9198   -6.2874    5.0579 C   0  0  0  0  0  0  0  0  0  0  0  0
   -5.8423   -5.2464    4.8972 C   0  0  0  0  0  0  0  0  0  0  0  0
   -4.7640   -5.7437    5.8431 C   0  0  0  0  0  0  0  0  0  0  0  0
  -16.9205   -6.2323    3.4324 C   0  0  0  0  0  0  0  0  0  0  0  0
  -15.7359   -4.0440    3.3171 C   0  0  0  0  0  0  0  0  0  0  0  0
  -15.7044   -2.7403    2.8004 C   0  0  0  0  0  0  0  0  0  0  0  0
  -16.6718   -2.2003    1.9915 C   0  0  0  0  0  0  0  0  0  0  0  0
  -16.5946   -0.5696    1.3656 Cl  0  0  0  0  0  0  0  0  0  0  0  0
  -17.7233   -3.0329    1.6954 C   0  0  0  0  0  0  0  0  0  0  0  0
  -17.8213   -4.3107    2.1601 C   0  0  0  0  0  0  0  0  0  0  0  0
  -16.8080   -4.8451    2.9917 C   0  0  0  0  0  0  0  0  0  0  0  0
  -15.2460   -4.6153    5.5169 F   0  0  0  0  0  0  0  0  0  0  0  0
  -14.6347   -4.4609    4.2343 C   0  0  0  0  0  0  0  0  0  0  0  0
  -14.1511   -5.7241    3.9680 F   0  0  0  0  0  0  0  0  0  0  0  0
  -13.6903   -3.5211    4.4917 F   0  0  0  0  0  0  0  0  0  0  0  0
 39 40  1  0  0  0
 40 41  1  0  0  0
 40 42  1  0  0  0
 40 32  1  0  0  0
 32 33  2  0  0  0
 33 34  1  0  0  0
 34 35  1  0  0  0
 34 36  2  0  0  0
 36 37  1  0  0  0
 37 38  2  0  0  0
 38 31  1  0  0  0
 31  1  1  0  0  0
  1  2  1  0  0  0
  2  3  2  0  0  0
  3  4  1  0  0  0
  4  5  2  0  0  0
  5  6  1  0  0  0
  6 10  1  0  0  0
 10 11  2  0  0  0
 11 12  1  0  0  0
 12 13  1  0  0  0
 13 14  2  0  0  0
 13 15  1  0  0  0
 15 18  1  0  0  0
 18 19  1  0  0  0
 19 20  2  0  0  0
 19 21  1  0  0  0
 21 23  1  0  0  0
 23 24  2  0  0  0
 23 25  2  0  0  0
 23 26  1  0  0  0
 26 27  1  0  0  0
 27 28  1  0  0  0
 28 29  1  0  0  0
 29 30  1  0  0  0
 15 16  1  0  0  0
 16 17  2  0  0  0
  6  7  2  0  0  0
  7  8  1  0  0  0
  8  9  2  0  0  0
 38 32  1  0  0  0
  9  1  1  0  0  0
  9  4  1  0  0  0
 16 11  1  0  0  0
 30 26  1  0  0  0
 21 22  1  0  0  0
M  END
> <minimizedAffinity>
15.40562

> <CNNscore>
0.3451628983

> <CNNaffinity>
7.1978158951

> <CNN_VS>
2.4844191074

> <CNNaffinity_variance>
1.9371864796

$$$$
[H]/C(=C1/SC(=O)N(C([H])([H])C(=O)N([H])S(=O)(=O)N2C([H])([H])C([H])([H])C([H])([H])C2([H])[H])C1=O)c1c([H])c([H])c2c(c([H])nn2C([H])([H])c2c([H])c([H])c(Cl)c([H])c2C(F)(F)F)c1[H]


 42 46  0  0  0  0  0  0  0  0999 V2000
   -9.0094   -9.3656    7.4928 N   0  0  0  0  0  0  0  0  0  0  0  0
   -8.3333  -10.2944    8.1398 N   0  0  0  0  0  0  0  0  0  0  0  0
   -7.0402  -10.0558    8.1357 C   0  0  0  0  0  0  0  0  0  0  0  0
   -6.8573   -8.8850    7.4335 C   0  0  0  0  0  0  0  0  0  0  0  0
   -5.6926   -8.1795    7.1117 C   0  0  0  0  0  0  0  0  0  0  0  0
   -5.7427   -7.0087    6.3652 C   0  0  0  0  0  0  0  0  0  0  0  0
   -6.9990   -6.6057    5.9761 C   0  0  0  0  0  0  0  0  0  0  0  0
   -8.1506   -7.2900    6.2861 C   0  0  0  0  0  0  0  0  0  0  0  0
   -8.0951   -8.4496    7.0274 C   0  0  0  0  0  0  0  0  0  0  0  0
   -4.5414   -6.2471    6.0379 C   0  0  0  0  0  0  0  0  0  0  0  0
   -3.8854   -5.6075    6.9704 C   0  0  0  0  0  0  0  0  0  0  0  0
   -4.2845   -5.5151    8.7402 S   0  0  0  0  0  0  0  0  0  0  0  0
   -3.3259   -4.0288    9.0326 C   0  0  0  0  0  0  0  0  0  0  0  0
   -3.5046   -3.2345    9.9792 O   0  0  0  0  0  0  0  0  0  0  0  0
   -2.3780   -4.0012    7.9740 N   0  0  0  0  0  0  0  0  0  0  0  0
   -2.6640   -4.8244    6.8883 C   0  0  0  0  0  0  0  0  0  0  0  0
   -1.9173   -4.9232    5.8404 O   0  0  0  0  0  0  0  0  0  0  0  0
   -1.1844   -3.1720    8.0609 C   0  0  0  0  0  0  0  0  0  0  0  0
   -1.4739   -1.7694    7.7117 C   0  0  0  0  0  0  0  0  0  0  0  0
   -1.4669   -1.4559    6.4816 O   0  0  0  0  0  0  0  0  0  0  0  0
   -1.7587   -0.7532    8.6538 N   0  0  0  0  0  0  0  0  0  0  0  0
   -1.7839   -0.8973    9.6507 H   0  0  0  0  0  0  0  0  0  0  0  0
   -2.0816    0.8477    8.0314 S   0  0  0  0  0  0  0  0  0  0  0  0
   -1.0987    1.2365    6.9924 O   0  0  0  0  0  0  0  0  0  0  0  0
   -3.4420    0.7287    7.3580 O   0  0  0  0  0  0  0  0  0  0  0  0
   -2.1832    1.9041    9.3610 N   0  0  0  0  0  0  0  0  0  0  0  0
   -3.4790    2.3234    9.7352 C   0  0  0  0  0  0  0  0  0  0  0  0
   -3.6795    1.7841   11.1498 C   0  0  0  0  0  0  0  0  0  0  0  0
   -2.2824    1.8006   11.7140 C   0  0  0  0  0  0  0  0  0  0  0  0
   -1.4343    1.4828   10.4957 C   0  0  0  0  0  0  0  0  0  0  0  0
  -10.4242   -9.2060    7.2506 C   0  0  0  0  0  0  0  0  0  0  0  0
  -12.5408   -8.3067    8.2079 C   0  0  0  0  0  0  0  0  0  0  0  0
  -13.1574   -7.3478    9.0251 C   0  0  0  0  0  0  0  0  0  0  0  0
  -12.4958   -6.3336    9.6697 C   0  0  0  0  0  0  0  0  0  0  0  0
  -13.3015   -5.1579   10.6824 Cl  0  0  0  0  0  0  0  0  0  0  0  0
  -11.1375   -6.2969    9.4701 C   0  0  0  0  0  0  0  0  0  0  0  0
  -10.4700   -7.1946    8.6910 C   0  0  0  0  0  0  0  0  0  0  0  0
  -11.1760   -8.2336    8.0383 C   0  0  0  0  0  0  0  0  0  0  0  0
  -14.7484   -8.9634    7.8909 F   0  0  0  0  0  0  0  0  0  0  0  0
  -13.4106   -9.3106    7.5271 C   0  0  0  0  0  0  0  0  0  0  0  0
  -13.4204   -9.1830    6.1545 F   0  0  0  0  0  0  0  0  0  0  0  0
  -13.3216  -10.5829    7.9903 F   0  0  0  0  0  0  0  0  0  0  0  0
 39 40  1  0  0  0
 40 41  1  0  0  0
 40 42  1  0  0  0
 40 32  1  0  0  0
 32 33  2  0  0  0
 33 34  1  0  0  0
 34 35  1  0  0  0
 34 36  2  0  0  0
 36 37  1  0  0  0
 37 38  2  0  0  0
 38 31  1  0  0  0
 31  1  1  0  0  0
  1  2  1  0  0  0
  2  3  2  0  0  0
  3  4  1  0  0  0
  4  5  2  0  0  0
  5  6  1  0  0  0
  6 10  1  0  0  0
 10 11  2  0  0  0
 11 12  1  0  0  0
 12 13  1  0  0  0
 13 14  2  0  0  0
 13 15  1  0  0  0
 15 18  1  0  0  0
 18 19  1  0  0  0
 19 20  2  0  0  0
 19 21  1  0  0  0
 21 23  1  0  0  0
 23 24  2  0  0  0
 23 25  2  0  0  0
 23 26  1  0  0  0
 26 27  1  0  0  0
 27 28  1  0  0  0
 28 29  1  0  0  0
 29 30  1  0  0  0
 15 16  1  0  0  0
 16 17  2  0  0  0
  6  7  2  0  0  0
  7  8  1  0  0  0
  8  9  2  0  0  0
 38 32  1  0  0  0
  9  1  1  0  0  0
  9  4  1  0  0  0
 16 11  1  0  0  0
 30 26  1  0  0  0
 21 22  1  0  0  0
M  END
> <minimizedAffinity>
-8.54758

> <CNNscore>
0.3260079324

> <CNNaffinity>
6.7163491249

> <CNN_VS>
2.1895830631

> <CNNaffinity_variance>
0.1974842250

$$$$
[H]/C(=C1/SC(=O)N(C([H])([H])C(=O)N([H])S(=O)(=O)N2C([H])([H])C([H])([H])C([H])([H])C2([H])[H])C1=O)c1c([H])c([H])c2c(c([H])nn2C([H])([H])c2c([H])c([H])c(Cl)c([H])c2C(F)(F)F)c1[H]


 42 46  0  0  0  0  0  0  0  0999 V2000
  -10.4825   -9.3742    7.7927 N   0  0  0  0  0  0  0  0  0  0  0  0
  -10.0337  -10.5508    7.4023 N   0  0  0  0  0  0  0  0  0  0  0  0
   -8.8692  -10.4587    6.7986 C   0  0  0  0  0  0  0  0  0  0  0  0
   -8.5321   -9.1231    6.7933 C   0  0  0  0  0  0  0  0  0  0  0  0
   -7.4150   -8.4599    6.2736 C   0  0  0  0  0  0  0  0  0  0  0  0
   -7.2886   -7.0795    6.3676 C   0  0  0  0  0  0  0  0  0  0  0  0
   -8.3244   -6.4298    6.9979 C   0  0  0  0  0  0  0  0  0  0  0  0
   -9.4270   -7.0701    7.5125 C   0  0  0  0  0  0  0  0  0  0  0  0
   -9.5464   -8.4390    7.4175 C   0  0  0  0  0  0  0  0  0  0  0  0
   -6.1211   -6.3719    5.8513 C   0  0  0  0  0  0  0  0  0  0  0  0
   -5.1431   -6.0323    6.6495 C   0  0  0  0  0  0  0  0  0  0  0  0
   -5.0203   -6.3268    8.4379 S   0  0  0  0  0  0  0  0  0  0  0  0
   -3.8005   -5.0434    8.7177 C   0  0  0  0  0  0  0  0  0  0  0  0
   -3.5866   -4.4834    9.8129 O   0  0  0  0  0  0  0  0  0  0  0  0
   -3.1882   -4.8502    7.4498 N   0  0  0  0  0  0  0  0  0  0  0  0
   -3.8857   -5.3639    6.3599 C   0  0  0  0  0  0  0  0  0  0  0  0
   -3.4809   -5.2776    5.1376 O   0  0  0  0  0  0  0  0  0  0  0  0
   -1.9035   -4.1746    7.3352 C   0  0  0  0  0  0  0  0  0  0  0  0
   -2.0631   -2.7094    7.3152 C   0  0  0  0  0  0  0  0  0  0  0  0
   -2.1575   -2.1432    6.1829 O   0  0  0  0  0  0  0  0  0  0  0  0
   -2.1186   -1.8952    8.4708 N   0  0  0  0  0  0  0  0  0  0  0  0
   -2.0484   -2.2451    9.4131 H   0  0  0  0  0  0  0  0  0  0  0  0
   -2.3184   -0.1756    8.2297 S   0  0  0  0  0  0  0  0  0  0  0  0
   -1.4353    0.3293    7.1517 O   0  0  0  0  0  0  0  0  0  0  0  0
   -3.7576   -0.0208    7.7575 O   0  0  0  0  0  0  0  0  0  0  0  0
   -2.1192    0.5807    9.7404 N   0  0  0  0  0  0  0  0  0  0  0  0
   -2.5335    1.9280    9.8303 C   0  0  0  0  0  0  0  0  0  0  0  0
   -3.6619    1.9302   10.8592 C   0  0  0  0  0  0  0  0  0  0  0  0
   -3.2716    0.8067   11.7844 C   0  0  0  0  0  0  0  0  0  0  0  0
   -2.6093   -0.1796   10.8393 C   0  0  0  0  0  0  0  0  0  0  0  0
  -11.6879   -8.9938    8.4915 C   0  0  0  0  0  0  0  0  0  0  0  0
  -13.2717   -7.0900    8.2231 C   0  0  0  0  0  0  0  0  0  0  0  0
  -14.2357   -6.4548    7.4262 C   0  0  0  0  0  0  0  0  0  0  0  0
  -14.6852   -6.9310    6.2208 C   0  0  0  0  0  0  0  0  0  0  0  0
  -15.8880   -6.1075    5.2555 Cl  0  0  0  0  0  0  0  0  0  0  0  0
  -14.1223   -8.1140    5.8086 C   0  0  0  0  0  0  0  0  0  0  0  0
  -13.1806   -8.7870    6.5289 C   0  0  0  0  0  0  0  0  0  0  0  0
  -12.7318   -8.2729    7.7692 C   0  0  0  0  0  0  0  0  0  0  0  0
  -13.7292   -5.2880    9.6193 F   0  0  0  0  0  0  0  0  0  0  0  0
  -12.9349   -6.4736    9.5401 C   0  0  0  0  0  0  0  0  0  0  0  0
  -13.3746   -7.2130   10.6173 F   0  0  0  0  0  0  0  0  0  0  0  0
  -11.6797   -5.9712    9.6554 F   0  0  0  0  0  0  0  0  0  0  0  0
 39 40  1  0  0  0
 40 41  1  0  0  0
 40 42  1  0  0  0
 40 32  1  0  0  0
 32 33  2  0  0  0
 33 34  1  0  0  0
 34 35  1  0  0  0
 34 36  2  0  0  0
 36 37  1  0  0  0
 37 38  2  0  0  0
 38 31  1  0  0  0
 31  1  1  0  0  0
  1  2  1  0  0  0
  2  3  2  0  0  0
  3  4  1  0  0  0
  4  5  2  0  0  0
  5  6  1  0  0  0
  6 10  1  0  0  0
 10 11  2  0  0  0
 11 12  1  0  0  0
 12 13  1  0  0  0
 13 14  2  0  0  0
 13 15  1  0  0  0
 15 18  1  0  0  0
 18 19  1  0  0  0
 19 20  2  0  0  0
 19 21  1  0  0  0
 21 23  1  0  0  0
 23 24  2  0  0  0
 23 25  2  0  0  0
 23 26  1  0  0  0
 26 27  1  0  0  0
 27 28  1  0  0  0
 28 29  1  0  0  0
 29 30  1  0  0  0
 15 16  1  0  0  0
 16 17  2  0  0  0
  6  7  2  0  0  0
  7  8  1  0  0  0
  8  9  2  0  0  0
 38 32  1  0  0  0
  9  1  1  0  0  0
  9  4  1  0  0  0
 16 11  1  0  0  0
 30 26  1  0  0  0
 21 22  1  0  0  0
M  END
> <minimizedAffinity>
-8.61369

> <CNNscore>
0.3253979087

> <CNNaffinity>
7.0886316299

> <CNN_VS>
2.3066258430

> <CNNaffinity_variance>
0.1896447390

$$$$
[H]/C(=C1/SC(=O)N(C([H])([H])C(=O)N([H])S(=O)(=O)N2C([H])([H])C([H])([H])C([H])([H])C2([H])[H])C1=O)c1c([H])c([H])c2c(c([H])nn2C([H])([H])c2c([H])c([H])c(Cl)c([H])c2C(F)(F)F)c1[H]


 42 46  0  0  0  0  0  0  0  0999 V2000
   -6.7342   -7.1889    8.2609 N   0  0  0  0  0  0  0  0  0  0  0  0
   -6.6142   -8.2278    9.0637 N   0  0  0  0  0  0  0  0  0  0  0  0
   -7.7718   -8.6006    9.5638 C   0  0  0  0  0  0  0  0  0  0  0  0
   -8.7183   -7.7416    9.0506 C   0  0  0  0  0  0  0  0  0  0  0  0
  -10.1006   -7.6699    9.2551 C   0  0  0  0  0  0  0  0  0  0  0  0
  -10.8706   -6.6924    8.6370 C   0  0  0  0  0  0  0  0  0  0  0  0
  -10.1831   -5.8199    7.8257 C   0  0  0  0  0  0  0  0  0  0  0  0
   -8.8255   -5.8799    7.6167 C   0  0  0  0  0  0  0  0  0  0  0  0
   -8.0673   -6.8520    8.2312 C   0  0  0  0  0  0  0  0  0  0  0  0
  -12.3165   -6.6147    8.8205 C   0  0  0  0  0  0  0  0  0  0  0  0
  -13.1069   -7.4836    8.2468 C   0  0  0  0  0  0  0  0  0  0  0  0
  -12.6344   -8.8686    7.1704 S   0  0  0  0  0  0  0  0  0  0  0  0
  -14.2521   -9.0299    6.4151 C   0  0  0  0  0  0  0  0  0  0  0  0
  -14.4768   -9.5595    5.3069 O   0  0  0  0  0  0  0  0  0  0  0  0
  -15.1433   -8.4360    7.3494 N   0  0  0  0  0  0  0  0  0  0  0  0
  -14.5519   -7.6227    8.3122 C   0  0  0  0  0  0  0  0  0  0  0  0
  -15.2070   -7.0027    9.2350 O   0  0  0  0  0  0  0  0  0  0  0  0
  -16.5739   -8.6999    7.2895 C   0  0  0  0  0  0  0  0  0  0  0  0
  -17.2031   -8.0123    6.1475 C   0  0  0  0  0  0  0  0  0  0  0  0
  -18.3204   -7.4433    6.3463 O   0  0  0  0  0  0  0  0  0  0  0  0
  -16.6457   -7.9444    4.8490 N   0  0  0  0  0  0  0  0  0  0  0  0
  -15.7687   -8.3659    4.5874 H   0  0  0  0  0  0  0  0  0  0  0  0
  -17.5508   -7.0733    3.6339 S   0  0  0  0  0  0  0  0  0  0  0  0
  -17.3049   -7.6175    2.2774 O   0  0  0  0  0  0  0  0  0  0  0  0
  -19.0095   -7.3392    3.9802 O   0  0  0  0  0  0  0  0  0  0  0  0
  -17.2023   -5.4189    3.8227 N   0  0  0  0  0  0  0  0  0  0  0  0
  -17.2416   -4.9130    5.1408 C   0  0  0  0  0  0  0  0  0  0  0  0
  -15.8182   -4.4409    5.4291 C   0  0  0  0  0  0  0  0  0  0  0  0
  -15.3279   -4.0109    4.0707 C   0  0  0  0  0  0  0  0  0  0  0  0
  -16.0248   -4.9928    3.1461 C   0  0  0  0  0  0  0  0  0  0  0  0
   -5.7556   -6.4552    7.4927 C   0  0  0  0  0  0  0  0  0  0  0  0
   -3.3199   -6.6686    7.0164 C   0  0  0  0  0  0  0  0  0  0  0  0
   -2.2783   -7.4548    6.5019 C   0  0  0  0  0  0  0  0  0  0  0  0
   -2.4459   -8.6888    5.9267 C   0  0  0  0  0  0  0  0  0  0  0  0
   -1.1199   -9.6393    5.2983 Cl  0  0  0  0  0  0  0  0  0  0  0  0
   -3.7412   -9.1426    5.8746 C   0  0  0  0  0  0  0  0  0  0  0  0
   -4.8030   -8.4352    6.3545 C   0  0  0  0  0  0  0  0  0  0  0  0
   -4.6028   -7.1646    6.9458 C   0  0  0  0  0  0  0  0  0  0  0  0
   -3.0403   -5.4504    8.9768 F   0  0  0  0  0  0  0  0  0  0  0  0
   -2.9787   -5.3191    7.5550 C   0  0  0  0  0  0  0  0  0  0  0  0
   -1.6665   -4.9589    7.3342 F   0  0  0  0  0  0  0  0  0  0  0  0
   -3.8935   -4.3425    7.3298 F   0  0  0  0  0  0  0  0  0  0  0  0
 39 40  1  0  0  0
 40 41  1  0  0  0
 40 42  1  0  0  0
 40 32  1  0  0  0
 32 33  2  0  0  0
 33 34  1  0  0  0
 34 35  1  0  0  0
 34 36  2  0  0  0
 36 37  1  0  0  0
 37 38  2  0  0  0
 38 31  1  0  0  0
 31  1  1  0  0  0
  1  2  1  0  0  0
  2  3  2  0  0  0
  3  4  1  0  0  0
  4  5  2  0  0  0
  5  6  1  0  0  0
  6 10  1  0  0  0
 10 11  2  0  0  0
 11 12  1  0  0  0
 12 13  1  0  0  0
 13 14  2  0  0  0
 13 15  1  0  0  0
 15 18  1  0  0  0
 18 19  1  0  0  0
 19 20  2  0  0  0
 19 21  1  0  0  0
 21 23  1  0  0  0
 23 24  2  0  0  0
 23 25  2  0  0  0
 23 26  1  0  0  0
 26 27  1  0  0  0
 27 28  1  0  0  0
 28 29  1  0  0  0
 29 30  1  0  0  0
 15 16  1  0  0  0
 16 17  2  0  0  0
  6  7  2  0  0  0
  7  8  1  0  0  0
  8  9  2  0  0  0
 38 32  1  0  0  0
  9  1  1  0  0  0
  9  4  1  0  0  0
 16 11  1  0  0  0
 30 26  1  0  0  0
 21 22  1  0  0  0
M  END
> <minimizedAffinity>
0.72660

> <CNNscore>
0.3238067031

> <CNNaffinity>
6.9595594406

> <CNN_VS>
2.2535519600

> <CNNaffinity_variance>
0.4533132911

$$$$
[H]/C(=C1/SC(=O)N(C([H])([H])C(=O)N([H])S(=O)(=O)N2C([H])([H])C([H])([H])C([H])([H])C2([H])[H])C1=O)c1c([H])c([H])c2c(c([H])nn2C([H])([H])c2c([H])c([H])c(Cl)c([H])c2C(F)(F)F)c1[H]


 42 46  0  0  0  0  0  0  0  0999 V2000
  -18.2039   -7.9957    7.2605 N   0  0  0  0  0  0  0  0  0  0  0  0
  -18.1728   -7.1235    6.2722 N   0  0  0  0  0  0  0  0  0  0  0  0
  -16.9447   -6.8718    5.8754 C   0  0  0  0  0  0  0  0  0  0  0  0
  -16.1113   -7.6352    6.6629 C   0  0  0  0  0  0  0  0  0  0  0  0
  -14.7169   -7.7487    6.6838 C   0  0  0  0  0  0  0  0  0  0  0  0
  -14.0755   -8.5821    7.5918 C   0  0  0  0  0  0  0  0  0  0  0  0
  -14.9001   -9.2722    8.4496 C   0  0  0  0  0  0  0  0  0  0  0  0
  -16.2712   -9.1693    8.4389 C   0  0  0  0  0  0  0  0  0  0  0  0
  -16.9018   -8.3424    7.5357 C   0  0  0  0  0  0  0  0  0  0  0  0
  -12.6237   -8.7306    7.6148 C   0  0  0  0  0  0  0  0  0  0  0  0
  -11.8801   -7.8887    8.2835 C   0  0  0  0  0  0  0  0  0  0  0  0
  -12.4293   -6.4528    9.2513 S   0  0  0  0  0  0  0  0  0  0  0  0
  -10.8376   -5.6293    9.2141 C   0  0  0  0  0  0  0  0  0  0  0  0
  -10.6595   -4.4044    9.3785 O   0  0  0  0  0  0  0  0  0  0  0  0
   -9.9026   -6.6703    8.9652 N   0  0  0  0  0  0  0  0  0  0  0  0
  -10.4400   -7.8577    8.4758 C   0  0  0  0  0  0  0  0  0  0  0  0
   -9.7403   -8.9042    8.1920 O   0  0  0  0  0  0  0  0  0  0  0  0
   -8.4846   -6.4821    9.2366 C   0  0  0  0  0  0  0  0  0  0  0  0
   -7.6774   -6.6129    8.0101 C   0  0  0  0  0  0  0  0  0  0  0  0
   -6.6123   -5.9266    7.9308 O   0  0  0  0  0  0  0  0  0  0  0  0
   -8.0098   -7.4502    6.9194 N   0  0  0  0  0  0  0  0  0  0  0  0
   -8.8334   -8.0296    6.8818 H   0  0  0  0  0  0  0  0  0  0  0  0
   -6.9132   -7.4656    5.5586 S   0  0  0  0  0  0  0  0  0  0  0  0
   -7.2605   -6.4197    4.5675 O   0  0  0  0  0  0  0  0  0  0  0  0
   -5.5594   -7.1048    6.1548 O   0  0  0  0  0  0  0  0  0  0  0  0
   -6.8739   -9.0535    4.9495 N   0  0  0  0  0  0  0  0  0  0  0  0
   -7.5160  -10.0428    5.7267 C   0  0  0  0  0  0  0  0  0  0  0  0
   -8.6456  -10.5711    4.8454 C   0  0  0  0  0  0  0  0  0  0  0  0
   -8.0836  -10.4182    3.4557 C   0  0  0  0  0  0  0  0  0  0  0  0
   -7.2446   -9.1590    3.5794 C   0  0  0  0  0  0  0  0  0  0  0  0
  -19.3068   -8.5703    7.9949 C   0  0  0  0  0  0  0  0  0  0  0  0
  -19.9372  -10.9381    8.4433 C   0  0  0  0  0  0  0  0  0  0  0  0
  -20.5071  -12.1242    7.9573 C   0  0  0  0  0  0  0  0  0  0  0  0
  -20.9724  -12.2969    6.6785 C   0  0  0  0  0  0  0  0  0  0  0  0
  -21.6787  -13.7924    6.1114 Cl  0  0  0  0  0  0  0  0  0  0  0  0
  -20.8500  -11.2044    5.8552 C   0  0  0  0  0  0  0  0  0  0  0  0
  -20.3080  -10.0199    6.2574 C   0  0  0  0  0  0  0  0  0  0  0  0
  -19.8372   -9.8667    7.5836 C   0  0  0  0  0  0  0  0  0  0  0  0
  -20.2434   -9.9959   10.5465 F   0  0  0  0  0  0  0  0  0  0  0  0
  -19.4221  -10.9311    9.8441 C   0  0  0  0  0  0  0  0  0  0  0  0
  -19.6532  -12.1120   10.5168 F   0  0  0  0  0  0  0  0  0  0  0  0
  -18.1870  -10.3968   10.0186 F   0  0  0  0  0  0  0  0  0  0  0  0
 39 40  1  0  0  0
 40 41  1  0  0  0
 40 42  1  0  0  0
 40 32  1  0  0  0
 32 33  2  0  0  0
 33 34  1  0  0  0
 34 35  1  0  0  0
 34 36  2  0  0  0
 36 37  1  0  0  0
 37 38  2  0  0  0
 38 31  1  0  0  0
 31  1  1  0  0  0
  1  2  1  0  0  0
  2  3  2  0  0  0
  3  4  1  0  0  0
  4  5  2  0  0  0
  5  6  1  0  0  0
  6 10  1  0  0  0
 10 11  2  0  0  0
 11 12  1  0  0  0
 12 13  1  0  0  0
 13 14  2  0  0  0
 13 15  1  0  0  0
 15 18  1  0  0  0
 18 19  1  0  0  0
 19 20  2  0  0  0
 19 21  1  0  0  0
 21 23  1  0  0  0
 23 24  2  0  0  0
 23 25  2  0  0  0
 23 26  1  0  0  0
 26 27  1  0  0  0
 27 28  1  0  0  0
 28 29  1  0  0  0
 29 30  1  0  0  0
 15 16  1  0  0  0
 16 17  2  0  0  0
  6  7  2  0  0  0
  7  8  1  0  0  0
  8  9  2  0  0  0
 38 32  1  0  0  0
  9  1  1  0  0  0
  9  4  1  0  0  0
 16 11  1  0  0  0
 30 26  1  0  0  0
 21 22  1  0  0  0
M  END
> <minimizedAffinity>
13.13165

> <CNNscore>
0.3026098311

> <CNNaffinity>
6.8576035500

> <CNN_VS>
2.0751781464

> <CNNaffinity_variance>
0.8393279314

$$$$
[H]/C(=C1/SC(=O)N(C([H])([H])C(=O)N([H])S(=O)(=O)N2C([H])([H])C([H])([H])C([H])([H])C2([H])[H])C1=O)c1c([H])c([H])c2c(c([H])nn2C([H])([H])c2c([H])c([H])c(Cl)c([H])c2C(F)(F)F)c1[H]


 42 46  0  0  0  0  0  0  0  0999 V2000
  -11.4989   -9.9035    7.1553 N   0  0  0  0  0  0  0  0  0  0  0  0
  -10.8332  -10.8046    6.4602 N   0  0  0  0  0  0  0  0  0  0  0  0
   -9.5381  -10.5778    6.4715 C   0  0  0  0  0  0  0  0  0  0  0  0
   -9.3427   -9.4442    7.2293 C   0  0  0  0  0  0  0  0  0  0  0  0
   -8.1732   -8.7507    7.5597 C   0  0  0  0  0  0  0  0  0  0  0  0
   -8.2135   -7.5995    8.3368 C   0  0  0  0  0  0  0  0  0  0  0  0
   -9.4653   -7.2038    8.7474 C   0  0  0  0  0  0  0  0  0  0  0  0
  -10.6215   -7.8766    8.4295 C   0  0  0  0  0  0  0  0  0  0  0  0
  -10.5754   -9.0179    7.6597 C   0  0  0  0  0  0  0  0  0  0  0  0
   -7.0031   -6.8746    8.7102 C   0  0  0  0  0  0  0  0  0  0  0  0
   -5.9156   -6.9831    7.9930 C   0  0  0  0  0  0  0  0  0  0  0  0
   -5.6714   -7.9830    6.4961 S   0  0  0  0  0  0  0  0  0  0  0  0
   -3.8841   -8.0180    6.6292 C   0  0  0  0  0  0  0  0  0  0  0  0
   -3.1425   -8.8766    6.1078 O   0  0  0  0  0  0  0  0  0  0  0  0
   -3.5634   -6.8880    7.4293 N   0  0  0  0  0  0  0  0  0  0  0  0
   -4.6218   -6.3399    8.1488 C   0  0  0  0  0  0  0  0  0  0  0  0
   -4.5127   -5.3162    8.9267 O   0  0  0  0  0  0  0  0  0  0  0  0
   -2.2108   -6.3497    7.4547 C   0  0  0  0  0  0  0  0  0  0  0  0
   -2.1226   -5.0743    6.7210 C   0  0  0  0  0  0  0  0  0  0  0  0
   -1.3973   -4.1585    7.2179 O   0  0  0  0  0  0  0  0  0  0  0  0
   -2.7902   -4.8044    5.5032 N   0  0  0  0  0  0  0  0  0  0  0  0
   -3.3914   -5.4604    5.0305 H   0  0  0  0  0  0  0  0  0  0  0  0
   -2.5480   -3.2273    4.7899 S   0  0  0  0  0  0  0  0  0  0  0  0
   -1.1081   -2.8917    4.6867 O   0  0  0  0  0  0  0  0  0  0  0  0
   -3.0933   -3.3603    3.3746 O   0  0  0  0  0  0  0  0  0  0  0  0
   -3.4874   -2.1161    5.6713 N   0  0  0  0  0  0  0  0  0  0  0  0
   -2.7816   -1.1685    6.4453 C   0  0  0  0  0  0  0  0  0  0  0  0
   -3.1526    0.1881    5.8502 C   0  0  0  0  0  0  0  0  0  0  0  0
   -4.5560   -0.0394    5.3511 C   0  0  0  0  0  0  0  0  0  0  0  0
   -4.5144   -1.4912    4.9094 C   0  0  0  0  0  0  0  0  0  0  0  0
  -12.9096   -9.7559    7.4276 C   0  0  0  0  0  0  0  0  0  0  0  0
  -14.1836   -7.6181    7.3179 C   0  0  0  0  0  0  0  0  0  0  0  0
  -14.8586   -6.6814    6.5213 C   0  0  0  0  0  0  0  0  0  0  0  0
  -15.0496   -6.8044    5.1685 C   0  0  0  0  0  0  0  0  0  0  0  0
  -15.8959   -5.6121    4.2097 Cl  0  0  0  0  0  0  0  0  0  0  0  0
  -14.5253   -7.9398    4.6009 C   0  0  0  0  0  0  0  0  0  0  0  0
  -13.8570   -8.8926    5.3110 C   0  0  0  0  0  0  0  0  0  0  0  0
  -13.6712   -8.7407    6.7062 C   0  0  0  0  0  0  0  0  0  0  0  0
  -15.4366   -7.6021    9.2763 F   0  0  0  0  0  0  0  0  0  0  0  0
  -14.1142   -7.3673    8.7876 C   0  0  0  0  0  0  0  0  0  0  0  0
  -13.3630   -8.3030    9.4663 F   0  0  0  0  0  0  0  0  0  0  0  0
  -13.9089   -6.0786    9.1597 F   0  0  0  0  0  0  0  0  0  0  0  0
 39 40  1  0  0  0
 40 41  1  0  0  0
 40 42  1  0  0  0
 40 32  1  0  0  0
 32 33  2  0  0  0
 33 34  1  0  0  0
 34 35  1  0  0  0
 34 36  2  0  0  0
 36 37  1  0  0  0
 37 38  2  0  0  0
 38 31  1  0  0  0
 31  1  1  0  0  0
  1  2  1  0  0  0
  2  3  2  0  0  0
  3  4  1  0  0  0
  4  5  2  0  0  0
  5  6  1  0  0  0
  6 10  1  0  0  0
 10 11  2  0  0  0
 11 12  1  0  0  0
 12 13  1  0  0  0
 13 14  2  0  0  0
 13 15  1  0  0  0
 15 18  1  0  0  0
 18 19  1  0  0  0
 19 20  2  0  0  0
 19 21  1  0  0  0
 21 23  1  0  0  0
 23 24  2  0  0  0
 23 25  2  0  0  0
 23 26  1  0  0  0
 26 27  1  0  0  0
 27 28  1  0  0  0
 28 29  1  0  0  0
 29 30  1  0  0  0
 15 16  1  0  0  0
 16 17  2  0  0  0
  6  7  2  0  0  0
  7  8  1  0  0  0
  8  9  2  0  0  0
 38 32  1  0  0  0
  9  1  1  0  0  0
  9  4  1  0  0  0
 16 11  1  0  0  0
 30 26  1  0  0  0
 21 22  1  0  0  0
M  END
> <minimizedAffinity>
-8.61830

> <CNNscore>
0.2514480054

> <CNNaffinity>
7.1953086853

> <CNN_VS>
1.8092460632

> <CNNaffinity_variance>
0.0796356276

$$$$
[H]/C(=C1/SC(=O)N(C([H])([H])C(=O)N([H])S(=O)(=O)N2C([H])([H])C([H])([H])C([H])([H])C2([H])[H])C1=O)c1c([H])c([H])c2c(c([H])nn2C([H])([H])c2c([H])c([H])c(Cl)c([H])c2C(F)(F)F)c1[H]


 42 46  0  0  0  0  0  0  0  0999 V2000
  -10.5282   -9.4535    7.7243 N   0  0  0  0  0  0  0  0  0  0  0  0
  -10.0427  -10.6071    7.3100 N   0  0  0  0  0  0  0  0  0  0  0  0
   -8.8585  -10.4725    6.7544 C   0  0  0  0  0  0  0  0  0  0  0  0
   -8.5472   -9.1318    6.8088 C   0  0  0  0  0  0  0  0  0  0  0  0
   -7.4246   -8.4305    6.3555 C   0  0  0  0  0  0  0  0  0  0  0  0
   -7.3283   -7.0523    6.5026 C   0  0  0  0  0  0  0  0  0  0  0  0
   -8.3992   -6.4443    7.1156 C   0  0  0  0  0  0  0  0  0  0  0  0
   -9.5076   -7.1222    7.5654 C   0  0  0  0  0  0  0  0  0  0  0  0
   -9.5970   -8.4888    7.4179 C   0  0  0  0  0  0  0  0  0  0  0  0
   -6.1563   -6.3059    6.0561 C   0  0  0  0  0  0  0  0  0  0  0  0
   -5.2108   -5.9860    6.9002 C   0  0  0  0  0  0  0  0  0  0  0  0
   -5.1420   -6.3547    8.6777 S   0  0  0  0  0  0  0  0  0  0  0  0
   -3.9533   -5.0663    9.0521 C   0  0  0  0  0  0  0  0  0  0  0  0
   -3.7848   -4.5504   10.1766 O   0  0  0  0  0  0  0  0  0  0  0  0
   -3.3029   -4.8099    7.8147 N   0  0  0  0  0  0  0  0  0  0  0  0
   -3.9557   -5.2870    6.6814 C   0  0  0  0  0  0  0  0  0  0  0  0
   -3.5124   -5.1425    5.4781 O   0  0  0  0  0  0  0  0  0  0  0  0
   -2.0264   -4.1108    7.7720 C   0  0  0  0  0  0  0  0  0  0  0  0
   -2.2119   -2.6538    7.6474 C   0  0  0  0  0  0  0  0  0  0  0  0
   -1.5139   -1.9055    8.3987 O   0  0  0  0  0  0  0  0  0  0  0  0
   -3.1129   -2.0363    6.7484 N   0  0  0  0  0  0  0  0  0  0  0  0
   -3.7136   -2.5395    6.1150 H   0  0  0  0  0  0  0  0  0  0  0  0
   -3.1771   -0.2897    6.7527 S   0  0  0  0  0  0  0  0  0  0  0  0
   -3.3694    0.2447    8.1217 O   0  0  0  0  0  0  0  0  0  0  0  0
   -1.7973    0.1446    6.2775 O   0  0  0  0  0  0  0  0  0  0  0  0
   -4.3557    0.1830    5.6207 N   0  0  0  0  0  0  0  0  0  0  0  0
   -4.3726    1.5489    5.2614 C   0  0  0  0  0  0  0  0  0  0  0  0
   -4.0579    1.5720    3.7673 C   0  0  0  0  0  0  0  0  0  0  0  0
   -4.6450    0.2716    3.2828 C   0  0  0  0  0  0  0  0  0  0  0  0
   -4.4208   -0.6498    4.4683 C   0  0  0  0  0  0  0  0  0  0  0  0
  -11.7659   -9.1200    8.3898 C   0  0  0  0  0  0  0  0  0  0  0  0
  -13.3473   -7.2132    8.1288 C   0  0  0  0  0  0  0  0  0  0  0  0
  -14.2900   -6.5584    7.3224 C   0  0  0  0  0  0  0  0  0  0  0  0
  -14.7035   -7.0021    6.0920 C   0  0  0  0  0  0  0  0  0  0  0  0
  -15.8808   -6.1550    5.1157 Cl  0  0  0  0  0  0  0  0  0  0  0  0
  -14.1255   -8.1721    5.6637 C   0  0  0  0  0  0  0  0  0  0  0  0
  -13.2026   -8.8625    6.3917 C   0  0  0  0  0  0  0  0  0  0  0  0
  -12.7910   -8.3819    7.6581 C   0  0  0  0  0  0  0  0  0  0  0  0
  -13.7771   -5.4032    9.5234 F   0  0  0  0  0  0  0  0  0  0  0  0
  -13.0500   -6.6326    9.4713 C   0  0  0  0  0  0  0  0  0  0  0  0
  -13.5921   -7.3569   10.5115 F   0  0  0  0  0  0  0  0  0  0  0  0
  -11.7762   -6.2064    9.6638 F   0  0  0  0  0  0  0  0  0  0  0  0
 39 40  1  0  0  0
 40 41  1  0  0  0
 40 42  1  0  0  0
 40 32  1  0  0  0
 32 33  2  0  0  0
 33 34  1  0  0  0
 34 35  1  0  0  0
 34 36  2  0  0  0
 36 37  1  0  0  0
 37 38  2  0  0  0
 38 31  1  0  0  0
 31  1  1  0  0  0
  1  2  1  0  0  0
  2  3  2  0  0  0
  3  4  1  0  0  0
  4  5  2  0  0  0
  5  6  1  0  0  0
  6 10  1  0  0  0
 10 11  2  0  0  0
 11 12  1  0  0  0
 12 13  1  0  0  0
 13 14  2  0  0  0
 13 15  1  0  0  0
 15 18  1  0  0  0
 18 19  1  0  0  0
 19 20  2  0  0  0
 19 21  1  0  0  0
 21 23  1  0  0  0
 23 24  2  0  0  0
 23 25  2  0  0  0
 23 26  1  0  0  0
 26 27  1  0  0  0
 27 28  1  0  0  0
 28 29  1  0  0  0
 29 30  1  0  0  0
 15 16  1  0  0  0
 16 17  2  0  0  0
  6  7  2  0  0  0
  7  8  1  0  0  0
  8  9  2  0  0  0
 38 32  1  0  0  0
  9  1  1  0  0  0
  9  4  1  0  0  0
 16 11  1  0  0  0
 30 26  1  0  0  0
 21 22  1  0  0  0
M  END
> <minimizedAffinity>
-8.82206

> <CNNscore>
0.2436447293

> <CNNaffinity>
7.0706911087

> <CNN_VS>
1.7227365971

> <CNNaffinity_variance>
0.1404341012

$$$$
[H]/C(=C1/SC(=O)N(C([H])([H])C(=O)N([H])S(=O)(=O)N2C([H])([H])C([H])([H])C([H])([H])C2([H])[H])C1=O)c1c([H])c([H])c2c(c([H])nn2C([H])([H])c2c([H])c([H])c(Cl)c([H])c2C(F)(F)F)c1[H]


 42 46  0  0  0  0  0  0  0  0999 V2000
  -14.8462   -8.1266    6.4512 N   0  0  0  0  0  0  0  0  0  0  0  0
  -15.5249   -8.4174    7.5434 N   0  0  0  0  0  0  0  0  0  0  0  0
  -14.7364   -8.6003    8.5797 C   0  0  0  0  0  0  0  0  0  0  0  0
  -13.4469   -8.4163    8.1317 C   0  0  0  0  0  0  0  0  0  0  0  0
  -12.2212   -8.5017    8.8010 C   0  0  0  0  0  0  0  0  0  0  0  0
  -11.0204   -8.2903    8.1347 C   0  0  0  0  0  0  0  0  0  0  0  0
  -11.1282   -7.9964    6.7952 C   0  0  0  0  0  0  0  0  0  0  0  0
  -12.3264   -7.9095    6.1265 C   0  0  0  0  0  0  0  0  0  0  0  0
  -13.5139   -8.1190    6.7924 C   0  0  0  0  0  0  0  0  0  0  0  0
   -9.7332   -8.3535    8.8198 C   0  0  0  0  0  0  0  0  0  0  0  0
   -8.6167   -8.2552    8.1470 C   0  0  0  0  0  0  0  0  0  0  0  0
   -8.4196   -8.0442    6.3535 S   0  0  0  0  0  0  0  0  0  0  0  0
   -6.7299   -8.6419    6.3171 C   0  0  0  0  0  0  0  0  0  0  0  0
   -6.1547   -9.1063    5.3109 O   0  0  0  0  0  0  0  0  0  0  0  0
   -6.2574   -8.4578    7.6448 N   0  0  0  0  0  0  0  0  0  0  0  0
   -7.2395   -8.2560    8.6107 C   0  0  0  0  0  0  0  0  0  0  0  0
   -6.9930   -8.0747    9.8643 O   0  0  0  0  0  0  0  0  0  0  0  0
   -4.8313   -8.4630    7.9381 C   0  0  0  0  0  0  0  0  0  0  0  0
   -4.1661   -7.2589    7.4085 C   0  0  0  0  0  0  0  0  0  0  0  0
   -3.7146   -7.3094    6.2230 O   0  0  0  0  0  0  0  0  0  0  0  0
   -3.9987   -6.0544    8.1314 N   0  0  0  0  0  0  0  0  0  0  0  0
   -4.3157   -5.9139    9.0774 H   0  0  0  0  0  0  0  0  0  0  0  0
   -3.1855   -4.7387    7.3175 S   0  0  0  0  0  0  0  0  0  0  0  0
   -3.4991   -3.4332    7.9452 O   0  0  0  0  0  0  0  0  0  0  0  0
   -1.7036   -5.0117    7.5363 O   0  0  0  0  0  0  0  0  0  0  0  0
   -3.5576   -4.8519    5.6613 N   0  0  0  0  0  0  0  0  0  0  0  0
   -4.8991   -4.6000    5.2981 C   0  0  0  0  0  0  0  0  0  0  0  0
   -4.8435   -3.3680    4.3975 C   0  0  0  0  0  0  0  0  0  0  0  0
   -3.5009   -3.5052    3.7273 C   0  0  0  0  0  0  0  0  0  0  0  0
   -2.6572   -4.1463    4.8145 C   0  0  0  0  0  0  0  0  0  0  0  0
  -15.2793   -7.8395    5.1036 C   0  0  0  0  0  0  0  0  0  0  0  0
  -16.2329   -5.5914    4.6120 C   0  0  0  0  0  0  0  0  0  0  0  0
  -17.3787   -4.8156    4.3818 C   0  0  0  0  0  0  0  0  0  0  0  0
  -18.6635   -5.2945    4.4218 C   0  0  0  0  0  0  0  0  0  0  0  0
  -20.0668   -4.2942    4.1268 Cl  0  0  0  0  0  0  0  0  0  0  0  0
  -18.7843   -6.6317    4.7109 C   0  0  0  0  0  0  0  0  0  0  0  0
  -17.7173   -7.4472    4.9450 C   0  0  0  0  0  0  0  0  0  0  0  0
  -16.4010   -6.9286    4.8954 C   0  0  0  0  0  0  0  0  0  0  0  0
  -14.4161   -4.9897    5.9322 F   0  0  0  0  0  0  0  0  0  0  0  0
  -14.9072   -4.9058    4.5926 C   0  0  0  0  0  0  0  0  0  0  0  0
  -13.9510   -5.5865    3.8695 F   0  0  0  0  0  0  0  0  0  0  0  0
  -14.9370   -3.5637    4.3949 F   0  0  0  0  0  0  0  0  0  0  0  0
 39 40  1  0  0  0
 40 41  1  0  0  0
 40 42  1  0  0  0
 40 32  1  0  0  0
 32 33  2  0  0  0
 33 34  1  0  0  0
 34 35  1  0  0  0
 34 36  2  0  0  0
 36 37  1  0  0  0
 37 38  2  0  0  0
 38 31  1  0  0  0
 31  1  1  0  0  0
  1  2  1  0  0  0
  2  3  2  0  0  0
  3  4  1  0  0  0
  4  5  2  0  0  0
  5  6  1  0  0  0
  6 10  1  0  0  0
 10 11  2  0  0  0
 11 12  1  0  0  0
 12 13  1  0  0  0
 13 14  2  0  0  0
 13 15  1  0  0  0
 15 18  1  0  0  0
 18 19  1  0  0  0
 19 20  2  0  0  0
 19 21  1  0  0  0
 21 23  1  0  0  0
 23 24  2  0  0  0
 23 25  2  0  0  0
 23 26  1  0  0  0
 26 27  1  0  0  0
 27 28  1  0  0  0
 28 29  1  0  0  0
 29 30  1  0  0  0
 15 16  1  0  0  0
 16 17  2  0  0  0
  6  7  2  0  0  0
  7  8  1  0  0  0
  8  9  2  0  0  0
 38 32  1  0  0  0
  9  1  1  0  0  0
  9  4  1  0  0  0
 16 11  1  0  0  0
 30 26  1  0  0  0
 21 22  1  0  0  0
M  END
> <minimizedAffinity>
-2.48512

> <CNNscore>
0.2416232377

> <CNNaffinity>
7.0398850441

> <CNN_VS>
1.7009998560

> <CNNaffinity_variance>
0.5040181875

$$$$
[H]/C(=C1/SC(=O)N(C([H])([H])C(=O)N([H])S(=O)(=O)N2C([H])([H])C([H])([H])C([H])([H])C2([H])[H])C1=O)c1c([H])c([H])c2c(c([H])nn2C([H])([H])c2c([H])c([H])c(Cl)c([H])c2C(F)(F)F)c1[H]


 42 46  0  0  0  0  0  0  0  0999 V2000
   -8.2216  -14.3996    3.0915 N   0  0  0  0  0  0  0  0  0  0  0  0
   -8.0182  -15.3896    3.9381 N   0  0  0  0  0  0  0  0  0  0  0  0
   -8.2684  -15.0358    5.1796 C   0  0  0  0  0  0  0  0  0  0  0  0
   -8.6638  -13.7168    5.1419 C   0  0  0  0  0  0  0  0  0  0  0  0
   -9.0340  -12.8394    6.1670 C   0  0  0  0  0  0  0  0  0  0  0  0
   -9.3854  -11.5226    5.8963 C   0  0  0  0  0  0  0  0  0  0  0  0
   -9.3422  -11.1570    4.5709 C   0  0  0  0  0  0  0  0  0  0  0  0
   -8.9803  -12.0097    3.5548 C   0  0  0  0  0  0  0  0  0  0  0  0
   -8.6341  -13.3145    3.8290 C   0  0  0  0  0  0  0  0  0  0  0  0
   -9.7953  -10.5985    6.9489 C   0  0  0  0  0  0  0  0  0  0  0  0
  -10.9803  -10.0472    6.9249 C   0  0  0  0  0  0  0  0  0  0  0  0
  -12.2820  -10.2737    5.6781 S   0  0  0  0  0  0  0  0  0  0  0  0
  -13.1488   -8.7596    6.0896 C   0  0  0  0  0  0  0  0  0  0  0  0
  -13.9222   -8.1454    5.3257 O   0  0  0  0  0  0  0  0  0  0  0  0
  -12.7472   -8.4689    7.4216 N   0  0  0  0  0  0  0  0  0  0  0  0
  -11.6107   -9.1381    7.8673 C   0  0  0  0  0  0  0  0  0  0  0  0
  -11.1031   -8.9942    9.0449 O   0  0  0  0  0  0  0  0  0  0  0  0
  -13.5101   -7.5436    8.2472 C   0  0  0  0  0  0  0  0  0  0  0  0
  -14.8011   -7.2009    7.6236 C   0  0  0  0  0  0  0  0  0  0  0  0
  -14.9884   -5.9918    7.2852 O   0  0  0  0  0  0  0  0  0  0  0  0
  -15.8413   -8.1275    7.3775 N   0  0  0  0  0  0  0  0  0  0  0  0
  -15.7941   -9.1062    7.6123 H   0  0  0  0  0  0  0  0  0  0  0  0
  -17.2942   -7.5178    6.6210 S   0  0  0  0  0  0  0  0  0  0  0  0
  -18.1485   -8.6187    6.1162 O   0  0  0  0  0  0  0  0  0  0  0  0
  -18.0502   -6.8265    7.7475 O   0  0  0  0  0  0  0  0  0  0  0  0
  -16.8229   -6.3750    5.4522 N   0  0  0  0  0  0  0  0  0  0  0  0
  -16.4190   -6.8854    4.1986 C   0  0  0  0  0  0  0  0  0  0  0  0
  -17.4284   -6.3281    3.1974 C   0  0  0  0  0  0  0  0  0  0  0  0
  -17.8050   -5.0023    3.8065 C   0  0  0  0  0  0  0  0  0  0  0  0
  -17.7367   -5.2953    5.2945 C   0  0  0  0  0  0  0  0  0  0  0  0
   -8.0896  -14.3267    1.6551 C   0  0  0  0  0  0  0  0  0  0  0  0
   -8.5789  -12.2173    0.4238 C   0  0  0  0  0  0  0  0  0  0  0  0
   -9.4980  -11.4717   -0.3293 C   0  0  0  0  0  0  0  0  0  0  0  0
  -10.7748  -11.8783   -0.6230 C   0  0  0  0  0  0  0  0  0  0  0  0
  -11.8905  -10.9193   -1.5677 Cl  0  0  0  0  0  0  0  0  0  0  0  0
  -11.1307  -13.1071   -0.1233 C   0  0  0  0  0  0  0  0  0  0  0  0
  -10.2915  -13.8873    0.6153 C   0  0  0  0  0  0  0  0  0  0  0  0
   -8.9776  -13.4456    0.9026 C   0  0  0  0  0  0  0  0  0  0  0  0
   -6.7109  -11.2528   -0.5689 F   0  0  0  0  0  0  0  0  0  0  0  0
   -7.2470  -11.6067    0.7079 C   0  0  0  0  0  0  0  0  0  0  0  0
   -7.3299  -10.3927    1.3558 F   0  0  0  0  0  0  0  0  0  0  0  0
   -6.2962  -12.4519    1.1800 F   0  0  0  0  0  0  0  0  0  0  0  0
 39 40  1  0  0  0
 40 41  1  0  0  0
 40 42  1  0  0  0
 40 32  1  0  0  0
 32 33  2  0  0  0
 33 34  1  0  0  0
 34 35  1  0  0  0
 34 36  2  0  0  0
 36 37  1  0  0  0
 37 38  2  0  0  0
 38 31  1  0  0  0
 31  1  1  0  0  0
  1  2  1  0  0  0
  2  3  2  0  0  0
  3  4  1  0  0  0
  4  5  2  0  0  0
  5  6  1  0  0  0
  6 10  1  0  0  0
 10 11  2  0  0  0
 11 12  1  0  0  0
 12 13  1  0  0  0
 13 14  2  0  0  0
 13 15  1  0  0  0
 15 18  1  0  0  0
 18 19  1  0  0  0
 19 20  2  0  0  0
 19 21  1  0  0  0
 21 23  1  0  0  0
 23 24  2  0  0  0
 23 25  2  0  0  0
 23 26  1  0  0  0
 26 27  1  0  0  0
 27 28  1  0  0  0
 28 29  1  0  0  0
 29 30  1  0  0  0
 15 16  1  0  0  0
 16 17  2  0  0  0
  6  7  2  0  0  0
  7  8  1  0  0  0
  8  9  2  0  0  0
 38 32  1  0  0  0
  9  1  1  0  0  0
  9  4  1  0  0  0
 16 11  1  0  0  0
 30 26  1  0  0  0
 21 22  1  0  0  0
M  END
> <minimizedAffinity>
23.22397

> <CNNscore>
0.2412406504

> <CNNaffinity>
6.8649125099

> <CNN_VS>
1.6560959816

> <CNNaffinity_variance>
0.5062801838

$$$$
[H]Oc1c([H])c([H])c2c(c1[H])OC([H])([H])c1c-2nc2c([H])c([H])c(O[H])c([H])c2c1Br


 23 26  0  0  0  0  0  0  0  0999 V2000
  -13.5775   -1.2605    5.1342 O   0  0  0  0  0  0  0  0  0  0  0  0
  -14.3854   -2.4105    5.0900 C   0  0  0  0  0  0  0  0  0  0  0  0
  -14.8388   -2.9591    6.2718 C   0  0  0  0  0  0  0  0  0  0  0  0
  -15.6298   -4.0810    6.2818 C   0  0  0  0  0  0  0  0  0  0  0  0
  -15.9836   -4.6795    5.0816 C   0  0  0  0  0  0  0  0  0  0  0  0
  -15.5236   -4.1213    3.9058 C   0  0  0  0  0  0  0  0  0  0  0  0
  -15.9118   -4.7655    2.7426 O   0  0  0  0  0  0  0  0  0  0  0  0
  -16.7036   -5.8982    2.6344 C   0  0  0  0  0  0  0  0  0  0  0  0
  -17.1738   -6.4626    3.9145 C   0  0  0  0  0  0  0  0  0  0  0  0
  -17.9618   -7.5790    3.9397 C   0  0  0  0  0  0  0  0  0  0  0  0
  -18.5012   -8.4744    2.3241 Br  0  0  0  0  0  0  0  0  0  0  0  0
  -18.4017   -8.1065    5.1425 C   0  0  0  0  0  0  0  0  0  0  0  0
  -19.1944   -9.2255    5.2184 C   0  0  0  0  0  0  0  0  0  0  0  0
  -19.6106   -9.7181    6.4387 C   0  0  0  0  0  0  0  0  0  0  0  0
  -20.4191  -10.8576    6.5379 O   0  0  0  0  0  0  0  0  0  0  0  0
  -19.2552   -9.1180    7.6290 C   0  0  0  0  0  0  0  0  0  0  0  0
  -18.4574   -7.9917    7.5543 C   0  0  0  0  0  0  0  0  0  0  0  0
  -18.0359   -7.4921    6.3296 C   0  0  0  0  0  0  0  0  0  0  0  0
  -17.2619   -6.4007    6.2395 N   0  0  0  0  0  0  0  0  0  0  0  0
  -16.8196   -5.8653    5.0914 C   0  0  0  0  0  0  0  0  0  0  0  0
  -14.7209   -2.9841    3.8811 C   0  0  0  0  0  0  0  0  0  0  0  0
  -13.9654   -0.3271    5.1116 H   0  0  0  0  0  0  0  0  0  0  0  0
  -20.0448  -11.7825    6.6151 H   0  0  0  0  0  0  0  0  0  0  0  0
  1  2  1  0  0  0
  2  3  2  0  0  0
  3  4  1  0  0  0
  4  5  2  0  0  0
  5  6  1  0  0  0
  6  7  1  0  0  0
  7  8  1  0  0  0
  8  9  1  0  0  0
  9 10  2  0  0  0
 10 11  1  0  0  0
 10 12  1  0  0  0
 12 13  2  0  0  0
 13 14  1  0  0  0
 14 15  1  0  0  0
 14 16  2  0  0  0
 16 17  1  0  0  0
 17 18  2  0  0  0
 18 19  1  0  0  0
 19 20  2  0  0  0
  6 21  2  0  0  0
 21  2  1  0  0  0
  5 20  1  0  0  0
 20  9  1  0  0  0
 18 12  1  0  0  0
  1 22  1  0  0  0
 15 23  1  0  0  0
M  END
> <minimizedAffinity>
20.42466

> <CNNscore>
0.5293999910

> <CNNaffinity>
6.0715532303

> <CNN_VS>
3.2142801285

> <CNNaffinity_variance>
1.7121587992

$$$$
[H]Oc1c([H])c([H])c2c(c1[H])OC([H])([H])c1c-2nc2c([H])c([H])c(O[H])c([H])c2c1Br


 23 26  0  0  0  0  0  0  0  0999 V2000
  -13.2704   -3.0328    3.4607 O   0  0  0  0  0  0  0  0  0  0  0  0
  -14.0701   -4.1682    3.6804 C   0  0  0  0  0  0  0  0  0  0  0  0
  -15.1784   -4.0621    4.4949 C   0  0  0  0  0  0  0  0  0  0  0  0
  -15.9907   -5.1412    4.7406 C   0  0  0  0  0  0  0  0  0  0  0  0
  -15.6956   -6.3660    4.1603 C   0  0  0  0  0  0  0  0  0  0  0  0
  -14.5839   -6.4595    3.3474 C   0  0  0  0  0  0  0  0  0  0  0  0
  -14.3440   -7.7085    2.7988 O   0  0  0  0  0  0  0  0  0  0  0  0
  -15.0925   -8.8616    2.9771 C   0  0  0  0  0  0  0  0  0  0  0  0
  -16.2716   -8.7180    3.8529 C   0  0  0  0  0  0  0  0  0  0  0  0
  -17.0892   -9.7835    4.1065 C   0  0  0  0  0  0  0  0  0  0  0  0
  -16.7563  -11.5190    3.3446 Br  0  0  0  0  0  0  0  0  0  0  0  0
  -18.1951   -9.6458    4.9288 C   0  0  0  0  0  0  0  0  0  0  0  0
  -19.0451  -10.6865    5.2128 C   0  0  0  0  0  0  0  0  0  0  0  0
  -20.1365  -10.5056    6.0380 C   0  0  0  0  0  0  0  0  0  0  0  0
  -21.0153  -11.5537    6.3401 O   0  0  0  0  0  0  0  0  0  0  0  0
  -20.4246   -9.2847    6.6120 C   0  0  0  0  0  0  0  0  0  0  0  0
  -19.5701   -8.2361    6.3272 C   0  0  0  0  0  0  0  0  0  0  0  0
  -18.4709   -8.4126    5.4979 C   0  0  0  0  0  0  0  0  0  0  0  0
  -17.6322   -7.4062    5.2114 N   0  0  0  0  0  0  0  0  0  0  0  0
  -16.5536   -7.5068    4.4196 C   0  0  0  0  0  0  0  0  0  0  0  0
  -13.7516   -5.3736    3.0897 C   0  0  0  0  0  0  0  0  0  0  0  0
  -13.4417   -2.3910    2.6984 H   0  0  0  0  0  0  0  0  0  0  0  0
  -20.8844  -12.1616    7.1241 H   0  0  0  0  0  0  0  0  0  0  0  0
  1  2  1  0  0  0
  2  3  2  0  0  0
  3  4  1  0  0  0
  4  5  2  0  0  0
  5  6  1  0  0  0
  6  7  1  0  0  0
  7  8  1  0  0  0
  8  9  1  0  0  0
  9 10  2  0  0  0
 10 11  1  0  0  0
 10 12  1  0  0  0
 12 13  2  0  0  0
 13 14  1  0  0  0
 14 15  1  0  0  0
 14 16  2  0  0  0
 16 17  1  0  0  0
 17 18  2  0  0  0
 18 19  1  0  0  0
 19 20  2  0  0  0
  6 21  2  0  0  0
 21  2  1  0  0  0
  5 20  1  0  0  0
 20  9  1  0  0  0
 18 12  1  0  0  0
  1 22  1  0  0  0
 15 23  1  0  0  0
M  END
> <minimizedAffinity>
21.28329

> <CNNscore>
0.4723311067

> <CNNaffinity>
5.8124475479

> <CNN_VS>
2.7453997135

> <CNNaffinity_variance>
1.2140853405

$$$$
[H]Oc1c([H])c([H])c2c(c1[H])OC([H])([H])c1c-2nc2c([H])c([H])c(O[H])c([H])c2c1Br


 23 26  0  0  0  0  0  0  0  0999 V2000
   -2.8978   -6.9493    7.2144 O   0  0  0  0  0  0  0  0  0  0  0  0
   -4.2814   -7.1299    7.3882 C   0  0  0  0  0  0  0  0  0  0  0  0
   -4.9768   -6.2554    8.1974 C   0  0  0  0  0  0  0  0  0  0  0  0
   -6.3281   -6.3891    8.3991 C   0  0  0  0  0  0  0  0  0  0  0  0
   -7.0134   -7.4233    7.7789 C   0  0  0  0  0  0  0  0  0  0  0  0
   -6.3066   -8.2919    6.9717 C   0  0  0  0  0  0  0  0  0  0  0  0
   -7.0481   -9.3022    6.3818 O   0  0  0  0  0  0  0  0  0  0  0  0
   -8.4088   -9.5318    6.5141 C   0  0  0  0  0  0  0  0  0  0  0  0
   -9.1262   -8.5807    7.3853 C   0  0  0  0  0  0  0  0  0  0  0  0
  -10.4713   -8.7016    7.5953 C   0  0  0  0  0  0  0  0  0  0  0  0
  -11.5019  -10.1051    6.7761 Br  0  0  0  0  0  0  0  0  0  0  0  0
  -11.1420   -7.8076    8.4134 C   0  0  0  0  0  0  0  0  0  0  0  0
  -12.4917   -7.8884    8.6544 C   0  0  0  0  0  0  0  0  0  0  0  0
  -13.1208   -6.9759    9.4770 C   0  0  0  0  0  0  0  0  0  0  0  0
  -14.4960   -7.0407    9.7356 O   0  0  0  0  0  0  0  0  0  0  0  0
  -12.4334   -5.9495   10.0909 C   0  0  0  0  0  0  0  0  0  0  0  0
  -11.0749   -5.8668    9.8494 C   0  0  0  0  0  0  0  0  0  0  0  0
  -10.4371   -6.7819    9.0229 C   0  0  0  0  0  0  0  0  0  0  0  0
   -9.1202   -6.7159    8.7781 N   0  0  0  0  0  0  0  0  0  0  0  0
   -8.4416   -7.5652    7.9917 C   0  0  0  0  0  0  0  0  0  0  0  0
   -4.9364   -8.1680    6.7585 C   0  0  0  0  0  0  0  0  0  0  0  0
   -2.5171   -6.3761    6.4736 H   0  0  0  0  0  0  0  0  0  0  0  0
  -14.8798   -7.5617   10.4990 H   0  0  0  0  0  0  0  0  0  0  0  0
  1  2  1  0  0  0
  2  3  2  0  0  0
  3  4  1  0  0  0
  4  5  2  0  0  0
  5  6  1  0  0  0
  6  7  1  0  0  0
  7  8  1  0  0  0
  8  9  1  0  0  0
  9 10  2  0  0  0
 10 11  1  0  0  0
 10 12  1  0  0  0
 12 13  2  0  0  0
 13 14  1  0  0  0
 14 15  1  0  0  0
 14 16  2  0  0  0
 16 17  1  0  0  0
 17 18  2  0  0  0
 18 19  1  0  0  0
 19 20  2  0  0  0
  6 21  2  0  0  0
 21  2  1  0  0  0
  5 20  1  0  0  0
 20  9  1  0  0  0
 18 12  1  0  0  0
  1 22  1  0  0  0
 15 23  1  0  0  0
M  END
> <minimizedAffinity>
-7.03314

> <CNNscore>
0.4544428587

> <CNNaffinity>
5.7498502731

> <CNN_VS>
2.6129784584

> <CNNaffinity_variance>
0.0202178024

$$$$
[H]Oc1c([H])c([H])c2c(c1[H])OC([H])([H])c1c-2nc2c([H])c([H])c(O[H])c([H])c2c1Br


 23 26  0  0  0  0  0  0  0  0999 V2000
  -12.6868   -2.1915   11.1770 O   0  0  0  0  0  0  0  0  0  0  0  0
  -12.4594   -3.4376   10.5665 C   0  0  0  0  0  0  0  0  0  0  0  0
  -11.1902   -3.7471   10.1234 C   0  0  0  0  0  0  0  0  0  0  0  0
  -10.9171   -4.9501    9.5211 C   0  0  0  0  0  0  0  0  0  0  0  0
  -11.9348   -5.8773    9.3520 C   0  0  0  0  0  0  0  0  0  0  0  0
  -13.2005   -5.5559    9.7995 C   0  0  0  0  0  0  0  0  0  0  0  0
  -14.1716   -6.5234    9.6012 O   0  0  0  0  0  0  0  0  0  0  0  0
  -14.0101   -7.7659    9.0080 C   0  0  0  0  0  0  0  0  0  0  0  0
  -12.6423   -8.0693    8.5441 C   0  0  0  0  0  0  0  0  0  0  0  0
  -12.3558   -9.2627    7.9427 C   0  0  0  0  0  0  0  0  0  0  0  0
  -13.7046  -10.6072    7.6670 Br  0  0  0  0  0  0  0  0  0  0  0  0
  -11.0712   -9.5448    7.5083 C   0  0  0  0  0  0  0  0  0  0  0  0
  -10.7352  -10.7290    6.8992 C   0  0  0  0  0  0  0  0  0  0  0  0
   -9.4419  -10.9694    6.4813 C   0  0  0  0  0  0  0  0  0  0  0  0
   -9.0787  -12.1702    5.8583 O   0  0  0  0  0  0  0  0  0  0  0  0
   -8.4342  -10.0429    6.6525 C   0  0  0  0  0  0  0  0  0  0  0  0
   -8.7707   -8.8505    7.2654 C   0  0  0  0  0  0  0  0  0  0  0  0
  -10.0700   -8.6036    7.6876 C   0  0  0  0  0  0  0  0  0  0  0  0
  -10.4132   -7.4524    8.2837 N   0  0  0  0  0  0  0  0  0  0  0  0
  -11.6468   -7.1489    8.7155 C   0  0  0  0  0  0  0  0  0  0  0  0
  -13.4914   -4.3399   10.4118 C   0  0  0  0  0  0  0  0  0  0  0  0
  -12.5910   -2.0533   12.1740 H   0  0  0  0  0  0  0  0  0  0  0  0
   -9.1184  -12.2998    4.8668 H   0  0  0  0  0  0  0  0  0  0  0  0
  1  2  1  0  0  0
  2  3  2  0  0  0
  3  4  1  0  0  0
  4  5  2  0  0  0
  5  6  1  0  0  0
  6  7  1  0  0  0
  7  8  1  0  0  0
  8  9  1  0  0  0
  9 10  2  0  0  0
 10 11  1  0  0  0
 10 12  1  0  0  0
 12 13  2  0  0  0
 13 14  1  0  0  0
 14 15  1  0  0  0
 14 16  2  0  0  0
 16 17  1  0  0  0
 17 18  2  0  0  0
 18 19  1  0  0  0
 19 20  2  0  0  0
  6 21  2  0  0  0
 21  2  1  0  0  0
  5 20  1  0  0  0
 20  9  1  0  0  0
 18 12  1  0  0  0
  1 22  1  0  0  0
 15 23  1  0  0  0
M  END
> <minimizedAffinity>
3.86036

> <CNNscore>
0.4348849952

> <CNNaffinity>
5.5555400848

> <CNN_VS>
2.4160211086

> <CNNaffinity_variance>
0.5195409656

$$$$
[H]Oc1c([H])c([H])c2c(c1[H])OC([H])([H])c1c-2nc2c([H])c([H])c(O[H])c([H])c2c1Br


 23 26  0  0  0  0  0  0  0  0999 V2000
  -17.8809   -3.5217    2.0803 O   0  0  0  0  0  0  0  0  0  0  0  0
  -17.2574   -4.3043    3.0681 C   0  0  0  0  0  0  0  0  0  0  0  0
  -15.8819   -4.2844    3.1722 C   0  0  0  0  0  0  0  0  0  0  0  0
  -15.2260   -5.0304    4.1196 C   0  0  0  0  0  0  0  0  0  0  0  0
  -15.9565   -5.8226    4.9930 C   0  0  0  0  0  0  0  0  0  0  0  0
  -17.3322   -5.8342    4.8788 C   0  0  0  0  0  0  0  0  0  0  0  0
  -18.0031   -6.6447    5.7796 O   0  0  0  0  0  0  0  0  0  0  0  0
  -17.4470   -7.4367    6.7722 C   0  0  0  0  0  0  0  0  0  0  0  0
  -15.9743   -7.3952    6.8598 C   0  0  0  0  0  0  0  0  0  0  0  0
  -15.3079   -8.1327    7.7979 C   0  0  0  0  0  0  0  0  0  0  0  0
  -16.2395   -9.2590    9.0495 Br  0  0  0  0  0  0  0  0  0  0  0  0
  -13.9258   -8.0918    7.8778 C   0  0  0  0  0  0  0  0  0  0  0  0
  -13.2125   -8.8144    8.8027 C   0  0  0  0  0  0  0  0  0  0  0  0
  -11.8348   -8.7444    8.8476 C   0  0  0  0  0  0  0  0  0  0  0  0
  -11.0888   -9.4732    9.7827 O   0  0  0  0  0  0  0  0  0  0  0  0
  -11.1140   -7.9545    7.9761 C   0  0  0  0  0  0  0  0  0  0  0  0
  -11.8304   -7.2266    7.0446 C   0  0  0  0  0  0  0  0  0  0  0  0
  -13.2162   -7.2933    6.9950 C   0  0  0  0  0  0  0  0  0  0  0  0
  -13.9263   -6.5937    6.0979 N   0  0  0  0  0  0  0  0  0  0  0  0
  -15.2639   -6.6114    5.9945 C   0  0  0  0  0  0  0  0  0  0  0  0
  -18.0101   -5.0826    3.9229 C   0  0  0  0  0  0  0  0  0  0  0  0
  -18.1714   -2.5683    2.2505 H   0  0  0  0  0  0  0  0  0  0  0  0
  -10.7500  -10.3976    9.6037 H   0  0  0  0  0  0  0  0  0  0  0  0
  1  2  1  0  0  0
  2  3  2  0  0  0
  3  4  1  0  0  0
  4  5  2  0  0  0
  5  6  1  0  0  0
  6  7  1  0  0  0
  7  8  1  0  0  0
  8  9  1  0  0  0
  9 10  2  0  0  0
 10 11  1  0  0  0
 10 12  1  0  0  0
 12 13  2  0  0  0
 13 14  1  0  0  0
 14 15  1  0  0  0
 14 16  2  0  0  0
 16 17  1  0  0  0
 17 18  2  0  0  0
 18 19  1  0  0  0
 19 20  2  0  0  0
  6 21  2  0  0  0
 21  2  1  0  0  0
  5 20  1  0  0  0
 20  9  1  0  0  0
 18 12  1  0  0  0
  1 22  1  0  0  0
 15 23  1  0  0  0
M  END
> <minimizedAffinity>
4.62891

> <CNNscore>
0.3797485232

> <CNNaffinity>
6.0998153687

> <CNN_VS>
2.3163957596

> <CNNaffinity_variance>
1.6693999767

$$$$
[H]Oc1c([H])c([H])c2c(c1[H])OC([H])([H])c1c-2nc2c([H])c([H])c(O[H])c([H])c2c1Br


 23 26  0  0  0  0  0  0  0  0999 V2000
  -18.1837   -6.2956    1.2365 O   0  0  0  0  0  0  0  0  0  0  0  0
  -17.4443   -6.5514    2.4049 C   0  0  0  0  0  0  0  0  0  0  0  0
  -17.1570   -7.8568    2.7460 C   0  0  0  0  0  0  0  0  0  0  0  0
  -16.4386   -8.1586    3.8762 C   0  0  0  0  0  0  0  0  0  0  0  0
  -15.9899   -7.1335    4.6958 C   0  0  0  0  0  0  0  0  0  0  0  0
  -16.2839   -5.8315    4.3439 C   0  0  0  0  0  0  0  0  0  0  0  0
  -15.8079   -4.8548    5.2030 O   0  0  0  0  0  0  0  0  0  0  0  0
  -15.0763   -5.0430    6.3654 C   0  0  0  0  0  0  0  0  0  0  0  0
  -14.7841   -6.4493    6.7048 C   0  0  0  0  0  0  0  0  0  0  0  0
  -14.0701   -6.7647    7.8267 C   0  0  0  0  0  0  0  0  0  0  0  0
  -13.4087   -5.4081    9.0206 Br  0  0  0  0  0  0  0  0  0  0  0  0
  -13.7973   -8.0852    8.1428 C   0  0  0  0  0  0  0  0  0  0  0  0
  -13.0844   -8.4511    9.2583 C   0  0  0  0  0  0  0  0  0  0  0  0
  -12.8350   -9.7799    9.5360 C   0  0  0  0  0  0  0  0  0  0  0  0
  -12.1102  -10.1740   10.6680 O   0  0  0  0  0  0  0  0  0  0  0  0
  -13.2840  -10.7948    8.7166 C   0  0  0  0  0  0  0  0  0  0  0  0
  -14.0017  -10.4283    7.5935 C   0  0  0  0  0  0  0  0  0  0  0  0
  -14.2555   -9.0933    7.3095 C   0  0  0  0  0  0  0  0  0  0  0  0
  -14.9499   -8.7206    6.2244 N   0  0  0  0  0  0  0  0  0  0  0  0
  -15.2307   -7.4518    5.8905 C   0  0  0  0  0  0  0  0  0  0  0  0
  -17.0113   -5.5112    3.2009 C   0  0  0  0  0  0  0  0  0  0  0  0
  -17.7419   -6.1552    0.3380 H   0  0  0  0  0  0  0  0  0  0  0  0
  -12.5440  -10.3680   11.5486 H   0  0  0  0  0  0  0  0  0  0  0  0
  1  2  1  0  0  0
  2  3  2  0  0  0
  3  4  1  0  0  0
  4  5  2  0  0  0
  5  6  1  0  0  0
  6  7  1  0  0  0
  7  8  1  0  0  0
  8  9  1  0  0  0
  9 10  2  0  0  0
 10 11  1  0  0  0
 10 12  1  0  0  0
 12 13  2  0  0  0
 13 14  1  0  0  0
 14 15  1  0  0  0
 14 16  2  0  0  0
 16 17  1  0  0  0
 17 18  2  0  0  0
 18 19  1  0  0  0
 19 20  2  0  0  0
  6 21  2  0  0  0
 21  2  1  0  0  0
  5 20  1  0  0  0
 20  9  1  0  0  0
 18 12  1  0  0  0
  1 22  1  0  0  0
 15 23  1  0  0  0
M  END
> <minimizedAffinity>
4.99892

> <CNNscore>
0.3773939013

> <CNNaffinity>
5.9454283714

> <CNN_VS>
2.2437684536

> <CNNaffinity_variance>
0.8548070788

$$$$
[H]Oc1c([H])c([H])c2c(c1[H])OC([H])([H])c1c-2nc2c([H])c([H])c(O[H])c([H])c2c1Br


 23 26  0  0  0  0  0  0  0  0999 V2000
  -15.2562   -9.2871    7.4170 O   0  0  0  0  0  0  0  0  0  0  0  0
  -13.8760   -9.0257    7.4804 C   0  0  0  0  0  0  0  0  0  0  0  0
  -13.0555   -9.5005    6.4782 C   0  0  0  0  0  0  0  0  0  0  0  0
  -11.7020   -9.2720    6.4944 C   0  0  0  0  0  0  0  0  0  0  0  0
  -11.1425   -8.5492    7.5377 C   0  0  0  0  0  0  0  0  0  0  0  0
  -11.9739   -8.0794    8.5345 C   0  0  0  0  0  0  0  0  0  0  0  0
  -11.3543   -7.3655    9.5469 O   0  0  0  0  0  0  0  0  0  0  0  0
  -10.0038   -7.0759    9.6649 C   0  0  0  0  0  0  0  0  0  0  0  0
   -9.1509   -7.5964    8.5787 C   0  0  0  0  0  0  0  0  0  0  0  0
   -7.8019   -7.3767    8.5817 C   0  0  0  0  0  0  0  0  0  0  0  0
   -6.9407   -6.3850    9.9881 Br  0  0  0  0  0  0  0  0  0  0  0  0
   -7.0038   -7.8663    7.5611 C   0  0  0  0  0  0  0  0  0  0  0  0
   -5.6449   -7.6713    7.5207 C   0  0  0  0  0  0  0  0  0  0  0  0
   -4.8866   -8.1770    6.4842 C   0  0  0  0  0  0  0  0  0  0  0  0
   -3.4998   -7.9893    6.4243 O   0  0  0  0  0  0  0  0  0  0  0  0
   -5.4493   -8.8951    5.4494 C   0  0  0  0  0  0  0  0  0  0  0  0
   -6.8169   -9.0923    5.4886 C   0  0  0  0  0  0  0  0  0  0  0  0
   -7.5843   -8.5859    6.5287 C   0  0  0  0  0  0  0  0  0  0  0  0
   -8.9118   -8.7681    6.5819 N   0  0  0  0  0  0  0  0  0  0  0  0
   -9.7120   -8.3074    7.5554 C   0  0  0  0  0  0  0  0  0  0  0  0
  -13.3479   -8.3038    8.5306 C   0  0  0  0  0  0  0  0  0  0  0  0
  -15.9031   -8.6633    6.9538 H   0  0  0  0  0  0  0  0  0  0  0  0
   -2.8482   -8.6293    6.8331 H   0  0  0  0  0  0  0  0  0  0  0  0
  1  2  1  0  0  0
  2  3  2  0  0  0
  3  4  1  0  0  0
  4  5  2  0  0  0
  5  6  1  0  0  0
  6  7  1  0  0  0
  7  8  1  0  0  0
  8  9  1  0  0  0
  9 10  2  0  0  0
 10 11  1  0  0  0
 10 12  1  0  0  0
 12 13  2  0  0  0
 13 14  1  0  0  0
 14 15  1  0  0  0
 14 16  2  0  0  0
 16 17  1  0  0  0
 17 18  2  0  0  0
 18 19  1  0  0  0
 19 20  2  0  0  0
  6 21  2  0  0  0
 21  2  1  0  0  0
  5 20  1  0  0  0
 20  9  1  0  0  0
 18 12  1  0  0  0
  1 22  1  0  0  0
 15 23  1  0  0  0
M  END
> <minimizedAffinity>
-1.75298

> <CNNscore>
0.3559646904

> <CNNaffinity>
5.5967102051

> <CNN_VS>
1.9922312498

> <CNNaffinity_variance>
0.4397583902

$$$$
[H]Oc1c([H])c([H])c2c(c1[H])OC([H])([H])c1c-2nc2c([H])c([H])c(O[H])c([H])c2c1Br


 23 26  0  0  0  0  0  0  0  0999 V2000
  -15.3422   -2.5999    3.3457 O   0  0  0  0  0  0  0  0  0  0  0  0
  -14.9919   -3.6125    4.2563 C   0  0  0  0  0  0  0  0  0  0  0  0
  -14.8433   -4.9055    3.7989 C   0  0  0  0  0  0  0  0  0  0  0  0
  -14.5025   -5.9291    4.6477 C   0  0  0  0  0  0  0  0  0  0  0  0
  -14.3021   -5.6633    5.9943 C   0  0  0  0  0  0  0  0  0  0  0  0
  -14.4538   -4.3656    6.4398 C   0  0  0  0  0  0  0  0  0  0  0  0
  -14.2400   -4.1663    7.7938 O   0  0  0  0  0  0  0  0  0  0  0  0
  -13.8942   -5.1201    8.7385 C   0  0  0  0  0  0  0  0  0  0  0  0
  -13.7422   -6.4936    8.2204 C   0  0  0  0  0  0  0  0  0  0  0  0
  -13.4033   -7.5225    9.0537 C   0  0  0  0  0  0  0  0  0  0  0  0
  -13.1064   -7.2461   10.9348 Br  0  0  0  0  0  0  0  0  0  0  0  0
  -13.2614   -8.8106    8.5647 C   0  0  0  0  0  0  0  0  0  0  0  0
  -12.9224   -9.8759    9.3625 C   0  0  0  0  0  0  0  0  0  0  0  0
  -12.7914  -11.1441    8.8338 C   0  0  0  0  0  0  0  0  0  0  0  0
  -12.4466  -12.2438    9.6301 O   0  0  0  0  0  0  0  0  0  0  0  0
  -12.9920  -11.4018    7.4935 C   0  0  0  0  0  0  0  0  0  0  0  0
  -13.3333  -10.3306    6.6892 C   0  0  0  0  0  0  0  0  0  0  0  0
  -13.4664   -9.0530    7.2158 C   0  0  0  0  0  0  0  0  0  0  0  0
  -13.7967   -8.0031    6.4496 N   0  0  0  0  0  0  0  0  0  0  0  0
  -13.9419   -6.7447    6.8920 C   0  0  0  0  0  0  0  0  0  0  0  0
  -14.7991   -3.3182    5.5902 C   0  0  0  0  0  0  0  0  0  0  0  0
  -14.6488   -2.0619    2.8436 H   0  0  0  0  0  0  0  0  0  0  0  0
  -13.1279  -12.8159   10.0882 H   0  0  0  0  0  0  0  0  0  0  0  0
  1  2  1  0  0  0
  2  3  2  0  0  0
  3  4  1  0  0  0
  4  5  2  0  0  0
  5  6  1  0  0  0
  6  7  1  0  0  0
  7  8  1  0  0  0
  8  9  1  0  0  0
  9 10  2  0  0  0
 10 11  1  0  0  0
 10 12  1  0  0  0
 12 13  2  0  0  0
 13 14  1  0  0  0
 14 15  1  0  0  0
 14 16  2  0  0  0
 16 17  1  0  0  0
 17 18  2  0  0  0
 18 19  1  0  0  0
 19 20  2  0  0  0
  6 21  2  0  0  0
 21  2  1  0  0  0
  5 20  1  0  0  0
 20  9  1  0  0  0
 18 12  1  0  0  0
  1 22  1  0  0  0
 15 23  1  0  0  0
M  END
> <minimizedAffinity>
23.82551

> <CNNscore>
0.3491469920

> <CNNaffinity>
5.6667056084

> <CNN_VS>
1.9785132408

> <CNNaffinity_variance>
1.0169675350

$$$$
[H]Oc1c([H])c([H])c2c(c1[H])OC([H])([H])c1c-2nc2c([H])c([H])c(O[H])c([H])c2c1Br


 23 26  0  0  0  0  0  0  0  0999 V2000
  -14.2049   -5.0797   11.2587 O   0  0  0  0  0  0  0  0  0  0  0  0
  -13.1598   -5.6921   10.5447 C   0  0  0  0  0  0  0  0  0  0  0  0
  -11.9328   -5.0650   10.4794 C   0  0  0  0  0  0  0  0  0  0  0  0
  -10.8811   -5.6217    9.7950 C   0  0  0  0  0  0  0  0  0  0  0  0
  -11.0502   -6.8401    9.1540 C   0  0  0  0  0  0  0  0  0  0  0  0
  -12.2825   -7.4578    9.2265 C   0  0  0  0  0  0  0  0  0  0  0  0
  -12.3865   -8.6708    8.5660 O   0  0  0  0  0  0  0  0  0  0  0  0
  -11.3965   -9.3233    7.8479 C   0  0  0  0  0  0  0  0  0  0  0  0
  -10.0952   -8.6291    7.7954 C   0  0  0  0  0  0  0  0  0  0  0  0
   -9.0393   -9.1715    7.1178 C   0  0  0  0  0  0  0  0  0  0  0  0
   -9.1833  -10.8567    6.2000 Br  0  0  0  0  0  0  0  0  0  0  0  0
   -7.8192   -8.5178    7.0702 C   0  0  0  0  0  0  0  0  0  0  0  0
   -6.7303   -9.0227    6.4027 C   0  0  0  0  0  0  0  0  0  0  0  0
   -5.5321   -8.3380    6.3805 C   0  0  0  0  0  0  0  0  0  0  0  0
   -4.4100   -8.8355    5.7056 O   0  0  0  0  0  0  0  0  0  0  0  0
   -5.3705   -7.1265    7.0202 C   0  0  0  0  0  0  0  0  0  0  0  0
   -6.4655   -6.6169    7.6925 C   0  0  0  0  0  0  0  0  0  0  0  0
   -7.6729   -7.3014    7.7180 C   0  0  0  0  0  0  0  0  0  0  0  0
   -8.7447   -6.8212    8.3654 N   0  0  0  0  0  0  0  0  0  0  0  0
   -9.9391   -7.4291    8.4304 C   0  0  0  0  0  0  0  0  0  0  0  0
  -13.3575   -6.9045    9.9169 C   0  0  0  0  0  0  0  0  0  0  0  0
  -14.3600   -5.2523   12.2428 H   0  0  0  0  0  0  0  0  0  0  0  0
   -4.2182   -8.6268    4.7460 H   0  0  0  0  0  0  0  0  0  0  0  0
  1  2  1  0  0  0
  2  3  2  0  0  0
  3  4  1  0  0  0
  4  5  2  0  0  0
  5  6  1  0  0  0
  6  7  1  0  0  0
  7  8  1  0  0  0
  8  9  1  0  0  0
  9 10  2  0  0  0
 10 11  1  0  0  0
 10 12  1  0  0  0
 12 13  2  0  0  0
 13 14  1  0  0  0
 14 15  1  0  0  0
 14 16  2  0  0  0
 16 17  1  0  0  0
 17 18  2  0  0  0
 18 19  1  0  0  0
 19 20  2  0  0  0
  6 21  2  0  0  0
 21  2  1  0  0  0
  5 20  1  0  0  0
 20  9  1  0  0  0
 18 12  1  0  0  0
  1 22  1  0  0  0
 15 23  1  0  0  0
M  END
> <minimizedAffinity>
-5.33768

> <CNNscore>
0.3293499649

> <CNNaffinity>
5.5176563263

> <CNN_VS>
1.8172398806

> <CNNaffinity_variance>
0.0788586363

$$$$
[H]/C(=C1/SC(=O)N(C([H])([H])C(=O)N([H])S(=O)(=O)N([H])[H])C1=O)c1c([H])c([H])c2c(c([H])nn2C([H])([H])c2c([H])c([H])c(Cl)c([H])c2C(F)(F)F)c1[H]


 40 43  0  0  0  0  0  0  0  0999 V2000
   -7.8933   -7.6809    8.1715 C   0  0  0  0  0  0  0  0  0  0  0  0
   -9.0904   -7.1177    8.6058 C   0  0  0  0  0  0  0  0  0  0  0  0
  -10.2626   -7.7459    8.3487 C   0  0  0  0  0  0  0  0  0  0  0  0
  -10.4026   -8.9542    7.6646 C   0  0  0  0  0  0  0  0  0  0  0  0
  -11.3702   -9.7317    7.2964 N   0  0  0  0  0  0  0  0  0  0  0  0
  -10.7972  -10.7776    6.6239 N   0  0  0  0  0  0  0  0  0  0  0  0
   -9.4831  -10.6646    6.5724 C   0  0  0  0  0  0  0  0  0  0  0  0
   -9.1839   -9.4994    7.2346 C   0  0  0  0  0  0  0  0  0  0  0  0
   -7.9801   -8.8697    7.4884 C   0  0  0  0  0  0  0  0  0  0  0  0
   -4.0583   -5.1655    6.7125 N   0  0  0  0  0  0  0  0  0  0  0  0
   -4.8428   -5.2028    5.5444 C   0  0  0  0  0  0  0  0  0  0  0  0
   -4.8350   -4.4881    4.4979 O   0  0  0  0  0  0  0  0  0  0  0  0
   -5.9855   -6.5913    5.8239 S   0  0  0  0  0  0  0  0  0  0  0  0
   -5.8268   -6.5114    7.6358 C   0  0  0  0  0  0  0  0  0  0  0  0
   -6.6765   -6.9933    8.4974 C   0  0  0  0  0  0  0  0  0  0  0  0
   -4.5568   -5.8420    7.8178 C   0  0  0  0  0  0  0  0  0  0  0  0
   -3.9499   -5.8911    8.9539 O   0  0  0  0  0  0  0  0  0  0  0  0
   -2.7717   -4.4396    6.7130 C   0  0  0  0  0  0  0  0  0  0  0  0
   -3.7989   -2.1125    6.3499 N   0  0  0  0  0  0  0  0  0  0  0  0
   -2.9532   -3.0150    7.0363 C   0  0  0  0  0  0  0  0  0  0  0  0
   -2.2826   -2.5848    8.0236 O   0  0  0  0  0  0  0  0  0  0  0  0
   -4.3611   -2.4158    5.5431 H   0  0  0  0  0  0  0  0  0  0  0  0
   -3.9126   -0.2562    8.5307 N   0  0  0  0  0  0  0  0  0  0  0  0
   -3.9259   -0.4597    6.8367 S   0  0  0  0  0  0  0  0  0  0  0  0
   -5.1920    0.1589    6.2870 O   0  0  0  0  0  0  0  0  0  0  0  0
   -2.7127    0.2564    6.2871 O   0  0  0  0  0  0  0  0  0  0  0  0
   -3.0461    0.2026    8.8712 H   0  0  0  0  0  0  0  0  0  0  0  0
   -4.7476    0.2841    8.8593 H   0  0  0  0  0  0  0  0  0  0  0  0
  -12.7987   -9.6944    7.5314 C   0  0  0  0  0  0  0  0  0  0  0  0
  -13.5161   -8.5585    6.9258 C   0  0  0  0  0  0  0  0  0  0  0  0
  -13.7355   -8.7022    5.5287 C   0  0  0  0  0  0  0  0  0  0  0  0
  -14.4466   -7.7473    4.8742 C   0  0  0  0  0  0  0  0  0  0  0  0
  -14.9590   -6.6469    5.5260 C   0  0  0  0  0  0  0  0  0  0  0  0
  -15.8863   -5.4236    4.6529 Cl  0  0  0  0  0  0  0  0  0  0  0  0
  -14.7307   -6.5332    6.8793 C   0  0  0  0  0  0  0  0  0  0  0  0
  -13.9994   -7.4932    7.6083 C   0  0  0  0  0  0  0  0  0  0  0  0
  -13.7870   -7.2220    9.0705 C   0  0  0  0  0  0  0  0  0  0  0  0
  -14.9588   -7.7197    9.7307 F   0  0  0  0  0  0  0  0  0  0  0  0
  -12.8210   -7.9846    9.6434 F   0  0  0  0  0  0  0  0  0  0  0  0
  -13.7777   -5.8926    9.3814 F   0  0  0  0  0  0  0  0  0  0  0  0
 23 24  1  0  0  0
 24 25  2  0  0  0
 24 26  2  0  0  0
 24 19  1  0  0  0
 19 20  1  0  0  0
 20 21  2  0  0  0
 20 18  1  0  0  0
 18 10  1  0  0  0
 10 11  1  0  0  0
 11 12  2  0  0  0
 11 13  1  0  0  0
 13 14  1  0  0  0
 14 15  2  0  0  0
 15  1  1  0  0  0
  1  2  2  0  0  0
  2  3  1  0  0  0
  3  4  2  0  0  0
  4  5  1  0  0  0
  5 29  1  0  0  0
 29 30  1  0  0  0
 30 31  2  0  0  0
 31 32  1  0  0  0
 32 33  2  0  0  0
 33 34  1  0  0  0
 33 35  1  0  0  0
 35 36  2  0  0  0
 36 37  1  0  0  0
 37 38  1  0  0  0
 37 39  1  0  0  0
 37 40  1  0  0  0
  5  6  1  0  0  0
  6  7  2  0  0  0
  7  8  1  0  0  0
  8  9  2  0  0  0
 14 16  1  0  0  0
 16 17  2  0  0  0
 16 10  1  0  0  0
  9  1  1  0  0  0
  8  4  1  0  0  0
 36 30  1  0  0  0
 23 27  1  0  0  0
 23 28  1  0  0  0
 19 22  1  0  0  0
M  END
> <minimizedAffinity>
-9.08588

> <CNNscore>
0.4685090184

> <CNNaffinity>
7.1420545578

> <CNN_VS>
3.3461170197

> <CNNaffinity_variance>
0.1813714057

$$$$
[H]/C(=C1/SC(=O)N(C([H])([H])C(=O)N([H])S(=O)(=O)N([H])[H])C1=O)c1c([H])c([H])c2c(c([H])nn2C([H])([H])c2c([H])c([H])c(Cl)c([H])c2C(F)(F)F)c1[H]


 40 43  0  0  0  0  0  0  0  0999 V2000
   -7.6589   -7.8575    8.1137 C   0  0  0  0  0  0  0  0  0  0  0  0
   -8.7766   -7.2196    8.6455 C   0  0  0  0  0  0  0  0  0  0  0  0
  -10.0091   -7.7462    8.4501 C   0  0  0  0  0  0  0  0  0  0  0  0
  -10.2890   -8.9152    7.7409 C   0  0  0  0  0  0  0  0  0  0  0  0
  -11.3372   -9.6024    7.4163 N   0  0  0  0  0  0  0  0  0  0  0  0
  -10.8942  -10.6647    6.6749 N   0  0  0  0  0  0  0  0  0  0  0  0
   -9.5815  -10.6514    6.5372 C   0  0  0  0  0  0  0  0  0  0  0  0
   -9.1482   -9.5369    7.2124 C   0  0  0  0  0  0  0  0  0  0  0  0
   -7.8843   -9.0111    7.4024 C   0  0  0  0  0  0  0  0  0  0  0  0
   -3.8607   -5.3577    6.5364 N   0  0  0  0  0  0  0  0  0  0  0  0
   -4.7713   -5.2035    5.4743 C   0  0  0  0  0  0  0  0  0  0  0  0
   -4.8356   -4.3585    4.5320 O   0  0  0  0  0  0  0  0  0  0  0  0
   -5.9604   -6.5606    5.7113 S   0  0  0  0  0  0  0  0  0  0  0  0
   -5.5960   -6.7275    7.4873 C   0  0  0  0  0  0  0  0  0  0  0  0
   -6.3727   -7.2776    8.3764 C   0  0  0  0  0  0  0  0  0  0  0  0
   -4.2742   -6.1492    7.5996 C   0  0  0  0  0  0  0  0  0  0  0  0
   -3.5486   -6.3762    8.6406 O   0  0  0  0  0  0  0  0  0  0  0  0
   -2.5392   -4.7003    6.4752 C   0  0  0  0  0  0  0  0  0  0  0  0
   -2.8120   -3.2109    8.5511 N   0  0  0  0  0  0  0  0  0  0  0  0
   -2.1269   -4.1883    7.7923 C   0  0  0  0  0  0  0  0  0  0  0  0
   -1.0610   -4.6863    8.2674 O   0  0  0  0  0  0  0  0  0  0  0  0
   -3.6798   -2.7785    8.2060 H   0  0  0  0  0  0  0  0  0  0  0  0
   -3.4666   -2.2839   11.1829 N   0  0  0  0  0  0  0  0  0  0  0  0
   -2.2220   -2.6996   10.0923 S   0  0  0  0  0  0  0  0  0  0  0  0
   -1.2989   -1.5112    9.9388 O   0  0  0  0  0  0  0  0  0  0  0  0
   -1.4729   -3.8703   10.6882 O   0  0  0  0  0  0  0  0  0  0  0  0
   -3.5521   -2.9581   11.9674 H   0  0  0  0  0  0  0  0  0  0  0  0
   -3.3361   -1.3171   11.5644 H   0  0  0  0  0  0  0  0  0  0  0  0
  -12.7397   -9.4636    7.7493 C   0  0  0  0  0  0  0  0  0  0  0  0
  -13.4619   -8.3931    7.0392 C   0  0  0  0  0  0  0  0  0  0  0  0
  -13.8886   -8.7617    5.7343 C   0  0  0  0  0  0  0  0  0  0  0  0
  -14.6232   -7.8778    5.0098 C   0  0  0  0  0  0  0  0  0  0  0  0
  -14.9645   -6.6379    5.5040 C   0  0  0  0  0  0  0  0  0  0  0  0
  -15.9267   -5.5102    4.5442 Cl  0  0  0  0  0  0  0  0  0  0  0  0
  -14.5373   -6.3073    6.7708 C   0  0  0  0  0  0  0  0  0  0  0  0
  -13.7722   -7.1847    7.5662 C   0  0  0  0  0  0  0  0  0  0  0  0
  -13.3349   -6.6791    8.9115 C   0  0  0  0  0  0  0  0  0  0  0  0
  -12.0475   -6.0833    8.7011 F   0  0  0  0  0  0  0  0  0  0  0  0
  -14.0447   -5.6137    9.3633 F   0  0  0  0  0  0  0  0  0  0  0  0
  -13.0899   -7.6743    9.8133 F   0  0  0  0  0  0  0  0  0  0  0  0
 23 24  1  0  0  0
 24 25  2  0  0  0
 24 26  2  0  0  0
 24 19  1  0  0  0
 19 20  1  0  0  0
 20 21  2  0  0  0
 20 18  1  0  0  0
 18 10  1  0  0  0
 10 11  1  0  0  0
 11 12  2  0  0  0
 11 13  1  0  0  0
 13 14  1  0  0  0
 14 15  2  0  0  0
 15  1  1  0  0  0
  1  2  2  0  0  0
  2  3  1  0  0  0
  3  4  2  0  0  0
  4  5  1  0  0  0
  5 29  1  0  0  0
 29 30  1  0  0  0
 30 31  2  0  0  0
 31 32  1  0  0  0
 32 33  2  0  0  0
 33 34  1  0  0  0
 33 35  1  0  0  0
 35 36  2  0  0  0
 36 37  1  0  0  0
 37 38  1  0  0  0
 37 39  1  0  0  0
 37 40  1  0  0  0
  5  6  1  0  0  0
  6  7  2  0  0  0
  7  8  1  0  0  0
  8  9  2  0  0  0
 14 16  1  0  0  0
 16 17  2  0  0  0
 16 10  1  0  0  0
  9  1  1  0  0  0
  8  4  1  0  0  0
 36 30  1  0  0  0
 23 27  1  0  0  0
 23 28  1  0  0  0
 19 22  1  0  0  0
M  END
> <minimizedAffinity>
-8.52842

> <CNNscore>
0.3355552554

> <CNNaffinity>
7.0200285912

> <CNN_VS>
2.3556075096

> <CNNaffinity_variance>
0.1585498154

$$$$
[H]/C(=C1/SC(=O)N(C([H])([H])C(=O)N([H])S(=O)(=O)N([H])[H])C1=O)c1c([H])c([H])c2c(c([H])nn2C([H])([H])c2c([H])c([H])c(Cl)c([H])c2C(F)(F)F)c1[H]


 40 43  0  0  0  0  0  0  0  0999 V2000
   -5.8558   -6.8866    6.4994 C   0  0  0  0  0  0  0  0  0  0  0  0
   -7.0921   -6.4856    5.9998 C   0  0  0  0  0  0  0  0  0  0  0  0
   -8.1938   -7.2333    6.2488 C   0  0  0  0  0  0  0  0  0  0  0  0
   -8.2214   -8.4162    6.9888 C   0  0  0  0  0  0  0  0  0  0  0  0
   -9.1053   -9.2889    7.3539 N   0  0  0  0  0  0  0  0  0  0  0  0
   -8.4381  -10.2447    8.0720 N   0  0  0  0  0  0  0  0  0  0  0  0
   -7.1490   -9.9761    8.1637 C   0  0  0  0  0  0  0  0  0  0  0  0
   -6.9644   -8.8008    7.4780 C   0  0  0  0  0  0  0  0  0  0  0  0
   -5.8312   -8.0491    7.2312 C   0  0  0  0  0  0  0  0  0  0  0  0
   -2.2363   -4.1947    8.1776 N   0  0  0  0  0  0  0  0  0  0  0  0
   -2.6943   -4.8281    9.3482 C   0  0  0  0  0  0  0  0  0  0  0  0
   -2.1463   -5.0210   10.4745 O   0  0  0  0  0  0  0  0  0  0  0  0
   -4.3758   -5.3792    8.9234 S   0  0  0  0  0  0  0  0  0  0  0  0
   -4.0495   -5.3826    7.1322 C   0  0  0  0  0  0  0  0  0  0  0  0
   -4.7251   -6.0431    6.2356 C   0  0  0  0  0  0  0  0  0  0  0  0
   -2.9304   -4.4736    7.0079 C   0  0  0  0  0  0  0  0  0  0  0  0
   -2.6230   -3.9696    5.8620 O   0  0  0  0  0  0  0  0  0  0  0  0
   -1.0783   -3.2797    8.2399 C   0  0  0  0  0  0  0  0  0  0  0  0
   -2.1315   -1.0747    7.4457 N   0  0  0  0  0  0  0  0  0  0  0  0
   -1.5014   -1.8815    8.4217 C   0  0  0  0  0  0  0  0  0  0  0  0
   -1.2713   -1.3809    9.5646 O   0  0  0  0  0  0  0  0  0  0  0  0
   -2.3374   -1.4373    6.5049 H   0  0  0  0  0  0  0  0  0  0  0  0
   -3.4939    0.7112    9.2259 N   0  0  0  0  0  0  0  0  0  0  0  0
   -2.5844    0.5565    7.7906 S   0  0  0  0  0  0  0  0  0  0  0  0
   -3.3865    1.1369    6.6470 O   0  0  0  0  0  0  0  0  0  0  0  0
   -1.3043    1.3387    7.9815 O   0  0  0  0  0  0  0  0  0  0  0  0
   -2.9708    1.1960    9.9800 H   0  0  0  0  0  0  0  0  0  0  0  0
   -4.4010    1.2062    9.0545 H   0  0  0  0  0  0  0  0  0  0  0  0
  -10.5431   -9.3516    7.1920 C   0  0  0  0  0  0  0  0  0  0  0  0
  -11.3215   -8.4259    8.0338 C   0  0  0  0  0  0  0  0  0  0  0  0
  -10.5341   -7.4136    8.6469 C   0  0  0  0  0  0  0  0  0  0  0  0
  -11.1534   -6.4618    9.3930 C   0  0  0  0  0  0  0  0  0  0  0  0
  -12.5196   -6.4516    9.5708 C   0  0  0  0  0  0  0  0  0  0  0  0
  -13.3006   -5.1986   10.5397 Cl  0  0  0  0  0  0  0  0  0  0  0  0
  -13.2575   -7.4445    8.9657 C   0  0  0  0  0  0  0  0  0  0  0  0
  -12.6675   -8.4570    8.1817 C   0  0  0  0  0  0  0  0  0  0  0  0
  -13.5852   -9.5038    7.6173 C   0  0  0  0  0  0  0  0  0  0  0  0
  -14.9058   -9.1214    8.0253 F   0  0  0  0  0  0  0  0  0  0  0  0
  -13.7084   -9.4658    6.2659 F   0  0  0  0  0  0  0  0  0  0  0  0
  -13.4147  -10.7365    8.1788 F   0  0  0  0  0  0  0  0  0  0  0  0
 23 24  1  0  0  0
 24 25  2  0  0  0
 24 26  2  0  0  0
 24 19  1  0  0  0
 19 20  1  0  0  0
 20 21  2  0  0  0
 20 18  1  0  0  0
 18 10  1  0  0  0
 10 11  1  0  0  0
 11 12  2  0  0  0
 11 13  1  0  0  0
 13 14  1  0  0  0
 14 15  2  0  0  0
 15  1  1  0  0  0
  1  2  2  0  0  0
  2  3  1  0  0  0
  3  4  2  0  0  0
  4  5  1  0  0  0
  5 29  1  0  0  0
 29 30  1  0  0  0
 30 31  2  0  0  0
 31 32  1  0  0  0
 32 33  2  0  0  0
 33 34  1  0  0  0
 33 35  1  0  0  0
 35 36  2  0  0  0
 36 37  1  0  0  0
 37 38  1  0  0  0
 37 39  1  0  0  0
 37 40  1  0  0  0
  5  6  1  0  0  0
  6  7  2  0  0  0
  7  8  1  0  0  0
  8  9  2  0  0  0
 14 16  1  0  0  0
 16 17  2  0  0  0
 16 10  1  0  0  0
  9  1  1  0  0  0
  8  4  1  0  0  0
 36 30  1  0  0  0
 23 27  1  0  0  0
 23 28  1  0  0  0
 19 22  1  0  0  0
M  END
> <minimizedAffinity>
-8.73650

> <CNNscore>
0.2896123827

> <CNNaffinity>
6.4630026817

> <CNN_VS>
1.8717656136

> <CNNaffinity_variance>
0.2236699313

$$$$
[H]/C(=C1/SC(=O)N(C([H])([H])C(=O)N([H])S(=O)(=O)N([H])[H])C1=O)c1c([H])c([H])c2c(c([H])nn2C([H])([H])c2c([H])c([H])c(Cl)c([H])c2C(F)(F)F)c1[H]


 40 43  0  0  0  0  0  0  0  0999 V2000
   -7.1273   -7.1043    6.3453 C   0  0  0  0  0  0  0  0  0  0  0  0
   -8.1726   -6.3783    6.9103 C   0  0  0  0  0  0  0  0  0  0  0  0
   -9.2588   -7.0270    7.3939 C   0  0  0  0  0  0  0  0  0  0  0  0
   -9.4482   -8.4097    7.3865 C   0  0  0  0  0  0  0  0  0  0  0  0
  -10.3607   -9.2464    7.7654 N   0  0  0  0  0  0  0  0  0  0  0  0
   -9.9070  -10.4955    7.4361 N   0  0  0  0  0  0  0  0  0  0  0  0
   -8.7199  -10.4486    6.8609 C   0  0  0  0  0  0  0  0  0  0  0  0
   -8.3840   -9.1182    6.8095 C   0  0  0  0  0  0  0  0  0  0  0  0
   -7.2697   -8.4703    6.3108 C   0  0  0  0  0  0  0  0  0  0  0  0
   -2.8385   -5.1223    7.2628 N   0  0  0  0  0  0  0  0  0  0  0  0
   -3.0788   -5.8534    8.4413 C   0  0  0  0  0  0  0  0  0  0  0  0
   -2.3016   -6.2650    9.3537 O   0  0  0  0  0  0  0  0  0  0  0  0
   -4.8765   -6.1359    8.4272 S   0  0  0  0  0  0  0  0  0  0  0  0
   -5.0140   -5.9288    6.6236 C   0  0  0  0  0  0  0  0  0  0  0  0
   -5.9847   -6.3728    5.8772 C   0  0  0  0  0  0  0  0  0  0  0  0
   -3.8377   -5.1509    6.2991 C   0  0  0  0  0  0  0  0  0  0  0  0
   -3.7548   -4.5326    5.1711 O   0  0  0  0  0  0  0  0  0  0  0  0
   -1.5772   -4.3692    7.1072 C   0  0  0  0  0  0  0  0  0  0  0  0
   -2.3893   -1.9664    6.6958 N   0  0  0  0  0  0  0  0  0  0  0  0
   -1.7422   -2.9534    7.4752 C   0  0  0  0  0  0  0  0  0  0  0  0
   -1.2543   -2.6157    8.5966 O   0  0  0  0  0  0  0  0  0  0  0  0
   -2.7994   -2.1933    5.7796 H   0  0  0  0  0  0  0  0  0  0  0  0
   -1.0606    0.2778    7.8842 N   0  0  0  0  0  0  0  0  0  0  0  0
   -2.5206   -0.3347    7.2482 S   0  0  0  0  0  0  0  0  0  0  0  0
   -3.5940   -0.2185    8.3076 O   0  0  0  0  0  0  0  0  0  0  0  0
   -2.8784    0.5105    6.0463 O   0  0  0  0  0  0  0  0  0  0  0  0
   -0.6410    1.0136    7.2843 H   0  0  0  0  0  0  0  0  0  0  0  0
   -1.1903    0.6491    8.8551 H   0  0  0  0  0  0  0  0  0  0  0  0
  -11.6132   -9.0744    8.4718 C   0  0  0  0  0  0  0  0  0  0  0  0
  -12.6357   -8.2753    7.7735 C   0  0  0  0  0  0  0  0  0  0  0  0
  -13.0754   -8.8539    6.5518 C   0  0  0  0  0  0  0  0  0  0  0  0
  -14.0658   -8.2395    5.8535 C   0  0  0  0  0  0  0  0  0  0  0  0
  -14.6533   -7.0746    6.2960 C   0  0  0  0  0  0  0  0  0  0  0  0
  -15.9441   -6.3000    5.3727 Cl  0  0  0  0  0  0  0  0  0  0  0  0
  -14.2073   -6.5362    7.4825 C   0  0  0  0  0  0  0  0  0  0  0  0
  -13.1828   -7.1305    8.2473 C   0  0  0  0  0  0  0  0  0  0  0  0
  -12.7626   -6.4130    9.4985 C   0  0  0  0  0  0  0  0  0  0  0  0
  -13.6888   -5.3290    9.6525 F   0  0  0  0  0  0  0  0  0  0  0  0
  -12.9851   -7.1108   10.6415 F   0  0  0  0  0  0  0  0  0  0  0  0
  -11.5510   -5.7934    9.3893 F   0  0  0  0  0  0  0  0  0  0  0  0
 23 24  1  0  0  0
 24 25  2  0  0  0
 24 26  2  0  0  0
 24 19  1  0  0  0
 19 20  1  0  0  0
 20 21  2  0  0  0
 20 18  1  0  0  0
 18 10  1  0  0  0
 10 11  1  0  0  0
 11 12  2  0  0  0
 11 13  1  0  0  0
 13 14  1  0  0  0
 14 15  2  0  0  0
 15  1  1  0  0  0
  1  2  2  0  0  0
  2  3  1  0  0  0
  3  4  2  0  0  0
  4  5  1  0  0  0
  5 29  1  0  0  0
 29 30  1  0  0  0
 30 31  2  0  0  0
 31 32  1  0  0  0
 32 33  2  0  0  0
 33 34  1  0  0  0
 33 35  1  0  0  0
 35 36  2  0  0  0
 36 37  1  0  0  0
 37 38  1  0  0  0
 37 39  1  0  0  0
 37 40  1  0  0  0
  5  6  1  0  0  0
  6  7  2  0  0  0
  7  8  1  0  0  0
  8  9  2  0  0  0
 14 16  1  0  0  0
 16 17  2  0  0  0
 16 10  1  0  0  0
  9  1  1  0  0  0
  8  4  1  0  0  0
 36 30  1  0  0  0
 23 27  1  0  0  0
 23 28  1  0  0  0
 19 22  1  0  0  0
M  END
> <minimizedAffinity>
-8.47929

> <CNNscore>
0.2607649863

> <CNNaffinity>
6.7828497887

> <CNN_VS>
1.7687296867

> <CNNaffinity_variance>
0.2101501226

$$$$
[H]/C(=C1/SC(=O)N(C([H])([H])C(=O)N([H])S(=O)(=O)N([H])[H])C1=O)c1c([H])c([H])c2c(c([H])nn2C([H])([H])c2c([H])c([H])c(Cl)c([H])c2C(F)(F)F)c1[H]


 40 43  0  0  0  0  0  0  0  0999 V2000
   -7.1769   -8.0643    7.8348 C   0  0  0  0  0  0  0  0  0  0  0  0
   -8.1175   -7.3244    8.5466 C   0  0  0  0  0  0  0  0  0  0  0  0
   -9.4167   -7.7075    8.5453 C   0  0  0  0  0  0  0  0  0  0  0  0
   -9.9348   -8.8174    7.8763 C   0  0  0  0  0  0  0  0  0  0  0  0
  -11.0916   -9.3763    7.7160 N   0  0  0  0  0  0  0  0  0  0  0  0
  -10.8936  -10.4581    6.9006 N   0  0  0  0  0  0  0  0  0  0  0  0
   -9.6261  -10.5839    6.5542 C   0  0  0  0  0  0  0  0  0  0  0  0
   -8.9691   -9.5438    7.1643 C   0  0  0  0  0  0  0  0  0  0  0  0
   -7.6400   -9.1648    7.1552 C   0  0  0  0  0  0  0  0  0  0  0  0
   -3.5909   -5.4399    5.9864 N   0  0  0  0  0  0  0  0  0  0  0  0
   -4.6990   -4.9744    5.2539 C   0  0  0  0  0  0  0  0  0  0  0  0
   -4.8844   -3.9150    4.5835 O   0  0  0  0  0  0  0  0  0  0  0  0
   -5.9448   -6.2853    5.4566 S   0  0  0  0  0  0  0  0  0  0  0  0
   -5.2014   -6.9175    6.9937 C   0  0  0  0  0  0  0  0  0  0  0  0
   -5.8084   -7.6361    7.8946 C   0  0  0  0  0  0  0  0  0  0  0  0
   -3.8334   -6.4543    6.9029 C   0  0  0  0  0  0  0  0  0  0  0  0
   -2.9172   -6.9753    7.6450 O   0  0  0  0  0  0  0  0  0  0  0  0
   -2.2544   -4.8561    5.7513 C   0  0  0  0  0  0  0  0  0  0  0  0
   -2.1042   -3.1698    3.8184 N   0  0  0  0  0  0  0  0  0  0  0  0
   -2.0661   -4.4841    4.3395 C   0  0  0  0  0  0  0  0  0  0  0  0
   -1.8492   -5.4460    3.5411 O   0  0  0  0  0  0  0  0  0  0  0  0
   -2.2777   -2.3586    4.4275 H   0  0  0  0  0  0  0  0  0  0  0  0
   -1.0600   -4.1435    1.3334 N   0  0  0  0  0  0  0  0  0  0  0  0
   -1.8606   -2.8677    2.1349 S   0  0  0  0  0  0  0  0  0  0  0  0
   -1.0642   -1.5974    1.9342 O   0  0  0  0  0  0  0  0  0  0  0  0
   -3.2302   -2.7308    1.5086 O   0  0  0  0  0  0  0  0  0  0  0  0
   -1.6779   -4.6486    0.6698 H   0  0  0  0  0  0  0  0  0  0  0  0
   -0.2065   -3.8050    0.8291 H   0  0  0  0  0  0  0  0  0  0  0  0
  -12.3992   -9.0954    8.2714 C   0  0  0  0  0  0  0  0  0  0  0  0
  -13.1878   -8.0720    7.5625 C   0  0  0  0  0  0  0  0  0  0  0  0
  -13.5211   -8.4319    6.2283 C   0  0  0  0  0  0  0  0  0  0  0  0
  -14.3039   -7.5948    5.4987 C   0  0  0  0  0  0  0  0  0  0  0  0
  -14.7816   -6.4103    6.0153 C   0  0  0  0  0  0  0  0  0  0  0  0
  -15.8035   -5.3434    5.0478 Cl  0  0  0  0  0  0  0  0  0  0  0  0
  -14.4425   -6.0867    7.3102 C   0  0  0  0  0  0  0  0  0  0  0  0
  -13.6332   -6.9171    8.1123 C   0  0  0  0  0  0  0  0  0  0  0  0
  -13.3039   -6.4212    9.4915 C   0  0  0  0  0  0  0  0  0  0  0  0
  -14.1162   -7.1948   10.3851 F   0  0  0  0  0  0  0  0  0  0  0  0
  -12.0584   -6.7515    9.9190 F   0  0  0  0  0  0  0  0  0  0  0  0
  -13.7044   -5.1358    9.7173 F   0  0  0  0  0  0  0  0  0  0  0  0
 23 24  1  0  0  0
 24 25  2  0  0  0
 24 26  2  0  0  0
 24 19  1  0  0  0
 19 20  1  0  0  0
 20 21  2  0  0  0
 20 18  1  0  0  0
 18 10  1  0  0  0
 10 11  1  0  0  0
 11 12  2  0  0  0
 11 13  1  0  0  0
 13 14  1  0  0  0
 14 15  2  0  0  0
 15  1  1  0  0  0
  1  2  2  0  0  0
  2  3  1  0  0  0
  3  4  2  0  0  0
  4  5  1  0  0  0
  5 29  1  0  0  0
 29 30  1  0  0  0
 30 31  2  0  0  0
 31 32  1  0  0  0
 32 33  2  0  0  0
 33 34  1  0  0  0
 33 35  1  0  0  0
 35 36  2  0  0  0
 36 37  1  0  0  0
 37 38  1  0  0  0
 37 39  1  0  0  0
 37 40  1  0  0  0
  5  6  1  0  0  0
  6  7  2  0  0  0
  7  8  1  0  0  0
  8  9  2  0  0  0
 14 16  1  0  0  0
 16 17  2  0  0  0
 16 10  1  0  0  0
  9  1  1  0  0  0
  8  4  1  0  0  0
 36 30  1  0  0  0
 23 27  1  0  0  0
 23 28  1  0  0  0
 19 22  1  0  0  0
M  END
> <minimizedAffinity>
-8.09583

> <CNNscore>
0.2551878989

> <CNNaffinity>
6.9413933754

> <CNN_VS>
1.7713595629

> <CNNaffinity_variance>
0.1910109818

$$$$
[H]/C(=C1/SC(=O)N(C([H])([H])C(=O)N([H])S(=O)(=O)N([H])[H])C1=O)c1c([H])c([H])c2c(c([H])nn2C([H])([H])c2c([H])c([H])c(Cl)c([H])c2C(F)(F)F)c1[H]


 40 43  0  0  0  0  0  0  0  0999 V2000
  -10.5446   -7.6075    8.5107 C   0  0  0  0  0  0  0  0  0  0  0  0
  -11.4129   -6.5203    8.4596 C   0  0  0  0  0  0  0  0  0  0  0  0
  -12.7260   -6.7191    8.1931 C   0  0  0  0  0  0  0  0  0  0  0  0
  -13.3276   -7.9557    7.9552 C   0  0  0  0  0  0  0  0  0  0  0  0
  -14.5127   -8.3996    7.6821 N   0  0  0  0  0  0  0  0  0  0  0  0
  -14.4008   -9.7577    7.5497 N   0  0  0  0  0  0  0  0  0  0  0  0
  -13.1608  -10.1672    7.7419 C   0  0  0  0  0  0  0  0  0  0  0  0
  -12.4322   -9.0341    8.0084 C   0  0  0  0  0  0  0  0  0  0  0  0
  -11.0897   -8.8469    8.2781 C   0  0  0  0  0  0  0  0  0  0  0  0
   -5.8918   -8.0259    7.3530 N   0  0  0  0  0  0  0  0  0  0  0  0
   -6.5248   -8.4747    6.1787 C   0  0  0  0  0  0  0  0  0  0  0  0
   -6.1108   -8.5897    4.9864 O   0  0  0  0  0  0  0  0  0  0  0  0
   -8.2086   -8.9024    6.7204 S   0  0  0  0  0  0  0  0  0  0  0  0
   -8.1420   -7.8167    8.1803 C   0  0  0  0  0  0  0  0  0  0  0  0
   -9.1695   -7.3477    8.8290 C   0  0  0  0  0  0  0  0  0  0  0  0
   -6.7203   -7.6749    8.4104 C   0  0  0  0  0  0  0  0  0  0  0  0
   -6.2822   -7.2446    9.5437 O   0  0  0  0  0  0  0  0  0  0  0  0
   -4.4174   -7.9578    7.4153 C   0  0  0  0  0  0  0  0  0  0  0  0
   -4.3813   -5.9498    5.8125 N   0  0  0  0  0  0  0  0  0  0  0  0
   -3.9145   -6.6566    6.9453 C   0  0  0  0  0  0  0  0  0  0  0  0
   -2.9821   -6.1446    7.6367 O   0  0  0  0  0  0  0  0  0  0  0  0
   -5.1350   -6.3261    5.2214 H   0  0  0  0  0  0  0  0  0  0  0  0
   -3.4114   -3.4067    6.7103 N   0  0  0  0  0  0  0  0  0  0  0  0
   -3.7064   -4.4219    5.3711 S   0  0  0  0  0  0  0  0  0  0  0  0
   -4.6210   -3.6967    4.4090 O   0  0  0  0  0  0  0  0  0  0  0  0
   -2.3730   -4.7016    4.7150 O   0  0  0  0  0  0  0  0  0  0  0  0
   -2.3987   -3.2688    6.8916 H   0  0  0  0  0  0  0  0  0  0  0  0
   -3.8770   -2.4753    6.5964 H   0  0  0  0  0  0  0  0  0  0  0  0
  -15.8022   -7.7482    7.5814 C   0  0  0  0  0  0  0  0  0  0  0  0
  -16.3473   -7.6180    6.2185 C   0  0  0  0  0  0  0  0  0  0  0  0
  -17.4427   -8.4856    5.9572 C   0  0  0  0  0  0  0  0  0  0  0  0
  -18.0702   -8.4067    4.7547 C   0  0  0  0  0  0  0  0  0  0  0  0
  -17.6747   -7.5116    3.7850 C   0  0  0  0  0  0  0  0  0  0  0  0
  -18.5123   -7.4244    2.2327 Cl  0  0  0  0  0  0  0  0  0  0  0  0
  -16.6105   -6.6837    4.0651 C   0  0  0  0  0  0  0  0  0  0  0  0
  -15.9224   -6.7230    5.2951 C   0  0  0  0  0  0  0  0  0  0  0  0
  -14.7512   -5.7952    5.4508 C   0  0  0  0  0  0  0  0  0  0  0  0
  -14.7770   -5.3656    6.8188 F   0  0  0  0  0  0  0  0  0  0  0  0
  -13.5424   -6.4105    5.3933 F   0  0  0  0  0  0  0  0  0  0  0  0
  -14.8784   -4.6351    4.7424 F   0  0  0  0  0  0  0  0  0  0  0  0
 23 24  1  0  0  0
 24 25  2  0  0  0
 24 26  2  0  0  0
 24 19  1  0  0  0
 19 20  1  0  0  0
 20 21  2  0  0  0
 20 18  1  0  0  0
 18 10  1  0  0  0
 10 11  1  0  0  0
 11 12  2  0  0  0
 11 13  1  0  0  0
 13 14  1  0  0  0
 14 15  2  0  0  0
 15  1  1  0  0  0
  1  2  2  0  0  0
  2  3  1  0  0  0
  3  4  2  0  0  0
  4  5  1  0  0  0
  5 29  1  0  0  0
 29 30  1  0  0  0
 30 31  2  0  0  0
 31 32  1  0  0  0
 32 33  2  0  0  0
 33 34  1  0  0  0
 33 35  1  0  0  0
 35 36  2  0  0  0
 36 37  1  0  0  0
 37 38  1  0  0  0
 37 39  1  0  0  0
 37 40  1  0  0  0
  5  6  1  0  0  0
  6  7  2  0  0  0
  7  8  1  0  0  0
  8  9  2  0  0  0
 14 16  1  0  0  0
 16 17  2  0  0  0
 16 10  1  0  0  0
  9  1  1  0  0  0
  8  4  1  0  0  0
 36 30  1  0  0  0
 23 27  1  0  0  0
 23 28  1  0  0  0
 19 22  1  0  0  0
M  END
> <minimizedAffinity>
-7.00030

> <CNNscore>
0.2462524474

> <CNNaffinity>
7.0551819801

> <CNN_VS>
1.7373558283

> <CNNaffinity_variance>
0.2875729203

$$$$
[H]/C(=C1/SC(=O)N(C([H])([H])C(=O)N([H])S(=O)(=O)N([H])[H])C1=O)c1c([H])c([H])c2c(c([H])nn2C([H])([H])c2c([H])c([H])c(Cl)c([H])c2C(F)(F)F)c1[H]


 40 43  0  0  0  0  0  0  0  0999 V2000
  -11.2480   -7.8426    8.7294 C   0  0  0  0  0  0  0  0  0  0  0  0
  -11.5627   -7.0248    7.6473 C   0  0  0  0  0  0  0  0  0  0  0  0
  -12.8556   -6.8687    7.2748 C   0  0  0  0  0  0  0  0  0  0  0  0
  -13.9555   -7.4674    7.8907 C   0  0  0  0  0  0  0  0  0  0  0  0
  -15.2404   -7.4859    7.7326 N   0  0  0  0  0  0  0  0  0  0  0  0
  -15.7415   -8.3164    8.6988 N   0  0  0  0  0  0  0  0  0  0  0  0
  -14.7851   -8.8124    9.4613 C   0  0  0  0  0  0  0  0  0  0  0  0
  -13.6126   -8.2886    8.9749 C   0  0  0  0  0  0  0  0  0  0  0  0
  -12.2980   -8.4586    9.3661 C   0  0  0  0  0  0  0  0  0  0  0  0
   -6.6172   -7.0420    7.6907 N   0  0  0  0  0  0  0  0  0  0  0  0
   -7.2719   -6.3127    6.6804 C   0  0  0  0  0  0  0  0  0  0  0  0
   -6.8790   -5.3723    5.9272 O   0  0  0  0  0  0  0  0  0  0  0  0
   -8.9472   -7.0220    6.6385 S   0  0  0  0  0  0  0  0  0  0  0  0
   -8.8521   -7.6493    8.3450 C   0  0  0  0  0  0  0  0  0  0  0  0
   -9.8669   -7.9491    9.1046 C   0  0  0  0  0  0  0  0  0  0  0  0
   -7.4263   -7.7459    8.5726 C   0  0  0  0  0  0  0  0  0  0  0  0
   -6.9673   -8.4535    9.5474 O   0  0  0  0  0  0  0  0  0  0  0  0
   -5.1418   -7.0378    7.7642 C   0  0  0  0  0  0  0  0  0  0  0  0
   -5.4392   -5.9137   10.0556 N   0  0  0  0  0  0  0  0  0  0  0  0
   -4.6661   -6.5905    9.0835 C   0  0  0  0  0  0  0  0  0  0  0  0
   -3.4526   -6.8498    9.3480 O   0  0  0  0  0  0  0  0  0  0  0  0
   -6.4272   -5.6815    9.8852 H   0  0  0  0  0  0  0  0  0  0  0  0
   -3.8320   -4.0174   11.4822 N   0  0  0  0  0  0  0  0  0  0  0  0
   -4.7585   -5.4472   11.5734 S   0  0  0  0  0  0  0  0  0  0  0  0
   -3.8857   -6.5527   12.1250 O   0  0  0  0  0  0  0  0  0  0  0  0
   -5.9142   -5.1766   12.5105 O   0  0  0  0  0  0  0  0  0  0  0  0
   -4.2788   -3.2198   11.9737 H   0  0  0  0  0  0  0  0  0  0  0  0
   -2.8644   -4.1621   11.8564 H   0  0  0  0  0  0  0  0  0  0  0  0
  -16.1254   -6.7779    6.8310 C   0  0  0  0  0  0  0  0  0  0  0  0
  -15.7480   -6.8133    5.4069 C   0  0  0  0  0  0  0  0  0  0  0  0
  -15.2282   -5.5815    4.9240 C   0  0  0  0  0  0  0  0  0  0  0  0
  -14.7840   -5.5141    3.6418 C   0  0  0  0  0  0  0  0  0  0  0  0
  -14.8238   -6.6038    2.7997 C   0  0  0  0  0  0  0  0  0  0  0  0
  -14.2332   -6.4913    1.1393 Cl  0  0  0  0  0  0  0  0  0  0  0  0
  -15.3329   -7.7841    3.2940 C   0  0  0  0  0  0  0  0  0  0  0  0
  -15.8082   -7.9106    4.6153 C   0  0  0  0  0  0  0  0  0  0  0  0
  -16.3787   -9.2431    5.0098 C   0  0  0  0  0  0  0  0  0  0  0  0
  -16.3425  -10.0464    3.8223 F   0  0  0  0  0  0  0  0  0  0  0  0
  -15.5826   -9.9661    5.8383 F   0  0  0  0  0  0  0  0  0  0  0  0
  -17.7051   -9.1938    5.3294 F   0  0  0  0  0  0  0  0  0  0  0  0
 23 24  1  0  0  0
 24 25  2  0  0  0
 24 26  2  0  0  0
 24 19  1  0  0  0
 19 20  1  0  0  0
 20 21  2  0  0  0
 20 18  1  0  0  0
 18 10  1  0  0  0
 10 11  1  0  0  0
 11 12  2  0  0  0
 11 13  1  0  0  0
 13 14  1  0  0  0
 14 15  2  0  0  0
 15  1  1  0  0  0
  1  2  2  0  0  0
  2  3  1  0  0  0
  3  4  2  0  0  0
  4  5  1  0  0  0
  5 29  1  0  0  0
 29 30  1  0  0  0
 30 31  2  0  0  0
 31 32  1  0  0  0
 32 33  2  0  0  0
 33 34  1  0  0  0
 33 35  1  0  0  0
 35 36  2  0  0  0
 36 37  1  0  0  0
 37 38  1  0  0  0
 37 39  1  0  0  0
 37 40  1  0  0  0
  5  6  1  0  0  0
  6  7  2  0  0  0
  7  8  1  0  0  0
  8  9  2  0  0  0
 14 16  1  0  0  0
 16 17  2  0  0  0
 16 10  1  0  0  0
  9  1  1  0  0  0
  8  4  1  0  0  0
 36 30  1  0  0  0
 23 27  1  0  0  0
 23 28  1  0  0  0
 19 22  1  0  0  0
M  END
> <minimizedAffinity>
7.79937

> <CNNscore>
0.2406119555

> <CNNaffinity>
6.7407369614

> <CNN_VS>
1.6219018698

> <CNNaffinity_variance>
0.6974029541

$$$$
[H]/C(=C1/SC(=O)N(C([H])([H])C(=O)N([H])S(=O)(=O)N([H])[H])C1=O)c1c([H])c([H])c2c(c([H])nn2C([H])([H])c2c([H])c([H])c(Cl)c([H])c2C(F)(F)F)c1[H]


 40 43  0  0  0  0  0  0  0  0999 V2000
  -10.6868   -6.5494    8.9890 C   0  0  0  0  0  0  0  0  0  0  0  0
   -9.3692   -6.9290    8.7467 C   0  0  0  0  0  0  0  0  0  0  0  0
   -8.4512   -6.8464    9.7393 C   0  0  0  0  0  0  0  0  0  0  0  0
   -8.6990   -6.4023   11.0389 C   0  0  0  0  0  0  0  0  0  0  0  0
   -8.0231   -6.2285   12.1294 N   0  0  0  0  0  0  0  0  0  0  0  0
   -8.8989   -5.7326   13.0576 N   0  0  0  0  0  0  0  0  0  0  0  0
  -10.1145   -5.5997   12.5608 C   0  0  0  0  0  0  0  0  0  0  0  0
  -10.0316   -6.0227   11.2570 C   0  0  0  0  0  0  0  0  0  0  0  0
  -10.9792   -6.1002   10.2539 C   0  0  0  0  0  0  0  0  0  0  0  0
  -14.8576   -8.3120    7.3576 N   0  0  0  0  0  0  0  0  0  0  0  0
  -14.9436   -8.5899    8.7347 C   0  0  0  0  0  0  0  0  0  0  0  0
  -15.9319   -8.8484    9.4846 O   0  0  0  0  0  0  0  0  0  0  0  0
  -13.2197   -8.5036    9.3113 S   0  0  0  0  0  0  0  0  0  0  0  0
  -12.6859   -7.4464    7.9286 C   0  0  0  0  0  0  0  0  0  0  0  0
  -11.6280   -6.6865    7.9143 C   0  0  0  0  0  0  0  0  0  0  0  0
  -13.6856   -7.7120    6.9167 C   0  0  0  0  0  0  0  0  0  0  0  0
  -13.4683   -7.3970    5.6858 O   0  0  0  0  0  0  0  0  0  0  0  0
  -15.9779   -8.6676    6.4629 C   0  0  0  0  0  0  0  0  0  0  0  0
  -16.5089   -6.8040    4.7754 N   0  0  0  0  0  0  0  0  0  0  0  0
  -16.7068   -7.4731    6.0058 C   0  0  0  0  0  0  0  0  0  0  0  0
  -17.5865   -7.0263    6.8034 O   0  0  0  0  0  0  0  0  0  0  0  0
  -15.8063   -7.1295    4.0975 H   0  0  0  0  0  0  0  0  0  0  0  0
  -16.6080   -4.3344    3.3244 N   0  0  0  0  0  0  0  0  0  0  0  0
  -17.4391   -5.4099    4.3558 S   0  0  0  0  0  0  0  0  0  0  0  0
  -17.8577   -4.6580    5.5997 O   0  0  0  0  0  0  0  0  0  0  0  0
  -18.6574   -5.9017    3.6071 O   0  0  0  0  0  0  0  0  0  0  0  0
  -17.0104   -4.3069    2.3680 H   0  0  0  0  0  0  0  0  0  0  0  0
  -16.5809   -3.3653    3.7212 H   0  0  0  0  0  0  0  0  0  0  0  0
   -6.6501   -6.5195   12.4862 C   0  0  0  0  0  0  0  0  0  0  0  0
   -5.9119   -5.4208   13.1338 C   0  0  0  0  0  0  0  0  0  0  0  0
   -6.3471   -5.1445   14.4587 C   0  0  0  0  0  0  0  0  0  0  0  0
   -5.6944   -4.1957   15.1796 C   0  0  0  0  0  0  0  0  0  0  0  0
   -4.6259   -3.4963   14.6629 C   0  0  0  0  0  0  0  0  0  0  0  0
   -3.7902   -2.2728   15.6239 Cl  0  0  0  0  0  0  0  0  0  0  0  0
   -4.2261   -3.7842   13.3768 C   0  0  0  0  0  0  0  0  0  0  0  0
   -4.8670   -4.7577   12.5835 C   0  0  0  0  0  0  0  0  0  0  0  0
   -4.3567   -4.9388   11.1823 C   0  0  0  0  0  0  0  0  0  0  0  0
   -5.2795   -5.8341   10.5470 F   0  0  0  0  0  0  0  0  0  0  0  0
   -4.4802   -3.8373   10.3983 F   0  0  0  0  0  0  0  0  0  0  0  0
   -3.1645   -5.6009   11.1189 F   0  0  0  0  0  0  0  0  0  0  0  0
 23 24  1  0  0  0
 24 25  2  0  0  0
 24 26  2  0  0  0
 24 19  1  0  0  0
 19 20  1  0  0  0
 20 21  2  0  0  0
 20 18  1  0  0  0
 18 10  1  0  0  0
 10 11  1  0  0  0
 11 12  2  0  0  0
 11 13  1  0  0  0
 13 14  1  0  0  0
 14 15  2  0  0  0
 15  1  1  0  0  0
  1  2  2  0  0  0
  2  3  1  0  0  0
  3  4  2  0  0  0
  4  5  1  0  0  0
  5 29  1  0  0  0
 29 30  1  0  0  0
 30 31  2  0  0  0
 31 32  1  0  0  0
 32 33  2  0  0  0
 33 34  1  0  0  0
 33 35  1  0  0  0
 35 36  2  0  0  0
 36 37  1  0  0  0
 37 38  1  0  0  0
 37 39  1  0  0  0
 37 40  1  0  0  0
  5  6  1  0  0  0
  6  7  2  0  0  0
  7  8  1  0  0  0
  8  9  2  0  0  0
 14 16  1  0  0  0
 16 17  2  0  0  0
 16 10  1  0  0  0
  9  1  1  0  0  0
  8  4  1  0  0  0
 36 30  1  0  0  0
 23 27  1  0  0  0
 23 28  1  0  0  0
 19 22  1  0  0  0
M  END
> <minimizedAffinity>
8.17272

> <CNNscore>
0.2057171315

> <CNNaffinity>
6.2972536087

> <CNN_VS>
1.2954529524

> <CNNaffinity_variance>
0.8396413922

$$$$
[H]/C(=C1/SC(=O)N(C([H])([H])C(=O)N([H])S(=O)(=O)N([H])[H])C1=O)c1c([H])c([H])c2c(c([H])nn2C([H])([H])c2c([H])c([H])c(Cl)c([H])c2C(F)(F)F)c1[H]


 40 43  0  0  0  0  0  0  0  0999 V2000
   -8.0354   -8.4045    7.8937 C   0  0  0  0  0  0  0  0  0  0  0  0
   -8.5499   -9.5618    7.3151 C   0  0  0  0  0  0  0  0  0  0  0  0
   -9.8907   -9.7268    7.2167 C   0  0  0  0  0  0  0  0  0  0  0  0
  -10.8545   -8.8164    7.6527 C   0  0  0  0  0  0  0  0  0  0  0  0
  -12.1467   -8.7399    7.6801 N   0  0  0  0  0  0  0  0  0  0  0  0
  -12.4553   -7.5487    8.2802 N   0  0  0  0  0  0  0  0  0  0  0  0
  -11.3711   -6.8785    8.6230 C   0  0  0  0  0  0  0  0  0  0  0  0
  -10.3118   -7.6613    8.2345 C   0  0  0  0  0  0  0  0  0  0  0  0
   -8.9461   -7.4792    8.3430 C   0  0  0  0  0  0  0  0  0  0  0  0
   -4.0235   -6.4015    6.1454 N   0  0  0  0  0  0  0  0  0  0  0  0
   -5.0264   -5.6669    5.4853 C   0  0  0  0  0  0  0  0  0  0  0  0
   -5.0056   -4.5405    4.9049 O   0  0  0  0  0  0  0  0  0  0  0  0
   -6.5065   -6.7167    5.6238 S   0  0  0  0  0  0  0  0  0  0  0  0
   -5.8827   -7.6076    7.0839 C   0  0  0  0  0  0  0  0  0  0  0  0
   -6.6082   -8.2628    7.9446 C   0  0  0  0  0  0  0  0  0  0  0  0
   -4.4511   -7.4192    6.9876 C   0  0  0  0  0  0  0  0  0  0  0  0
   -3.6472   -8.1708    7.6587 O   0  0  0  0  0  0  0  0  0  0  0  0
   -2.6008   -6.0773    5.9155 C   0  0  0  0  0  0  0  0  0  0  0  0
   -2.7741   -3.7486    6.9876 N   0  0  0  0  0  0  0  0  0  0  0  0
   -2.1396   -4.9996    6.8060 C   0  0  0  0  0  0  0  0  0  0  0  0
   -1.0787   -5.2409    7.4586 O   0  0  0  0  0  0  0  0  0  0  0  0
   -3.6360   -3.5081    6.4793 H   0  0  0  0  0  0  0  0  0  0  0  0
   -1.3919   -3.2543    9.4492 N   0  0  0  0  0  0  0  0  0  0  0  0
   -2.1299   -2.5682    8.0723 S   0  0  0  0  0  0  0  0  0  0  0  0
   -3.2161   -1.6201    8.5298 O   0  0  0  0  0  0  0  0  0  0  0  0
   -1.0600   -1.8124    7.3168 O   0  0  0  0  0  0  0  0  0  0  0  0
   -0.3614   -3.1309    9.4534 H   0  0  0  0  0  0  0  0  0  0  0  0
   -1.7949   -2.8661   10.3348 H   0  0  0  0  0  0  0  0  0  0  0  0
  -13.1888   -9.6009    7.1606 C   0  0  0  0  0  0  0  0  0  0  0  0
  -14.1945   -8.9431    6.3076 C   0  0  0  0  0  0  0  0  0  0  0  0
  -13.9110   -9.0350    4.9176 C   0  0  0  0  0  0  0  0  0  0  0  0
  -14.8035   -8.5228    4.0304 C   0  0  0  0  0  0  0  0  0  0  0  0
  -15.9719   -7.9187    4.4403 C   0  0  0  0  0  0  0  0  0  0  0  0
  -17.1188   -7.2674    3.2659 Cl  0  0  0  0  0  0  0  0  0  0  0  0
  -16.2204   -7.8433    5.7927 C   0  0  0  0  0  0  0  0  0  0  0  0
  -15.3296   -8.3569    6.7572 C   0  0  0  0  0  0  0  0  0  0  0  0
  -15.7033   -8.1669    8.1998 C   0  0  0  0  0  0  0  0  0  0  0  0
  -17.0846   -7.7815    8.1942 F   0  0  0  0  0  0  0  0  0  0  0  0
  -15.7565   -9.3183    8.9171 F   0  0  0  0  0  0  0  0  0  0  0  0
  -15.0724   -7.1100    8.7904 F   0  0  0  0  0  0  0  0  0  0  0  0
 23 24  1  0  0  0
 24 25  2  0  0  0
 24 26  2  0  0  0
 24 19  1  0  0  0
 19 20  1  0  0  0
 20 21  2  0  0  0
 20 18  1  0  0  0
 18 10  1  0  0  0
 10 11  1  0  0  0
 11 12  2  0  0  0
 11 13  1  0  0  0
 13 14  1  0  0  0
 14 15  2  0  0  0
 15  1  1  0  0  0
  1  2  2  0  0  0
  2  3  1  0  0  0
  3  4  2  0  0  0
  4  5  1  0  0  0
  5 29  1  0  0  0
 29 30  1  0  0  0
 30 31  2  0  0  0
 31 32  1  0  0  0
 32 33  2  0  0  0
 33 34  1  0  0  0
 33 35  1  0  0  0
 35 36  2  0  0  0
 36 37  1  0  0  0
 37 38  1  0  0  0
 37 39  1  0  0  0
 37 40  1  0  0  0
  5  6  1  0  0  0
  6  7  2  0  0  0
  7  8  1  0  0  0
  8  9  2  0  0  0
 14 16  1  0  0  0
 16 17  2  0  0  0
 16 10  1  0  0  0
  9  1  1  0  0  0
  8  4  1  0  0  0
 36 30  1  0  0  0
 23 27  1  0  0  0
 23 28  1  0  0  0
 19 22  1  0  0  0
M  END
> <minimizedAffinity>
-9.05872

> <CNNscore>
0.1979566813

> <CNNaffinity>
6.8779435158

> <CNN_VS>
1.3615348339

> <CNNaffinity_variance>
0.2245823443

$$$$
[H]Oc1c([H])c([H])c(-c2nc3c([H])c([H])c(O[H])c([H])c3c(Cl)c2[H])c([H])c1[H]


 21 23  0  0  0  0  0  0  0  0999 V2000
  -10.1299   -7.5353    7.9759 C   0  0  0  0  0  0  0  0  0  0  0  0
  -10.5980   -6.6056    8.8641 C   0  0  0  0  0  0  0  0  0  0  0  0
  -11.9522   -6.5763    9.2039 C   0  0  0  0  0  0  0  0  0  0  0  0
  -12.4897   -5.3752   10.3357 Cl  0  0  0  0  0  0  0  0  0  0  0  0
  -12.8468   -7.4651    8.6671 C   0  0  0  0  0  0  0  0  0  0  0  0
  -14.1750   -7.4845    8.9601 C   0  0  0  0  0  0  0  0  0  0  0  0
  -15.0590   -8.3877    8.4088 C   0  0  0  0  0  0  0  0  0  0  0  0
  -16.4153   -8.3560    8.7510 O   0  0  0  0  0  0  0  0  0  0  0  0
  -14.5414   -9.3019    7.5220 C   0  0  0  0  0  0  0  0  0  0  0  0
  -13.1943   -9.2990    7.2109 C   0  0  0  0  0  0  0  0  0  0  0  0
  -12.3155   -8.3931    7.7656 C   0  0  0  0  0  0  0  0  0  0  0  0
  -11.0017   -8.4046    7.4501 N   0  0  0  0  0  0  0  0  0  0  0  0
  -17.0180   -7.7724    8.1790 H   0  0  0  0  0  0  0  0  0  0  0  0
   -4.7042   -8.0415    6.5702 O   0  0  0  0  0  0  0  0  0  0  0  0
   -6.0354   -7.8512    6.8979 C   0  0  0  0  0  0  0  0  0  0  0  0
   -6.7376   -8.9422    7.3799 C   0  0  0  0  0  0  0  0  0  0  0  0
   -8.0610   -8.8205    7.7232 C   0  0  0  0  0  0  0  0  0  0  0  0
   -8.7417   -7.5991    7.5992 C   0  0  0  0  0  0  0  0  0  0  0  0
   -7.9969   -6.5574    7.1179 C   0  0  0  0  0  0  0  0  0  0  0  0
   -6.6634   -6.6323    6.7597 C   0  0  0  0  0  0  0  0  0  0  0  0
   -4.0180   -7.8883    7.2977 H   0  0  0  0  0  0  0  0  0  0  0  0
 14 15  1  0  0  0
 15 16  2  0  0  0
 16 17  1  0  0  0
 17 18  2  0  0  0
 18 19  1  0  0  0
 19 20  2  0  0  0
 18  1  1  0  0  0
  1  2  2  0  0  0
  2  3  1  0  0  0
  3  4  1  0  0  0
  3  5  2  0  0  0
  5  6  1  0  0  0
  6  7  2  0  0  0
  7  8  1  0  0  0
  7  9  1  0  0  0
  9 10  2  0  0  0
 10 11  1  0  0  0
 11 12  2  0  0  0
 20 15  1  0  0  0
 12  1  1  0  0  0
 11  5  1  0  0  0
 14 21  1  0  0  0
  8 13  1  0  0  0
M  END
> <minimizedAffinity>
-9.28656

> <CNNscore>
0.8268594742

> <CNNaffinity>
6.1876897812

> <CNN_VS>
5.1163496971

> <CNNaffinity_variance>
0.0217931457

$$$$
[H]Oc1c([H])c([H])c(-c2nc3c([H])c([H])c(O[H])c([H])c3c(Cl)c2[H])c([H])c1[H]


 21 23  0  0  0  0  0  0  0  0999 V2000
  -10.1213   -7.6113    7.9920 C   0  0  0  0  0  0  0  0  0  0  0  0
  -10.5880   -6.6632    8.8614 C   0  0  0  0  0  0  0  0  0  0  0  0
  -11.9435   -6.6205    9.1947 C   0  0  0  0  0  0  0  0  0  0  0  0
  -12.4790   -5.3962   10.3025 Cl  0  0  0  0  0  0  0  0  0  0  0  0
  -12.8407   -7.5138    8.6702 C   0  0  0  0  0  0  0  0  0  0  0  0
  -14.1702   -7.5207    8.9578 C   0  0  0  0  0  0  0  0  0  0  0  0
  -15.0569   -8.4287    8.4190 C   0  0  0  0  0  0  0  0  0  0  0  0
  -16.4144   -8.3835    8.7547 O   0  0  0  0  0  0  0  0  0  0  0  0
  -14.5407   -9.3616    7.5509 C   0  0  0  0  0  0  0  0  0  0  0  0
  -13.1923   -9.3716    7.2456 C   0  0  0  0  0  0  0  0  0  0  0  0
  -12.3108   -8.4608    7.7878 C   0  0  0  0  0  0  0  0  0  0  0  0
  -10.9957   -8.4851    7.4781 N   0  0  0  0  0  0  0  0  0  0  0  0
  -17.0114   -7.8070    8.1698 H   0  0  0  0  0  0  0  0  0  0  0  0
   -4.7070   -7.6675    6.4587 O   0  0  0  0  0  0  0  0  0  0  0  0
   -6.0313   -7.7180    6.8576 C   0  0  0  0  0  0  0  0  0  0  0  0
   -6.8030   -6.5865    6.6577 C   0  0  0  0  0  0  0  0  0  0  0  0
   -8.1237   -6.5711    7.0311 C   0  0  0  0  0  0  0  0  0  0  0  0
   -8.7320   -7.6895    7.6224 C   0  0  0  0  0  0  0  0  0  0  0  0
   -7.9206   -8.7774    7.7947 C   0  0  0  0  0  0  0  0  0  0  0  0
   -6.5869   -8.8393    7.4348 C   0  0  0  0  0  0  0  0  0  0  0  0
   -4.4937   -7.9531    5.5118 H   0  0  0  0  0  0  0  0  0  0  0  0
 14 15  1  0  0  0
 15 16  2  0  0  0
 16 17  1  0  0  0
 17 18  2  0  0  0
 18 19  1  0  0  0
 19 20  2  0  0  0
 18  1  1  0  0  0
  1  2  2  0  0  0
  2  3  1  0  0  0
  3  4  1  0  0  0
  3  5  2  0  0  0
  5  6  1  0  0  0
  6  7  2  0  0  0
  7  8  1  0  0  0
  7  9  1  0  0  0
  9 10  2  0  0  0
 10 11  1  0  0  0
 11 12  2  0  0  0
 20 15  1  0  0  0
 12  1  1  0  0  0
 11  5  1  0  0  0
 14 21  1  0  0  0
  8 13  1  0  0  0
M  END
> <minimizedAffinity>
-9.18947

> <CNNscore>
0.8264565468

> <CNNaffinity>
6.2042207718

> <CNN_VS>
5.1275186539

> <CNNaffinity_variance>
0.0298486240

$$$$
[H]Oc1c([H])c([H])c(-c2nc3c([H])c([H])c(O[H])c([H])c3c(Cl)c2[H])c([H])c1[H]


 21 23  0  0  0  0  0  0  0  0999 V2000
   -7.6405   -7.8841    7.7007 C   0  0  0  0  0  0  0  0  0  0  0  0
   -8.1513   -9.0288    7.1521 C   0  0  0  0  0  0  0  0  0  0  0  0
   -9.5175   -9.3038    7.2427 C   0  0  0  0  0  0  0  0  0  0  0  0
  -10.1095  -10.7708    6.5284 Cl  0  0  0  0  0  0  0  0  0  0  0  0
  -10.3818   -8.4489    7.8753 C   0  0  0  0  0  0  0  0  0  0  0  0
  -11.7197   -8.6637    7.9944 C   0  0  0  0  0  0  0  0  0  0  0  0
  -12.5729   -7.7905    8.6353 C   0  0  0  0  0  0  0  0  0  0  0  0
  -13.9412   -8.0686    8.7246 O   0  0  0  0  0  0  0  0  0  0  0  0
  -12.0129   -6.6545    9.1703 C   0  0  0  0  0  0  0  0  0  0  0  0
  -10.6552   -6.4175    9.0599 C   0  0  0  0  0  0  0  0  0  0  0  0
   -9.8075   -7.2948    8.4178 C   0  0  0  0  0  0  0  0  0  0  0  0
   -8.4827   -7.0473    8.3193 N   0  0  0  0  0  0  0  0  0  0  0  0
  -14.2488   -8.5966    9.5355 H   0  0  0  0  0  0  0  0  0  0  0  0
   -2.1328   -6.8238    7.2417 O   0  0  0  0  0  0  0  0  0  0  0  0
   -3.4915   -7.0344    7.4008 C   0  0  0  0  0  0  0  0  0  0  0  0
   -4.0755   -8.0382    6.6478 C   0  0  0  0  0  0  0  0  0  0  0  0
   -5.4186   -8.2982    6.7585 C   0  0  0  0  0  0  0  0  0  0  0  0
   -6.2387   -7.5635    7.6294 C   0  0  0  0  0  0  0  0  0  0  0  0
   -5.6064   -6.5853    8.3469 C   0  0  0  0  0  0  0  0  0  0  0  0
   -4.2582   -6.2877    8.2689 C   0  0  0  0  0  0  0  0  0  0  0  0
   -1.5066   -7.3424    7.8437 H   0  0  0  0  0  0  0  0  0  0  0  0
 14 15  1  0  0  0
 15 16  2  0  0  0
 16 17  1  0  0  0
 17 18  2  0  0  0
 18 19  1  0  0  0
 19 20  2  0  0  0
 18  1  1  0  0  0
  1  2  2  0  0  0
  2  3  1  0  0  0
  3  4  1  0  0  0
  3  5  2  0  0  0
  5  6  1  0  0  0
  6  7  2  0  0  0
  7  8  1  0  0  0
  7  9  1  0  0  0
  9 10  2  0  0  0
 10 11  1  0  0  0
 11 12  2  0  0  0
 20 15  1  0  0  0
 12  1  1  0  0  0
 11  5  1  0  0  0
 14 21  1  0  0  0
  8 13  1  0  0  0
M  END
> <minimizedAffinity>
-7.86096

> <CNNscore>
0.7231121063

> <CNNaffinity>
5.6516351700

> <CNN_VS>
4.0867657661

> <CNNaffinity_variance>
0.0173406266

$$$$
[H]Oc1c([H])c([H])c(-c2nc3c([H])c([H])c(O[H])c([H])c3c(Cl)c2[H])c([H])c1[H]


 21 23  0  0  0  0  0  0  0  0999 V2000
   -8.6288   -7.8988    7.8006 C   0  0  0  0  0  0  0  0  0  0  0  0
   -9.3849   -8.8937    7.2430 C   0  0  0  0  0  0  0  0  0  0  0  0
  -10.7514   -8.9774    7.5185 C   0  0  0  0  0  0  0  0  0  0  0  0
  -11.6608  -10.2602    6.7834 Cl  0  0  0  0  0  0  0  0  0  0  0  0
  -11.3739   -8.0788    8.3451 C   0  0  0  0  0  0  0  0  0  0  0  0
  -12.6993   -8.1103    8.6493 C   0  0  0  0  0  0  0  0  0  0  0  0
  -13.3068   -7.1961    9.4838 C   0  0  0  0  0  0  0  0  0  0  0  0
  -14.6760   -7.2824    9.7580 O   0  0  0  0  0  0  0  0  0  0  0  0
  -12.5058   -6.2156   10.0196 C   0  0  0  0  0  0  0  0  0  0  0  0
  -11.1564   -6.1660    9.7229 C   0  0  0  0  0  0  0  0  0  0  0  0
  -10.5550   -7.0832    8.8876 C   0  0  0  0  0  0  0  0  0  0  0  0
   -9.2344   -7.0197    8.6085 N   0  0  0  0  0  0  0  0  0  0  0  0
  -14.9477   -7.8435   10.5596 H   0  0  0  0  0  0  0  0  0  0  0  0
   -3.1454   -7.5767    6.5767 O   0  0  0  0  0  0  0  0  0  0  0  0
   -4.4824   -7.6166    6.9323 C   0  0  0  0  0  0  0  0  0  0  0  0
   -5.3382   -8.3423    6.1220 C   0  0  0  0  0  0  0  0  0  0  0  0
   -6.6759   -8.4219    6.4190 C   0  0  0  0  0  0  0  0  0  0  0  0
   -7.2176   -7.7775    7.5424 C   0  0  0  0  0  0  0  0  0  0  0  0
   -6.3243   -7.0761    8.3052 C   0  0  0  0  0  0  0  0  0  0  0  0
   -4.9704   -6.9677    8.0458 C   0  0  0  0  0  0  0  0  0  0  0  0
   -2.5411   -8.2965    6.9513 H   0  0  0  0  0  0  0  0  0  0  0  0
 14 15  1  0  0  0
 15 16  2  0  0  0
 16 17  1  0  0  0
 17 18  2  0  0  0
 18 19  1  0  0  0
 19 20  2  0  0  0
 18  1  1  0  0  0
  1  2  2  0  0  0
  2  3  1  0  0  0
  3  4  1  0  0  0
  3  5  2  0  0  0
  5  6  1  0  0  0
  6  7  2  0  0  0
  7  8  1  0  0  0
  7  9  1  0  0  0
  9 10  2  0  0  0
 10 11  1  0  0  0
 11 12  2  0  0  0
 20 15  1  0  0  0
 12  1  1  0  0  0
 11  5  1  0  0  0
 14 21  1  0  0  0
  8 13  1  0  0  0
M  END
> <minimizedAffinity>
-7.78297

> <CNNscore>
0.6539587975

> <CNNaffinity>
5.6987023354

> <CNN_VS>
3.7267165184

> <CNNaffinity_variance>
0.0077044130

$$$$
[H]Oc1c([H])c([H])c(-c2nc3c([H])c([H])c(O[H])c([H])c3c(Cl)c2[H])c([H])c1[H]


 21 23  0  0  0  0  0  0  0  0999 V2000
  -10.3002   -8.3900    7.6106 C   0  0  0  0  0  0  0  0  0  0  0  0
   -9.5761   -9.5085    7.9221 C   0  0  0  0  0  0  0  0  0  0  0  0
   -8.1933   -9.5280    7.7283 C   0  0  0  0  0  0  0  0  0  0  0  0
   -7.3261  -10.9739    8.1410 Cl  0  0  0  0  0  0  0  0  0  0  0  0
   -7.5228   -8.4432    7.2265 C   0  0  0  0  0  0  0  0  0  0  0  0
   -6.1794   -8.4042    7.0168 C   0  0  0  0  0  0  0  0  0  0  0  0
   -5.5235   -7.3021    6.5106 C   0  0  0  0  0  0  0  0  0  0  0  0
   -4.1380   -7.3245    6.3175 O   0  0  0  0  0  0  0  0  0  0  0  0
   -6.2937   -6.2029    6.2129 C   0  0  0  0  0  0  0  0  0  0  0  0
   -7.6608   -6.2221    6.4189 C   0  0  0  0  0  0  0  0  0  0  0  0
   -8.3106   -7.3275    6.9253 C   0  0  0  0  0  0  0  0  0  0  0  0
   -9.6477   -7.3289    7.1202 N   0  0  0  0  0  0  0  0  0  0  0  0
   -3.8072   -7.6455    5.4127 H   0  0  0  0  0  0  0  0  0  0  0  0
  -15.8901   -8.4066    8.2608 O   0  0  0  0  0  0  0  0  0  0  0  0
  -14.5150   -8.3368    8.1195 C   0  0  0  0  0  0  0  0  0  0  0  0
  -13.8546   -9.4844    7.7165 C   0  0  0  0  0  0  0  0  0  0  0  0
  -12.4912   -9.4821    7.5574 C   0  0  0  0  0  0  0  0  0  0  0  0
  -11.7268   -8.3290    7.7951 C   0  0  0  0  0  0  0  0  0  0  0  0
  -12.4337   -7.2265    8.1907 C   0  0  0  0  0  0  0  0  0  0  0  0
  -13.8049   -7.1814    8.3641 C   0  0  0  0  0  0  0  0  0  0  0  0
  -16.4542   -8.1866    7.4503 H   0  0  0  0  0  0  0  0  0  0  0  0
 14 15  1  0  0  0
 15 16  2  0  0  0
 16 17  1  0  0  0
 17 18  2  0  0  0
 18 19  1  0  0  0
 19 20  2  0  0  0
 18  1  1  0  0  0
  1  2  2  0  0  0
  2  3  1  0  0  0
  3  4  1  0  0  0
  3  5  2  0  0  0
  5  6  1  0  0  0
  6  7  2  0  0  0
  7  8  1  0  0  0
  7  9  1  0  0  0
  9 10  2  0  0  0
 10 11  1  0  0  0
 11 12  2  0  0  0
 20 15  1  0  0  0
 12  1  1  0  0  0
 11  5  1  0  0  0
 14 21  1  0  0  0
  8 13  1  0  0  0
M  END
> <minimizedAffinity>
-6.81344

> <CNNscore>
0.4770618975

> <CNNaffinity>
5.6294159889

> <CNN_VS>
2.6855797768

> <CNNaffinity_variance>
0.0911980420

$$$$
[H]Oc1c([H])c([H])c(-c2nc3c([H])c([H])c(O[H])c([H])c3c(Cl)c2[H])c([H])c1[H]


 21 23  0  0  0  0  0  0  0  0999 V2000
   -6.5776   -7.8386    7.6844 C   0  0  0  0  0  0  0  0  0  0  0  0
   -5.5935   -8.3761    6.9002 C   0  0  0  0  0  0  0  0  0  0  0  0
   -4.2855   -7.8941    6.9835 C   0  0  0  0  0  0  0  0  0  0  0  0
   -3.0781   -8.6136    5.9649 Cl  0  0  0  0  0  0  0  0  0  0  0  0
   -3.9468   -6.8803    7.8413 C   0  0  0  0  0  0  0  0  0  0  0  0
   -2.6917   -6.3708    7.9655 C   0  0  0  0  0  0  0  0  0  0  0  0
   -2.3714   -5.3499    8.8352 C   0  0  0  0  0  0  0  0  0  0  0  0
   -1.0601   -4.8690    8.9165 O   0  0  0  0  0  0  0  0  0  0  0  0
   -3.3938   -4.8426    9.6017 C   0  0  0  0  0  0  0  0  0  0  0  0
   -4.6764   -5.3467    9.4906 C   0  0  0  0  0  0  0  0  0  0  0  0
   -4.9902   -6.3676    8.6189 C   0  0  0  0  0  0  0  0  0  0  0  0
   -6.2495   -6.8482    8.5232 N   0  0  0  0  0  0  0  0  0  0  0  0
   -0.8142   -4.1034    8.2965 H   0  0  0  0  0  0  0  0  0  0  0  0
  -11.8042   -9.9036    7.3863 O   0  0  0  0  0  0  0  0  0  0  0  0
  -10.5452   -9.3363    7.4803 C   0  0  0  0  0  0  0  0  0  0  0  0
   -9.4599  -10.1306    7.1535 C   0  0  0  0  0  0  0  0  0  0  0  0
   -8.1844   -9.6285    7.2257 C   0  0  0  0  0  0  0  0  0  0  0  0
   -7.9381   -8.3067    7.6290 C   0  0  0  0  0  0  0  0  0  0  0  0
   -9.0485   -7.5702    7.9391 C   0  0  0  0  0  0  0  0  0  0  0  0
  -10.3505   -8.0323    7.8814 C   0  0  0  0  0  0  0  0  0  0  0  0
  -12.2871   -9.8236    6.5008 H   0  0  0  0  0  0  0  0  0  0  0  0
 14 15  1  0  0  0
 15 16  2  0  0  0
 16 17  1  0  0  0
 17 18  2  0  0  0
 18 19  1  0  0  0
 19 20  2  0  0  0
 18  1  1  0  0  0
  1  2  2  0  0  0
  2  3  1  0  0  0
  3  4  1  0  0  0
  3  5  2  0  0  0
  5  6  1  0  0  0
  6  7  2  0  0  0
  7  8  1  0  0  0
  7  9  1  0  0  0
  9 10  2  0  0  0
 10 11  1  0  0  0
 11 12  2  0  0  0
 20 15  1  0  0  0
 12  1  1  0  0  0
 11  5  1  0  0  0
 14 21  1  0  0  0
  8 13  1  0  0  0
M  END
> <minimizedAffinity>
-6.50513

> <CNNscore>
0.4198652804

> <CNNaffinity>
4.7788329124

> <CNN_VS>
2.0064659119

> <CNNaffinity_variance>
0.0250435434

$$$$
[H]Oc1c([H])c([H])c(-c2nc3c([H])c([H])c(O[H])c([H])c3c(Cl)c2[H])c([H])c1[H]


 21 23  0  0  0  0  0  0  0  0999 V2000
  -14.7836   -7.0745    6.6276 C   0  0  0  0  0  0  0  0  0  0  0  0
  -14.0469   -6.2049    5.8704 C   0  0  0  0  0  0  0  0  0  0  0  0
  -14.6648   -5.4332    4.8839 C   0  0  0  0  0  0  0  0  0  0  0  0
  -13.6807   -4.3471    3.9539 Cl  0  0  0  0  0  0  0  0  0  0  0  0
  -16.0112   -5.5189    4.6433 C   0  0  0  0  0  0  0  0  0  0  0  0
  -16.6668   -4.7936    3.6976 C   0  0  0  0  0  0  0  0  0  0  0  0
  -18.0232   -4.8946    3.4710 C   0  0  0  0  0  0  0  0  0  0  0  0
  -18.6394   -4.1203    2.4820 O   0  0  0  0  0  0  0  0  0  0  0  0
  -18.7202   -5.7816    4.2567 C   0  0  0  0  0  0  0  0  0  0  0  0
  -18.0726   -6.5282    5.2236 C   0  0  0  0  0  0  0  0  0  0  0  0
  -16.7160   -6.4226    5.4451 C   0  0  0  0  0  0  0  0  0  0  0  0
  -16.0991   -7.1602    6.3945 N   0  0  0  0  0  0  0  0  0  0  0  0
  -18.6907   -4.5231    1.5513 H   0  0  0  0  0  0  0  0  0  0  0  0
  -12.4675  -10.4625   10.4781 O   0  0  0  0  0  0  0  0  0  0  0  0
  -13.0302   -9.5774    9.5750 C   0  0  0  0  0  0  0  0  0  0  0  0
  -13.4283  -10.0815    8.3489 C   0  0  0  0  0  0  0  0  0  0  0  0
  -13.9934   -9.2566    7.4087 C   0  0  0  0  0  0  0  0  0  0  0  0
  -14.1854   -7.8878    7.6540 C   0  0  0  0  0  0  0  0  0  0  0  0
  -13.7729   -7.4473    8.8818 C   0  0  0  0  0  0  0  0  0  0  0  0
  -13.1996   -8.2397    9.8593 C   0  0  0  0  0  0  0  0  0  0  0  0
  -13.0918  -10.9355   11.1186 H   0  0  0  0  0  0  0  0  0  0  0  0
 14 15  1  0  0  0
 15 16  2  0  0  0
 16 17  1  0  0  0
 17 18  2  0  0  0
 18 19  1  0  0  0
 19 20  2  0  0  0
 18  1  1  0  0  0
  1  2  2  0  0  0
  2  3  1  0  0  0
  3  4  1  0  0  0
  3  5  2  0  0  0
  5  6  1  0  0  0
  6  7  2  0  0  0
  7  8  1  0  0  0
  7  9  1  0  0  0
  9 10  2  0  0  0
 10 11  1  0  0  0
 11 12  2  0  0  0
 20 15  1  0  0  0
 12  1  1  0  0  0
 11  5  1  0  0  0
 14 21  1  0  0  0
  8 13  1  0  0  0
M  END
> <minimizedAffinity>
-0.70127

> <CNNscore>
0.4118325412

> <CNNaffinity>
5.9466657639

> <CNN_VS>
2.4490303993

> <CNNaffinity_variance>
1.3395824432

$$$$
[H]Oc1c([H])c([H])c(-c2nc3c([H])c([H])c(O[H])c([H])c3c(Cl)c2[H])c([H])c1[H]


 21 23  0  0  0  0  0  0  0  0999 V2000
  -16.5327   -7.9027    6.8673 C   0  0  0  0  0  0  0  0  0  0  0  0
  -15.8751   -7.1218    5.9562 C   0  0  0  0  0  0  0  0  0  0  0  0
  -14.6092   -6.6109    6.2510 C   0  0  0  0  0  0  0  0  0  0  0  0
  -13.8221   -5.6264    5.0577 Cl  0  0  0  0  0  0  0  0  0  0  0  0
  -13.9905   -6.8702    7.4461 C   0  0  0  0  0  0  0  0  0  0  0  0
  -12.7605   -6.4007    7.7881 C   0  0  0  0  0  0  0  0  0  0  0  0
  -12.1550   -6.6732    8.9965 C   0  0  0  0  0  0  0  0  0  0  0  0
  -10.8867   -6.1600    9.2892 O   0  0  0  0  0  0  0  0  0  0  0  0
  -12.8549   -7.4619    9.8786 C   0  0  0  0  0  0  0  0  0  0  0  0
  -14.1065   -7.9491    9.5501 C   0  0  0  0  0  0  0  0  0  0  0  0
  -14.7065   -7.6729    8.3400 C   0  0  0  0  0  0  0  0  0  0  0  0
  -15.9305   -8.1574    8.0355 N   0  0  0  0  0  0  0  0  0  0  0  0
  -10.8540   -5.2524    9.7432 H   0  0  0  0  0  0  0  0  0  0  0  0
  -21.6846  -10.0308    6.0931 O   0  0  0  0  0  0  0  0  0  0  0  0
  -20.4081   -9.5101    6.2159 C   0  0  0  0  0  0  0  0  0  0  0  0
  -19.9604   -9.2086    7.4904 C   0  0  0  0  0  0  0  0  0  0  0  0
  -18.7041   -8.6895    7.6810 C   0  0  0  0  0  0  0  0  0  0  0  0
  -17.8384   -8.4486    6.6025 C   0  0  0  0  0  0  0  0  0  0  0  0
  -18.3353   -8.7658    5.3679 C   0  0  0  0  0  0  0  0  0  0  0  0
  -19.5920   -9.2900    5.1274 C   0  0  0  0  0  0  0  0  0  0  0  0
  -21.7839  -11.0369    6.1320 H   0  0  0  0  0  0  0  0  0  0  0  0
 14 15  1  0  0  0
 15 16  2  0  0  0
 16 17  1  0  0  0
 17 18  2  0  0  0
 18 19  1  0  0  0
 19 20  2  0  0  0
 18  1  1  0  0  0
  1  2  2  0  0  0
  2  3  1  0  0  0
  3  4  1  0  0  0
  3  5  2  0  0  0
  5  6  1  0  0  0
  6  7  2  0  0  0
  7  8  1  0  0  0
  7  9  1  0  0  0
  9 10  2  0  0  0
 10 11  1  0  0  0
 11 12  2  0  0  0
 20 15  1  0  0  0
 12  1  1  0  0  0
 11  5  1  0  0  0
 14 21  1  0  0  0
  8 13  1  0  0  0
M  END
> <minimizedAffinity>
-1.05184

> <CNNscore>
0.3498583436

> <CNNaffinity>
5.5803785324

> <CNN_VS>
1.9523420334

> <CNNaffinity_variance>
0.4309437275

$$$$
[H]Oc1c([H])c([H])c(-c2nc3c([H])c([H])c(O[H])c([H])c3c(Cl)c2[H])c([H])c1[H]


 21 23  0  0  0  0  0  0  0  0999 V2000
   -6.3082   -7.5694    6.8060 C   0  0  0  0  0  0  0  0  0  0  0  0
   -5.2050   -8.3217    7.1047 C   0  0  0  0  0  0  0  0  0  0  0  0
   -3.9269   -7.8479    6.8009 C   0  0  0  0  0  0  0  0  0  0  0  0
   -2.5639   -8.8449    7.2026 Cl  0  0  0  0  0  0  0  0  0  0  0  0
   -3.7359   -6.6303    6.2016 C   0  0  0  0  0  0  0  0  0  0  0  0
   -2.5169   -6.1177    5.8826 C   0  0  0  0  0  0  0  0  0  0  0  0
   -2.3460   -4.8897    5.2794 C   0  0  0  0  0  0  0  0  0  0  0  0
   -1.0643   -4.4175    4.9762 O   0  0  0  0  0  0  0  0  0  0  0  0
   -3.4841   -4.1712    4.9989 C   0  0  0  0  0  0  0  0  0  0  0  0
   -4.7324   -4.6744    5.3152 C   0  0  0  0  0  0  0  0  0  0  0  0
   -4.8965   -5.9031    5.9183 C   0  0  0  0  0  0  0  0  0  0  0  0
   -6.1244   -6.3796    6.2204 N   0  0  0  0  0  0  0  0  0  0  0  0
   -0.6929   -4.6569    4.0619 H   0  0  0  0  0  0  0  0  0  0  0  0
  -11.5905   -9.0848    8.0187 O   0  0  0  0  0  0  0  0  0  0  0  0
  -10.2774   -8.7776    7.7073 C   0  0  0  0  0  0  0  0  0  0  0  0
   -9.8931   -7.4508    7.7942 C   0  0  0  0  0  0  0  0  0  0  0  0
   -8.6052   -7.0795    7.4988 C   0  0  0  0  0  0  0  0  0  0  0  0
   -7.6427   -8.0213    7.1023 C   0  0  0  0  0  0  0  0  0  0  0  0
   -8.0802   -9.3158    7.0345 C   0  0  0  0  0  0  0  0  0  0  0  0
   -9.3656   -9.7366    7.3222 C   0  0  0  0  0  0  0  0  0  0  0  0
  -11.8007   -9.3119    8.9820 H   0  0  0  0  0  0  0  0  0  0  0  0
 14 15  1  0  0  0
 15 16  2  0  0  0
 16 17  1  0  0  0
 17 18  2  0  0  0
 18 19  1  0  0  0
 19 20  2  0  0  0
 18  1  1  0  0  0
  1  2  2  0  0  0
  2  3  1  0  0  0
  3  4  1  0  0  0
  3  5  2  0  0  0
  5  6  1  0  0  0
  6  7  2  0  0  0
  7  8  1  0  0  0
  7  9  1  0  0  0
  9 10  2  0  0  0
 10 11  1  0  0  0
 11 12  2  0  0  0
 20 15  1  0  0  0
 12  1  1  0  0  0
 11  5  1  0  0  0
 14 21  1  0  0  0
  8 13  1  0  0  0
M  END
> <minimizedAffinity>
-6.35053

> <CNNscore>
0.3443752825

> <CNNaffinity>
4.7429475784

> <CNN_VS>
1.6333539486

> <CNNaffinity_variance>
0.0782674700

$$$$
[H]/C(=C1/SC(=O)N(C([H])([H])C([H])([H])N2C([H])([H])C([H])([H])OC([H])([H])C2([H])[H])C1=O)c1c([H])c([H])c2c(c([H])nn2C([H])([H])c2c([H])c([H])c(Cl)c([H])c2C(F)(F)F)c1[H]


 37 41  0  0  0  0  0  0  0  0999 V2000
  -10.9567   -9.6077    7.5569 N   0  0  0  0  0  0  0  0  0  0  0  0
  -10.2930  -10.7601    7.2379 N   0  0  0  0  0  0  0  0  0  0  0  0
   -9.0210  -10.5200    6.9599 C   0  0  0  0  0  0  0  0  0  0  0  0
   -8.8254   -9.1704    7.0974 C   0  0  0  0  0  0  0  0  0  0  0  0
   -7.7361   -8.3070    6.9749 C   0  0  0  0  0  0  0  0  0  0  0  0
   -7.8202   -6.9528    7.2089 C   0  0  0  0  0  0  0  0  0  0  0  0
   -9.0571   -6.4467    7.5842 C   0  0  0  0  0  0  0  0  0  0  0  0
  -10.1327   -7.2964    7.7042 C   0  0  0  0  0  0  0  0  0  0  0  0
  -10.0419   -8.6511    7.4661 C   0  0  0  0  0  0  0  0  0  0  0  0
   -6.6540   -6.0816    7.0904 C   0  0  0  0  0  0  0  0  0  0  0  0
   -5.4512   -6.4975    6.8335 C   0  0  0  0  0  0  0  0  0  0  0  0
   -5.0342   -8.2493    6.5837 S   0  0  0  0  0  0  0  0  0  0  0  0
   -3.3127   -8.0201    7.1255 C   0  0  0  0  0  0  0  0  0  0  0  0
   -2.6593   -8.9369    7.6303 O   0  0  0  0  0  0  0  0  0  0  0  0
   -3.0357   -6.6770    6.8233 N   0  0  0  0  0  0  0  0  0  0  0  0
   -4.1672   -5.8520    6.6652 C   0  0  0  0  0  0  0  0  0  0  0  0
   -4.1184   -4.5957    6.3874 O   0  0  0  0  0  0  0  0  0  0  0  0
   -1.6594   -6.1539    6.6824 C   0  0  0  0  0  0  0  0  0  0  0  0
   -1.0983   -5.5156    7.8771 C   0  0  0  0  0  0  0  0  0  0  0  0
   -1.9444   -4.7999    8.7687 N   0  0  0  0  0  0  0  0  0  0  0  0
   -1.1060   -3.6669    9.2445 C   0  0  0  0  0  0  0  0  0  0  0  0
   -1.4798   -3.2220   10.6192 C   0  0  0  0  0  0  0  0  0  0  0  0
   -1.0835   -4.1559   11.5800 O   0  0  0  0  0  0  0  0  0  0  0  0
   -1.1060   -5.4367   11.0052 C   0  0  0  0  0  0  0  0  0  0  0  0
   -2.2236   -5.5504    9.9925 C   0  0  0  0  0  0  0  0  0  0  0  0
  -12.3627   -9.6665    7.8257 C   0  0  0  0  0  0  0  0  0  0  0  0
  -13.7013   -7.5250    7.8965 C   0  0  0  0  0  0  0  0  0  0  0  0
  -14.5293   -6.6513    7.1542 C   0  0  0  0  0  0  0  0  0  0  0  0
  -14.8661   -6.8472    5.8445 C   0  0  0  0  0  0  0  0  0  0  0  0
  -15.9009   -5.7347    4.9595 Cl  0  0  0  0  0  0  0  0  0  0  0  0
  -14.3537   -7.9709    5.2387 C   0  0  0  0  0  0  0  0  0  0  0  0
  -13.5540   -8.8309    5.9273 C   0  0  0  0  0  0  0  0  0  0  0  0
  -13.2030   -8.6243    7.2978 C   0  0  0  0  0  0  0  0  0  0  0  0
  -14.4820   -7.7037   10.0719 F   0  0  0  0  0  0  0  0  0  0  0  0
  -13.3926   -7.1861    9.2934 C   0  0  0  0  0  0  0  0  0  0  0  0
  -12.2933   -7.7363    9.8364 F   0  0  0  0  0  0  0  0  0  0  0  0
  -13.5761   -5.8202    9.5412 F   0  0  0  0  0  0  0  0  0  0  0  0
 34 35  1  0  0  0
 35 36  1  0  0  0
 35 37  1  0  0  0
 35 27  1  0  0  0
 27 28  2  0  0  0
 28 29  1  0  0  0
 29 30  1  0  0  0
 29 31  2  0  0  0
 31 32  1  0  0  0
 32 33  2  0  0  0
 33 26  1  0  0  0
 26  1  1  0  0  0
  1  2  1  0  0  0
  2  3  2  0  0  0
  3  4  1  0  0  0
  4  5  2  0  0  0
  5  6  1  0  0  0
  6 10  1  0  0  0
 10 11  2  0  0  0
 11 12  1  0  0  0
 12 13  1  0  0  0
 13 14  2  0  0  0
 13 15  1  0  0  0
 15 18  1  0  0  0
 18 19  1  0  0  0
 19 20  1  0  0  0
 20 21  1  0  0  0
 21 22  1  0  0  0
 22 23  1  0  0  0
 23 24  1  0  0  0
 24 25  1  0  0  0
 15 16  1  0  0  0
 16 17  2  0  0  0
  6  7  2  0  0  0
  7  8  1  0  0  0
  8  9  2  0  0  0
 33 27  1  0  0  0
  9  1  1  0  0  0
  9  4  1  0  0  0
 16 11  1  0  0  0
 25 20  1  0  0  0
M  END
> <minimizedAffinity>
-8.14736

> <CNNscore>
0.5702748895

> <CNNaffinity>
7.2843360901

> <CNN_VS>
4.1540741920

> <CNNaffinity_variance>
0.1547863930

$$$$
[H]/C(=C1/SC(=O)N(C([H])([H])C([H])([H])N2C([H])([H])C([H])([H])OC([H])([H])C2([H])[H])C1=O)c1c([H])c([H])c2c(c([H])nn2C([H])([H])c2c([H])c([H])c(Cl)c([H])c2C(F)(F)F)c1[H]


 37 41  0  0  0  0  0  0  0  0999 V2000
  -11.5330   -9.8153    7.2162 N   0  0  0  0  0  0  0  0  0  0  0  0
  -10.8913  -10.8384    6.5744 N   0  0  0  0  0  0  0  0  0  0  0  0
   -9.5800  -10.6563    6.5726 C   0  0  0  0  0  0  0  0  0  0  0  0
   -9.3347   -9.4802    7.2322 C   0  0  0  0  0  0  0  0  0  0  0  0
   -8.1939   -8.7580    7.5844 C   0  0  0  0  0  0  0  0  0  0  0  0
   -8.2395   -7.5817    8.2985 C   0  0  0  0  0  0  0  0  0  0  0  0
   -9.4907   -7.1131    8.6752 C   0  0  0  0  0  0  0  0  0  0  0  0
  -10.6168   -7.8232    8.3275 C   0  0  0  0  0  0  0  0  0  0  0  0
  -10.5640   -8.9993    7.6103 C   0  0  0  0  0  0  0  0  0  0  0  0
   -7.0231   -6.8623    8.6672 C   0  0  0  0  0  0  0  0  0  0  0  0
   -5.9247   -6.8765    7.9751 C   0  0  0  0  0  0  0  0  0  0  0  0
   -5.7342   -7.8092    6.4262 S   0  0  0  0  0  0  0  0  0  0  0  0
   -3.9347   -7.9787    6.6327 C   0  0  0  0  0  0  0  0  0  0  0  0
   -3.3079   -8.9244    6.1478 O   0  0  0  0  0  0  0  0  0  0  0  0
   -3.5721   -6.8592    7.3990 N   0  0  0  0  0  0  0  0  0  0  0  0
   -4.6235   -6.2606    8.1215 C   0  0  0  0  0  0  0  0  0  0  0  0
   -4.4901   -5.2282    8.8792 O   0  0  0  0  0  0  0  0  0  0  0  0
   -2.1885   -6.3391    7.4542 C   0  0  0  0  0  0  0  0  0  0  0  0
   -1.6172   -5.9194    6.1709 C   0  0  0  0  0  0  0  0  0  0  0  0
   -1.4271   -4.5379    5.8913 N   0  0  0  0  0  0  0  0  0  0  0  0
   -1.8120   -3.8492    7.1524 C   0  0  0  0  0  0  0  0  0  0  0  0
   -2.3486   -2.4779    6.9096 C   0  0  0  0  0  0  0  0  0  0  0  0
   -3.6211   -2.5255    6.3343 O   0  0  0  0  0  0  0  0  0  0  0  0
   -3.7245   -3.6895    5.5559 C   0  0  0  0  0  0  0  0  0  0  0  0
   -2.3949   -4.0292    4.9200 C   0  0  0  0  0  0  0  0  0  0  0  0
  -12.9649   -9.8116    7.2607 C   0  0  0  0  0  0  0  0  0  0  0  0
  -14.1696   -7.6143    7.5822 C   0  0  0  0  0  0  0  0  0  0  0  0
  -14.8300   -6.5486    6.9278 C   0  0  0  0  0  0  0  0  0  0  0  0
  -14.9883   -6.4651    5.5732 C   0  0  0  0  0  0  0  0  0  0  0  0
  -15.8183   -5.1212    4.8010 Cl  0  0  0  0  0  0  0  0  0  0  0  0
  -14.4629   -7.4949    4.8276 C   0  0  0  0  0  0  0  0  0  0  0  0
  -13.8221   -8.5346    5.4289 C   0  0  0  0  0  0  0  0  0  0  0  0
  -13.6578   -8.6202    6.8465 C   0  0  0  0  0  0  0  0  0  0  0  0
  -15.3493   -7.8708    9.5613 F   0  0  0  0  0  0  0  0  0  0  0  0
  -14.0431   -7.5718    9.0464 C   0  0  0  0  0  0  0  0  0  0  0  0
  -13.2331   -8.4747    9.6250 F   0  0  0  0  0  0  0  0  0  0  0  0
  -13.9202   -6.2568    9.5115 F   0  0  0  0  0  0  0  0  0  0  0  0
 34 35  1  0  0  0
 35 36  1  0  0  0
 35 37  1  0  0  0
 35 27  1  0  0  0
 27 28  2  0  0  0
 28 29  1  0  0  0
 29 30  1  0  0  0
 29 31  2  0  0  0
 31 32  1  0  0  0
 32 33  2  0  0  0
 33 26  1  0  0  0
 26  1  1  0  0  0
  1  2  1  0  0  0
  2  3  2  0  0  0
  3  4  1  0  0  0
  4  5  2  0  0  0
  5  6  1  0  0  0
  6 10  1  0  0  0
 10 11  2  0  0  0
 11 12  1  0  0  0
 12 13  1  0  0  0
 13 14  2  0  0  0
 13 15  1  0  0  0
 15 18  1  0  0  0
 18 19  1  0  0  0
 19 20  1  0  0  0
 20 21  1  0  0  0
 21 22  1  0  0  0
 22 23  1  0  0  0
 23 24  1  0  0  0
 24 25  1  0  0  0
 15 16  1  0  0  0
 16 17  2  0  0  0
  6  7  2  0  0  0
  7  8  1  0  0  0
  8  9  2  0  0  0
 33 27  1  0  0  0
  9  1  1  0  0  0
  9  4  1  0  0  0
 16 11  1  0  0  0
 25 20  1  0  0  0
M  END
> <minimizedAffinity>
-8.41435

> <CNNscore>
0.4348099530

> <CNNaffinity>
7.1270246506

> <CNN_VS>
3.0989012718

> <CNNaffinity_variance>
0.0852575079

$$$$
[H]/C(=C1/SC(=O)N(C([H])([H])C([H])([H])N2C([H])([H])C([H])([H])OC([H])([H])C2([H])[H])C1=O)c1c([H])c([H])c2c(c([H])nn2C([H])([H])c2c([H])c([H])c(Cl)c([H])c2C(F)(F)F)c1[H]


 37 41  0  0  0  0  0  0  0  0999 V2000
   -9.1508   -9.2255    7.3701 N   0  0  0  0  0  0  0  0  0  0  0  0
   -8.5164  -10.2785    7.9695 N   0  0  0  0  0  0  0  0  0  0  0  0
   -7.2047  -10.1001    7.9896 C   0  0  0  0  0  0  0  0  0  0  0  0
   -6.9519   -8.8943    7.3888 C   0  0  0  0  0  0  0  0  0  0  0  0
   -5.8106   -8.1369    7.1228 C   0  0  0  0  0  0  0  0  0  0  0  0
   -5.8523   -6.9035    6.5124 C   0  0  0  0  0  0  0  0  0  0  0  0
   -7.1002   -6.4112    6.1553 C   0  0  0  0  0  0  0  0  0  0  0  0
   -8.2266   -7.1573    6.4156 C   0  0  0  0  0  0  0  0  0  0  0  0
   -8.1774   -8.3928    7.0251 C   0  0  0  0  0  0  0  0  0  0  0  0
   -4.6385   -6.1292    6.2674 C   0  0  0  0  0  0  0  0  0  0  0  0
   -3.9369   -5.5527    7.1954 C   0  0  0  0  0  0  0  0  0  0  0  0
   -4.3691   -5.6217    8.9599 S   0  0  0  0  0  0  0  0  0  0  0  0
   -3.5324   -4.0490    9.3290 C   0  0  0  0  0  0  0  0  0  0  0  0
   -3.8850   -3.3253   10.2640 O   0  0  0  0  0  0  0  0  0  0  0  0
   -2.5258   -3.9608    8.3537 N   0  0  0  0  0  0  0  0  0  0  0  0
   -2.7282   -4.7573    7.2090 C   0  0  0  0  0  0  0  0  0  0  0  0
   -1.9196   -4.8119    6.2085 O   0  0  0  0  0  0  0  0  0  0  0  0
   -1.3363   -3.0949    8.5049 C   0  0  0  0  0  0  0  0  0  0  0  0
   -1.4838   -1.7228    8.0098 C   0  0  0  0  0  0  0  0  0  0  0  0
   -1.1135   -0.6230    8.8320 N   0  0  0  0  0  0  0  0  0  0  0  0
   -1.0621   -1.1898   10.2064 C   0  0  0  0  0  0  0  0  0  0  0  0
   -1.3794   -0.1734   11.2522 C   0  0  0  0  0  0  0  0  0  0  0  0
   -2.7371    0.1566   11.2436 O   0  0  0  0  0  0  0  0  0  0  0  0
   -3.2302    0.0179    9.9363 C   0  0  0  0  0  0  0  0  0  0  0  0
   -2.1700    0.3843    8.9217 C   0  0  0  0  0  0  0  0  0  0  0  0
  -10.5726   -9.2749    7.2014 C   0  0  0  0  0  0  0  0  0  0  0  0
  -12.7224   -8.3085    8.1111 C   0  0  0  0  0  0  0  0  0  0  0  0
  -13.2852   -7.2995    8.9268 C   0  0  0  0  0  0  0  0  0  0  0  0
  -12.5511   -6.3642    9.6002 C   0  0  0  0  0  0  0  0  0  0  0  0
  -13.2931   -5.1253   10.6032 Cl  0  0  0  0  0  0  0  0  0  0  0  0
  -11.1848   -6.4337    9.4563 C   0  0  0  0  0  0  0  0  0  0  0  0
  -10.6138   -7.3934    8.6777 C   0  0  0  0  0  0  0  0  0  0  0  0
  -11.3836   -8.3710    7.9737 C   0  0  0  0  0  0  0  0  0  0  0  0
  -14.9417   -8.9523    7.9269 F   0  0  0  0  0  0  0  0  0  0  0  0
  -13.6223   -9.2722    7.4608 C   0  0  0  0  0  0  0  0  0  0  0  0
  -13.7137   -9.2282    6.1207 F   0  0  0  0  0  0  0  0  0  0  0  0
  -13.4958  -10.5492    8.0211 F   0  0  0  0  0  0  0  0  0  0  0  0
 34 35  1  0  0  0
 35 36  1  0  0  0
 35 37  1  0  0  0
 35 27  1  0  0  0
 27 28  2  0  0  0
 28 29  1  0  0  0
 29 30  1  0  0  0
 29 31  2  0  0  0
 31 32  1  0  0  0
 32 33  2  0  0  0
 33 26  1  0  0  0
 26  1  1  0  0  0
  1  2  1  0  0  0
  2  3  2  0  0  0
  3  4  1  0  0  0
  4  5  2  0  0  0
  5  6  1  0  0  0
  6 10  1  0  0  0
 10 11  2  0  0  0
 11 12  1  0  0  0
 12 13  1  0  0  0
 13 14  2  0  0  0
 13 15  1  0  0  0
 15 18  1  0  0  0
 18 19  1  0  0  0
 19 20  1  0  0  0
 20 21  1  0  0  0
 21 22  1  0  0  0
 22 23  1  0  0  0
 23 24  1  0  0  0
 24 25  1  0  0  0
 15 16  1  0  0  0
 16 17  2  0  0  0
  6  7  2  0  0  0
  7  8  1  0  0  0
  8  9  2  0  0  0
 33 27  1  0  0  0
  9  1  1  0  0  0
  9  4  1  0  0  0
 16 11  1  0  0  0
 25 20  1  0  0  0
M  END
> <minimizedAffinity>
-8.64602

> <CNNscore>
0.4292449355

> <CNNaffinity>
6.5408134460

> <CNN_VS>
2.8076109886

> <CNNaffinity_variance>
0.1659223288

$$$$
[H]/C(=C1/SC(=O)N(C([H])([H])C([H])([H])N2C([H])([H])C([H])([H])OC([H])([H])C2([H])[H])C1=O)c1c([H])c([H])c2c(c([H])nn2C([H])([H])c2c([H])c([H])c(Cl)c([H])c2C(F)(F)F)c1[H]


 37 41  0  0  0  0  0  0  0  0999 V2000
   -9.1336   -9.1308    7.3787 N   0  0  0  0  0  0  0  0  0  0  0  0
   -8.5773  -10.1889    8.0431 N   0  0  0  0  0  0  0  0  0  0  0  0
   -7.2583  -10.0853    8.0913 C   0  0  0  0  0  0  0  0  0  0  0  0
   -6.9202   -8.9259    7.4433 C   0  0  0  0  0  0  0  0  0  0  0  0
   -5.7301   -8.2487    7.1746 C   0  0  0  0  0  0  0  0  0  0  0  0
   -5.6841   -7.0452    6.5075 C   0  0  0  0  0  0  0  0  0  0  0  0
   -6.8917   -6.4995    6.0937 C   0  0  0  0  0  0  0  0  0  0  0  0
   -8.0660   -7.1666    6.3565 C   0  0  0  0  0  0  0  0  0  0  0  0
   -8.1046   -8.3726    7.0231 C   0  0  0  0  0  0  0  0  0  0  0  0
   -4.4212   -6.3543    6.2611 C   0  0  0  0  0  0  0  0  0  0  0  0
   -3.7372   -5.7304    7.1713 C   0  0  0  0  0  0  0  0  0  0  0  0
   -4.2587   -5.6196    8.9094 S   0  0  0  0  0  0  0  0  0  0  0  0
   -3.3608   -4.0614    9.1837 C   0  0  0  0  0  0  0  0  0  0  0  0
   -3.7209   -3.2406   10.0316 O   0  0  0  0  0  0  0  0  0  0  0  0
   -2.3042   -4.1091    8.2599 N   0  0  0  0  0  0  0  0  0  0  0  0
   -2.4910   -4.9950    7.1801 C   0  0  0  0  0  0  0  0  0  0  0  0
   -1.6380   -5.1777    6.2330 O   0  0  0  0  0  0  0  0  0  0  0  0
   -1.0803   -3.2903    8.3983 C   0  0  0  0  0  0  0  0  0  0  0  0
   -1.2040   -1.8898    7.9825 C   0  0  0  0  0  0  0  0  0  0  0  0
   -2.2508   -1.4952    7.1043 N   0  0  0  0  0  0  0  0  0  0  0  0
   -1.6395   -1.5559    5.7496 C   0  0  0  0  0  0  0  0  0  0  0  0
   -2.2552   -0.5788    4.8043 C   0  0  0  0  0  0  0  0  0  0  0  0
   -1.8801    0.7313    5.1131 O   0  0  0  0  0  0  0  0  0  0  0  0
   -1.6576    0.8262    6.4962 C   0  0  0  0  0  0  0  0  0  0  0  0
   -2.5993   -0.0827    7.2543 C   0  0  0  0  0  0  0  0  0  0  0  0
  -10.5512   -9.1064    7.1730 C   0  0  0  0  0  0  0  0  0  0  0  0
  -12.6694   -8.2681    8.2653 C   0  0  0  0  0  0  0  0  0  0  0  0
  -13.2220   -7.2851    9.1189 C   0  0  0  0  0  0  0  0  0  0  0  0
  -12.4940   -6.2933    9.7133 C   0  0  0  0  0  0  0  0  0  0  0  0
  -13.2230   -5.0898   10.7676 Cl  0  0  0  0  0  0  0  0  0  0  0  0
  -11.1447   -6.2758    9.4462 C   0  0  0  0  0  0  0  0  0  0  0  0
  -10.5838   -7.2084    8.6283 C   0  0  0  0  0  0  0  0  0  0  0  0
  -11.3474   -8.2452    8.0070 C   0  0  0  0  0  0  0  0  0  0  0  0
  -14.8591   -9.0292    8.2534 F   0  0  0  0  0  0  0  0  0  0  0  0
  -13.5584   -9.2987    7.7093 C   0  0  0  0  0  0  0  0  0  0  0  0
  -13.7404   -9.3076    6.3778 F   0  0  0  0  0  0  0  0  0  0  0  0
  -13.3279  -10.5467    8.3010 F   0  0  0  0  0  0  0  0  0  0  0  0
 34 35  1  0  0  0
 35 36  1  0  0  0
 35 37  1  0  0  0
 35 27  1  0  0  0
 27 28  2  0  0  0
 28 29  1  0  0  0
 29 30  1  0  0  0
 29 31  2  0  0  0
 31 32  1  0  0  0
 32 33  2  0  0  0
 33 26  1  0  0  0
 26  1  1  0  0  0
  1  2  1  0  0  0
  2  3  2  0  0  0
  3  4  1  0  0  0
  4  5  2  0  0  0
  5  6  1  0  0  0
  6 10  1  0  0  0
 10 11  2  0  0  0
 11 12  1  0  0  0
 12 13  1  0  0  0
 13 14  2  0  0  0
 13 15  1  0  0  0
 15 18  1  0  0  0
 18 19  1  0  0  0
 19 20  1  0  0  0
 20 21  1  0  0  0
 21 22  1  0  0  0
 22 23  1  0  0  0
 23 24  1  0  0  0
 24 25  1  0  0  0
 15 16  1  0  0  0
 16 17  2  0  0  0
  6  7  2  0  0  0
  7  8  1  0  0  0
  8  9  2  0  0  0
 33 27  1  0  0  0
  9  1  1  0  0  0
  9  4  1  0  0  0
 16 11  1  0  0  0
 25 20  1  0  0  0
M  END
> <minimizedAffinity>
-8.53884

> <CNNscore>
0.3774830401

> <CNNaffinity>
6.5570068359

> <CNN_VS>
2.4751589298

> <CNNaffinity_variance>
0.0928680673

$$$$
[H]/C(=C1/SC(=O)N(C([H])([H])C([H])([H])N2C([H])([H])C([H])([H])OC([H])([H])C2([H])[H])C1=O)c1c([H])c([H])c2c(c([H])nn2C([H])([H])c2c([H])c([H])c(Cl)c([H])c2C(F)(F)F)c1[H]


 37 41  0  0  0  0  0  0  0  0999 V2000
   -7.3450   -7.9627    8.5177 N   0  0  0  0  0  0  0  0  0  0  0  0
   -7.1485   -7.7386    7.1830 N   0  0  0  0  0  0  0  0  0  0  0  0
   -8.2866   -7.8153    6.5109 C   0  0  0  0  0  0  0  0  0  0  0  0
   -9.2737   -8.0970    7.4191 C   0  0  0  0  0  0  0  0  0  0  0  0
  -10.6565   -8.2747    7.3602 C   0  0  0  0  0  0  0  0  0  0  0  0
  -11.4301   -8.5260    8.4711 C   0  0  0  0  0  0  0  0  0  0  0  0
  -10.7810   -8.6004    9.6959 C   0  0  0  0  0  0  0  0  0  0  0  0
   -9.4174   -8.4268    9.7557 C   0  0  0  0  0  0  0  0  0  0  0  0
   -8.6485   -8.1777    8.6390 C   0  0  0  0  0  0  0  0  0  0  0  0
  -12.8784   -8.6870    8.3748 C   0  0  0  0  0  0  0  0  0  0  0  0
  -13.6114   -8.1794    7.4310 C   0  0  0  0  0  0  0  0  0  0  0  0
  -12.9351   -7.1766    6.0737 S   0  0  0  0  0  0  0  0  0  0  0  0
  -14.4979   -6.2792    5.8246 C   0  0  0  0  0  0  0  0  0  0  0  0
  -14.5277   -5.1350    5.3639 O   0  0  0  0  0  0  0  0  0  0  0  0
  -15.4823   -7.1806    6.2610 N   0  0  0  0  0  0  0  0  0  0  0  0
  -15.0243   -8.1999    7.1195 C   0  0  0  0  0  0  0  0  0  0  0  0
  -15.7735   -9.1179    7.6234 O   0  0  0  0  0  0  0  0  0  0  0  0
  -16.9015   -7.0751    5.8580 C   0  0  0  0  0  0  0  0  0  0  0  0
  -17.2757   -7.8222    4.6532 C   0  0  0  0  0  0  0  0  0  0  0  0
  -18.2143   -7.2744    3.7358 N   0  0  0  0  0  0  0  0  0  0  0  0
  -17.3949   -6.4216    2.8335 C   0  0  0  0  0  0  0  0  0  0  0  0
  -18.1677   -5.2687    2.2849 C   0  0  0  0  0  0  0  0  0  0  0  0
  -18.4122   -4.3075    3.2690 O   0  0  0  0  0  0  0  0  0  0  0  0
  -18.5017   -4.9465    4.5160 C   0  0  0  0  0  0  0  0  0  0  0  0
  -19.1207   -6.3190    4.3720 C   0  0  0  0  0  0  0  0  0  0  0  0
   -6.2117   -7.9819    9.3939 C   0  0  0  0  0  0  0  0  0  0  0  0
   -4.7217   -6.0055    9.9005 C   0  0  0  0  0  0  0  0  0  0  0  0
   -3.6507   -5.2112    9.4292 C   0  0  0  0  0  0  0  0  0  0  0  0
   -3.0030   -5.4272    8.2456 C   0  0  0  0  0  0  0  0  0  0  0  0
   -1.6757   -4.4127    7.6973 Cl  0  0  0  0  0  0  0  0  0  0  0  0
   -3.4419   -6.4887    7.4887 C   0  0  0  0  0  0  0  0  0  0  0  0
   -4.4708   -7.2712    7.9156 C   0  0  0  0  0  0  0  0  0  0  0  0
   -5.1474   -7.0433    9.1543 C   0  0  0  0  0  0  0  0  0  0  0  0
   -4.2499   -5.7913   12.1601 F   0  0  0  0  0  0  0  0  0  0  0  0
   -5.3168   -5.6832   11.2058 C   0  0  0  0  0  0  0  0  0  0  0  0
   -5.8025   -4.4417   11.3759 F   0  0  0  0  0  0  0  0  0  0  0  0
   -6.1306   -6.7245   11.6683 F   0  0  0  0  0  0  0  0  0  0  0  0
 34 35  1  0  0  0
 35 36  1  0  0  0
 35 37  1  0  0  0
 35 27  1  0  0  0
 27 28  2  0  0  0
 28 29  1  0  0  0
 29 30  1  0  0  0
 29 31  2  0  0  0
 31 32  1  0  0  0
 32 33  2  0  0  0
 33 26  1  0  0  0
 26  1  1  0  0  0
  1  2  1  0  0  0
  2  3  2  0  0  0
  3  4  1  0  0  0
  4  5  2  0  0  0
  5  6  1  0  0  0
  6 10  1  0  0  0
 10 11  2  0  0  0
 11 12  1  0  0  0
 12 13  1  0  0  0
 13 14  2  0  0  0
 13 15  1  0  0  0
 15 18  1  0  0  0
 18 19  1  0  0  0
 19 20  1  0  0  0
 20 21  1  0  0  0
 21 22  1  0  0  0
 22 23  1  0  0  0
 23 24  1  0  0  0
 24 25  1  0  0  0
 15 16  1  0  0  0
 16 17  2  0  0  0
  6  7  2  0  0  0
  7  8  1  0  0  0
  8  9  2  0  0  0
 33 27  1  0  0  0
  9  1  1  0  0  0
  9  4  1  0  0  0
 16 11  1  0  0  0
 25 20  1  0  0  0
M  END
> <minimizedAffinity>
8.36995

> <CNNscore>
0.3664036393

> <CNNaffinity>
6.6566405296

> <CNN_VS>
2.4390172958

> <CNNaffinity_variance>
1.8297655582

$$$$
[H]/C(=C1/SC(=O)N(C([H])([H])C([H])([H])N2C([H])([H])C([H])([H])OC([H])([H])C2([H])[H])C1=O)c1c([H])c([H])c2c(c([H])nn2C([H])([H])c2c([H])c([H])c(Cl)c([H])c2C(F)(F)F)c1[H]


 37 41  0  0  0  0  0  0  0  0999 V2000
  -10.5731   -9.2740    7.8193 N   0  0  0  0  0  0  0  0  0  0  0  0
  -10.1380  -10.5251    7.4793 N   0  0  0  0  0  0  0  0  0  0  0  0
   -8.9587  -10.4764    6.8795 C   0  0  0  0  0  0  0  0  0  0  0  0
   -8.5918   -9.1573    6.8165 C   0  0  0  0  0  0  0  0  0  0  0  0
   -7.4826   -8.4563    6.3418 C   0  0  0  0  0  0  0  0  0  0  0  0
   -7.3600   -7.0884    6.4385 C   0  0  0  0  0  0  0  0  0  0  0  0
   -8.4015   -6.3964    7.0416 C   0  0  0  0  0  0  0  0  0  0  0  0
   -9.4966   -7.0859    7.5091 C   0  0  0  0  0  0  0  0  0  0  0  0
   -9.6139   -8.4556    7.4068 C   0  0  0  0  0  0  0  0  0  0  0  0
   -6.1751   -6.3894    5.9484 C   0  0  0  0  0  0  0  0  0  0  0  0
   -5.1688   -6.0421    6.6917 C   0  0  0  0  0  0  0  0  0  0  0  0
   -5.0864   -6.3754    8.4771 S   0  0  0  0  0  0  0  0  0  0  0  0
   -3.9796   -4.9659    8.7905 C   0  0  0  0  0  0  0  0  0  0  0  0
   -3.9530   -4.3859    9.8791 O   0  0  0  0  0  0  0  0  0  0  0  0
   -3.2896   -4.7978    7.5790 N   0  0  0  0  0  0  0  0  0  0  0  0
   -3.9124   -5.3663    6.4499 C   0  0  0  0  0  0  0  0  0  0  0  0
   -3.4364   -5.3172    5.2546 O   0  0  0  0  0  0  0  0  0  0  0  0
   -2.0029   -4.0748    7.4825 C   0  0  0  0  0  0  0  0  0  0  0  0
   -2.0926   -2.6752    7.0550 C   0  0  0  0  0  0  0  0  0  0  0  0
   -3.2849   -1.9339    7.2822 N   0  0  0  0  0  0  0  0  0  0  0  0
   -3.7869   -1.6142    5.9189 C   0  0  0  0  0  0  0  0  0  0  0  0
   -4.5608   -0.3385    5.8833 C   0  0  0  0  0  0  0  0  0  0  0  0
   -3.7212    0.7686    6.0309 O   0  0  0  0  0  0  0  0  0  0  0  0
   -2.6176    0.4003    6.8170 C   0  0  0  0  0  0  0  0  0  0  0  0
   -3.0190   -0.6175    7.8613 C   0  0  0  0  0  0  0  0  0  0  0  0
  -11.8642   -9.1268    8.4225 C   0  0  0  0  0  0  0  0  0  0  0  0
  -13.3462   -7.0896    8.2312 C   0  0  0  0  0  0  0  0  0  0  0  0
  -14.2887   -6.4146    7.4213 C   0  0  0  0  0  0  0  0  0  0  0  0
  -14.7071   -6.8637    6.2004 C   0  0  0  0  0  0  0  0  0  0  0  0
  -15.8832   -5.9921    5.2265 Cl  0  0  0  0  0  0  0  0  0  0  0  0
  -14.1608   -8.0467    5.7596 C   0  0  0  0  0  0  0  0  0  0  0  0
  -13.2514   -8.7196    6.5170 C   0  0  0  0  0  0  0  0  0  0  0  0
  -12.8152   -8.2481    7.7942 C   0  0  0  0  0  0  0  0  0  0  0  0
  -13.4963   -7.3474   10.5302 F   0  0  0  0  0  0  0  0  0  0  0  0
  -12.9598   -6.4859    9.5149 C   0  0  0  0  0  0  0  0  0  0  0  0
  -11.6473   -6.4071    9.7927 F   0  0  0  0  0  0  0  0  0  0  0  0
  -13.7100   -5.3350    9.7856 F   0  0  0  0  0  0  0  0  0  0  0  0
 34 35  1  0  0  0
 35 36  1  0  0  0
 35 37  1  0  0  0
 35 27  1  0  0  0
 27 28  2  0  0  0
 28 29  1  0  0  0
 29 30  1  0  0  0
 29 31  2  0  0  0
 31 32  1  0  0  0
 32 33  2  0  0  0
 33 26  1  0  0  0
 26  1  1  0  0  0
  1  2  1  0  0  0
  2  3  2  0  0  0
  3  4  1  0  0  0
  4  5  2  0  0  0
  5  6  1  0  0  0
  6 10  1  0  0  0
 10 11  2  0  0  0
 11 12  1  0  0  0
 12 13  1  0  0  0
 13 14  2  0  0  0
 13 15  1  0  0  0
 15 18  1  0  0  0
 18 19  1  0  0  0
 19 20  1  0  0  0
 20 21  1  0  0  0
 21 22  1  0  0  0
 22 23  1  0  0  0
 23 24  1  0  0  0
 24 25  1  0  0  0
 15 16  1  0  0  0
 16 17  2  0  0  0
  6  7  2  0  0  0
  7  8  1  0  0  0
  8  9  2  0  0  0
 33 27  1  0  0  0
  9  1  1  0  0  0
  9  4  1  0  0  0
 16 11  1  0  0  0
 25 20  1  0  0  0
M  END
> <minimizedAffinity>
-8.86463

> <CNNscore>
0.3374794126

> <CNNaffinity>
6.9491119385

> <CNN_VS>
2.3451821804

> <CNNaffinity_variance>
0.0472890586

$$$$
[H]/C(=C1/SC(=O)N(C([H])([H])C([H])([H])N2C([H])([H])C([H])([H])OC([H])([H])C2([H])[H])C1=O)c1c([H])c([H])c2c(c([H])nn2C([H])([H])c2c([H])c([H])c(Cl)c([H])c2C(F)(F)F)c1[H]


 37 41  0  0  0  0  0  0  0  0999 V2000
   -9.4704   -9.1851    7.2209 N   0  0  0  0  0  0  0  0  0  0  0  0
   -9.0660  -10.3914    7.7226 N   0  0  0  0  0  0  0  0  0  0  0  0
   -7.7520  -10.4298    7.8793 C   0  0  0  0  0  0  0  0  0  0  0  0
   -7.2612   -9.2162    7.4733 C   0  0  0  0  0  0  0  0  0  0  0  0
   -5.9986   -8.6252    7.4123 C   0  0  0  0  0  0  0  0  0  0  0  0
   -5.7923   -7.3360    6.9753 C   0  0  0  0  0  0  0  0  0  0  0  0
   -6.9086   -6.6098    6.5833 C   0  0  0  0  0  0  0  0  0  0  0  0
   -8.1542   -7.1914    6.6414 C   0  0  0  0  0  0  0  0  0  0  0  0
   -8.3534   -8.4837    7.0779 C   0  0  0  0  0  0  0  0  0  0  0  0
   -4.4582   -6.7426    6.9436 C   0  0  0  0  0  0  0  0  0  0  0  0
   -3.9478   -6.0344    7.9047 C   0  0  0  0  0  0  0  0  0  0  0  0
   -4.8313   -5.6683    9.4509 S   0  0  0  0  0  0  0  0  0  0  0  0
   -3.9024   -4.1300    9.7345 C   0  0  0  0  0  0  0  0  0  0  0  0
   -4.3789   -3.1876   10.3726 O   0  0  0  0  0  0  0  0  0  0  0  0
   -2.6742   -4.3491    9.0899 N   0  0  0  0  0  0  0  0  0  0  0  0
   -2.6831   -5.3621    8.1103 C   0  0  0  0  0  0  0  0  0  0  0  0
   -1.6578   -5.7086    7.4128 O   0  0  0  0  0  0  0  0  0  0  0  0
   -1.4535   -3.5759    9.4057 C   0  0  0  0  0  0  0  0  0  0  0  0
   -1.0635   -3.5558   10.8188 C   0  0  0  0  0  0  0  0  0  0  0  0
   -2.0584   -3.5830   11.8348 N   0  0  0  0  0  0  0  0  0  0  0  0
   -1.5373   -2.6695   12.8870 C   0  0  0  0  0  0  0  0  0  0  0  0
   -2.0020   -3.0524   14.2525 C   0  0  0  0  0  0  0  0  0  0  0  0
   -1.3702   -4.2172   14.6956 O   0  0  0  0  0  0  0  0  0  0  0  0
   -1.0657   -5.0197   13.5844 C   0  0  0  0  0  0  0  0  0  0  0  0
   -2.1243   -4.8767   12.5136 C   0  0  0  0  0  0  0  0  0  0  0  0
  -10.8578   -8.9845    6.9258 C   0  0  0  0  0  0  0  0  0  0  0  0
  -12.8969   -7.6932    7.6726 C   0  0  0  0  0  0  0  0  0  0  0  0
  -13.3874   -6.7263    8.5807 C   0  0  0  0  0  0  0  0  0  0  0  0
  -12.6222   -6.1176    9.5352 C   0  0  0  0  0  0  0  0  0  0  0  0
  -13.2737   -4.9185   10.6438 Cl  0  0  0  0  0  0  0  0  0  0  0  0
  -11.2986   -6.4882    9.5915 C   0  0  0  0  0  0  0  0  0  0  0  0
  -10.7972   -7.4159    8.7306 C   0  0  0  0  0  0  0  0  0  0  0  0
  -11.5995   -8.0515    7.7323 C   0  0  0  0  0  0  0  0  0  0  0  0
  -13.9249   -7.3609    5.6215 F   0  0  0  0  0  0  0  0  0  0  0  0
  -13.8315   -8.2931    6.7092 C   0  0  0  0  0  0  0  0  0  0  0  0
  -13.4699   -9.4529    6.1346 F   0  0  0  0  0  0  0  0  0  0  0  0
  -15.1526   -8.2266    7.1685 F   0  0  0  0  0  0  0  0  0  0  0  0
 34 35  1  0  0  0
 35 36  1  0  0  0
 35 37  1  0  0  0
 35 27  1  0  0  0
 27 28  2  0  0  0
 28 29  1  0  0  0
 29 30  1  0  0  0
 29 31  2  0  0  0
 31 32  1  0  0  0
 32 33  2  0  0  0
 33 26  1  0  0  0
 26  1  1  0  0  0
  1  2  1  0  0  0
  2  3  2  0  0  0
  3  4  1  0  0  0
  4  5  2  0  0  0
  5  6  1  0  0  0
  6 10  1  0  0  0
 10 11  2  0  0  0
 11 12  1  0  0  0
 12 13  1  0  0  0
 13 14  2  0  0  0
 13 15  1  0  0  0
 15 18  1  0  0  0
 18 19  1  0  0  0
 19 20  1  0  0  0
 20 21  1  0  0  0
 21 22  1  0  0  0
 22 23  1  0  0  0
 23 24  1  0  0  0
 24 25  1  0  0  0
 15 16  1  0  0  0
 16 17  2  0  0  0
  6  7  2  0  0  0
  7  8  1  0  0  0
  8  9  2  0  0  0
 33 27  1  0  0  0
  9  1  1  0  0  0
  9  4  1  0  0  0
 16 11  1  0  0  0
 25 20  1  0  0  0
M  END
> <minimizedAffinity>
-7.66920

> <CNNscore>
0.2500375509

> <CNNaffinity>
6.5215134621

> <CNN_VS>
1.6306232214

> <CNNaffinity_variance>
0.1147848219

$$$$
[H]/C(=C1/SC(=O)N(C([H])([H])C([H])([H])N2C([H])([H])C([H])([H])OC([H])([H])C2([H])[H])C1=O)c1c([H])c([H])c2c(c([H])nn2C([H])([H])c2c([H])c([H])c(Cl)c([H])c2C(F)(F)F)c1[H]


 37 41  0  0  0  0  0  0  0  0999 V2000
  -11.3588   -8.5064    7.8457 N   0  0  0  0  0  0  0  0  0  0  0  0
  -11.6074   -9.8250    7.5815 N   0  0  0  0  0  0  0  0  0  0  0  0
  -10.5116  -10.4484    7.1774 C   0  0  0  0  0  0  0  0  0  0  0  0
   -9.4999   -9.5238    7.1716 C   0  0  0  0  0  0  0  0  0  0  0  0
   -8.1357   -9.5457    6.8787 C   0  0  0  0  0  0  0  0  0  0  0  0
   -7.3248   -8.4388    6.9914 C   0  0  0  0  0  0  0  0  0  0  0  0
   -7.9150   -7.2575    7.4194 C   0  0  0  0  0  0  0  0  0  0  0  0
   -9.2602   -7.2337    7.7073 C   0  0  0  0  0  0  0  0  0  0  0  0
  -10.0669   -8.3453    7.5901 C   0  0  0  0  0  0  0  0  0  0  0  0
   -5.8961   -8.5031    6.6953 C   0  0  0  0  0  0  0  0  0  0  0  0
   -4.9969   -7.7520    7.2547 C   0  0  0  0  0  0  0  0  0  0  0  0
   -5.3885   -6.4896    8.5030 S   0  0  0  0  0  0  0  0  0  0  0  0
   -3.9288   -5.4853    8.0904 C   0  0  0  0  0  0  0  0  0  0  0  0
   -3.9048   -4.2645    8.2671 O   0  0  0  0  0  0  0  0  0  0  0  0
   -3.0042   -6.4165    7.5901 N   0  0  0  0  0  0  0  0  0  0  0  0
   -3.5596   -7.6308    7.1398 C   0  0  0  0  0  0  0  0  0  0  0  0
   -2.8763   -8.6052    6.6484 O   0  0  0  0  0  0  0  0  0  0  0  0
   -1.5503   -6.1510    7.5318 C   0  0  0  0  0  0  0  0  0  0  0  0
   -1.1379   -5.0763    6.6239 C   0  0  0  0  0  0  0  0  0  0  0  0
   -2.0049   -4.6513    5.5797 N   0  0  0  0  0  0  0  0  0  0  0  0
   -1.1680   -4.7231    4.3520 C   0  0  0  0  0  0  0  0  0  0  0  0
   -1.5844   -3.7268    3.3217 C   0  0  0  0  0  0  0  0  0  0  0  0
   -1.2362   -2.4281    3.7019 O   0  0  0  0  0  0  0  0  0  0  0  0
   -1.2564   -2.3441    5.1033 C   0  0  0  0  0  0  0  0  0  0  0  0
   -2.3386   -3.2307    5.6780 C   0  0  0  0  0  0  0  0  0  0  0  0
  -12.4457   -7.6581    8.2349 C   0  0  0  0  0  0  0  0  0  0  0  0
  -14.5169   -8.6212    9.3145 C   0  0  0  0  0  0  0  0  0  0  0  0
  -15.1436   -8.9357   10.5427 C   0  0  0  0  0  0  0  0  0  0  0  0
  -14.5738   -8.7250   11.7667 C   0  0  0  0  0  0  0  0  0  0  0  0
  -15.3904   -9.1302   13.2702 Cl  0  0  0  0  0  0  0  0  0  0  0  0
  -13.3142   -8.1721   11.7723 C   0  0  0  0  0  0  0  0  0  0  0  0
  -12.6855   -7.8583   10.6063 C   0  0  0  0  0  0  0  0  0  0  0  0
  -13.2834   -8.0793    9.3266 C   0  0  0  0  0  0  0  0  0  0  0  0
  -14.2301   -8.9025    7.0314 F   0  0  0  0  0  0  0  0  0  0  0  0
  -15.2278   -8.9224    8.0634 C   0  0  0  0  0  0  0  0  0  0  0  0
  -15.8070  -10.1303    7.9549 F   0  0  0  0  0  0  0  0  0  0  0  0
  -16.0021   -7.8353    7.6403 F   0  0  0  0  0  0  0  0  0  0  0  0
 34 35  1  0  0  0
 35 36  1  0  0  0
 35 37  1  0  0  0
 35 27  1  0  0  0
 27 28  2  0  0  0
 28 29  1  0  0  0
 29 30  1  0  0  0
 29 31  2  0  0  0
 31 32  1  0  0  0
 32 33  2  0  0  0
 33 26  1  0  0  0
 26  1  1  0  0  0
  1  2  1  0  0  0
  2  3  2  0  0  0
  3  4  1  0  0  0
  4  5  2  0  0  0
  5  6  1  0  0  0
  6 10  1  0  0  0
 10 11  2  0  0  0
 11 12  1  0  0  0
 12 13  1  0  0  0
 13 14  2  0  0  0
 13 15  1  0  0  0
 15 18  1  0  0  0
 18 19  1  0  0  0
 19 20  1  0  0  0
 20 21  1  0  0  0
 21 22  1  0  0  0
 22 23  1  0  0  0
 23 24  1  0  0  0
 24 25  1  0  0  0
 15 16  1  0  0  0
 16 17  2  0  0  0
  6  7  2  0  0  0
  7  8  1  0  0  0
  8  9  2  0  0  0
 33 27  1  0  0  0
  9  1  1  0  0  0
  9  4  1  0  0  0
 16 11  1  0  0  0
 25 20  1  0  0  0
M  END
> <minimizedAffinity>
1.20635

> <CNNscore>
0.2476803958

> <CNNaffinity>
6.3669142723

> <CNN_VS>
1.5769598484

> <CNNaffinity_variance>
0.2353721112

$$$$
[H]/C(=C1/SC(=O)N(C([H])([H])C([H])([H])N2C([H])([H])C([H])([H])OC([H])([H])C2([H])[H])C1=O)c1c([H])c([H])c2c(c([H])nn2C([H])([H])c2c([H])c([H])c(Cl)c([H])c2C(F)(F)F)c1[H]


 37 41  0  0  0  0  0  0  0  0999 V2000
  -10.6418   -6.5204    6.5647 N   0  0  0  0  0  0  0  0  0  0  0  0
  -10.2864   -5.8302    5.4388 N   0  0  0  0  0  0  0  0  0  0  0  0
   -8.9944   -5.5414    5.4408 C   0  0  0  0  0  0  0  0  0  0  0  0
   -8.4681   -6.0527    6.5984 C   0  0  0  0  0  0  0  0  0  0  0  0
   -7.1974   -6.1079    7.1725 C   0  0  0  0  0  0  0  0  0  0  0  0
   -6.9410   -6.7332    8.3721 C   0  0  0  0  0  0  0  0  0  0  0  0
   -8.0130   -7.3304    9.0212 C   0  0  0  0  0  0  0  0  0  0  0  0
   -9.2668   -7.2758    8.4572 C   0  0  0  0  0  0  0  0  0  0  0  0
   -9.5169   -6.6459    7.2568 C   0  0  0  0  0  0  0  0  0  0  0  0
   -5.5941   -6.7888    8.9339 C   0  0  0  0  0  0  0  0  0  0  0  0
   -5.3163   -6.6188   10.1907 C   0  0  0  0  0  0  0  0  0  0  0  0
   -6.5791   -6.2782   11.4536 S   0  0  0  0  0  0  0  0  0  0  0  0
   -5.4042   -5.4095   12.5374 C   0  0  0  0  0  0  0  0  0  0  0  0
   -5.7680   -4.5319   13.3246 O   0  0  0  0  0  0  0  0  0  0  0  0
   -4.1615   -5.9827   12.2226 N   0  0  0  0  0  0  0  0  0  0  0  0
   -4.0991   -6.6311   10.9730 C   0  0  0  0  0  0  0  0  0  0  0  0
   -3.0499   -7.2146   10.5077 O   0  0  0  0  0  0  0  0  0  0  0  0
   -2.9940   -5.9137   13.1281 C   0  0  0  0  0  0  0  0  0  0  0  0
   -3.2335   -5.2699   14.4234 C   0  0  0  0  0  0  0  0  0  0  0  0
   -2.5263   -4.0871   14.7748 N   0  0  0  0  0  0  0  0  0  0  0  0
   -3.1878   -3.0129   13.9864 C   0  0  0  0  0  0  0  0  0  0  0  0
   -2.2540   -1.8985   13.6496 C   0  0  0  0  0  0  0  0  0  0  0  0
   -1.3266   -2.2890   12.6801 O   0  0  0  0  0  0  0  0  0  0  0  0
   -1.0837   -3.6656   12.8122 C   0  0  0  0  0  0  0  0  0  0  0  0
   -1.1561   -4.0860   14.2633 C   0  0  0  0  0  0  0  0  0  0  0  0
  -12.0183   -6.8633    6.7647 C   0  0  0  0  0  0  0  0  0  0  0  0
  -12.6701   -8.6755    8.4001 C   0  0  0  0  0  0  0  0  0  0  0  0
  -13.0584   -8.9488    9.7322 C   0  0  0  0  0  0  0  0  0  0  0  0
  -13.1894   -7.9937   10.7007 C   0  0  0  0  0  0  0  0  0  0  0  0
  -13.6765   -8.3784   12.3457 Cl  0  0  0  0  0  0  0  0  0  0  0  0
  -12.9208   -6.6974   10.3269 C   0  0  0  0  0  0  0  0  0  0  0  0
  -12.5452   -6.4030    9.0520 C   0  0  0  0  0  0  0  0  0  0  0  0
  -12.4090   -7.4037    8.0400 C   0  0  0  0  0  0  0  0  0  0  0  0
  -13.3402  -10.8589    8.0031 F   0  0  0  0  0  0  0  0  0  0  0  0
  -12.5403   -9.7981    7.4596 C   0  0  0  0  0  0  0  0  0  0  0  0
  -13.0107   -9.6201    6.2133 F   0  0  0  0  0  0  0  0  0  0  0  0
  -11.2809  -10.4026    7.5549 F   0  0  0  0  0  0  0  0  0  0  0  0
 34 35  1  0  0  0
 35 36  1  0  0  0
 35 37  1  0  0  0
 35 27  1  0  0  0
 27 28  2  0  0  0
 28 29  1  0  0  0
 29 30  1  0  0  0
 29 31  2  0  0  0
 31 32  1  0  0  0
 32 33  2  0  0  0
 33 26  1  0  0  0
 26  1  1  0  0  0
  1  2  1  0  0  0
  2  3  2  0  0  0
  3  4  1  0  0  0
  4  5  2  0  0  0
  5  6  1  0  0  0
  6 10  1  0  0  0
 10 11  2  0  0  0
 11 12  1  0  0  0
 12 13  1  0  0  0
 13 14  2  0  0  0
 13 15  1  0  0  0
 15 18  1  0  0  0
 18 19  1  0  0  0
 19 20  1  0  0  0
 20 21  1  0  0  0
 21 22  1  0  0  0
 22 23  1  0  0  0
 23 24  1  0  0  0
 24 25  1  0  0  0
 15 16  1  0  0  0
 16 17  2  0  0  0
  6  7  2  0  0  0
  7  8  1  0  0  0
  8  9  2  0  0  0
 33 27  1  0  0  0
  9  1  1  0  0  0
  9  4  1  0  0  0
 16 11  1  0  0  0
 25 20  1  0  0  0
M  END
> <minimizedAffinity>
10.38118

> <CNNscore>
0.2468964905

> <CNNaffinity>
5.9800324440

> <CNN_VS>
1.4764490128

> <CNNaffinity_variance>
0.8794732094

$$$$
[H]OC(=O)C([H])([H])N1C(=O)S/C(=C(/[H])c2c([H])c([H])c3c(c([H])nn3C([H])([H])c3c([H])c([H])c(C(F)(F)F)c([H])c3C(F)(F)F)c2[H])C1=O


 37 40  0  0  0  0  0  0  0  0999 V2000
   -7.3469   -7.8808    7.9567 C   0  0  0  0  0  0  0  0  0  0  0  0
   -8.4189   -7.2480    8.6563 C   0  0  0  0  0  0  0  0  0  0  0  0
   -9.6929   -7.8077    8.5003 C   0  0  0  0  0  0  0  0  0  0  0  0
   -9.9810   -8.8916    7.7528 C   0  0  0  0  0  0  0  0  0  0  0  0
  -11.1126   -9.5946    7.5286 N   0  0  0  0  0  0  0  0  0  0  0  0
  -10.7346  -10.6279    6.7067 N   0  0  0  0  0  0  0  0  0  0  0  0
   -9.4304  -10.5677    6.4418 C   0  0  0  0  0  0  0  0  0  0  0  0
   -8.9156   -9.5115    7.0627 C   0  0  0  0  0  0  0  0  0  0  0  0
   -7.6335   -8.9257    7.2305 C   0  0  0  0  0  0  0  0  0  0  0  0
   -3.5024   -5.1481    6.6985 N   0  0  0  0  0  0  0  0  0  0  0  0
   -4.3882   -4.9531    5.5911 C   0  0  0  0  0  0  0  0  0  0  0  0
   -4.3936   -4.1010    4.6996 O   0  0  0  0  0  0  0  0  0  0  0  0
   -5.5899   -6.2783    5.7151 S   0  0  0  0  0  0  0  0  0  0  0  0
   -5.2693   -6.6415    7.4295 C   0  0  0  0  0  0  0  0  0  0  0  0
   -6.0438   -7.2917    8.2656 C   0  0  0  0  0  0  0  0  0  0  0  0
   -3.9835   -6.0560    7.6692 C   0  0  0  0  0  0  0  0  0  0  0  0
   -3.2603   -6.3140    8.7030 O   0  0  0  0  0  0  0  0  0  0  0  0
   -2.3495   -4.2829    6.8088 C   0  0  0  0  0  0  0  0  0  0  0  0
   -3.1500   -2.0080    6.5479 O   0  0  0  0  0  0  0  0  0  0  0  0
   -2.9268   -3.0222    7.5473 C   0  0  0  0  0  0  0  0  0  0  0  0
   -3.1131   -2.9588    8.6846 O   0  0  0  0  0  0  0  0  0  0  0  0
   -2.8385   -1.0677    6.6739 H   0  0  0  0  0  0  0  0  0  0  0  0
  -12.4717   -9.4240    7.9552 C   0  0  0  0  0  0  0  0  0  0  0  0
  -13.2667   -8.3980    7.2886 C   0  0  0  0  0  0  0  0  0  0  0  0
  -13.7189   -8.7890    5.9989 C   0  0  0  0  0  0  0  0  0  0  0  0
  -14.4298   -7.9434    5.2380 C   0  0  0  0  0  0  0  0  0  0  0  0
  -14.7553   -6.6429    5.6659 C   0  0  0  0  0  0  0  0  0  0  0  0
  -14.3106   -6.3155    6.9022 C   0  0  0  0  0  0  0  0  0  0  0  0
  -13.5661   -7.1665    7.7401 C   0  0  0  0  0  0  0  0  0  0  0  0
  -13.1293   -6.6191    9.0743 C   0  0  0  0  0  0  0  0  0  0  0  0
  -13.9526   -5.5106    9.3284 F   0  0  0  0  0  0  0  0  0  0  0  0
  -13.2380   -7.4469   10.1073 F   0  0  0  0  0  0  0  0  0  0  0  0
  -11.8810   -5.9957    8.9443 F   0  0  0  0  0  0  0  0  0  0  0  0
  -15.5446   -5.7408    4.7665 C   0  0  0  0  0  0  0  0  0  0  0  0
  -14.7716   -4.6826    4.3488 F   0  0  0  0  0  0  0  0  0  0  0  0
  -15.8232   -6.5362    3.6474 F   0  0  0  0  0  0  0  0  0  0  0  0
  -16.7067   -5.2889    5.3688 F   0  0  0  0  0  0  0  0  0  0  0  0
 19 20  1  0  0  0
 20 21  2  0  0  0
 20 18  1  0  0  0
 18 10  1  0  0  0
 10 11  1  0  0  0
 11 12  2  0  0  0
 11 13  1  0  0  0
 13 14  1  0  0  0
 14 15  2  0  0  0
 15  1  1  0  0  0
  1  2  2  0  0  0
  2  3  1  0  0  0
  3  4  2  0  0  0
  4  5  1  0  0  0
  5 23  1  0  0  0
 23 24  1  0  0  0
 24 25  2  0  0  0
 25 26  1  0  0  0
 26 27  2  0  0  0
 27 28  1  0  0  0
 28 29  2  0  0  0
 29 30  1  0  0  0
 30 31  1  0  0  0
 30 32  1  0  0  0
 30 33  1  0  0  0
 27 34  1  0  0  0
 34 35  1  0  0  0
 34 36  1  0  0  0
 34 37  1  0  0  0
  5  6  1  0  0  0
  6  7  2  0  0  0
  7  8  1  0  0  0
  8  9  2  0  0  0
 14 16  1  0  0  0
 16 17  2  0  0  0
 16 10  1  0  0  0
  9  1  1  0  0  0
  8  4  1  0  0  0
 29 24  1  0  0  0
 19 22  1  0  0  0
M  END
> <minimizedAffinity>
-9.33889

> <CNNscore>
0.5857828259

> <CNNaffinity>
7.0924997330

> <CNN_VS>
4.1546645164

> <CNNaffinity_variance>
0.2208870351

$$$$
[H]OC(=O)C([H])([H])N1C(=O)S/C(=C(/[H])c2c([H])c([H])c3c(c([H])nn3C([H])([H])c3c([H])c([H])c(C(F)(F)F)c([H])c3C(F)(F)F)c2[H])C1=O


 37 40  0  0  0  0  0  0  0  0999 V2000
   -8.0335   -7.3875    7.9406 C   0  0  0  0  0  0  0  0  0  0  0  0
   -9.2641   -6.8559    8.4325 C   0  0  0  0  0  0  0  0  0  0  0  0
  -10.4139   -7.6274    8.2243 C   0  0  0  0  0  0  0  0  0  0  0  0
  -10.4468   -8.8250    7.6071 C   0  0  0  0  0  0  0  0  0  0  0  0
  -11.4276   -9.7223    7.3662 N   0  0  0  0  0  0  0  0  0  0  0  0
  -10.8048  -10.7724    6.7373 N   0  0  0  0  0  0  0  0  0  0  0  0
   -9.5007  -10.5359    6.6024 C   0  0  0  0  0  0  0  0  0  0  0  0
   -9.2257   -9.3440    7.1222 C   0  0  0  0  0  0  0  0  0  0  0  0
   -8.0732   -8.5443    7.3391 C   0  0  0  0  0  0  0  0  0  0  0  0
   -3.2700   -6.3670    7.6258 N   0  0  0  0  0  0  0  0  0  0  0  0
   -3.4171   -7.4246    6.6723 C   0  0  0  0  0  0  0  0  0  0  0  0
   -2.6769   -7.8004    5.7603 O   0  0  0  0  0  0  0  0  0  0  0  0
   -4.9896   -8.1919    7.0645 S   0  0  0  0  0  0  0  0  0  0  0  0
   -5.6256   -6.8140    7.9976 C   0  0  0  0  0  0  0  0  0  0  0  0
   -6.8782   -6.5643    8.2983 C   0  0  0  0  0  0  0  0  0  0  0  0
   -4.4557   -6.0557    8.3295 C   0  0  0  0  0  0  0  0  0  0  0  0
   -4.4334   -5.1263    9.2205 O   0  0  0  0  0  0  0  0  0  0  0  0
   -2.0320   -5.6206    7.6293 C   0  0  0  0  0  0  0  0  0  0  0  0
   -2.4641   -3.2436    7.8467 O   0  0  0  0  0  0  0  0  0  0  0  0
   -2.4164   -4.3010    6.8684 C   0  0  0  0  0  0  0  0  0  0  0  0
   -2.6239   -4.2364    5.7349 O   0  0  0  0  0  0  0  0  0  0  0  0
   -3.2313   -2.6065    7.8956 H   0  0  0  0  0  0  0  0  0  0  0  0
  -12.8390   -9.7222    7.6230 C   0  0  0  0  0  0  0  0  0  0  0  0
  -13.6393   -8.6695    7.0061 C   0  0  0  0  0  0  0  0  0  0  0  0
  -13.8000   -8.8364    5.6036 C   0  0  0  0  0  0  0  0  0  0  0  0
  -14.4767   -7.9318    4.8803 C   0  0  0  0  0  0  0  0  0  0  0  0
  -15.0489   -6.7845    5.4604 C   0  0  0  0  0  0  0  0  0  0  0  0
  -14.8774   -6.6696    6.7986 C   0  0  0  0  0  0  0  0  0  0  0  0
  -14.1807   -7.5915    7.6018 C   0  0  0  0  0  0  0  0  0  0  0  0
  -14.0644   -7.2828    9.0720 C   0  0  0  0  0  0  0  0  0  0  0  0
  -12.9807   -8.0402    9.5442 F   0  0  0  0  0  0  0  0  0  0  0  0
  -13.8344   -6.0124    9.3841 F   0  0  0  0  0  0  0  0  0  0  0  0
  -15.1253   -7.8799    9.7663 F   0  0  0  0  0  0  0  0  0  0  0  0
  -15.7857   -5.8050    4.5982 C   0  0  0  0  0  0  0  0  0  0  0  0
  -14.9207   -4.8603    4.0971 F   0  0  0  0  0  0  0  0  0  0  0  0
  -16.2460   -6.5774    3.5239 F   0  0  0  0  0  0  0  0  0  0  0  0
  -16.8328   -5.1996    5.2723 F   0  0  0  0  0  0  0  0  0  0  0  0
 19 20  1  0  0  0
 20 21  2  0  0  0
 20 18  1  0  0  0
 18 10  1  0  0  0
 10 11  1  0  0  0
 11 12  2  0  0  0
 11 13  1  0  0  0
 13 14  1  0  0  0
 14 15  2  0  0  0
 15  1  1  0  0  0
  1  2  2  0  0  0
  2  3  1  0  0  0
  3  4  2  0  0  0
  4  5  1  0  0  0
  5 23  1  0  0  0
 23 24  1  0  0  0
 24 25  2  0  0  0
 25 26  1  0  0  0
 26 27  2  0  0  0
 27 28  1  0  0  0
 28 29  2  0  0  0
 29 30  1  0  0  0
 30 31  1  0  0  0
 30 32  1  0  0  0
 30 33  1  0  0  0
 27 34  1  0  0  0
 34 35  1  0  0  0
 34 36  1  0  0  0
 34 37  1  0  0  0
  5  6  1  0  0  0
  6  7  2  0  0  0
  7  8  1  0  0  0
  8  9  2  0  0  0
 14 16  1  0  0  0
 16 17  2  0  0  0
 16 10  1  0  0  0
  9  1  1  0  0  0
  8  4  1  0  0  0
 29 24  1  0  0  0
 19 22  1  0  0  0
M  END
> <minimizedAffinity>
-9.15535

> <CNNscore>
0.5555759668

> <CNNaffinity>
7.0335936546

> <CNN_VS>
3.9076955318

> <CNNaffinity_variance>
0.1839964092

$$$$
[H]OC(=O)C([H])([H])N1C(=O)S/C(=C(/[H])c2c([H])c([H])c3c(c([H])nn3C([H])([H])c3c([H])c([H])c(C(F)(F)F)c([H])c3C(F)(F)F)c2[H])C1=O


 37 40  0  0  0  0  0  0  0  0999 V2000
  -12.1080   -6.9720   10.1488 C   0  0  0  0  0  0  0  0  0  0  0  0
  -12.2818   -6.1489    8.9949 C   0  0  0  0  0  0  0  0  0  0  0  0
  -13.4772   -6.3039    8.2823 C   0  0  0  0  0  0  0  0  0  0  0  0
  -14.4697   -7.1574    8.6029 C   0  0  0  0  0  0  0  0  0  0  0  0
  -15.6911   -7.4040    8.0810 N   0  0  0  0  0  0  0  0  0  0  0  0
  -16.2429   -8.3596    8.8986 N   0  0  0  0  0  0  0  0  0  0  0  0
  -15.4033   -8.6823    9.8813 C   0  0  0  0  0  0  0  0  0  0  0  0
  -14.2902   -7.9691    9.7451 C   0  0  0  0  0  0  0  0  0  0  0  0
  -13.0698   -7.7999   10.4501 C   0  0  0  0  0  0  0  0  0  0  0  0
   -9.8193   -4.9276   13.9452 N   0  0  0  0  0  0  0  0  0  0  0  0
  -11.1971   -4.7418   14.2861 C   0  0  0  0  0  0  0  0  0  0  0  0
  -11.7337   -4.4561   15.3591 O   0  0  0  0  0  0  0  0  0  0  0  0
  -12.0961   -5.0025   12.7566 S   0  0  0  0  0  0  0  0  0  0  0  0
  -10.7828   -5.8801   11.9325 C   0  0  0  0  0  0  0  0  0  0  0  0
  -10.8816   -6.6634   10.8845 C   0  0  0  0  0  0  0  0  0  0  0  0
   -9.6134   -5.5313   12.6838 C   0  0  0  0  0  0  0  0  0  0  0  0
   -8.4104   -5.7350   12.2723 O   0  0  0  0  0  0  0  0  0  0  0  0
   -8.8258   -4.6768   14.9650 C   0  0  0  0  0  0  0  0  0  0  0  0
   -9.8176   -2.4631   14.9534 O   0  0  0  0  0  0  0  0  0  0  0  0
   -8.5511   -3.1372   14.8156 C   0  0  0  0  0  0  0  0  0  0  0  0
   -7.5119   -2.6741   14.6215 O   0  0  0  0  0  0  0  0  0  0  0  0
  -10.1120   -1.7597   14.3089 H   0  0  0  0  0  0  0  0  0  0  0  0
  -16.3885   -6.8912    6.9370 C   0  0  0  0  0  0  0  0  0  0  0  0
  -15.9469   -7.3361    5.6194 C   0  0  0  0  0  0  0  0  0  0  0  0
  -15.0732   -8.4562    5.6696 C   0  0  0  0  0  0  0  0  0  0  0  0
  -14.5459   -8.9632    4.5451 C   0  0  0  0  0  0  0  0  0  0  0  0
  -14.8197   -8.4184    3.2768 C   0  0  0  0  0  0  0  0  0  0  0  0
  -15.6614   -7.3577    3.2755 C   0  0  0  0  0  0  0  0  0  0  0  0
  -16.2433   -6.7919    4.4252 C   0  0  0  0  0  0  0  0  0  0  0  0
  -17.1337   -5.5915    4.2338 C   0  0  0  0  0  0  0  0  0  0  0  0
  -16.7810   -4.6807    5.2423 F   0  0  0  0  0  0  0  0  0  0  0  0
  -17.0233   -4.9644    3.0681 F   0  0  0  0  0  0  0  0  0  0  0  0
  -18.4449   -5.9095    4.6129 F   0  0  0  0  0  0  0  0  0  0  0  0
  -14.1930   -9.0234    2.0574 C   0  0  0  0  0  0  0  0  0  0  0  0
  -12.9653   -9.5618    2.3650 F   0  0  0  0  0  0  0  0  0  0  0  0
  -15.0518  -10.0783    1.7222 F   0  0  0  0  0  0  0  0  0  0  0  0
  -14.0809   -8.1124    1.0207 F   0  0  0  0  0  0  0  0  0  0  0  0
 19 20  1  0  0  0
 20 21  2  0  0  0
 20 18  1  0  0  0
 18 10  1  0  0  0
 10 11  1  0  0  0
 11 12  2  0  0  0
 11 13  1  0  0  0
 13 14  1  0  0  0
 14 15  2  0  0  0
 15  1  1  0  0  0
  1  2  2  0  0  0
  2  3  1  0  0  0
  3  4  2  0  0  0
  4  5  1  0  0  0
  5 23  1  0  0  0
 23 24  1  0  0  0
 24 25  2  0  0  0
 25 26  1  0  0  0
 26 27  2  0  0  0
 27 28  1  0  0  0
 28 29  2  0  0  0
 29 30  1  0  0  0
 30 31  1  0  0  0
 30 32  1  0  0  0
 30 33  1  0  0  0
 27 34  1  0  0  0
 34 35  1  0  0  0
 34 36  1  0  0  0
 34 37  1  0  0  0
  5  6  1  0  0  0
  6  7  2  0  0  0
  7  8  1  0  0  0
  8  9  2  0  0  0
 14 16  1  0  0  0
 16 17  2  0  0  0
 16 10  1  0  0  0
  9  1  1  0  0  0
  8  4  1  0  0  0
 29 24  1  0  0  0
 19 22  1  0  0  0
M  END
> <minimizedAffinity>
12.17743

> <CNNscore>
0.5431656837

> <CNNaffinity>
6.9644341469

> <CNN_VS>
3.7828416824

> <CNNaffinity_variance>
1.4732472897

$$$$
[H]OC(=O)C([H])([H])N1C(=O)S/C(=C(/[H])c2c([H])c([H])c3c(c([H])nn3C([H])([H])c3c([H])c([H])c(C(F)(F)F)c([H])c3C(F)(F)F)c2[H])C1=O


 37 40  0  0  0  0  0  0  0  0999 V2000
  -12.2234   -7.4560    9.7043 C   0  0  0  0  0  0  0  0  0  0  0  0
  -12.1617   -7.2314    8.2955 C   0  0  0  0  0  0  0  0  0  0  0  0
  -13.3231   -7.5008    7.5611 C   0  0  0  0  0  0  0  0  0  0  0  0
  -14.4856   -7.9453    8.0781 C   0  0  0  0  0  0  0  0  0  0  0  0
  -15.7016   -8.2042    7.5495 N   0  0  0  0  0  0  0  0  0  0  0  0
  -16.4813   -8.5824    8.6150 N   0  0  0  0  0  0  0  0  0  0  0  0
  -15.7804   -8.5521    9.7474 C   0  0  0  0  0  0  0  0  0  0  0  0
  -14.5388   -8.1662    9.4724 C   0  0  0  0  0  0  0  0  0  0  0  0
  -13.3497   -7.8916   10.1974 C   0  0  0  0  0  0  0  0  0  0  0  0
   -9.9784   -5.2615   13.4426 N   0  0  0  0  0  0  0  0  0  0  0  0
  -11.3525   -5.2070   13.8401 C   0  0  0  0  0  0  0  0  0  0  0  0
  -11.8691   -4.9859   14.9378 O   0  0  0  0  0  0  0  0  0  0  0  0
  -12.2851   -5.5285   12.3426 S   0  0  0  0  0  0  0  0  0  0  0  0
  -10.9319   -6.2713   11.4532 C   0  0  0  0  0  0  0  0  0  0  0  0
  -11.0014   -7.0464   10.3967 C   0  0  0  0  0  0  0  0  0  0  0  0
   -9.7696   -5.8270   12.1641 C   0  0  0  0  0  0  0  0  0  0  0  0
   -8.5707   -5.9144   11.7025 O   0  0  0  0  0  0  0  0  0  0  0  0
   -8.9714   -4.9345   14.4269 C   0  0  0  0  0  0  0  0  0  0  0  0
  -10.5641   -3.1995   15.0076 O   0  0  0  0  0  0  0  0  0  0  0  0
   -9.1826   -3.3931   14.6455 C   0  0  0  0  0  0  0  0  0  0  0  0
   -8.3579   -2.5956   14.5190 O   0  0  0  0  0  0  0  0  0  0  0  0
  -11.1297   -2.5023   14.5706 H   0  0  0  0  0  0  0  0  0  0  0  0
  -16.2158   -8.1638    6.2109 C   0  0  0  0  0  0  0  0  0  0  0  0
  -15.9371   -6.9735    5.4142 C   0  0  0  0  0  0  0  0  0  0  0  0
  -14.9548   -6.1267    5.9962 C   0  0  0  0  0  0  0  0  0  0  0  0
  -14.6131   -4.9706    5.4078 C   0  0  0  0  0  0  0  0  0  0  0  0
  -15.2036   -4.5380    4.2060 C   0  0  0  0  0  0  0  0  0  0  0  0
  -16.1283   -5.3782    3.6838 C   0  0  0  0  0  0  0  0  0  0  0  0
  -16.5182   -6.6019    4.2591 C   0  0  0  0  0  0  0  0  0  0  0  0
  -17.5876   -7.3926    3.5509 C   0  0  0  0  0  0  0  0  0  0  0  0
  -18.3884   -7.9535    4.5584 F   0  0  0  0  0  0  0  0  0  0  0  0
  -18.3831   -6.7021    2.7417 F   0  0  0  0  0  0  0  0  0  0  0  0
  -17.0275   -8.5468    2.9867 F   0  0  0  0  0  0  0  0  0  0  0  0
  -14.7865   -3.2317    3.6015 C   0  0  0  0  0  0  0  0  0  0  0  0
  -14.2268   -2.4167    4.5577 F   0  0  0  0  0  0  0  0  0  0  0  0
  -13.7782   -3.5837    2.6948 F   0  0  0  0  0  0  0  0  0  0  0  0
  -15.8370   -2.5903    2.9672 F   0  0  0  0  0  0  0  0  0  0  0  0
 19 20  1  0  0  0
 20 21  2  0  0  0
 20 18  1  0  0  0
 18 10  1  0  0  0
 10 11  1  0  0  0
 11 12  2  0  0  0
 11 13  1  0  0  0
 13 14  1  0  0  0
 14 15  2  0  0  0
 15  1  1  0  0  0
  1  2  2  0  0  0
  2  3  1  0  0  0
  3  4  2  0  0  0
  4  5  1  0  0  0
  5 23  1  0  0  0
 23 24  1  0  0  0
 24 25  2  0  0  0
 25 26  1  0  0  0
 26 27  2  0  0  0
 27 28  1  0  0  0
 28 29  2  0  0  0
 29 30  1  0  0  0
 30 31  1  0  0  0
 30 32  1  0  0  0
 30 33  1  0  0  0
 27 34  1  0  0  0
 34 35  1  0  0  0
 34 36  1  0  0  0
 34 37  1  0  0  0
  5  6  1  0  0  0
  6  7  2  0  0  0
  7  8  1  0  0  0
  8  9  2  0  0  0
 14 16  1  0  0  0
 16 17  2  0  0  0
 16 10  1  0  0  0
  9  1  1  0  0  0
  8  4  1  0  0  0
 29 24  1  0  0  0
 19 22  1  0  0  0
M  END
> <minimizedAffinity>
8.91330

> <CNNscore>
0.5402379036

> <CNNaffinity>
6.8881149292

> <CNN_VS>
3.7212207317

> <CNNaffinity_variance>
1.1998132467

$$$$
[H]OC(=O)C([H])([H])N1C(=O)S/C(=C(/[H])c2c([H])c([H])c3c(c([H])nn3C([H])([H])c3c([H])c([H])c(C(F)(F)F)c([H])c3C(F)(F)F)c2[H])C1=O


 37 40  0  0  0  0  0  0  0  0999 V2000
   -7.2192   -7.1002    6.4654 C   0  0  0  0  0  0  0  0  0  0  0  0
   -8.2446   -6.3460    7.1127 C   0  0  0  0  0  0  0  0  0  0  0  0
   -9.3708   -7.0548    7.5487 C   0  0  0  0  0  0  0  0  0  0  0  0
   -9.5563   -8.3826    7.4115 C   0  0  0  0  0  0  0  0  0  0  0  0
  -10.5285   -9.2331    7.8071 N   0  0  0  0  0  0  0  0  0  0  0  0
  -10.1031  -10.4749    7.4034 N   0  0  0  0  0  0  0  0  0  0  0  0
   -8.9217  -10.3940    6.7930 C   0  0  0  0  0  0  0  0  0  0  0  0
   -8.5382   -9.1218    6.7692 C   0  0  0  0  0  0  0  0  0  0  0  0
   -7.4077   -8.3838    6.3307 C   0  0  0  0  0  0  0  0  0  0  0  0
   -2.3778   -6.5866    6.1077 N   0  0  0  0  0  0  0  0  0  0  0  0
   -2.5122   -7.9739    6.4339 C   0  0  0  0  0  0  0  0  0  0  0  0
   -1.7114   -8.9075    6.3437 O   0  0  0  0  0  0  0  0  0  0  0  0
   -4.1817   -8.1459    7.0651 S   0  0  0  0  0  0  0  0  0  0  0  0
   -4.7910   -6.6294    6.3560 C   0  0  0  0  0  0  0  0  0  0  0  0
   -6.0416   -6.2941    6.1433 C   0  0  0  0  0  0  0  0  0  0  0  0
   -3.6019   -5.8804    6.0751 C   0  0  0  0  0  0  0  0  0  0  0  0
   -3.5956   -4.6219    5.8029 O   0  0  0  0  0  0  0  0  0  0  0  0
   -1.0855   -6.1132    5.6653 C   0  0  0  0  0  0  0  0  0  0  0  0
   -1.4955   -4.8854    3.6138 O   0  0  0  0  0  0  0  0  0  0  0  0
   -1.1944   -6.2080    4.1009 C   0  0  0  0  0  0  0  0  0  0  0  0
   -1.0606   -7.1804    3.4938 O   0  0  0  0  0  0  0  0  0  0  0  0
   -2.2255   -4.7219    2.9525 H   0  0  0  0  0  0  0  0  0  0  0  0
  -11.7810   -9.0431    8.4804 C   0  0  0  0  0  0  0  0  0  0  0  0
  -12.7875   -8.2199    7.8183 C   0  0  0  0  0  0  0  0  0  0  0  0
  -13.2378   -8.7676    6.5863 C   0  0  0  0  0  0  0  0  0  0  0  0
  -14.1346   -8.1127    5.8338 C   0  0  0  0  0  0  0  0  0  0  0  0
  -14.6643   -6.8657    6.2142 C   0  0  0  0  0  0  0  0  0  0  0  0
  -14.2131   -6.3852    7.3971 C   0  0  0  0  0  0  0  0  0  0  0  0
  -13.2777   -7.0345    8.2241 C   0  0  0  0  0  0  0  0  0  0  0  0
  -12.8683   -6.3331    9.4933 C   0  0  0  0  0  0  0  0  0  0  0  0
  -13.0498   -7.2641   10.5283 F   0  0  0  0  0  0  0  0  0  0  0  0
  -11.6096   -5.9123    9.5462 F   0  0  0  0  0  0  0  0  0  0  0  0
  -13.8287   -5.3708    9.8331 F   0  0  0  0  0  0  0  0  0  0  0  0
  -15.6567   -6.1782    5.3264 C   0  0  0  0  0  0  0  0  0  0  0  0
  -15.7004   -6.7861    4.0934 F   0  0  0  0  0  0  0  0  0  0  0  0
  -16.8876   -6.4000    5.9575 F   0  0  0  0  0  0  0  0  0  0  0  0
  -15.3912   -4.8256    5.1949 F   0  0  0  0  0  0  0  0  0  0  0  0
 19 20  1  0  0  0
 20 21  2  0  0  0
 20 18  1  0  0  0
 18 10  1  0  0  0
 10 11  1  0  0  0
 11 12  2  0  0  0
 11 13  1  0  0  0
 13 14  1  0  0  0
 14 15  2  0  0  0
 15  1  1  0  0  0
  1  2  2  0  0  0
  2  3  1  0  0  0
  3  4  2  0  0  0
  4  5  1  0  0  0
  5 23  1  0  0  0
 23 24  1  0  0  0
 24 25  2  0  0  0
 25 26  1  0  0  0
 26 27  2  0  0  0
 27 28  1  0  0  0
 28 29  2  0  0  0
 29 30  1  0  0  0
 30 31  1  0  0  0
 30 32  1  0  0  0
 30 33  1  0  0  0
 27 34  1  0  0  0
 34 35  1  0  0  0
 34 36  1  0  0  0
 34 37  1  0  0  0
  5  6  1  0  0  0
  6  7  2  0  0  0
  7  8  1  0  0  0
  8  9  2  0  0  0
 14 16  1  0  0  0
 16 17  2  0  0  0
 16 10  1  0  0  0
  9  1  1  0  0  0
  8  4  1  0  0  0
 29 24  1  0  0  0
 19 22  1  0  0  0
M  END
> <minimizedAffinity>
-9.24312

> <CNNscore>
0.5266296864

> <CNNaffinity>
7.0660071373

> <CNN_VS>
3.7211692333

> <CNNaffinity_variance>
0.0812290832

$$$$
[H]OC(=O)C([H])([H])N1C(=O)S/C(=C(/[H])c2c([H])c([H])c3c(c([H])nn3C([H])([H])c3c([H])c([H])c(C(F)(F)F)c([H])c3C(F)(F)F)c2[H])C1=O


 37 40  0  0  0  0  0  0  0  0999 V2000
   -7.1585   -7.0961    6.3188 C   0  0  0  0  0  0  0  0  0  0  0  0
   -8.1898   -6.3289    6.9407 C   0  0  0  0  0  0  0  0  0  0  0  0
   -9.2916   -7.0361    7.4373 C   0  0  0  0  0  0  0  0  0  0  0  0
   -9.4486   -8.3734    7.3797 C   0  0  0  0  0  0  0  0  0  0  0  0
  -10.3939   -9.2211    7.8412 N   0  0  0  0  0  0  0  0  0  0  0  0
   -9.9467  -10.4744    7.5013 N   0  0  0  0  0  0  0  0  0  0  0  0
   -8.7782  -10.4026    6.8657 C   0  0  0  0  0  0  0  0  0  0  0  0
   -8.4248   -9.1257    6.7620 C   0  0  0  0  0  0  0  0  0  0  0  0
   -7.3194   -8.3892    6.2613 C   0  0  0  0  0  0  0  0  0  0  0  0
   -2.8764   -5.0001    7.3681 N   0  0  0  0  0  0  0  0  0  0  0  0
   -3.1359   -5.7668    8.5487 C   0  0  0  0  0  0  0  0  0  0  0  0
   -2.3911   -6.1128    9.4687 O   0  0  0  0  0  0  0  0  0  0  0  0
   -4.8822   -6.1668    8.4716 S   0  0  0  0  0  0  0  0  0  0  0  0
   -5.0521   -5.8599    6.7249 C   0  0  0  0  0  0  0  0  0  0  0  0
   -6.0055   -6.2839    5.9294 C   0  0  0  0  0  0  0  0  0  0  0  0
   -3.9102   -5.0549    6.4057 C   0  0  0  0  0  0  0  0  0  0  0  0
   -3.7853   -4.3917    5.3090 O   0  0  0  0  0  0  0  0  0  0  0  0
   -1.5559   -4.4365    7.1988 C   0  0  0  0  0  0  0  0  0  0  0  0
   -2.0722   -2.1507    6.5719 O   0  0  0  0  0  0  0  0  0  0  0  0
   -1.7352   -2.9631    7.7137 C   0  0  0  0  0  0  0  0  0  0  0  0
   -1.6022   -2.6334    8.8118 O   0  0  0  0  0  0  0  0  0  0  0  0
   -1.6106   -1.2846    6.3879 H   0  0  0  0  0  0  0  0  0  0  0  0
  -11.6387   -9.0205    8.5255 C   0  0  0  0  0  0  0  0  0  0  0  0
  -12.6534   -8.2093    7.8611 C   0  0  0  0  0  0  0  0  0  0  0  0
  -13.0580   -8.7362    6.6044 C   0  0  0  0  0  0  0  0  0  0  0  0
  -13.9560   -8.0875    5.8479 C   0  0  0  0  0  0  0  0  0  0  0  0
  -14.5314   -6.8673    6.2482 C   0  0  0  0  0  0  0  0  0  0  0  0
  -14.1227   -6.4062    7.4540 C   0  0  0  0  0  0  0  0  0  0  0  0
  -13.1881   -7.0501    8.2860 C   0  0  0  0  0  0  0  0  0  0  0  0
  -12.8297   -6.3718    9.5829 C   0  0  0  0  0  0  0  0  0  0  0  0
  -13.6679   -5.2497    9.6796 F   0  0  0  0  0  0  0  0  0  0  0  0
  -12.9966   -7.0953   10.6842 F   0  0  0  0  0  0  0  0  0  0  0  0
  -11.5768   -5.7552    9.4641 F   0  0  0  0  0  0  0  0  0  0  0  0
  -15.5227   -6.1851    5.3550 C   0  0  0  0  0  0  0  0  0  0  0  0
  -15.2190   -4.8493    5.2318 F   0  0  0  0  0  0  0  0  0  0  0  0
  -15.3242   -6.7869    4.1055 F   0  0  0  0  0  0  0  0  0  0  0  0
  -16.8247   -6.3512    5.7962 F   0  0  0  0  0  0  0  0  0  0  0  0
 19 20  1  0  0  0
 20 21  2  0  0  0
 20 18  1  0  0  0
 18 10  1  0  0  0
 10 11  1  0  0  0
 11 12  2  0  0  0
 11 13  1  0  0  0
 13 14  1  0  0  0
 14 15  2  0  0  0
 15  1  1  0  0  0
  1  2  2  0  0  0
  2  3  1  0  0  0
  3  4  2  0  0  0
  4  5  1  0  0  0
  5 23  1  0  0  0
 23 24  1  0  0  0
 24 25  2  0  0  0
 25 26  1  0  0  0
 26 27  2  0  0  0
 27 28  1  0  0  0
 28 29  2  0  0  0
 29 30  1  0  0  0
 30 31  1  0  0  0
 30 32  1  0  0  0
 30 33  1  0  0  0
 27 34  1  0  0  0
 34 35  1  0  0  0
 34 36  1  0  0  0
 34 37  1  0  0  0
  5  6  1  0  0  0
  6  7  2  0  0  0
  7  8  1  0  0  0
  8  9  2  0  0  0
 14 16  1  0  0  0
 16 17  2  0  0  0
 16 10  1  0  0  0
  9  1  1  0  0  0
  8  4  1  0  0  0
 29 24  1  0  0  0
 19 22  1  0  0  0
M  END
> <minimizedAffinity>
-9.08330

> <CNNscore>
0.4839356542

> <CNNaffinity>
6.9424104691

> <CNN_VS>
3.3596799374

> <CNNaffinity_variance>
0.1895262897

$$$$
[H]OC(=O)C([H])([H])N1C(=O)S/C(=C(/[H])c2c([H])c([H])c3c(c([H])nn3C([H])([H])c3c([H])c([H])c(C(F)(F)F)c([H])c3C(F)(F)F)c2[H])C1=O


 37 40  0  0  0  0  0  0  0  0999 V2000
   -7.4001   -8.5010    7.7410 C   0  0  0  0  0  0  0  0  0  0  0  0
   -7.9502   -9.7286    7.2620 C   0  0  0  0  0  0  0  0  0  0  0  0
   -9.3465   -9.8150    7.2028 C   0  0  0  0  0  0  0  0  0  0  0  0
  -10.2028   -8.8351    7.5536 C   0  0  0  0  0  0  0  0  0  0  0  0
  -11.5479   -8.7156    7.5154 N   0  0  0  0  0  0  0  0  0  0  0  0
  -11.8067   -7.4445    7.9665 N   0  0  0  0  0  0  0  0  0  0  0  0
  -10.6742   -6.8088    8.2630 C   0  0  0  0  0  0  0  0  0  0  0  0
   -9.6513   -7.6240    8.0276 C   0  0  0  0  0  0  0  0  0  0  0  0
   -8.2344   -7.5590    8.0843 C   0  0  0  0  0  0  0  0  0  0  0  0
   -3.2643   -6.4779    6.1183 N   0  0  0  0  0  0  0  0  0  0  0  0
   -4.2548   -5.5513    5.6607 C   0  0  0  0  0  0  0  0  0  0  0  0
   -4.1518   -4.3906    5.2570 O   0  0  0  0  0  0  0  0  0  0  0  0
   -5.8093   -6.4388    5.7670 S   0  0  0  0  0  0  0  0  0  0  0  0
   -5.2205   -7.6824    6.8986 C   0  0  0  0  0  0  0  0  0  0  0  0
   -5.9394   -8.4678    7.6655 C   0  0  0  0  0  0  0  0  0  0  0  0
   -3.7947   -7.6132    6.7723 C   0  0  0  0  0  0  0  0  0  0  0  0
   -2.9916   -8.5175    7.2145 O   0  0  0  0  0  0  0  0  0  0  0  0
   -1.8761   -6.0801    6.0491 C   0  0  0  0  0  0  0  0  0  0  0  0
   -1.0603   -8.0198    4.8423 O   0  0  0  0  0  0  0  0  0  0  0  0
   -1.4212   -6.6374    4.6524 C   0  0  0  0  0  0  0  0  0  0  0  0
   -1.3876   -6.0166    3.6800 O   0  0  0  0  0  0  0  0  0  0  0  0
   -0.2075   -8.3949    4.4833 H   0  0  0  0  0  0  0  0  0  0  0  0
  -12.6002   -9.6152    7.1395 C   0  0  0  0  0  0  0  0  0  0  0  0
  -13.8168   -9.0373    6.5783 C   0  0  0  0  0  0  0  0  0  0  0  0
  -13.8814   -9.1336    5.1615 C   0  0  0  0  0  0  0  0  0  0  0  0
  -14.9182   -8.6140    4.4873 C   0  0  0  0  0  0  0  0  0  0  0  0
  -15.9770   -7.9509    5.1351 C   0  0  0  0  0  0  0  0  0  0  0  0
  -15.8777   -7.8885    6.4841 C   0  0  0  0  0  0  0  0  0  0  0  0
  -14.8146   -8.4205    7.2372 C   0  0  0  0  0  0  0  0  0  0  0  0
  -14.8579   -8.2290    8.7312 C   0  0  0  0  0  0  0  0  0  0  0  0
  -16.2014   -8.3905    9.1053 F   0  0  0  0  0  0  0  0  0  0  0  0
  -14.1347   -9.0810    9.4489 F   0  0  0  0  0  0  0  0  0  0  0  0
  -14.6590   -6.8767    9.0409 F   0  0  0  0  0  0  0  0  0  0  0  0
  -17.1035   -7.3831    4.3262 C   0  0  0  0  0  0  0  0  0  0  0  0
  -18.1065   -8.3129    4.1801 F   0  0  0  0  0  0  0  0  0  0  0  0
  -17.5985   -6.3396    5.1190 F   0  0  0  0  0  0  0  0  0  0  0  0
  -16.6799   -6.9236    3.0905 F   0  0  0  0  0  0  0  0  0  0  0  0
 19 20  1  0  0  0
 20 21  2  0  0  0
 20 18  1  0  0  0
 18 10  1  0  0  0
 10 11  1  0  0  0
 11 12  2  0  0  0
 11 13  1  0  0  0
 13 14  1  0  0  0
 14 15  2  0  0  0
 15  1  1  0  0  0
  1  2  2  0  0  0
  2  3  1  0  0  0
  3  4  2  0  0  0
  4  5  1  0  0  0
  5 23  1  0  0  0
 23 24  1  0  0  0
 24 25  2  0  0  0
 25 26  1  0  0  0
 26 27  2  0  0  0
 27 28  1  0  0  0
 28 29  2  0  0  0
 29 30  1  0  0  0
 30 31  1  0  0  0
 30 32  1  0  0  0
 30 33  1  0  0  0
 27 34  1  0  0  0
 34 35  1  0  0  0
 34 36  1  0  0  0
 34 37  1  0  0  0
  5  6  1  0  0  0
  6  7  2  0  0  0
  7  8  1  0  0  0
  8  9  2  0  0  0
 14 16  1  0  0  0
 16 17  2  0  0  0
 16 10  1  0  0  0
  9  1  1  0  0  0
  8  4  1  0  0  0
 29 24  1  0  0  0
 19 22  1  0  0  0
M  END
> <minimizedAffinity>
-9.96025

> <CNNscore>
0.4645467103

> <CNNaffinity>
6.9170179367

> <CNN_VS>
3.2132778168

> <CNNaffinity_variance>
0.2092646807

$$$$
[H]OC(=O)C([H])([H])N1C(=O)S/C(=C(/[H])c2c([H])c([H])c3c(c([H])nn3C([H])([H])c3c([H])c([H])c(C(F)(F)F)c([H])c3C(F)(F)F)c2[H])C1=O


 37 40  0  0  0  0  0  0  0  0999 V2000
   -6.8644   -5.5688   14.1482 C   0  0  0  0  0  0  0  0  0  0  0  0
   -6.2770   -4.3400   13.7192 C   0  0  0  0  0  0  0  0  0  0  0  0
   -4.8876   -4.3306   13.5448 C   0  0  0  0  0  0  0  0  0  0  0  0
   -4.0710   -5.3843   13.7427 C   0  0  0  0  0  0  0  0  0  0  0  0
   -2.7442   -5.5785   13.5778 N   0  0  0  0  0  0  0  0  0  0  0  0
   -2.5324   -6.8954   13.9050 N   0  0  0  0  0  0  0  0  0  0  0  0
   -3.6756   -7.4862   14.2496 C   0  0  0  0  0  0  0  0  0  0  0  0
   -4.6592   -6.5962   14.1682 C   0  0  0  0  0  0  0  0  0  0  0  0
   -6.0677   -6.5829   14.3434 C   0  0  0  0  0  0  0  0  0  0  0  0
  -11.2156   -5.8406   11.9520 N   0  0  0  0  0  0  0  0  0  0  0  0
  -10.3214   -6.2219   10.9012 C   0  0  0  0  0  0  0  0  0  0  0  0
  -10.5313   -6.7874    9.8256 O   0  0  0  0  0  0  0  0  0  0  0  0
   -8.7011   -5.6819   11.4477 S   0  0  0  0  0  0  0  0  0  0  0  0
   -9.1382   -5.5407   13.1690 C   0  0  0  0  0  0  0  0  0  0  0  0
   -8.3254   -5.5104   14.1986 C   0  0  0  0  0  0  0  0  0  0  0  0
  -10.5697   -5.4744   13.1548 C   0  0  0  0  0  0  0  0  0  0  0  0
  -11.2796   -5.1028   14.1627 O   0  0  0  0  0  0  0  0  0  0  0  0
  -12.6315   -6.0533   11.7519 C   0  0  0  0  0  0  0  0  0  0  0  0
  -13.3468   -6.0351    9.4340 O   0  0  0  0  0  0  0  0  0  0  0  0
  -12.9477   -5.1544   10.5028 C   0  0  0  0  0  0  0  0  0  0  0  0
  -12.8546   -4.0041   10.4845 O   0  0  0  0  0  0  0  0  0  0  0  0
  -12.9639   -5.9548    8.5155 H   0  0  0  0  0  0  0  0  0  0  0  0
   -1.6702   -4.7138   13.1819 C   0  0  0  0  0  0  0  0  0  0  0  0
   -1.9820   -3.6238   12.2634 C   0  0  0  0  0  0  0  0  0  0  0  0
   -1.8234   -2.3369   12.8462 C   0  0  0  0  0  0  0  0  0  0  0  0
   -2.1086   -1.2291   12.1456 C   0  0  0  0  0  0  0  0  0  0  0  0
   -2.5784   -1.2806   10.8201 C   0  0  0  0  0  0  0  0  0  0  0  0
   -2.7079   -2.5254   10.3032 C   0  0  0  0  0  0  0  0  0  0  0  0
   -2.4185   -3.7167   10.9942 C   0  0  0  0  0  0  0  0  0  0  0  0
   -2.6525   -5.0155   10.2670 C   0  0  0  0  0  0  0  0  0  0  0  0
   -3.8619   -5.5271   10.7637 F   0  0  0  0  0  0  0  0  0  0  0  0
   -2.7627   -4.9319    8.9460 F   0  0  0  0  0  0  0  0  0  0  0  0
   -1.7489   -5.9839   10.7253 F   0  0  0  0  0  0  0  0  0  0  0  0
   -2.8886   -0.0080   10.0920 C   0  0  0  0  0  0  0  0  0  0  0  0
   -1.7347    0.6999    9.8486 F   0  0  0  0  0  0  0  0  0  0  0  0
   -3.3963   -0.4374    8.8590 F   0  0  0  0  0  0  0  0  0  0  0  0
   -3.8064    0.7736   10.7734 F   0  0  0  0  0  0  0  0  0  0  0  0
 19 20  1  0  0  0
 20 21  2  0  0  0
 20 18  1  0  0  0
 18 10  1  0  0  0
 10 11  1  0  0  0
 11 12  2  0  0  0
 11 13  1  0  0  0
 13 14  1  0  0  0
 14 15  2  0  0  0
 15  1  1  0  0  0
  1  2  2  0  0  0
  2  3  1  0  0  0
  3  4  2  0  0  0
  4  5  1  0  0  0
  5 23  1  0  0  0
 23 24  1  0  0  0
 24 25  2  0  0  0
 25 26  1  0  0  0
 26 27  2  0  0  0
 27 28  1  0  0  0
 28 29  2  0  0  0
 29 30  1  0  0  0
 30 31  1  0  0  0
 30 32  1  0  0  0
 30 33  1  0  0  0
 27 34  1  0  0  0
 34 35  1  0  0  0
 34 36  1  0  0  0
 34 37  1  0  0  0
  5  6  1  0  0  0
  6  7  2  0  0  0
  7  8  1  0  0  0
  8  9  2  0  0  0
 14 16  1  0  0  0
 16 17  2  0  0  0
 16 10  1  0  0  0
  9  1  1  0  0  0
  8  4  1  0  0  0
 29 24  1  0  0  0
 19 22  1  0  0  0
M  END
> <minimizedAffinity>
8.39937

> <CNNscore>
0.4423523545

> <CNNaffinity>
5.6253767014

> <CNN_VS>
2.4883985519

> <CNNaffinity_variance>
1.6340286732

$$$$
[H]OC(=O)C([H])([H])N1C(=O)S/C(=C(/[H])c2c([H])c([H])c3c(c([H])nn3C([H])([H])c3c([H])c([H])c(C(F)(F)F)c([H])c3C(F)(F)F)c2[H])C1=O


 37 40  0  0  0  0  0  0  0  0999 V2000
  -13.1020   -7.8332    9.3611 C   0  0  0  0  0  0  0  0  0  0  0  0
  -12.6400   -6.4840    9.2880 C   0  0  0  0  0  0  0  0  0  0  0  0
  -12.2340   -5.8891   10.4888 C   0  0  0  0  0  0  0  0  0  0  0  0
  -12.2396   -6.4888   11.6958 C   0  0  0  0  0  0  0  0  0  0  0  0
  -11.8436   -6.1043   12.9289 N   0  0  0  0  0  0  0  0  0  0  0  0
  -12.0661   -7.1958   13.7322 N   0  0  0  0  0  0  0  0  0  0  0  0
  -12.5698   -8.2070   13.0261 C   0  0  0  0  0  0  0  0  0  0  0  0
  -12.6991   -7.8231   11.7604 C   0  0  0  0  0  0  0  0  0  0  0  0
  -13.1103   -8.4057   10.5331 C   0  0  0  0  0  0  0  0  0  0  0  0
  -15.0332   -7.4456    4.8945 N   0  0  0  0  0  0  0  0  0  0  0  0
  -15.1833   -6.1170    5.4059 C   0  0  0  0  0  0  0  0  0  0  0  0
  -15.4182   -5.0509    4.8322 O   0  0  0  0  0  0  0  0  0  0  0  0
  -14.9680   -6.2720    7.1793 S   0  0  0  0  0  0  0  0  0  0  0  0
  -14.1446   -7.8505    7.1155 C   0  0  0  0  0  0  0  0  0  0  0  0
  -13.4013   -8.4008    8.0463 C   0  0  0  0  0  0  0  0  0  0  0  0
  -14.4826   -8.3612    5.8199 C   0  0  0  0  0  0  0  0  0  0  0  0
  -14.3146   -9.5883    5.4674 O   0  0  0  0  0  0  0  0  0  0  0  0
  -15.2599   -7.6616    3.4831 C   0  0  0  0  0  0  0  0  0  0  0  0
  -17.3480   -7.4245    4.6948 O   0  0  0  0  0  0  0  0  0  0  0  0
  -16.8265   -7.7302    3.3864 C   0  0  0  0  0  0  0  0  0  0  0  0
  -17.4116   -7.9913    2.4264 O   0  0  0  0  0  0  0  0  0  0  0  0
  -18.0511   -7.9875    5.1255 H   0  0  0  0  0  0  0  0  0  0  0  0
  -11.3143   -4.8764   13.4484 C   0  0  0  0  0  0  0  0  0  0  0  0
   -9.8732   -4.7974   13.6629 C   0  0  0  0  0  0  0  0  0  0  0  0
   -9.1960   -6.0137   13.3749 C   0  0  0  0  0  0  0  0  0  0  0  0
   -7.8714   -6.1191   13.5589 C   0  0  0  0  0  0  0  0  0  0  0  0
   -7.0948   -5.0510   14.0450 C   0  0  0  0  0  0  0  0  0  0  0  0
   -7.7793   -3.9106   14.2993 C   0  0  0  0  0  0  0  0  0  0  0  0
   -9.1655   -3.7481   14.1193 C   0  0  0  0  0  0  0  0  0  0  0  0
   -9.7614   -2.4133   14.4849 C   0  0  0  0  0  0  0  0  0  0  0  0
   -8.8248   -1.7849   15.3209 F   0  0  0  0  0  0  0  0  0  0  0  0
  -10.0135   -1.5910   13.4727 F   0  0  0  0  0  0  0  0  0  0  0  0
  -10.8270   -2.5989   15.3760 F   0  0  0  0  0  0  0  0  0  0  0  0
   -5.6199   -5.2327   14.2383 C   0  0  0  0  0  0  0  0  0  0  0  0
   -5.3007   -6.5702   14.2708 F   0  0  0  0  0  0  0  0  0  0  0  0
   -5.0555   -4.6854   13.0787 F   0  0  0  0  0  0  0  0  0  0  0  0
   -5.1592   -4.5929   15.3766 F   0  0  0  0  0  0  0  0  0  0  0  0
 19 20  1  0  0  0
 20 21  2  0  0  0
 20 18  1  0  0  0
 18 10  1  0  0  0
 10 11  1  0  0  0
 11 12  2  0  0  0
 11 13  1  0  0  0
 13 14  1  0  0  0
 14 15  2  0  0  0
 15  1  1  0  0  0
  1  2  2  0  0  0
  2  3  1  0  0  0
  3  4  2  0  0  0
  4  5  1  0  0  0
  5 23  1  0  0  0
 23 24  1  0  0  0
 24 25  2  0  0  0
 25 26  1  0  0  0
 26 27  2  0  0  0
 27 28  1  0  0  0
 28 29  2  0  0  0
 29 30  1  0  0  0
 30 31  1  0  0  0
 30 32  1  0  0  0
 30 33  1  0  0  0
 27 34  1  0  0  0
 34 35  1  0  0  0
 34 36  1  0  0  0
 34 37  1  0  0  0
  5  6  1  0  0  0
  6  7  2  0  0  0
  7  8  1  0  0  0
  8  9  2  0  0  0
 14 16  1  0  0  0
 16 17  2  0  0  0
 16 10  1  0  0  0
  9  1  1  0  0  0
  8  4  1  0  0  0
 29 24  1  0  0  0
 19 22  1  0  0  0
M  END
> <minimizedAffinity>
15.79510

> <CNNscore>
0.3934846222

> <CNNaffinity>
6.2207412720

> <CNN_VS>
2.4477660656

> <CNNaffinity_variance>
1.0723240376

$$$$
[H]Oc1c([H])c([H])c(-c2nc3c([H])c([H])c(O[H])c([H])c3c(C([H])=C([H])[H])c2[H])c([H])c1[H]


 22 24  0  0  0  0  0  0  0  0999 V2000
   -9.2091   -7.8613    7.8636 C   0  0  0  0  0  0  0  0  0  0  0  0
   -9.8288   -6.9120    8.6324 C   0  0  0  0  0  0  0  0  0  0  0  0
  -11.2183   -6.9078    8.8634 C   0  0  0  0  0  0  0  0  0  0  0  0
  -11.9405   -7.9142    8.2773 C   0  0  0  0  0  0  0  0  0  0  0  0
  -13.3020   -7.9922    8.4698 C   0  0  0  0  0  0  0  0  0  0  0  0
  -13.9685   -9.0472    7.8571 C   0  0  0  0  0  0  0  0  0  0  0  0
  -15.3223   -9.1392    8.0373 O   0  0  0  0  0  0  0  0  0  0  0  0
  -13.3249   -9.9909    7.0855 C   0  0  0  0  0  0  0  0  0  0  0  0
  -11.9718   -9.8955    6.9087 C   0  0  0  0  0  0  0  0  0  0  0  0
  -11.2644   -8.8547    7.5047 C   0  0  0  0  0  0  0  0  0  0  0  0
   -9.9401   -8.8409    7.2954 N   0  0  0  0  0  0  0  0  0  0  0  0
  -15.9055   -9.8620    7.6404 H   0  0  0  0  0  0  0  0  0  0  0  0
   -3.6492   -7.6999    7.1146 O   0  0  0  0  0  0  0  0  0  0  0  0
   -5.0280   -7.7485    7.2901 C   0  0  0  0  0  0  0  0  0  0  0  0
   -5.6162   -7.0053    8.2759 C   0  0  0  0  0  0  0  0  0  0  0  0
   -6.9749   -7.0482    8.4547 C   0  0  0  0  0  0  0  0  0  0  0  0
   -7.7726   -7.8469    7.6375 C   0  0  0  0  0  0  0  0  0  0  0  0
   -7.1564   -8.5977    6.6379 C   0  0  0  0  0  0  0  0  0  0  0  0
   -5.7813   -8.5511    6.4605 C   0  0  0  0  0  0  0  0  0  0  0  0
   -3.0020   -8.3142    7.5753 H   0  0  0  0  0  0  0  0  0  0  0  0
  -11.7749   -5.8612    9.7001 C   0  0  0  0  0  0  0  0  0  0  0  0
  -12.2805   -6.0355   10.8947 C   0  0  0  0  0  0  0  0  0  0  0  0
 13 14  1  0  0  0
 14 15  2  0  0  0
 15 16  1  0  0  0
 16 17  2  0  0  0
 17 18  1  0  0  0
 18 19  2  0  0  0
 17  1  1  0  0  0
  1  2  2  0  0  0
  2  3  1  0  0  0
  3 21  1  0  0  0
 21 22  2  0  0  0
  3  4  2  0  0  0
  4  5  1  0  0  0
  5  6  2  0  0  0
  6  7  1  0  0  0
  6  8  1  0  0  0
  8  9  2  0  0  0
  9 10  1  0  0  0
 10 11  2  0  0  0
 19 14  1  0  0  0
 11  1  1  0  0  0
 10  4  1  0  0  0
 13 20  1  0  0  0
  7 12  1  0  0  0
M  END
> <minimizedAffinity>
-9.05953

> <CNNscore>
0.7194483876

> <CNNaffinity>
6.0109024048

> <CNN_VS>
4.3245339394

> <CNNaffinity_variance>
0.0769696683

$$$$
[H]Oc1c([H])c([H])c(-c2nc3c([H])c([H])c(O[H])c([H])c3c(C([H])=C([H])[H])c2[H])c([H])c1[H]


 22 24  0  0  0  0  0  0  0  0999 V2000
  -10.2823   -7.7003    7.9785 C   0  0  0  0  0  0  0  0  0  0  0  0
  -10.7033   -6.9405    9.0376 C   0  0  0  0  0  0  0  0  0  0  0  0
  -12.0530   -6.8689    9.4341 C   0  0  0  0  0  0  0  0  0  0  0  0
  -12.9469   -7.6072    8.7035 C   0  0  0  0  0  0  0  0  0  0  0  0
  -14.2828   -7.6066    9.0384 C   0  0  0  0  0  0  0  0  0  0  0  0
  -15.1302   -8.3896    8.2628 C   0  0  0  0  0  0  0  0  0  0  0  0
  -16.4615   -8.3997    8.5814 O   0  0  0  0  0  0  0  0  0  0  0  0
  -14.6851   -9.1454    7.1996 C   0  0  0  0  0  0  0  0  0  0  0  0
  -13.3538   -9.1329    6.8852 C   0  0  0  0  0  0  0  0  0  0  0  0
  -12.4695   -8.3628    7.6360 C   0  0  0  0  0  0  0  0  0  0  0  0
  -11.1798   -8.4169    7.2731 N   0  0  0  0  0  0  0  0  0  0  0  0
  -17.1648   -8.9305    8.0878 H   0  0  0  0  0  0  0  0  0  0  0  0
   -4.8915   -7.7727    6.4187 O   0  0  0  0  0  0  0  0  0  0  0  0
   -6.2265   -7.7676    6.8087 C   0  0  0  0  0  0  0  0  0  0  0  0
   -6.9662   -6.6235    6.6917 C   0  0  0  0  0  0  0  0  0  0  0  0
   -8.2828   -6.6110    7.0742 C   0  0  0  0  0  0  0  0  0  0  0  0
   -8.8834   -7.7598    7.5857 C   0  0  0  0  0  0  0  0  0  0  0  0
   -8.1146   -8.9169    7.6979 C   0  0  0  0  0  0  0  0  0  0  0  0
   -6.7827   -8.9249    7.3096 C   0  0  0  0  0  0  0  0  0  0  0  0
   -4.1265   -7.5504    7.0301 H   0  0  0  0  0  0  0  0  0  0  0  0
  -12.3933   -6.0401   10.5755 C   0  0  0  0  0  0  0  0  0  0  0  0
  -12.8366   -4.8102   10.5128 C   0  0  0  0  0  0  0  0  0  0  0  0
 13 14  1  0  0  0
 14 15  2  0  0  0
 15 16  1  0  0  0
 16 17  2  0  0  0
 17 18  1  0  0  0
 18 19  2  0  0  0
 17  1  1  0  0  0
  1  2  2  0  0  0
  2  3  1  0  0  0
  3 21  1  0  0  0
 21 22  2  0  0  0
  3  4  2  0  0  0
  4  5  1  0  0  0
  5  6  2  0  0  0
  6  7  1  0  0  0
  6  8  1  0  0  0
  8  9  2  0  0  0
  9 10  1  0  0  0
 10 11  2  0  0  0
 19 14  1  0  0  0
 11  1  1  0  0  0
 10  4  1  0  0  0
 13 20  1  0  0  0
  7 12  1  0  0  0
M  END
> <minimizedAffinity>
-9.60248

> <CNNscore>
0.6414837837

> <CNNaffinity>
6.0381212234

> <CNN_VS>
3.8733568192

> <CNNaffinity_variance>
0.0286584590

$$$$
[H]Oc1c([H])c([H])c(-c2nc3c([H])c([H])c(O[H])c([H])c3c(C([H])=C([H])[H])c2[H])c([H])c1[H]


 22 24  0  0  0  0  0  0  0  0999 V2000
  -10.2891   -7.6470    7.9572 C   0  0  0  0  0  0  0  0  0  0  0  0
  -10.7110   -6.9092    9.0313 C   0  0  0  0  0  0  0  0  0  0  0  0
  -12.0597   -6.8533    9.4338 C   0  0  0  0  0  0  0  0  0  0  0  0
  -12.9516   -7.5838    8.6930 C   0  0  0  0  0  0  0  0  0  0  0  0
  -14.2863   -7.5977    9.0326 C   0  0  0  0  0  0  0  0  0  0  0  0
  -15.1316   -8.3718    8.2459 C   0  0  0  0  0  0  0  0  0  0  0  0
  -16.4616   -8.3961    8.5689 O   0  0  0  0  0  0  0  0  0  0  0  0
  -14.6856   -9.1055    7.1675 C   0  0  0  0  0  0  0  0  0  0  0  0
  -13.3556   -9.0789    6.8488 C   0  0  0  0  0  0  0  0  0  0  0  0
  -12.4733   -8.3170    7.6104 C   0  0  0  0  0  0  0  0  0  0  0  0
  -11.1847   -8.3564    7.2420 N   0  0  0  0  0  0  0  0  0  0  0  0
  -17.1633   -8.9223    8.0682 H   0  0  0  0  0  0  0  0  0  0  0  0
   -4.8904   -7.9736    6.4584 O   0  0  0  0  0  0  0  0  0  0  0  0
   -6.2283   -7.8798    6.8265 C   0  0  0  0  0  0  0  0  0  0  0  0
   -6.8819   -8.9809    7.3063 C   0  0  0  0  0  0  0  0  0  0  0  0
   -8.2009   -8.8958    7.6710 C   0  0  0  0  0  0  0  0  0  0  0  0
   -8.8913   -7.6906    7.5584 C   0  0  0  0  0  0  0  0  0  0  0  0
   -8.2095   -6.5785    7.0675 C   0  0  0  0  0  0  0  0  0  0  0  0
   -6.8749   -6.6692    6.6997 C   0  0  0  0  0  0  0  0  0  0  0  0
   -4.5770   -8.2141    5.5351 H   0  0  0  0  0  0  0  0  0  0  0  0
  -12.4010   -6.0475   10.5912 C   0  0  0  0  0  0  0  0  0  0  0  0
  -12.8713   -4.8267   10.5518 C   0  0  0  0  0  0  0  0  0  0  0  0
 13 14  1  0  0  0
 14 15  2  0  0  0
 15 16  1  0  0  0
 16 17  2  0  0  0
 17 18  1  0  0  0
 18 19  2  0  0  0
 17  1  1  0  0  0
  1  2  2  0  0  0
  2  3  1  0  0  0
  3 21  1  0  0  0
 21 22  2  0  0  0
  3  4  2  0  0  0
  4  5  1  0  0  0
  5  6  2  0  0  0
  6  7  1  0  0  0
  6  8  1  0  0  0
  8  9  2  0  0  0
  9 10  1  0  0  0
 10 11  2  0  0  0
 19 14  1  0  0  0
 11  1  1  0  0  0
 10  4  1  0  0  0
 13 20  1  0  0  0
  7 12  1  0  0  0
M  END
> <minimizedAffinity>
-9.64457

> <CNNscore>
0.6330691576

> <CNNaffinity>
6.0465240479

> <CNN_VS>
3.8278679848

> <CNNaffinity_variance>
0.0334487036

$$$$
[H]Oc1c([H])c([H])c(-c2nc3c([H])c([H])c(O[H])c([H])c3c(C([H])=C([H])[H])c2[H])c([H])c1[H]


 22 24  0  0  0  0  0  0  0  0999 V2000
  -10.8124   -7.3862    8.7131 C   0  0  0  0  0  0  0  0  0  0  0  0
   -9.4716   -7.1544    8.5560 C   0  0  0  0  0  0  0  0  0  0  0  0
   -8.6566   -7.9392    7.7170 C   0  0  0  0  0  0  0  0  0  0  0  0
   -9.2723   -8.9646    7.0483 C   0  0  0  0  0  0  0  0  0  0  0  0
   -8.5494   -9.7668    6.1935 C   0  0  0  0  0  0  0  0  0  0  0  0
   -9.2415  -10.7784    5.5376 C   0  0  0  0  0  0  0  0  0  0  0  0
   -8.5378  -11.5857    4.6850 O   0  0  0  0  0  0  0  0  0  0  0  0
  -10.5915  -10.9952    5.7120 C   0  0  0  0  0  0  0  0  0  0  0  0
  -11.2909  -10.1856    6.5644 C   0  0  0  0  0  0  0  0  0  0  0  0
  -10.6373   -9.1596    7.2418 C   0  0  0  0  0  0  0  0  0  0  0  0
  -11.3963   -8.4018    8.0464 N   0  0  0  0  0  0  0  0  0  0  0  0
   -8.9374  -12.3490    4.1579 H   0  0  0  0  0  0  0  0  0  0  0  0
  -13.8656   -4.2026   12.1831 O   0  0  0  0  0  0  0  0  0  0  0  0
  -13.1193   -4.9921   11.3148 C   0  0  0  0  0  0  0  0  0  0  0  0
  -11.8330   -5.3284   11.6346 C   0  0  0  0  0  0  0  0  0  0  0  0
  -11.0913   -6.1064   10.7834 C   0  0  0  0  0  0  0  0  0  0  0  0
  -11.6358   -6.5637    9.5849 C   0  0  0  0  0  0  0  0  0  0  0  0
  -12.9483   -6.2113    9.2750 C   0  0  0  0  0  0  0  0  0  0  0  0
  -13.6950   -5.4240   10.1393 C   0  0  0  0  0  0  0  0  0  0  0  0
  -13.8924   -3.1993   12.1480 H   0  0  0  0  0  0  0  0  0  0  0  0
   -7.2484   -7.6048    7.6147 C   0  0  0  0  0  0  0  0  0  0  0  0
   -6.6692   -6.5822    8.1909 C   0  0  0  0  0  0  0  0  0  0  0  0
 13 14  1  0  0  0
 14 15  2  0  0  0
 15 16  1  0  0  0
 16 17  2  0  0  0
 17 18  1  0  0  0
 18 19  2  0  0  0
 17  1  1  0  0  0
  1  2  2  0  0  0
  2  3  1  0  0  0
  3 21  1  0  0  0
 21 22  2  0  0  0
  3  4  2  0  0  0
  4  5  1  0  0  0
  5  6  2  0  0  0
  6  7  1  0  0  0
  6  8  1  0  0  0
  8  9  2  0  0  0
  9 10  1  0  0  0
 10 11  2  0  0  0
 19 14  1  0  0  0
 11  1  1  0  0  0
 10  4  1  0  0  0
 13 20  1  0  0  0
  7 12  1  0  0  0
M  END
> <minimizedAffinity>
4.03031

> <CNNscore>
0.4859506786

> <CNNaffinity>
5.5613803864

> <CNN_VS>
2.7025566101

> <CNNaffinity_variance>
1.2108479738

$$$$
[H]Oc1c([H])c([H])c(-c2nc3c([H])c([H])c(O[H])c([H])c3c(C([H])=C([H])[H])c2[H])c([H])c1[H]


 22 24  0  0  0  0  0  0  0  0999 V2000
  -18.2197   -8.2893    6.0942 C   0  0  0  0  0  0  0  0  0  0  0  0
  -18.6443   -7.4684    5.0832 C   0  0  0  0  0  0  0  0  0  0  0  0
  -17.8078   -6.5093    4.4794 C   0  0  0  0  0  0  0  0  0  0  0  0
  -16.5242   -6.4301    4.9526 C   0  0  0  0  0  0  0  0  0  0  0  0
  -15.6374   -5.5313    4.4024 C   0  0  0  0  0  0  0  0  0  0  0  0
  -14.3480   -5.5155    4.9218 C   0  0  0  0  0  0  0  0  0  0  0  0
  -13.4541   -4.6273    4.3870 O   0  0  0  0  0  0  0  0  0  0  0  0
  -13.9424   -6.3497    5.9414 C   0  0  0  0  0  0  0  0  0  0  0  0
  -14.8388   -7.2362    6.4723 C   0  0  0  0  0  0  0  0  0  0  0  0
  -16.1410   -7.2860    5.9817 C   0  0  0  0  0  0  0  0  0  0  0  0
  -16.9531   -8.1922    6.5448 N   0  0  0  0  0  0  0  0  0  0  0  0
  -12.4944   -4.5299    4.6862 H   0  0  0  0  0  0  0  0  0  0  0  0
  -21.6826  -12.1149    8.3013 O   0  0  0  0  0  0  0  0  0  0  0  0
  -20.8194  -11.1647    7.7664 C   0  0  0  0  0  0  0  0  0  0  0  0
  -20.8491  -10.8946    6.4262 C   0  0  0  0  0  0  0  0  0  0  0  0
  -20.0010   -9.9591    5.8920 C   0  0  0  0  0  0  0  0  0  0  0  0
  -19.1002   -9.2728    6.7042 C   0  0  0  0  0  0  0  0  0  0  0  0
  -19.0836   -9.5607    8.0678 C   0  0  0  0  0  0  0  0  0  0  0  0
  -19.9436  -10.5081    8.6040 C   0  0  0  0  0  0  0  0  0  0  0  0
  -21.4616  -13.0909    8.3855 H   0  0  0  0  0  0  0  0  0  0  0  0
  -18.3532   -5.6943    3.4100 C   0  0  0  0  0  0  0  0  0  0  0  0
  -18.0175   -5.7777    2.1478 C   0  0  0  0  0  0  0  0  0  0  0  0
 13 14  1  0  0  0
 14 15  2  0  0  0
 15 16  1  0  0  0
 16 17  2  0  0  0
 17 18  1  0  0  0
 18 19  2  0  0  0
 17  1  1  0  0  0
  1  2  2  0  0  0
  2  3  1  0  0  0
  3 21  1  0  0  0
 21 22  2  0  0  0
  3  4  2  0  0  0
  4  5  1  0  0  0
  5  6  2  0  0  0
  6  7  1  0  0  0
  6  8  1  0  0  0
  8  9  2  0  0  0
  9 10  1  0  0  0
 10 11  2  0  0  0
 19 14  1  0  0  0
 11  1  1  0  0  0
 10  4  1  0  0  0
 13 20  1  0  0  0
  7 12  1  0  0  0
M  END
> <minimizedAffinity>
4.13772

> <CNNscore>
0.4666317701

> <CNNaffinity>
5.7694616318

> <CNN_VS>
2.6922140121

> <CNNaffinity_variance>
1.4685838223

$$$$
[H]Oc1c([H])c([H])c(-c2nc3c([H])c([H])c(O[H])c([H])c3c(C([H])=C([H])[H])c2[H])c([H])c1[H]


 22 24  0  0  0  0  0  0  0  0999 V2000
  -18.3513   -8.1678    5.8664 C   0  0  0  0  0  0  0  0  0  0  0  0
  -18.8188   -7.1851    5.0344 C   0  0  0  0  0  0  0  0  0  0  0  0
  -17.9880   -6.1805    4.5010 C   0  0  0  0  0  0  0  0  0  0  0  0
  -16.6646   -6.2277    4.8537 C   0  0  0  0  0  0  0  0  0  0  0  0
  -15.7824   -5.2927    4.3592 C   0  0  0  0  0  0  0  0  0  0  0  0
  -14.4526   -5.4098    4.7473 C   0  0  0  0  0  0  0  0  0  0  0  0
  -13.5625   -4.4881    4.2657 O   0  0  0  0  0  0  0  0  0  0  0  0
  -14.0040   -6.4061    5.5875 C   0  0  0  0  0  0  0  0  0  0  0  0
  -14.8969   -7.3255    6.0658 C   0  0  0  0  0  0  0  0  0  0  0  0
  -16.2386   -7.2459    5.7023 C   0  0  0  0  0  0  0  0  0  0  0  0
  -17.0459   -8.1932    6.2011 N   0  0  0  0  0  0  0  0  0  0  0  0
  -12.5758   -4.4773    4.4812 H   0  0  0  0  0  0  0  0  0  0  0  0
  -21.6720  -12.1025    8.1002 O   0  0  0  0  0  0  0  0  0  0  0  0
  -20.8539  -11.1303    7.5346 C   0  0  0  0  0  0  0  0  0  0  0  0
  -20.0190  -10.3952    8.3299 C   0  0  0  0  0  0  0  0  0  0  0  0
  -19.2098   -9.4351    7.7792 C   0  0  0  0  0  0  0  0  0  0  0  0
  -19.2266   -9.1958    6.4065 C   0  0  0  0  0  0  0  0  0  0  0  0
  -20.0837   -9.9543    5.6110 C   0  0  0  0  0  0  0  0  0  0  0  0
  -20.9007  -10.9247    6.1725 C   0  0  0  0  0  0  0  0  0  0  0  0
  -22.6028  -11.9286    8.4349 H   0  0  0  0  0  0  0  0  0  0  0  0
  -18.5813   -5.1897    3.6226 C   0  0  0  0  0  0  0  0  0  0  0  0
  -17.9356   -4.4916    2.7233 C   0  0  0  0  0  0  0  0  0  0  0  0
 13 14  1  0  0  0
 14 15  2  0  0  0
 15 16  1  0  0  0
 16 17  2  0  0  0
 17 18  1  0  0  0
 18 19  2  0  0  0
 17  1  1  0  0  0
  1  2  2  0  0  0
  2  3  1  0  0  0
  3 21  1  0  0  0
 21 22  2  0  0  0
  3  4  2  0  0  0
  4  5  1  0  0  0
  5  6  2  0  0  0
  6  7  1  0  0  0
  6  8  1  0  0  0
  8  9  2  0  0  0
  9 10  1  0  0  0
 10 11  2  0  0  0
 19 14  1  0  0  0
 11  1  1  0  0  0
 10  4  1  0  0  0
 13 20  1  0  0  0
  7 12  1  0  0  0
M  END
> <minimizedAffinity>
2.98709

> <CNNscore>
0.4637785256

> <CNNaffinity>
5.6613674164

> <CNN_VS>
2.6256206036

> <CNNaffinity_variance>
0.9352825284

$$$$
[H]Oc1c([H])c([H])c(-c2nc3c([H])c([H])c(O[H])c([H])c3c(C([H])=C([H])[H])c2[H])c([H])c1[H]


 22 24  0  0  0  0  0  0  0  0999 V2000
   -8.8956   -7.9395    7.8615 C   0  0  0  0  0  0  0  0  0  0  0  0
   -9.7550   -8.8668    7.3345 C   0  0  0  0  0  0  0  0  0  0  0  0
  -11.1219   -8.9157    7.6712 C   0  0  0  0  0  0  0  0  0  0  0  0
  -11.5674   -7.9771    8.5647 C   0  0  0  0  0  0  0  0  0  0  0  0
  -12.8946   -7.9451    8.9314 C   0  0  0  0  0  0  0  0  0  0  0  0
  -13.2791   -6.9572    9.8307 C   0  0  0  0  0  0  0  0  0  0  0  0
  -14.5946   -6.9117   10.2067 O   0  0  0  0  0  0  0  0  0  0  0  0
  -12.3966   -6.0347   10.3504 C   0  0  0  0  0  0  0  0  0  0  0  0
  -11.0831   -6.0834    9.9714 C   0  0  0  0  0  0  0  0  0  0  0  0
  -10.6546   -7.0564    9.0723 C   0  0  0  0  0  0  0  0  0  0  0  0
   -9.3559   -7.0269    8.7401 N   0  0  0  0  0  0  0  0  0  0  0  0
  -14.9833   -6.2388   10.8518 H   0  0  0  0  0  0  0  0  0  0  0  0
   -3.4945   -7.9040    6.3362 O   0  0  0  0  0  0  0  0  0  0  0  0
   -4.8299   -7.9055    6.7249 C   0  0  0  0  0  0  0  0  0  0  0  0
   -5.7594   -8.5631    5.9675 C   0  0  0  0  0  0  0  0  0  0  0  0
   -7.0776   -8.5688    6.3445 C   0  0  0  0  0  0  0  0  0  0  0  0
   -7.4873   -7.9069    7.5004 C   0  0  0  0  0  0  0  0  0  0  0  0
   -6.5266   -7.2417    8.2602 C   0  0  0  0  0  0  0  0  0  0  0  0
   -5.1939   -7.2388    7.8750 C   0  0  0  0  0  0  0  0  0  0  0  0
   -3.0844   -7.2106    5.7366 H   0  0  0  0  0  0  0  0  0  0  0  0
  -11.9489   -9.9334    7.0501 C   0  0  0  0  0  0  0  0  0  0  0  0
  -12.9121   -9.7073    6.1933 C   0  0  0  0  0  0  0  0  0  0  0  0
 13 14  1  0  0  0
 14 15  2  0  0  0
 15 16  1  0  0  0
 16 17  2  0  0  0
 17 18  1  0  0  0
 18 19  2  0  0  0
 17  1  1  0  0  0
  1  2  2  0  0  0
  2  3  1  0  0  0
  3 21  1  0  0  0
 21 22  2  0  0  0
  3  4  2  0  0  0
  4  5  1  0  0  0
  5  6  2  0  0  0
  6  7  1  0  0  0
  6  8  1  0  0  0
  8  9  2  0  0  0
  9 10  1  0  0  0
 10 11  2  0  0  0
 19 14  1  0  0  0
 11  1  1  0  0  0
 10  4  1  0  0  0
 13 20  1  0  0  0
  7 12  1  0  0  0
M  END
> <minimizedAffinity>
-8.12828

> <CNNscore>
0.4089522660

> <CNNaffinity>
5.6089582443

> <CNN_VS>
2.2937963009

> <CNNaffinity_variance>
0.0466736853

$$$$
[H]Oc1c([H])c([H])c(-c2nc3c([H])c([H])c(O[H])c([H])c3c(C([H])=C([H])[H])c2[H])c([H])c1[H]


 22 24  0  0  0  0  0  0  0  0999 V2000
   -8.8900   -7.9487    7.7818 C   0  0  0  0  0  0  0  0  0  0  0  0
   -9.7721   -8.8765    7.2947 C   0  0  0  0  0  0  0  0  0  0  0  0
  -11.1307   -8.9034    7.6658 C   0  0  0  0  0  0  0  0  0  0  0  0
  -11.5439   -7.9423    8.5509 C   0  0  0  0  0  0  0  0  0  0  0  0
  -12.8612   -7.8881    8.9493 C   0  0  0  0  0  0  0  0  0  0  0  0
  -13.2127   -6.8783    9.8378 C   0  0  0  0  0  0  0  0  0  0  0  0
  -14.5179   -6.8106   10.2449 O   0  0  0  0  0  0  0  0  0  0  0  0
  -12.3077   -5.9556   10.3170 C   0  0  0  0  0  0  0  0  0  0  0  0
  -11.0047   -6.0266    9.9069 C   0  0  0  0  0  0  0  0  0  0  0  0
  -10.6090   -7.0220    9.0173 C   0  0  0  0  0  0  0  0  0  0  0  0
   -9.3187   -7.0137    8.6529 N   0  0  0  0  0  0  0  0  0  0  0  0
  -14.8833   -6.1207   10.8857 H   0  0  0  0  0  0  0  0  0  0  0  0
   -3.4545   -7.8283    6.3893 O   0  0  0  0  0  0  0  0  0  0  0  0
   -4.8041   -7.8649    6.7232 C   0  0  0  0  0  0  0  0  0  0  0  0
   -5.2354   -7.2816    7.8824 C   0  0  0  0  0  0  0  0  0  0  0  0
   -6.5644   -7.3138    8.2180 C   0  0  0  0  0  0  0  0  0  0  0  0
   -7.4909   -7.9390    7.3857 C   0  0  0  0  0  0  0  0  0  0  0  0
   -7.0337   -8.5283    6.2082 C   0  0  0  0  0  0  0  0  0  0  0  0
   -5.6881   -8.4932    5.8726 C   0  0  0  0  0  0  0  0  0  0  0  0
   -2.7894   -8.5305    6.6596 H   0  0  0  0  0  0  0  0  0  0  0  0
  -11.9837   -9.9238    7.0858 C   0  0  0  0  0  0  0  0  0  0  0  0
  -12.9109   -9.7141    6.1861 C   0  0  0  0  0  0  0  0  0  0  0  0
 13 14  1  0  0  0
 14 15  2  0  0  0
 15 16  1  0  0  0
 16 17  2  0  0  0
 17 18  1  0  0  0
 18 19  2  0  0  0
 17  1  1  0  0  0
  1  2  2  0  0  0
  2  3  1  0  0  0
  3 21  1  0  0  0
 21 22  2  0  0  0
  3  4  2  0  0  0
  4  5  1  0  0  0
  5  6  2  0  0  0
  6  7  1  0  0  0
  6  8  1  0  0  0
  8  9  2  0  0  0
  9 10  1  0  0  0
 10 11  2  0  0  0
 19 14  1  0  0  0
 11  1  1  0  0  0
 10  4  1  0  0  0
 13 20  1  0  0  0
  7 12  1  0  0  0
M  END
> <minimizedAffinity>
-8.12939

> <CNNscore>
0.3969001770

> <CNNaffinity>
5.5997347832

> <CNN_VS>
2.2225356102

> <CNNaffinity_variance>
0.0504365154

$$$$
[H]Oc1c([H])c([H])c(-c2nc3c([H])c([H])c(O[H])c([H])c3c(C([H])=C([H])[H])c2[H])c([H])c1[H]


 22 24  0  0  0  0  0  0  0  0999 V2000
   -6.3679   -7.7391    7.7651 C   0  0  0  0  0  0  0  0  0  0  0  0
   -5.3643   -8.2707    6.9993 C   0  0  0  0  0  0  0  0  0  0  0  0
   -4.0377   -7.7997    7.0493 C   0  0  0  0  0  0  0  0  0  0  0  0
   -3.7856   -6.7676    7.9148 C   0  0  0  0  0  0  0  0  0  0  0  0
   -2.5102   -6.2623    8.0372 C   0  0  0  0  0  0  0  0  0  0  0  0
   -2.3244   -5.2255    8.9445 C   0  0  0  0  0  0  0  0  0  0  0  0
   -1.0630   -4.7109    9.0779 O   0  0  0  0  0  0  0  0  0  0  0  0
   -3.3497   -4.7041    9.7041 C   0  0  0  0  0  0  0  0  0  0  0  0
   -4.6085   -5.2220    9.5682 C   0  0  0  0  0  0  0  0  0  0  0  0
   -4.8394   -6.2616    8.6710 C   0  0  0  0  0  0  0  0  0  0  0  0
   -6.0967   -6.7230    8.6082 N   0  0  0  0  0  0  0  0  0  0  0  0
   -0.8142   -3.9592    9.7048 H   0  0  0  0  0  0  0  0  0  0  0  0
  -11.5713   -9.8210    7.4660 O   0  0  0  0  0  0  0  0  0  0  0  0
  -10.2868   -9.2932    7.5433 C   0  0  0  0  0  0  0  0  0  0  0  0
   -9.2053  -10.0936    7.2992 C   0  0  0  0  0  0  0  0  0  0  0  0
   -7.9362   -9.5801    7.3736 C   0  0  0  0  0  0  0  0  0  0  0  0
   -7.7313   -8.2403    7.6977 C   0  0  0  0  0  0  0  0  0  0  0  0
   -8.8450   -7.4391    7.9434 C   0  0  0  0  0  0  0  0  0  0  0  0
  -10.1273   -7.9629    7.8669 C   0  0  0  0  0  0  0  0  0  0  0  0
  -12.0565  -10.2347    8.2418 H   0  0  0  0  0  0  0  0  0  0  0  0
   -3.0473   -8.4374    6.2022 C   0  0  0  0  0  0  0  0  0  0  0  0
   -2.1058   -9.2471    6.6156 C   0  0  0  0  0  0  0  0  0  0  0  0
 13 14  1  0  0  0
 14 15  2  0  0  0
 15 16  1  0  0  0
 16 17  2  0  0  0
 17 18  1  0  0  0
 18 19  2  0  0  0
 17  1  1  0  0  0
  1  2  2  0  0  0
  2  3  1  0  0  0
  3 21  1  0  0  0
 21 22  2  0  0  0
  3  4  2  0  0  0
  4  5  1  0  0  0
  5  6  2  0  0  0
  6  7  1  0  0  0
  6  8  1  0  0  0
  8  9  2  0  0  0
  9 10  1  0  0  0
 10 11  2  0  0  0
 19 14  1  0  0  0
 11  1  1  0  0  0
 10  4  1  0  0  0
 13 20  1  0  0  0
  7 12  1  0  0  0
M  END
> <minimizedAffinity>
-6.50761

> <CNNscore>
0.3702905178

> <CNNaffinity>
4.7127366066

> <CNN_VS>
1.7450816631

> <CNNaffinity_variance>
0.0226596966

$$$$
[H]Oc1c([H])c([H])c2c(c1[H])OC([H])([H])c1c-2nc2c([H])c([H])c(O[H])c([H])c2c1-c1c([H])c([H])c(C#N)c([H])c1[H]


 30 34  0  0  0  0  0  0  0  0999 V2000
  -13.9679   -6.2564   10.7453 O   0  0  0  0  0  0  0  0  0  0  0  0
  -12.7824   -6.5823   10.0956 C   0  0  0  0  0  0  0  0  0  0  0  0
  -11.5970   -6.0906   10.5774 C   0  0  0  0  0  0  0  0  0  0  0  0
  -10.3884   -6.3853    9.9673 C   0  0  0  0  0  0  0  0  0  0  0  0
  -10.4023   -7.1933    8.8512 C   0  0  0  0  0  0  0  0  0  0  0  0
  -11.5627   -7.7137    8.3253 C   0  0  0  0  0  0  0  0  0  0  0  0
  -11.5487   -8.5277    7.1964 O   0  0  0  0  0  0  0  0  0  0  0  0
  -10.3893   -8.8867    6.5074 C   0  0  0  0  0  0  0  0  0  0  0  0
   -9.1491   -8.3169    7.0863 C   0  0  0  0  0  0  0  0  0  0  0  0
   -9.1219   -7.5087    8.2002 C   0  0  0  0  0  0  0  0  0  0  0  0
   -7.9542   -7.0061    8.6994 N   0  0  0  0  0  0  0  0  0  0  0  0
   -6.7969   -7.2996    8.0983 C   0  0  0  0  0  0  0  0  0  0  0  0
   -5.6059   -6.8128    8.5718 C   0  0  0  0  0  0  0  0  0  0  0  0
   -4.4118   -7.1268    7.9364 C   0  0  0  0  0  0  0  0  0  0  0  0
   -4.4068   -7.9342    6.8181 C   0  0  0  0  0  0  0  0  0  0  0  0
   -3.2210   -8.2735    6.1488 O   0  0  0  0  0  0  0  0  0  0  0  0
   -5.5942   -8.4157    6.3515 C   0  0  0  0  0  0  0  0  0  0  0  0
   -6.7982   -8.1010    6.9895 C   0  0  0  0  0  0  0  0  0  0  0  0
   -7.9643   -8.6322    6.4506 C   0  0  0  0  0  0  0  0  0  0  0  0
  -12.7484   -7.3931    8.9678 C   0  0  0  0  0  0  0  0  0  0  0  0
  -14.4441   -5.4194   10.4302 H   0  0  0  0  0  0  0  0  0  0  0  0
   -2.3477   -7.9085    6.5068 H   0  0  0  0  0  0  0  0  0  0  0  0
   -7.9547   -9.4854    5.2682 C   0  0  0  0  0  0  0  0  0  0  0  0
   -7.1370   -9.1464    4.2091 C   0  0  0  0  0  0  0  0  0  0  0  0
   -7.0766   -9.9091    3.0549 C   0  0  0  0  0  0  0  0  0  0  0  0
   -7.8462  -11.0484    2.9315 C   0  0  0  0  0  0  0  0  0  0  0  0
   -8.6616  -11.3799    3.9968 C   0  0  0  0  0  0  0  0  0  0  0  0
   -8.7225  -10.6223    5.1448 C   0  0  0  0  0  0  0  0  0  0  0  0
   -7.7872  -11.8371    1.7450 C   0  0  0  0  0  0  0  0  0  0  0  0
   -7.7199  -12.4778    0.7752 N   0  0  0  0  0  0  0  0  0  0  0  0
  1  2  1  0  0  0
  2  3  2  0  0  0
  3  4  1  0  0  0
  4  5  2  0  0  0
  5  6  1  0  0  0
  6  7  1  0  0  0
  7  8  1  0  0  0
  8  9  1  0  0  0
  9 10  2  0  0  0
 10 11  1  0  0  0
 11 12  2  0  0  0
 12 13  1  0  0  0
 13 14  2  0  0  0
 14 15  1  0  0  0
 15 16  1  0  0  0
 15 17  2  0  0  0
 17 18  1  0  0  0
 18 19  2  0  0  0
 19 23  1  0  0  0
 23 24  2  0  0  0
 24 25  1  0  0  0
 25 26  2  0  0  0
 26 27  1  0  0  0
 27 28  2  0  0  0
 26 29  1  0  0  0
 29 30  3  0  0  0
  6 20  2  0  0  0
 20  2  1  0  0  0
  5 10  1  0  0  0
 18 12  1  0  0  0
 28 23  1  0  0  0
 19  9  1  0  0  0
  1 21  1  0  0  0
 16 22  1  0  0  0
M  END
> <minimizedAffinity>
4.79581

> <CNNscore>
0.5336687565

> <CNNaffinity>
6.1367197037

> <CNN_VS>
3.2749755383

> <CNNaffinity_variance>
0.5545737147

$$$$
[H]Oc1c([H])c([H])c2c(c1[H])OC([H])([H])c1c-2nc2c([H])c([H])c(O[H])c([H])c2c1-c1c([H])c([H])c(C#N)c([H])c1[H]


 30 34  0  0  0  0  0  0  0  0999 V2000
  -13.0546  -10.4711    4.7178 O   0  0  0  0  0  0  0  0  0  0  0  0
  -12.4992   -9.7583    5.7749 C   0  0  0  0  0  0  0  0  0  0  0  0
  -13.3226   -9.2453    6.7433 C   0  0  0  0  0  0  0  0  0  0  0  0
  -12.8199   -8.5280    7.8169 C   0  0  0  0  0  0  0  0  0  0  0  0
  -11.4573   -8.3380    7.8923 C   0  0  0  0  0  0  0  0  0  0  0  0
  -10.5852   -8.8306    6.9485 C   0  0  0  0  0  0  0  0  0  0  0  0
   -9.2124   -8.6243    7.0486 O   0  0  0  0  0  0  0  0  0  0  0  0
   -8.6028   -7.9188    8.0872 C   0  0  0  0  0  0  0  0  0  0  0  0
   -9.5563   -7.3945    9.0940 C   0  0  0  0  0  0  0  0  0  0  0  0
  -10.9191   -7.5773    9.0301 C   0  0  0  0  0  0  0  0  0  0  0  0
  -11.7605   -7.0758    9.9819 N   0  0  0  0  0  0  0  0  0  0  0  0
  -11.2592   -6.3855   11.0110 C   0  0  0  0  0  0  0  0  0  0  0  0
  -12.0739   -5.8679   11.9846 C   0  0  0  0  0  0  0  0  0  0  0  0
  -11.5380   -5.1530   13.0476 C   0  0  0  0  0  0  0  0  0  0  0  0
  -10.1763   -4.9531   13.1393 C   0  0  0  0  0  0  0  0  0  0  0  0
   -9.5975   -4.2364   14.1978 O   0  0  0  0  0  0  0  0  0  0  0  0
   -9.3707   -5.4702   12.1681 C   0  0  0  0  0  0  0  0  0  0  0  0
   -9.9078   -6.1906   11.0966 C   0  0  0  0  0  0  0  0  0  0  0  0
   -9.0183   -6.6842   10.1492 C   0  0  0  0  0  0  0  0  0  0  0  0
  -11.1317   -9.5421    5.8919 C   0  0  0  0  0  0  0  0  0  0  0  0
  -13.3169   -9.9374    3.8974 H   0  0  0  0  0  0  0  0  0  0  0  0
  -10.2082   -3.8586   14.9108 H   0  0  0  0  0  0  0  0  0  0  0  0
   -7.5794   -6.4707   10.2498 C   0  0  0  0  0  0  0  0  0  0  0  0
   -7.0197   -6.2834   11.4976 C   0  0  0  0  0  0  0  0  0  0  0  0
   -5.6615   -6.0750   11.6691 C   0  0  0  0  0  0  0  0  0  0  0  0
   -4.8171   -6.0488   10.5774 C   0  0  0  0  0  0  0  0  0  0  0  0
   -5.3864   -6.2373    9.3323 C   0  0  0  0  0  0  0  0  0  0  0  0
   -6.7366   -6.4445    9.1606 C   0  0  0  0  0  0  0  0  0  0  0  0
   -3.4179   -5.8346   10.7490 C   0  0  0  0  0  0  0  0  0  0  0  0
   -2.2734   -5.6783   10.8951 N   0  0  0  0  0  0  0  0  0  0  0  0
  1  2  1  0  0  0
  2  3  2  0  0  0
  3  4  1  0  0  0
  4  5  2  0  0  0
  5  6  1  0  0  0
  6  7  1  0  0  0
  7  8  1  0  0  0
  8  9  1  0  0  0
  9 10  2  0  0  0
 10 11  1  0  0  0
 11 12  2  0  0  0
 12 13  1  0  0  0
 13 14  2  0  0  0
 14 15  1  0  0  0
 15 16  1  0  0  0
 15 17  2  0  0  0
 17 18  1  0  0  0
 18 19  2  0  0  0
 19 23  1  0  0  0
 23 24  2  0  0  0
 24 25  1  0  0  0
 25 26  2  0  0  0
 26 27  1  0  0  0
 27 28  2  0  0  0
 26 29  1  0  0  0
 29 30  3  0  0  0
  6 20  2  0  0  0
 20  2  1  0  0  0
  5 10  1  0  0  0
 18 12  1  0  0  0
 28 23  1  0  0  0
 19  9  1  0  0  0
  1 21  1  0  0  0
 16 22  1  0  0  0
M  END
> <minimizedAffinity>
22.44007

> <CNNscore>
0.5011530519

> <CNNaffinity>
5.9911642075

> <CNN_VS>
3.0024902821

> <CNNaffinity_variance>
1.5679193735

$$$$
[H]Oc1c([H])c([H])c2c(c1[H])OC([H])([H])c1c-2nc2c([H])c([H])c(O[H])c([H])c2c1-c1c([H])c([H])c(C#N)c([H])c1[H]


 30 34  0  0  0  0  0  0  0  0999 V2000
  -21.6767  -11.4916    6.7068 O   0  0  0  0  0  0  0  0  0  0  0  0
  -20.5289  -10.7312    6.9026 C   0  0  0  0  0  0  0  0  0  0  0  0
  -19.9527  -10.6954    8.1458 C   0  0  0  0  0  0  0  0  0  0  0  0
  -18.8089   -9.9537    8.3936 C   0  0  0  0  0  0  0  0  0  0  0  0
  -18.2550   -9.2431    7.3511 C   0  0  0  0  0  0  0  0  0  0  0  0
  -18.7917   -9.2435    6.0838 C   0  0  0  0  0  0  0  0  0  0  0  0
  -18.2120   -8.5166    5.0481 O   0  0  0  0  0  0  0  0  0  0  0  0
  -17.0615   -7.7393    5.1888 C   0  0  0  0  0  0  0  0  0  0  0  0
  -16.4972   -7.7492    6.5597 C   0  0  0  0  0  0  0  0  0  0  0  0
  -17.0409   -8.4545    7.6094 C   0  0  0  0  0  0  0  0  0  0  0  0
  -16.4860   -8.4346    8.8571 N   0  0  0  0  0  0  0  0  0  0  0  0
  -15.3827   -7.7134    9.0794 C   0  0  0  0  0  0  0  0  0  0  0  0
  -14.7987   -7.6703   10.3190 C   0  0  0  0  0  0  0  0  0  0  0  0
  -13.6526   -6.9165   10.5341 C   0  0  0  0  0  0  0  0  0  0  0  0
  -13.0845   -6.1990    9.5022 C   0  0  0  0  0  0  0  0  0  0  0  0
  -11.9270   -5.4258    9.6804 O   0  0  0  0  0  0  0  0  0  0  0  0
  -13.6694   -6.2454    8.2713 C   0  0  0  0  0  0  0  0  0  0  0  0
  -14.8237   -7.0039    8.0519 C   0  0  0  0  0  0  0  0  0  0  0  0
  -15.3574   -6.9978    6.7683 C   0  0  0  0  0  0  0  0  0  0  0  0
  -19.9359   -9.9993    5.8812 C   0  0  0  0  0  0  0  0  0  0  0  0
  -22.5630  -11.0248    6.8590 H   0  0  0  0  0  0  0  0  0  0  0  0
  -11.5044   -5.4011   10.5995 H   0  0  0  0  0  0  0  0  0  0  0  0
  -14.7536   -6.2380    5.6801 C   0  0  0  0  0  0  0  0  0  0  0  0
  -13.8428   -6.8661    4.8548 C   0  0  0  0  0  0  0  0  0  0  0  0
  -13.2298   -6.2074    3.8022 C   0  0  0  0  0  0  0  0  0  0  0  0
  -13.5190   -4.8820    3.5465 C   0  0  0  0  0  0  0  0  0  0  0  0
  -14.4319   -4.2616    4.3779 C   0  0  0  0  0  0  0  0  0  0  0  0
  -15.0419   -4.9156    5.4247 C   0  0  0  0  0  0  0  0  0  0  0  0
  -12.8904   -4.1995    2.4638 C   0  0  0  0  0  0  0  0  0  0  0  0
  -12.3765   -3.6260    1.5905 N   0  0  0  0  0  0  0  0  0  0  0  0
  1  2  1  0  0  0
  2  3  2  0  0  0
  3  4  1  0  0  0
  4  5  2  0  0  0
  5  6  1  0  0  0
  6  7  1  0  0  0
  7  8  1  0  0  0
  8  9  1  0  0  0
  9 10  2  0  0  0
 10 11  1  0  0  0
 11 12  2  0  0  0
 12 13  1  0  0  0
 13 14  2  0  0  0
 14 15  1  0  0  0
 15 16  1  0  0  0
 15 17  2  0  0  0
 17 18  1  0  0  0
 18 19  2  0  0  0
 19 23  1  0  0  0
 23 24  2  0  0  0
 24 25  1  0  0  0
 25 26  2  0  0  0
 26 27  1  0  0  0
 27 28  2  0  0  0
 26 29  1  0  0  0
 29 30  3  0  0  0
  6 20  2  0  0  0
 20  2  1  0  0  0
  5 10  1  0  0  0
 18 12  1  0  0  0
 28 23  1  0  0  0
 19  9  1  0  0  0
  1 21  1  0  0  0
 16 22  1  0  0  0
M  END
> <minimizedAffinity>
17.50238

> <CNNscore>
0.4541714787

> <CNNaffinity>
6.3816184998

> <CNN_VS>
2.8983490467

> <CNNaffinity_variance>
1.3579204082

$$$$
[H]Oc1c([H])c([H])c2c(c1[H])OC([H])([H])c1c-2nc2c([H])c([H])c(O[H])c([H])c2c1-c1c([H])c([H])c(C#N)c([H])c1[H]


 30 34  0  0  0  0  0  0  0  0999 V2000
  -14.2039   -3.9139   13.9477 O   0  0  0  0  0  0  0  0  0  0  0  0
  -13.0692   -4.4019   13.3088 C   0  0  0  0  0  0  0  0  0  0  0  0
  -13.1895   -4.9603   12.0627 C   0  0  0  0  0  0  0  0  0  0  0  0
  -12.0906   -5.4610   11.3834 C   0  0  0  0  0  0  0  0  0  0  0  0
  -10.8577   -5.3855   11.9941 C   0  0  0  0  0  0  0  0  0  0  0  0
  -10.6798   -4.8355   13.2430 C   0  0  0  0  0  0  0  0  0  0  0  0
   -9.4228   -4.7716   13.8373 O   0  0  0  0  0  0  0  0  0  0  0  0
   -8.2527   -5.2443   13.2413 C   0  0  0  0  0  0  0  0  0  0  0  0
   -8.4625   -5.8342   11.8975 C   0  0  0  0  0  0  0  0  0  0  0  0
   -9.6884   -5.9156   11.2768 C   0  0  0  0  0  0  0  0  0  0  0  0
   -9.8345   -6.4677   10.0362 N   0  0  0  0  0  0  0  0  0  0  0  0
   -8.7640   -6.9466    9.3947 C   0  0  0  0  0  0  0  0  0  0  0  0
   -8.8735   -7.5074    8.1485 C   0  0  0  0  0  0  0  0  0  0  0  0
   -7.7520   -8.0005    7.4948 C   0  0  0  0  0  0  0  0  0  0  0  0
   -6.5100   -7.9333    8.0909 C   0  0  0  0  0  0  0  0  0  0  0  0
   -5.3539   -8.4207    7.4624 O   0  0  0  0  0  0  0  0  0  0  0  0
   -6.4069   -7.3745    9.3305 C   0  0  0  0  0  0  0  0  0  0  0  0
   -7.5347   -6.8771    9.9910 C   0  0  0  0  0  0  0  0  0  0  0  0
   -7.3439   -6.3232   11.2517 C   0  0  0  0  0  0  0  0  0  0  0  0
  -11.8065   -4.3470   13.8859 C   0  0  0  0  0  0  0  0  0  0  0  0
  -14.7120   -4.5660   14.5335 H   0  0  0  0  0  0  0  0  0  0  0  0
   -5.4463   -8.8327    6.5427 H   0  0  0  0  0  0  0  0  0  0  0  0
   -6.0292   -6.2539   11.8784 C   0  0  0  0  0  0  0  0  0  0  0  0
   -5.0423   -5.5016   11.2739 C   0  0  0  0  0  0  0  0  0  0  0  0
   -3.7710   -5.3904   11.8116 C   0  0  0  0  0  0  0  0  0  0  0  0
   -3.4521   -6.0407   12.9868 C   0  0  0  0  0  0  0  0  0  0  0  0
   -4.4464   -6.7914   13.5847 C   0  0  0  0  0  0  0  0  0  0  0  0
   -5.7107   -6.9026   13.0509 C   0  0  0  0  0  0  0  0  0  0  0  0
   -2.1445   -5.9291   13.5443 C   0  0  0  0  0  0  0  0  0  0  0  0
   -1.0691   -5.8408   13.9818 N   0  0  0  0  0  0  0  0  0  0  0  0
  1  2  1  0  0  0
  2  3  2  0  0  0
  3  4  1  0  0  0
  4  5  2  0  0  0
  5  6  1  0  0  0
  6  7  1  0  0  0
  7  8  1  0  0  0
  8  9  1  0  0  0
  9 10  2  0  0  0
 10 11  1  0  0  0
 11 12  2  0  0  0
 12 13  1  0  0  0
 13 14  2  0  0  0
 14 15  1  0  0  0
 15 16  1  0  0  0
 15 17  2  0  0  0
 17 18  1  0  0  0
 18 19  2  0  0  0
 19 23  1  0  0  0
 23 24  2  0  0  0
 24 25  1  0  0  0
 25 26  2  0  0  0
 26 27  1  0  0  0
 27 28  2  0  0  0
 26 29  1  0  0  0
 29 30  3  0  0  0
  6 20  2  0  0  0
 20  2  1  0  0  0
  5 10  1  0  0  0
 18 12  1  0  0  0
 28 23  1  0  0  0
 19  9  1  0  0  0
  1 21  1  0  0  0
 16 22  1  0  0  0
M  END
> <minimizedAffinity>
33.94955

> <CNNscore>
0.4483652413

> <CNNaffinity>
5.2026038170

> <CNN_VS>
2.3326666355

> <CNNaffinity_variance>
0.7241867185

$$$$
[H]Oc1c([H])c([H])c2c(c1[H])OC([H])([H])c1c-2nc2c([H])c([H])c(O[H])c([H])c2c1-c1c([H])c([H])c(C#N)c([H])c1[H]


 30 34  0  0  0  0  0  0  0  0999 V2000
   -5.6596  -10.7721    7.7854 O   0  0  0  0  0  0  0  0  0  0  0  0
   -6.9471  -10.2466    7.7922 C   0  0  0  0  0  0  0  0  0  0  0  0
   -7.9538  -10.9312    7.1623 C   0  0  0  0  0  0  0  0  0  0  0  0
   -9.2534  -10.4513    7.1399 C   0  0  0  0  0  0  0  0  0  0  0  0
   -9.5170   -9.2557    7.7721 C   0  0  0  0  0  0  0  0  0  0  0  0
   -8.5449   -8.5275    8.4192 C   0  0  0  0  0  0  0  0  0  0  0  0
   -8.8382   -7.3220    9.0502 O   0  0  0  0  0  0  0  0  0  0  0  0
  -10.1109   -6.7505    9.0886 C   0  0  0  0  0  0  0  0  0  0  0  0
  -11.1453   -7.5471    8.3861 C   0  0  0  0  0  0  0  0  0  0  0  0
  -10.8950   -8.7423    7.7510 C   0  0  0  0  0  0  0  0  0  0  0  0
  -11.8804   -9.4430    7.1161 N   0  0  0  0  0  0  0  0  0  0  0  0
  -13.1289   -8.9656    7.1035 C   0  0  0  0  0  0  0  0  0  0  0  0
  -14.1429   -9.6422    6.4760 C   0  0  0  0  0  0  0  0  0  0  0  0
  -15.4349   -9.1333    6.4717 C   0  0  0  0  0  0  0  0  0  0  0  0
  -15.7170   -7.9379    7.0994 C   0  0  0  0  0  0  0  0  0  0  0  0
  -17.0094   -7.3916    7.1165 O   0  0  0  0  0  0  0  0  0  0  0  0
  -14.7047   -7.2692    7.7220 C   0  0  0  0  0  0  0  0  0  0  0  0
  -13.4027   -7.7796    7.7279 C   0  0  0  0  0  0  0  0  0  0  0  0
  -12.4285   -7.0365    8.3847 C   0  0  0  0  0  0  0  0  0  0  0  0
   -7.2591   -9.0452    8.4165 C   0  0  0  0  0  0  0  0  0  0  0  0
   -5.0608  -10.4988    7.0151 H   0  0  0  0  0  0  0  0  0  0  0  0
  -17.7502   -7.8993    6.6502 H   0  0  0  0  0  0  0  0  0  0  0  0
  -12.7309   -5.7733    9.0472 C   0  0  0  0  0  0  0  0  0  0  0  0
  -12.5295   -5.6707   10.4089 C   0  0  0  0  0  0  0  0  0  0  0  0
  -12.7950   -4.5030   11.1043 C   0  0  0  0  0  0  0  0  0  0  0  0
  -13.2764   -3.3916   10.4420 C   0  0  0  0  0  0  0  0  0  0  0  0
  -13.4749   -3.5037    9.0790 C   0  0  0  0  0  0  0  0  0  0  0  0
  -13.2113   -4.6642    8.3866 C   0  0  0  0  0  0  0  0  0  0  0  0
  -13.5512   -2.1870   11.1537 C   0  0  0  0  0  0  0  0  0  0  0  0
  -13.7789   -1.2138   11.7510 N   0  0  0  0  0  0  0  0  0  0  0  0
  1  2  1  0  0  0
  2  3  2  0  0  0
  3  4  1  0  0  0
  4  5  2  0  0  0
  5  6  1  0  0  0
  6  7  1  0  0  0
  7  8  1  0  0  0
  8  9  1  0  0  0
  9 10  2  0  0  0
 10 11  1  0  0  0
 11 12  2  0  0  0
 12 13  1  0  0  0
 13 14  2  0  0  0
 14 15  1  0  0  0
 15 16  1  0  0  0
 15 17  2  0  0  0
 17 18  1  0  0  0
 18 19  2  0  0  0
 19 23  1  0  0  0
 23 24  2  0  0  0
 24 25  1  0  0  0
 25 26  2  0  0  0
 26 27  1  0  0  0
 27 28  2  0  0  0
 26 29  1  0  0  0
 29 30  3  0  0  0
  6 20  2  0  0  0
 20  2  1  0  0  0
  5 10  1  0  0  0
 18 12  1  0  0  0
 28 23  1  0  0  0
 19  9  1  0  0  0
  1 21  1  0  0  0
 16 22  1  0  0  0
M  END
> <minimizedAffinity>
20.08286

> <CNNscore>
0.4405189455

> <CNNaffinity>
6.2624125481

> <CNN_VS>
2.7587113380

> <CNNaffinity_variance>
1.1154853106

$$$$
[H]Oc1c([H])c([H])c2c(c1[H])OC([H])([H])c1c-2nc2c([H])c([H])c(O[H])c([H])c2c1-c1c([H])c([H])c(C#N)c([H])c1[H]


 30 34  0  0  0  0  0  0  0  0999 V2000
  -14.2399   -4.4317   12.0056 O   0  0  0  0  0  0  0  0  0  0  0  0
  -13.4429   -5.1875   11.1526 C   0  0  0  0  0  0  0  0  0  0  0  0
  -13.9149   -6.3841   10.6790 C   0  0  0  0  0  0  0  0  0  0  0  0
  -13.1610   -7.1747    9.8269 C   0  0  0  0  0  0  0  0  0  0  0  0
  -11.9101   -6.7280    9.4604 C   0  0  0  0  0  0  0  0  0  0  0  0
  -11.3872   -5.5355    9.9059 C   0  0  0  0  0  0  0  0  0  0  0  0
  -10.1202   -5.1075    9.5201 O   0  0  0  0  0  0  0  0  0  0  0  0
   -9.2803   -5.8247    8.6668 C   0  0  0  0  0  0  0  0  0  0  0  0
   -9.8584   -7.1066    8.1973 C   0  0  0  0  0  0  0  0  0  0  0  0
  -11.1062   -7.5639    8.5561 C   0  0  0  0  0  0  0  0  0  0  0  0
  -11.5988   -8.7526    8.0982 N   0  0  0  0  0  0  0  0  0  0  0  0
  -10.8581   -9.5037    7.2771 C   0  0  0  0  0  0  0  0  0  0  0  0
  -11.3206  -10.7021    6.7982 C   0  0  0  0  0  0  0  0  0  0  0  0
  -10.5393  -11.4710    5.9458 C   0  0  0  0  0  0  0  0  0  0  0  0
   -9.2847  -11.0395    5.5684 C   0  0  0  0  0  0  0  0  0  0  0  0
   -8.4659  -11.7882    4.7093 O   0  0  0  0  0  0  0  0  0  0  0  0
   -8.8298   -9.8467    6.0478 C   0  0  0  0  0  0  0  0  0  0  0  0
   -9.6146   -9.0704    6.9062 C   0  0  0  0  0  0  0  0  0  0  0  0
   -9.0773   -7.8675    7.3499 C   0  0  0  0  0  0  0  0  0  0  0  0
  -12.1760   -4.7768   10.7565 C   0  0  0  0  0  0  0  0  0  0  0  0
  -14.1399   -4.6093   12.9981 H   0  0  0  0  0  0  0  0  0  0  0  0
   -8.8172  -12.6713    4.3618 H   0  0  0  0  0  0  0  0  0  0  0  0
   -7.7507   -7.4148    6.9485 C   0  0  0  0  0  0  0  0  0  0  0  0
   -6.6692   -7.7330    7.7451 C   0  0  0  0  0  0  0  0  0  0  0  0
   -5.3811   -7.3368    7.4267 C   0  0  0  0  0  0  0  0  0  0  0  0
   -5.1410   -6.6003    6.2841 C   0  0  0  0  0  0  0  0  0  0  0  0
   -6.2296   -6.2866    5.4928 C   0  0  0  0  0  0  0  0  0  0  0  0
   -7.5107   -6.6800    5.8085 C   0  0  0  0  0  0  0  0  0  0  0  0
   -3.8163   -6.1901    5.9520 C   0  0  0  0  0  0  0  0  0  0  0  0
   -2.7333   -5.8703    5.6685 N   0  0  0  0  0  0  0  0  0  0  0  0
  1  2  1  0  0  0
  2  3  2  0  0  0
  3  4  1  0  0  0
  4  5  2  0  0  0
  5  6  1  0  0  0
  6  7  1  0  0  0
  7  8  1  0  0  0
  8  9  1  0  0  0
  9 10  2  0  0  0
 10 11  1  0  0  0
 11 12  2  0  0  0
 12 13  1  0  0  0
 13 14  2  0  0  0
 14 15  1  0  0  0
 15 16  1  0  0  0
 15 17  2  0  0  0
 17 18  1  0  0  0
 18 19  2  0  0  0
 19 23  1  0  0  0
 23 24  2  0  0  0
 24 25  1  0  0  0
 25 26  2  0  0  0
 26 27  1  0  0  0
 27 28  2  0  0  0
 26 29  1  0  0  0
 29 30  3  0  0  0
  6 20  2  0  0  0
 20  2  1  0  0  0
  5 10  1  0  0  0
 18 12  1  0  0  0
 28 23  1  0  0  0
 19  9  1  0  0  0
  1 21  1  0  0  0
 16 22  1  0  0  0
M  END
> <minimizedAffinity>
5.30096

> <CNNscore>
0.4212267995

> <CNNaffinity>
6.1788206100

> <CNN_VS>
2.6026847363

> <CNNaffinity_variance>
0.8037187457

$$$$
[H]Oc1c([H])c([H])c2c(c1[H])OC([H])([H])c1c-2nc2c([H])c([H])c(O[H])c([H])c2c1-c1c([H])c([H])c(C#N)c([H])c1[H]


 30 34  0  0  0  0  0  0  0  0999 V2000
  -14.2094   -4.6862   11.2129 O   0  0  0  0  0  0  0  0  0  0  0  0
  -13.0992   -5.2431   10.5875 C   0  0  0  0  0  0  0  0  0  0  0  0
  -11.8881   -4.6078   10.6811 C   0  0  0  0  0  0  0  0  0  0  0  0
  -10.7517   -5.1207   10.0768 C   0  0  0  0  0  0  0  0  0  0  0  0
  -10.8649   -6.2981    9.3701 C   0  0  0  0  0  0  0  0  0  0  0  0
  -12.0553   -6.9772    9.2440 C   0  0  0  0  0  0  0  0  0  0  0  0
  -12.1422   -8.1652    8.5241 O   0  0  0  0  0  0  0  0  0  0  0  0
  -11.0612   -8.7679    7.8791 C   0  0  0  0  0  0  0  0  0  0  0  0
   -9.7876   -8.0231    8.0241 C   0  0  0  0  0  0  0  0  0  0  0  0
   -9.6614   -6.8463    8.7270 C   0  0  0  0  0  0  0  0  0  0  0  0
   -8.4663   -6.1940    8.8346 N   0  0  0  0  0  0  0  0  0  0  0  0
   -7.3796   -6.7022    8.2450 C   0  0  0  0  0  0  0  0  0  0  0  0
   -6.1638   -6.0745    8.3321 C   0  0  0  0  0  0  0  0  0  0  0  0
   -5.0439   -6.6150    7.7142 C   0  0  0  0  0  0  0  0  0  0  0  0
   -5.1388   -7.7928    7.0026 C   0  0  0  0  0  0  0  0  0  0  0  0
   -4.0301   -8.3698    6.3645 O   0  0  0  0  0  0  0  0  0  0  0  0
   -6.3504   -8.4129    6.9193 C   0  0  0  0  0  0  0  0  0  0  0  0
   -7.4798   -7.8708    7.5407 C   0  0  0  0  0  0  0  0  0  0  0  0
   -8.6769   -8.5648    7.4076 C   0  0  0  0  0  0  0  0  0  0  0  0
  -13.1663   -6.4279    9.8648 C   0  0  0  0  0  0  0  0  0  0  0  0
  -14.7604   -4.0350   10.6662 H   0  0  0  0  0  0  0  0  0  0  0  0
   -3.1377   -7.8980    6.4352 H   0  0  0  0  0  0  0  0  0  0  0  0
   -8.7729   -9.8097    6.6546 C   0  0  0  0  0  0  0  0  0  0  0  0
   -9.0630   -9.7517    5.3064 C   0  0  0  0  0  0  0  0  0  0  0  0
   -9.1700  -10.8925    4.5287 C   0  0  0  0  0  0  0  0  0  0  0  0
   -8.9860  -12.1394    5.0918 C   0  0  0  0  0  0  0  0  0  0  0  0
   -8.6959  -12.1876    6.4420 C   0  0  0  0  0  0  0  0  0  0  0  0
   -8.5894  -11.0540    7.2161 C   0  0  0  0  0  0  0  0  0  0  0  0
   -9.0950  -13.3169    4.2951 C   0  0  0  0  0  0  0  0  0  0  0  0
   -9.1978  -14.2697    3.6338 N   0  0  0  0  0  0  0  0  0  0  0  0
  1  2  1  0  0  0
  2  3  2  0  0  0
  3  4  1  0  0  0
  4  5  2  0  0  0
  5  6  1  0  0  0
  6  7  1  0  0  0
  7  8  1  0  0  0
  8  9  1  0  0  0
  9 10  2  0  0  0
 10 11  1  0  0  0
 11 12  2  0  0  0
 12 13  1  0  0  0
 13 14  2  0  0  0
 14 15  1  0  0  0
 15 16  1  0  0  0
 15 17  2  0  0  0
 17 18  1  0  0  0
 18 19  2  0  0  0
 19 23  1  0  0  0
 23 24  2  0  0  0
 24 25  1  0  0  0
 25 26  2  0  0  0
 26 27  1  0  0  0
 27 28  2  0  0  0
 26 29  1  0  0  0
 29 30  3  0  0  0
  6 20  2  0  0  0
 20  2  1  0  0  0
  5 10  1  0  0  0
 18 12  1  0  0  0
 28 23  1  0  0  0
 19  9  1  0  0  0
  1 21  1  0  0  0
 16 22  1  0  0  0
M  END
> <minimizedAffinity>
13.56642

> <CNNscore>
0.4187670946

> <CNNaffinity>
6.1941332817

> <CNN_VS>
2.5938992500

> <CNNaffinity_variance>
1.0344164371

$$$$
[H]Oc1c([H])c([H])c2c(c1[H])OC([H])([H])c1c-2nc2c([H])c([H])c(O[H])c([H])c2c1-c1c([H])c([H])c(C#N)c([H])c1[H]


 30 34  0  0  0  0  0  0  0  0999 V2000
   -2.1471   -4.6625   14.2590 O   0  0  0  0  0  0  0  0  0  0  0  0
   -2.8371   -4.9423   13.0844 C   0  0  0  0  0  0  0  0  0  0  0  0
   -2.2973   -4.5620   11.8832 C   0  0  0  0  0  0  0  0  0  0  0  0
   -2.9438   -4.8169   10.6846 C   0  0  0  0  0  0  0  0  0  0  0  0
   -4.1569   -5.4692   10.7250 C   0  0  0  0  0  0  0  0  0  0  0  0
   -4.7443   -5.8731   11.9022 C   0  0  0  0  0  0  0  0  0  0  0  0
   -5.9710   -6.5305   11.9149 O   0  0  0  0  0  0  0  0  0  0  0  0
   -6.7042   -6.8370   10.7676 C   0  0  0  0  0  0  0  0  0  0  0  0
   -6.0579   -6.3942    9.5090 C   0  0  0  0  0  0  0  0  0  0  0  0
   -4.8469   -5.7419    9.4552 C   0  0  0  0  0  0  0  0  0  0  0  0
   -4.2884   -5.3524    8.2713 N   0  0  0  0  0  0  0  0  0  0  0  0
   -4.9257   -5.6056    7.1239 C   0  0  0  0  0  0  0  0  0  0  0  0
   -4.3948   -5.2291    5.9173 C   0  0  0  0  0  0  0  0  0  0  0  0
   -5.0690   -5.4994    4.7337 C   0  0  0  0  0  0  0  0  0  0  0  0
   -6.2843   -6.1514    4.7553 C   0  0  0  0  0  0  0  0  0  0  0  0
   -6.9954   -6.4420    3.5809 O   0  0  0  0  0  0  0  0  0  0  0  0
   -6.8077   -6.5236    5.9582 C   0  0  0  0  0  0  0  0  0  0  0  0
   -6.1308   -6.2527    7.1515 C   0  0  0  0  0  0  0  0  0  0  0  0
   -6.7325   -6.6653    8.3348 C   0  0  0  0  0  0  0  0  0  0  0  0
   -4.0623   -5.5975   13.0771 C   0  0  0  0  0  0  0  0  0  0  0  0
   -2.3477   -3.7745   14.7037 H   0  0  0  0  0  0  0  0  0  0  0  0
   -6.5943   -6.1594    2.6958 H   0  0  0  0  0  0  0  0  0  0  0  0
   -8.0174   -7.3544    8.3532 C   0  0  0  0  0  0  0  0  0  0  0  0
   -9.1639   -6.6194    8.5780 C   0  0  0  0  0  0  0  0  0  0  0  0
  -10.4177   -7.2064    8.6095 C   0  0  0  0  0  0  0  0  0  0  0  0
  -10.5559   -8.5658    8.4133 C   0  0  0  0  0  0  0  0  0  0  0  0
   -9.4026   -9.2933    8.1889 C   0  0  0  0  0  0  0  0  0  0  0  0
   -8.1555   -8.7108    8.1575 C   0  0  0  0  0  0  0  0  0  0  0  0
  -11.8449   -9.1747    8.4447 C   0  0  0  0  0  0  0  0  0  0  0  0
  -12.9043   -9.6564    8.4802 N   0  0  0  0  0  0  0  0  0  0  0  0
  1  2  1  0  0  0
  2  3  2  0  0  0
  3  4  1  0  0  0
  4  5  2  0  0  0
  5  6  1  0  0  0
  6  7  1  0  0  0
  7  8  1  0  0  0
  8  9  1  0  0  0
  9 10  2  0  0  0
 10 11  1  0  0  0
 11 12  2  0  0  0
 12 13  1  0  0  0
 13 14  2  0  0  0
 14 15  1  0  0  0
 15 16  1  0  0  0
 15 17  2  0  0  0
 17 18  1  0  0  0
 18 19  2  0  0  0
 19 23  1  0  0  0
 23 24  2  0  0  0
 24 25  1  0  0  0
 25 26  2  0  0  0
 26 27  1  0  0  0
 27 28  2  0  0  0
 26 29  1  0  0  0
 29 30  3  0  0  0
  6 20  2  0  0  0
 20  2  1  0  0  0
  5 10  1  0  0  0
 18 12  1  0  0  0
 28 23  1  0  0  0
 19  9  1  0  0  0
  1 21  1  0  0  0
 16 22  1  0  0  0
M  END
> <minimizedAffinity>
0.69536

> <CNNscore>
0.3836891651

> <CNNaffinity>
5.7589216232

> <CNN_VS>
2.2096357346

> <CNNaffinity_variance>
1.2261067629

$$$$
[H]Oc1c([H])c([H])c2c(c1[H])OC([H])([H])c1c-2nc2c([H])c([H])c(O[H])c([H])c2c1-c1c([H])c([H])c(C#N)c([H])c1[H]


 30 34  0  0  0  0  0  0  0  0999 V2000
  -14.7868   -7.7265    8.3637 O   0  0  0  0  0  0  0  0  0  0  0  0
  -13.4000   -7.7134    8.2621 C   0  0  0  0  0  0  0  0  0  0  0  0
  -12.8013   -8.3086    7.1821 C   0  0  0  0  0  0  0  0  0  0  0  0
  -11.4239   -8.3232    7.0334 C   0  0  0  0  0  0  0  0  0  0  0  0
  -10.6575   -7.7192    8.0063 C   0  0  0  0  0  0  0  0  0  0  0  0
  -11.2057   -7.1074    9.1104 C   0  0  0  0  0  0  0  0  0  0  0  0
  -10.4084   -6.5044   10.0788 O   0  0  0  0  0  0  0  0  0  0  0  0
   -9.0144   -6.4612   10.0259 C   0  0  0  0  0  0  0  0  0  0  0  0
   -8.4406   -7.1254    8.8312 C   0  0  0  0  0  0  0  0  0  0  0  0
   -9.1950   -7.7322    7.8526 C   0  0  0  0  0  0  0  0  0  0  0  0
   -8.6225   -8.3323    6.7676 N   0  0  0  0  0  0  0  0  0  0  0  0
   -7.2919   -8.3379    6.6396 C   0  0  0  0  0  0  0  0  0  0  0  0
   -6.6833   -8.9308    5.5637 C   0  0  0  0  0  0  0  0  0  0  0  0
   -5.2997   -8.9282    5.4449 C   0  0  0  0  0  0  0  0  0  0  0  0
   -4.5169   -8.3284    6.4092 C   0  0  0  0  0  0  0  0  0  0  0  0
   -3.1164   -8.3054    6.3243 O   0  0  0  0  0  0  0  0  0  0  0  0
   -5.1276   -7.7402    7.4772 C   0  0  0  0  0  0  0  0  0  0  0  0
   -6.5207   -7.7413    7.5992 C   0  0  0  0  0  0  0  0  0  0  0  0
   -7.0642   -7.1202    8.7178 C   0  0  0  0  0  0  0  0  0  0  0  0
  -12.5876   -7.1166    9.2184 C   0  0  0  0  0  0  0  0  0  0  0  0
  -15.1998   -8.5133    8.8506 H   0  0  0  0  0  0  0  0  0  0  0  0
   -2.6776   -8.7461    5.5260 H   0  0  0  0  0  0  0  0  0  0  0  0
   -6.2330   -6.4871    9.7349 C   0  0  0  0  0  0  0  0  0  0  0  0
   -5.2114   -5.6501    9.3336 C   0  0  0  0  0  0  0  0  0  0  0  0
   -4.3824   -5.0153   10.2432 C   0  0  0  0  0  0  0  0  0  0  0  0
   -4.5594   -5.2064   11.5988 C   0  0  0  0  0  0  0  0  0  0  0  0
   -5.5847   -6.0459   11.9911 C   0  0  0  0  0  0  0  0  0  0  0  0
   -6.4094   -6.6776   11.0876 C   0  0  0  0  0  0  0  0  0  0  0  0
   -3.7084   -4.5548   12.5392 C   0  0  0  0  0  0  0  0  0  0  0  0
   -3.0292   -4.0150   13.3158 N   0  0  0  0  0  0  0  0  0  0  0  0
  1  2  1  0  0  0
  2  3  2  0  0  0
  3  4  1  0  0  0
  4  5  2  0  0  0
  5  6  1  0  0  0
  6  7  1  0  0  0
  7  8  1  0  0  0
  8  9  1  0  0  0
  9 10  2  0  0  0
 10 11  1  0  0  0
 11 12  2  0  0  0
 12 13  1  0  0  0
 13 14  2  0  0  0
 14 15  1  0  0  0
 15 16  1  0  0  0
 15 17  2  0  0  0
 17 18  1  0  0  0
 18 19  2  0  0  0
 19 23  1  0  0  0
 23 24  2  0  0  0
 24 25  1  0  0  0
 25 26  2  0  0  0
 26 27  1  0  0  0
 27 28  2  0  0  0
 26 29  1  0  0  0
 29 30  3  0  0  0
  6 20  2  0  0  0
 20  2  1  0  0  0
  5 10  1  0  0  0
 18 12  1  0  0  0
 28 23  1  0  0  0
 19  9  1  0  0  0
  1 21  1  0  0  0
 16 22  1  0  0  0
M  END
> <minimizedAffinity>
-0.31852

> <CNNscore>
0.3676595688

> <CNNaffinity>
5.7476043701

> <CNN_VS>
2.1131618023

> <CNNaffinity_variance>
0.3695368767

$$$$
[H]Oc1c([H])c([H])c2c(c1[H])C([H])([H])[C@@]([H])(C([H])([H])C([H])([H])C([H])([H])C([H])([H])C([H])([H])C([H])([H])C([H])([H])C([H])([H])C([H])([H])S(=O)C([H])([H])C([H])([H])C([H])([H])C(F)(F)C(F)(F)F)[C@]1([H])[C@]2([H])C([H])([H])C([H])([H])[C@]2(C([H])([H])[H])[C@@]([H])(O[H])C([H])([H])C([H])([H])[C@]21[H]


 43 46  0  0  0  0  0  0  0  0999 V2000
  -16.4538   -7.2985    7.4273 C   0  0  0  0  0  0  0  0  0  0  0  0
  -15.5065   -8.3590    6.9243 C   0  0  0  0  0  0  0  0  0  0  0  0
  -15.3521   -9.4285    7.9540 C   0  0  0  0  0  0  0  0  0  0  0  0
  -14.5223   -9.0589    9.1320 C   0  0  0  0  0  0  0  0  0  0  0  0
  -13.3522   -8.1599    8.8366 C   0  0  0  0  0  0  0  0  0  0  0  0
  -13.6327   -7.1369    7.8053 C   0  0  0  0  0  0  0  0  0  0  0  0
  -14.1320   -7.8300    6.5874 C   0  0  0  0  0  0  0  0  0  0  0  0
  -14.4045   -6.9843    5.3939 C   0  0  0  0  0  0  0  0  0  0  0  0
  -15.2831   -7.9348    4.5673 C   0  0  0  0  0  0  0  0  0  0  0  0
  -15.9522   -8.8596    5.5885 C   0  0  0  0  0  0  0  0  0  0  0  0
  -17.3465   -8.7335    5.4174 O   0  0  0  0  0  0  0  0  0  0  0  0
  -12.4142   -6.2578    7.5010 C   0  0  0  0  0  0  0  0  0  0  0  0
  -12.1681   -5.4652    8.7484 C   0  0  0  0  0  0  0  0  0  0  0  0
  -12.3866   -6.2095    9.9886 C   0  0  0  0  0  0  0  0  0  0  0  0
  -11.9864   -5.5321   11.1652 C   0  0  0  0  0  0  0  0  0  0  0  0
  -12.1371   -6.1006   12.4013 C   0  0  0  0  0  0  0  0  0  0  0  0
  -11.7302   -5.4051   13.5569 O   0  0  0  0  0  0  0  0  0  0  0  0
  -12.6910   -7.3557   12.4740 C   0  0  0  0  0  0  0  0  0  0  0  0
  -13.0887   -8.0328   11.3242 C   0  0  0  0  0  0  0  0  0  0  0  0
  -12.9357   -7.4564   10.0743 C   0  0  0  0  0  0  0  0  0  0  0  0
  -17.5976   -9.0690    4.5297 H   0  0  0  0  0  0  0  0  0  0  0  0
  -12.4058   -4.8050   14.0162 H   0  0  0  0  0  0  0  0  0  0  0  0
  -11.2521   -7.0369    7.0839 C   0  0  0  0  0  0  0  0  0  0  0  0
  -11.4075   -8.5003    6.9457 C   0  0  0  0  0  0  0  0  0  0  0  0
  -10.4354   -9.4012    7.5522 C   0  0  0  0  0  0  0  0  0  0  0  0
   -9.7356  -10.4890    6.8735 C   0  0  0  0  0  0  0  0  0  0  0  0
   -8.2689  -10.6660    7.2422 C   0  0  0  0  0  0  0  0  0  0  0  0
   -7.7364   -9.2568    7.5419 C   0  0  0  0  0  0  0  0  0  0  0  0
   -6.8082   -8.9153    6.3929 C   0  0  0  0  0  0  0  0  0  0  0  0
   -5.6102   -8.1223    6.8177 C   0  0  0  0  0  0  0  0  0  0  0  0
   -5.7874   -6.6548    6.4966 C   0  0  0  0  0  0  0  0  0  0  0  0
   -4.1443   -5.8696    6.4867 S   0  0  0  0  0  0  0  0  0  0  0  0
   -4.0666   -5.1198    5.1336 O   0  0  0  0  0  0  0  0  0  0  0  0
   -4.0172   -4.6811    7.7948 C   0  0  0  0  0  0  0  0  0  0  0  0
   -2.6527   -4.1102    7.9774 C   0  0  0  0  0  0  0  0  0  0  0  0
   -2.0260   -3.4862    6.7787 C   0  0  0  0  0  0  0  0  0  0  0  0
   -2.4061   -2.0680    6.5565 C   0  0  0  0  0  0  0  0  0  0  0  0
   -1.2493   -1.2938    6.6702 F   0  0  0  0  0  0  0  0  0  0  0  0
   -3.1875   -1.6945    7.6770 F   0  0  0  0  0  0  0  0  0  0  0  0
   -3.1283   -1.7026    5.3294 C   0  0  0  0  0  0  0  0  0  0  0  0
   -4.4771   -1.6654    5.3958 F   0  0  0  0  0  0  0  0  0  0  0  0
   -2.7540   -2.6196    4.3349 F   0  0  0  0  0  0  0  0  0  0  0  0
   -2.6245   -0.4629    4.9050 F   0  0  0  0  0  0  0  0  0  0  0  0
  2  1  1  0  0  0
  2  3  1  0  0  0
  3  4  1  0  0  0
  4  5  1  0  0  0
  5  6  1  0  0  0
  6  7  1  0  0  0
  7  8  1  0  0  0
  8  9  1  0  0  0
  9 10  1  0  0  0
 10 11  1  0  0  0
  6 12  1  0  0  0
 12 23  1  0  0  0
 23 24  1  0  0  0
 24 25  1  0  0  0
 25 26  1  0  0  0
 26 27  1  0  0  0
 27 28  1  0  0  0
 28 29  1  0  0  0
 29 30  1  0  0  0
 30 31  1  0  0  0
 31 32  1  0  0  0
 32 33  2  0  0  0
 32 34  1  0  0  0
 34 35  1  0  0  0
 35 36  1  0  0  0
 36 37  1  0  0  0
 37 38  1  0  0  0
 37 39  1  0  0  0
 37 40  1  0  0  0
 40 41  1  0  0  0
 40 42  1  0  0  0
 40 43  1  0  0  0
 12 13  1  0  0  0
 13 14  1  0  0  0
 14 15  2  0  0  0
 15 16  1  0  0  0
 16 17  1  0  0  0
 16 18  2  0  0  0
 18 19  1  0  0  0
 19 20  2  0  0  0
  7  2  1  0  0  0
 20 14  1  0  0  0
 10  2  1  0  0  0
 20  5  1  0  0  0
 11 21  1  0  0  0
 17 22  1  0  0  0
M  END
> <minimizedAffinity>
0.58925

> <CNNscore>
0.4205315709

> <CNNaffinity>
7.6105117798

> <CNN_VS>
3.2004604340

> <CNNaffinity_variance>
1.1891651154

$$$$
[H]Oc1c([H])c([H])c2c(c1[H])C([H])([H])[C@@]([H])(C([H])([H])C([H])([H])C([H])([H])C([H])([H])C([H])([H])C([H])([H])C([H])([H])C([H])([H])C([H])([H])S(=O)C([H])([H])C([H])([H])C([H])([H])C(F)(F)C(F)(F)F)[C@]1([H])[C@]2([H])C([H])([H])C([H])([H])[C@]2(C([H])([H])[H])[C@@]([H])(O[H])C([H])([H])C([H])([H])[C@]21[H]


 43 46  0  0  0  0  0  0  0  0999 V2000
   -9.0741   -7.4634    6.3643 C   0  0  0  0  0  0  0  0  0  0  0  0
   -9.3116   -8.3187    7.5838 C   0  0  0  0  0  0  0  0  0  0  0  0
   -9.8092   -9.6635    7.1692 C   0  0  0  0  0  0  0  0  0  0  0  0
  -11.2220   -9.7008    6.7051 C   0  0  0  0  0  0  0  0  0  0  0  0
  -12.1593   -8.7691    7.4249 C   0  0  0  0  0  0  0  0  0  0  0  0
  -11.5516   -7.4663    7.7747 C   0  0  0  0  0  0  0  0  0  0  0  0
  -10.3097   -7.7266    8.5511 C   0  0  0  0  0  0  0  0  0  0  0  0
   -9.5780   -6.5400    9.0710 C   0  0  0  0  0  0  0  0  0  0  0  0
   -8.2104   -7.1648    9.3842 C   0  0  0  0  0  0  0  0  0  0  0  0
   -8.0833   -8.3596    8.4345 C   0  0  0  0  0  0  0  0  0  0  0  0
   -6.9104   -8.1681    7.6751 O   0  0  0  0  0  0  0  0  0  0  0  0
  -12.5178   -6.5512    8.5358 C   0  0  0  0  0  0  0  0  0  0  0  0
  -13.5975   -6.2030    7.5572 C   0  0  0  0  0  0  0  0  0  0  0  0
  -13.9899   -7.3025    6.6757 C   0  0  0  0  0  0  0  0  0  0  0  0
  -15.1264   -7.0425    5.8731 C   0  0  0  0  0  0  0  0  0  0  0  0
  -15.6061   -7.9750    4.9932 C   0  0  0  0  0  0  0  0  0  0  0  0
  -16.7395   -7.6913    4.2061 O   0  0  0  0  0  0  0  0  0  0  0  0
  -14.9526   -9.1804    4.9065 C   0  0  0  0  0  0  0  0  0  0  0  0
  -13.8336   -9.4486    5.6904 C   0  0  0  0  0  0  0  0  0  0  0  0
  -13.3494   -8.5043    6.5801 C   0  0  0  0  0  0  0  0  0  0  0  0
   -6.1292   -8.1985    8.2686 H   0  0  0  0  0  0  0  0  0  0  0  0
  -16.5962   -7.2616    3.2993 H   0  0  0  0  0  0  0  0  0  0  0  0
  -13.0324   -7.1701    9.7539 C   0  0  0  0  0  0  0  0  0  0  0  0
  -12.1790   -7.1487   10.9604 C   0  0  0  0  0  0  0  0  0  0  0  0
  -12.0144   -5.9158   11.7203 C   0  0  0  0  0  0  0  0  0  0  0  0
  -11.7029   -5.8223   13.1443 C   0  0  0  0  0  0  0  0  0  0  0  0
  -10.5326   -4.9192   13.5093 C   0  0  0  0  0  0  0  0  0  0  0  0
   -9.3495   -5.8566   13.7937 C   0  0  0  0  0  0  0  0  0  0  0  0
   -8.1973   -4.9549   14.1910 C   0  0  0  0  0  0  0  0  0  0  0  0
   -6.8983   -5.3411   13.5521 C   0  0  0  0  0  0  0  0  0  0  0  0
   -5.7300   -4.6883   14.2571 C   0  0  0  0  0  0  0  0  0  0  0  0
   -4.3780   -5.9035   14.3676 S   0  0  0  0  0  0  0  0  0  0  0  0
   -4.9882   -7.2298   13.8503 O   0  0  0  0  0  0  0  0  0  0  0  0
   -3.0430   -5.4447   13.2967 C   0  0  0  0  0  0  0  0  0  0  0  0
   -3.4510   -5.1581   11.8923 C   0  0  0  0  0  0  0  0  0  0  0  0
   -2.4551   -4.4494   11.0409 C   0  0  0  0  0  0  0  0  0  0  0  0
   -3.0179   -3.8630    9.7981 C   0  0  0  0  0  0  0  0  0  0  0  0
   -2.0494   -3.0207    9.2476 F   0  0  0  0  0  0  0  0  0  0  0  0
   -4.0483   -2.9850   10.2143 F   0  0  0  0  0  0  0  0  0  0  0  0
   -3.5459   -4.7575    8.7580 C   0  0  0  0  0  0  0  0  0  0  0  0
   -4.7249   -5.3671    9.0095 F   0  0  0  0  0  0  0  0  0  0  0  0
   -2.5743   -5.7422    8.5203 F   0  0  0  0  0  0  0  0  0  0  0  0
   -3.6232   -4.0127    7.5705 F   0  0  0  0  0  0  0  0  0  0  0  0
  2  1  1  0  0  0
  2  3  1  0  0  0
  3  4  1  0  0  0
  4  5  1  0  0  0
  5  6  1  0  0  0
  6  7  1  0  0  0
  7  8  1  0  0  0
  8  9  1  0  0  0
  9 10  1  0  0  0
 10 11  1  0  0  0
  6 12  1  0  0  0
 12 23  1  0  0  0
 23 24  1  0  0  0
 24 25  1  0  0  0
 25 26  1  0  0  0
 26 27  1  0  0  0
 27 28  1  0  0  0
 28 29  1  0  0  0
 29 30  1  0  0  0
 30 31  1  0  0  0
 31 32  1  0  0  0
 32 33  2  0  0  0
 32 34  1  0  0  0
 34 35  1  0  0  0
 35 36  1  0  0  0
 36 37  1  0  0  0
 37 38  1  0  0  0
 37 39  1  0  0  0
 37 40  1  0  0  0
 40 41  1  0  0  0
 40 42  1  0  0  0
 40 43  1  0  0  0
 12 13  1  0  0  0
 13 14  1  0  0  0
 14 15  2  0  0  0
 15 16  1  0  0  0
 16 17  1  0  0  0
 16 18  2  0  0  0
 18 19  1  0  0  0
 19 20  2  0  0  0
  7  2  1  0  0  0
 20 14  1  0  0  0
 10  2  1  0  0  0
 20  5  1  0  0  0
 11 21  1  0  0  0
 17 22  1  0  0  0
M  END
> <minimizedAffinity>
-2.93001

> <CNNscore>
0.4050624967

> <CNNaffinity>
7.6100287437

> <CNN_VS>
3.0825371742

> <CNNaffinity_variance>
0.7583101392

$$$$
[H]Oc1c([H])c([H])c2c(c1[H])C([H])([H])[C@@]([H])(C([H])([H])C([H])([H])C([H])([H])C([H])([H])C([H])([H])C([H])([H])C([H])([H])C([H])([H])C([H])([H])S(=O)C([H])([H])C([H])([H])C([H])([H])C(F)(F)C(F)(F)F)[C@]1([H])[C@]2([H])C([H])([H])C([H])([H])[C@]2(C([H])([H])[H])[C@@]([H])(O[H])C([H])([H])C([H])([H])[C@]21[H]


 43 46  0  0  0  0  0  0  0  0999 V2000
  -14.5973   -7.4988    2.5711 C   0  0  0  0  0  0  0  0  0  0  0  0
  -14.9676   -8.5445    3.5931 C   0  0  0  0  0  0  0  0  0  0  0  0
  -16.3253   -9.0870    3.2923 C   0  0  0  0  0  0  0  0  0  0  0  0
  -17.4571   -8.1781    3.6178 C   0  0  0  0  0  0  0  0  0  0  0  0
  -17.2683   -7.3327    4.8484 C   0  0  0  0  0  0  0  0  0  0  0  0
  -15.8821   -6.8490    5.0316 C   0  0  0  0  0  0  0  0  0  0  0  0
  -14.9731   -8.0263    5.0122 C   0  0  0  0  0  0  0  0  0  0  0  0
  -13.5287   -7.7673    5.2579 C   0  0  0  0  0  0  0  0  0  0  0  0
  -12.9125   -9.0701    4.7269 C   0  0  0  0  0  0  0  0  0  0  0  0
  -13.9001   -9.5873    3.6768 C   0  0  0  0  0  0  0  0  0  0  0  0
  -13.1926   -9.7150    2.4634 O   0  0  0  0  0  0  0  0  0  0  0  0
  -15.7120   -6.0191    6.3093 C   0  0  0  0  0  0  0  0  0  0  0  0
  -16.5112   -4.7713    6.0882 C   0  0  0  0  0  0  0  0  0  0  0  0
  -17.7719   -4.9809    5.3763 C   0  0  0  0  0  0  0  0  0  0  0  0
  -18.6167   -3.8466    5.3196 C   0  0  0  0  0  0  0  0  0  0  0  0
  -19.8258   -3.8897    4.6793 C   0  0  0  0  0  0  0  0  0  0  0  0
  -20.6481   -2.7465    4.6377 O   0  0  0  0  0  0  0  0  0  0  0  0
  -20.2038   -5.0704    4.0875 C   0  0  0  0  0  0  0  0  0  0  0  0
  -19.3821   -6.1934    4.1361 C   0  0  0  0  0  0  0  0  0  0  0  0
  -18.1591   -6.1484    4.7842 C   0  0  0  0  0  0  0  0  0  0  0  0
  -12.5010  -10.4049    2.5604 H   0  0  0  0  0  0  0  0  0  0  0  0
  -20.5326   -2.1026    3.8634 H   0  0  0  0  0  0  0  0  0  0  0  0
  -16.1159   -6.7481    7.5080 C   0  0  0  0  0  0  0  0  0  0  0  0
  -15.6614   -8.1463    7.6595 C   0  0  0  0  0  0  0  0  0  0  0  0
  -14.4834   -8.4514    8.4618 C   0  0  0  0  0  0  0  0  0  0  0  0
  -13.7076   -9.6879    8.4087 C   0  0  0  0  0  0  0  0  0  0  0  0
  -12.1984   -9.5196    8.2961 C   0  0  0  0  0  0  0  0  0  0  0  0
  -11.9441   -8.0051    8.2672 C   0  0  0  0  0  0  0  0  0  0  0  0
  -10.4607   -7.8326    8.5287 C   0  0  0  0  0  0  0  0  0  0  0  0
   -9.6046   -8.7244    7.6823 C   0  0  0  0  0  0  0  0  0  0  0  0
   -8.1406   -8.3745    7.8315 C   0  0  0  0  0  0  0  0  0  0  0  0
   -7.8280   -6.8261    6.9253 S   0  0  0  0  0  0  0  0  0  0  0  0
   -8.8238   -5.8027    7.5254 O   0  0  0  0  0  0  0  0  0  0  0  0
   -6.1802   -6.2508    7.2307 C   0  0  0  0  0  0  0  0  0  0  0  0
   -5.1166   -7.0357    6.5423 C   0  0  0  0  0  0  0  0  0  0  0  0
   -3.9781   -6.2602    5.9754 C   0  0  0  0  0  0  0  0  0  0  0  0
   -2.6374   -6.7695    6.3605 C   0  0  0  0  0  0  0  0  0  0  0  0
   -2.2484   -6.1064    7.5265 F   0  0  0  0  0  0  0  0  0  0  0  0
   -1.7417   -6.2929    5.3725 F   0  0  0  0  0  0  0  0  0  0  0  0
   -2.4396   -8.2169    6.5241 C   0  0  0  0  0  0  0  0  0  0  0  0
   -3.1913   -9.0328    5.7533 F   0  0  0  0  0  0  0  0  0  0  0  0
   -2.6845   -8.5229    7.8719 F   0  0  0  0  0  0  0  0  0  0  0  0
   -1.0742   -8.4743    6.3233 F   0  0  0  0  0  0  0  0  0  0  0  0
  2  1  1  0  0  0
  2  3  1  0  0  0
  3  4  1  0  0  0
  4  5  1  0  0  0
  5  6  1  0  0  0
  6  7  1  0  0  0
  7  8  1  0  0  0
  8  9  1  0  0  0
  9 10  1  0  0  0
 10 11  1  0  0  0
  6 12  1  0  0  0
 12 23  1  0  0  0
 23 24  1  0  0  0
 24 25  1  0  0  0
 25 26  1  0  0  0
 26 27  1  0  0  0
 27 28  1  0  0  0
 28 29  1  0  0  0
 29 30  1  0  0  0
 30 31  1  0  0  0
 31 32  1  0  0  0
 32 33  2  0  0  0
 32 34  1  0  0  0
 34 35  1  0  0  0
 35 36  1  0  0  0
 36 37  1  0  0  0
 37 38  1  0  0  0
 37 39  1  0  0  0
 37 40  1  0  0  0
 40 41  1  0  0  0
 40 42  1  0  0  0
 40 43  1  0  0  0
 12 13  1  0  0  0
 13 14  1  0  0  0
 14 15  2  0  0  0
 15 16  1  0  0  0
 16 17  1  0  0  0
 16 18  2  0  0  0
 18 19  1  0  0  0
 19 20  2  0  0  0
  7  2  1  0  0  0
 20 14  1  0  0  0
 10  2  1  0  0  0
 20  5  1  0  0  0
 11 21  1  0  0  0
 17 22  1  0  0  0
M  END
> <minimizedAffinity>
4.68338

> <CNNscore>
0.3697991669

> <CNNaffinity>
7.3406996727

> <CNN_VS>
2.7145845890

> <CNNaffinity_variance>
0.5412488580

$$$$
[H]Oc1c([H])c([H])c2c(c1[H])C([H])([H])[C@@]([H])(C([H])([H])C([H])([H])C([H])([H])C([H])([H])C([H])([H])C([H])([H])C([H])([H])C([H])([H])C([H])([H])S(=O)C([H])([H])C([H])([H])C([H])([H])C(F)(F)C(F)(F)F)[C@]1([H])[C@]2([H])C([H])([H])C([H])([H])[C@]2(C([H])([H])[H])[C@@]([H])(O[H])C([H])([H])C([H])([H])[C@]21[H]


 43 46  0  0  0  0  0  0  0  0999 V2000
   -1.2241   -3.7335    5.5568 C   0  0  0  0  0  0  0  0  0  0  0  0
   -2.3248   -3.3146    6.4992 C   0  0  0  0  0  0  0  0  0  0  0  0
   -1.8563   -3.4387    7.9109 C   0  0  0  0  0  0  0  0  0  0  0  0
   -1.7633   -4.8305    8.4277 C   0  0  0  0  0  0  0  0  0  0  0  0
   -2.8250   -5.7731    7.9286 C   0  0  0  0  0  0  0  0  0  0  0  0
   -3.1976   -5.5549    6.5135 C   0  0  0  0  0  0  0  0  0  0  0  0
   -3.5887   -4.1289    6.3508 C   0  0  0  0  0  0  0  0  0  0  0  0
   -4.0756   -3.7120    5.0081 C   0  0  0  0  0  0  0  0  0  0  0  0
   -3.9384   -2.1862    5.1177 C   0  0  0  0  0  0  0  0  0  0  0  0
   -2.8225   -1.9518    6.1403 C   0  0  0  0  0  0  0  0  0  0  0  0
   -1.8284   -1.1785    5.5055 O   0  0  0  0  0  0  0  0  0  0  0  0
   -4.3036   -6.5061    6.0423 C   0  0  0  0  0  0  0  0  0  0  0  0
   -3.6912   -7.8733    6.0552 C   0  0  0  0  0  0  0  0  0  0  0  0
   -2.7856   -8.1178    7.1778 C   0  0  0  0  0  0  0  0  0  0  0  0
   -2.3429   -9.4565    7.3019 C   0  0  0  0  0  0  0  0  0  0  0  0
   -1.4854   -9.8341    8.2999 C   0  0  0  0  0  0  0  0  0  0  0  0
   -1.0601  -11.1733    8.4016 O   0  0  0  0  0  0  0  0  0  0  0  0
   -1.0606   -8.8744    9.1866 C   0  0  0  0  0  0  0  0  0  0  0  0
   -1.4887   -7.5542    9.0755 C   0  0  0  0  0  0  0  0  0  0  0  0
   -2.3562   -7.1736    8.0653 C   0  0  0  0  0  0  0  0  0  0  0  0
   -2.1946   -0.2951    5.2839 H   0  0  0  0  0  0  0  0  0  0  0  0
   -0.2198  -11.4468    7.9051 H   0  0  0  0  0  0  0  0  0  0  0  0
   -5.5077   -6.4146    6.8631 C   0  0  0  0  0  0  0  0  0  0  0  0
   -5.9362   -7.6173    7.6077 C   0  0  0  0  0  0  0  0  0  0  0  0
   -7.1878   -7.6097    8.3548 C   0  0  0  0  0  0  0  0  0  0  0  0
   -8.5122   -7.8976    7.8102 C   0  0  0  0  0  0  0  0  0  0  0  0
   -9.5029   -6.7414    7.8295 C   0  0  0  0  0  0  0  0  0  0  0  0
  -10.4199   -6.9921    9.0359 C   0  0  0  0  0  0  0  0  0  0  0  0
  -11.8328   -6.9865    8.4863 C   0  0  0  0  0  0  0  0  0  0  0  0
  -12.8810   -7.0909    9.5517 C   0  0  0  0  0  0  0  0  0  0  0  0
  -13.6334   -8.3990    9.4483 C   0  0  0  0  0  0  0  0  0  0  0  0
  -13.4366   -9.0389    7.7546 S   0  0  0  0  0  0  0  0  0  0  0  0
  -13.4698  -10.5804    7.9024 O   0  0  0  0  0  0  0  0  0  0  0  0
  -14.8032   -8.5430    6.7417 C   0  0  0  0  0  0  0  0  0  0  0  0
  -15.0420   -7.0723    6.7071 C   0  0  0  0  0  0  0  0  0  0  0  0
  -15.3831   -6.4840    5.3817 C   0  0  0  0  0  0  0  0  0  0  0  0
  -16.8111   -6.6226    4.9988 C   0  0  0  0  0  0  0  0  0  0  0  0
  -17.2142   -5.4202    4.4137 F   0  0  0  0  0  0  0  0  0  0  0  0
  -17.5360   -6.6797    6.2141 F   0  0  0  0  0  0  0  0  0  0  0  0
  -17.2196   -7.7493    4.1476 C   0  0  0  0  0  0  0  0  0  0  0  0
  -16.2665   -8.3161    3.3760 F   0  0  0  0  0  0  0  0  0  0  0  0
  -18.2550   -7.2925    3.3173 F   0  0  0  0  0  0  0  0  0  0  0  0
  -17.8071   -8.7105    4.9853 F   0  0  0  0  0  0  0  0  0  0  0  0
  2  1  1  0  0  0
  2  3  1  0  0  0
  3  4  1  0  0  0
  4  5  1  0  0  0
  5  6  1  0  0  0
  6  7  1  0  0  0
  7  8  1  0  0  0
  8  9  1  0  0  0
  9 10  1  0  0  0
 10 11  1  0  0  0
  6 12  1  0  0  0
 12 23  1  0  0  0
 23 24  1  0  0  0
 24 25  1  0  0  0
 25 26  1  0  0  0
 26 27  1  0  0  0
 27 28  1  0  0  0
 28 29  1  0  0  0
 29 30  1  0  0  0
 30 31  1  0  0  0
 31 32  1  0  0  0
 32 33  2  0  0  0
 32 34  1  0  0  0
 34 35  1  0  0  0
 35 36  1  0  0  0
 36 37  1  0  0  0
 37 38  1  0  0  0
 37 39  1  0  0  0
 37 40  1  0  0  0
 40 41  1  0  0  0
 40 42  1  0  0  0
 40 43  1  0  0  0
 12 13  1  0  0  0
 13 14  1  0  0  0
 14 15  2  0  0  0
 15 16  1  0  0  0
 16 17  1  0  0  0
 16 18  2  0  0  0
 18 19  1  0  0  0
 19 20  2  0  0  0
  7  2  1  0  0  0
 20 14  1  0  0  0
 10  2  1  0  0  0
 20  5  1  0  0  0
 11 21  1  0  0  0
 17 22  1  0  0  0
M  END
> <minimizedAffinity>
-7.56661

> <CNNscore>
0.3551013172

> <CNNaffinity>
7.1040182114

> <CNN_VS>
2.5226461887

> <CNNaffinity_variance>
0.1286484003

$$$$
[H]Oc1c([H])c([H])c2c(c1[H])C([H])([H])[C@@]([H])(C([H])([H])C([H])([H])C([H])([H])C([H])([H])C([H])([H])C([H])([H])C([H])([H])C([H])([H])C([H])([H])S(=O)C([H])([H])C([H])([H])C([H])([H])C(F)(F)C(F)(F)F)[C@]1([H])[C@]2([H])C([H])([H])C([H])([H])[C@]2(C([H])([H])[H])[C@@]([H])(O[H])C([H])([H])C([H])([H])[C@]21[H]


 43 46  0  0  0  0  0  0  0  0999 V2000
   -3.6041   -2.3117    9.5986 C   0  0  0  0  0  0  0  0  0  0  0  0
   -2.7344   -3.5235    9.8224 C   0  0  0  0  0  0  0  0  0  0  0  0
   -1.3378   -3.2316    9.3840 C   0  0  0  0  0  0  0  0  0  0  0  0
   -1.1313   -3.1915    7.9114 C   0  0  0  0  0  0  0  0  0  0  0  0
   -1.9505   -4.1759    7.1210 C   0  0  0  0  0  0  0  0  0  0  0  0
   -3.3180   -4.3730    7.6503 C   0  0  0  0  0  0  0  0  0  0  0  0
   -3.2107   -4.7528    9.0845 C   0  0  0  0  0  0  0  0  0  0  0  0
   -4.4785   -5.0739    9.7939 C   0  0  0  0  0  0  0  0  0  0  0  0
   -4.0213   -4.9638   11.2560 C   0  0  0  0  0  0  0  0  0  0  0  0
   -2.8439   -3.9844   11.2400 C   0  0  0  0  0  0  0  0  0  0  0  0
   -3.1676   -2.9260   12.1142 O   0  0  0  0  0  0  0  0  0  0  0  0
   -4.1176   -5.4047    6.8462 C   0  0  0  0  0  0  0  0  0  0  0  0
   -4.3300   -4.7873    5.4978 C   0  0  0  0  0  0  0  0  0  0  0  0
   -3.1865   -4.0250    4.9967 C   0  0  0  0  0  0  0  0  0  0  0  0
   -3.3057   -3.5900    3.6550 C   0  0  0  0  0  0  0  0  0  0  0  0
   -2.3177   -2.8590    3.0523 C   0  0  0  0  0  0  0  0  0  0  0  0
   -2.4609   -2.4385    1.7153 O   0  0  0  0  0  0  0  0  0  0  0  0
   -1.1973   -2.5546    3.7867 C   0  0  0  0  0  0  0  0  0  0  0  0
   -1.0676   -2.9765    5.1072 C   0  0  0  0  0  0  0  0  0  0  0  0
   -2.0680   -3.7160    5.7158 C   0  0  0  0  0  0  0  0  0  0  0  0
   -3.2331   -3.2693   13.0315 H   0  0  0  0  0  0  0  0  0  0  0  0
   -2.8989   -1.5411    1.5409 H   0  0  0  0  0  0  0  0  0  0  0  0
   -3.4500   -6.7014    6.7791 C   0  0  0  0  0  0  0  0  0  0  0  0
   -4.2678   -7.9171    6.9737 C   0  0  0  0  0  0  0  0  0  0  0  0
   -5.5917   -7.8213    7.5760 C   0  0  0  0  0  0  0  0  0  0  0  0
   -6.8336   -8.3310    7.0003 C   0  0  0  0  0  0  0  0  0  0  0  0
   -7.5089   -9.4570    7.7714 C   0  0  0  0  0  0  0  0  0  0  0  0
   -8.9973   -9.3904    7.3976 C   0  0  0  0  0  0  0  0  0  0  0  0
   -9.4452   -7.9839    7.7433 C   0  0  0  0  0  0  0  0  0  0  0  0
  -10.9110   -7.8870    8.0377 C   0  0  0  0  0  0  0  0  0  0  0  0
  -11.6684   -9.0381    7.4139 C   0  0  0  0  0  0  0  0  0  0  0  0
  -13.2734   -9.1917    8.2607 S   0  0  0  0  0  0  0  0  0  0  0  0
  -13.1473   -8.3023    9.5225 O   0  0  0  0  0  0  0  0  0  0  0  0
  -14.5741   -8.5448    7.2461 C   0  0  0  0  0  0  0  0  0  0  0  0
  -14.1155   -7.6133    6.1770 C   0  0  0  0  0  0  0  0  0  0  0  0
  -14.6738   -6.2327    6.2122 C   0  0  0  0  0  0  0  0  0  0  0  0
  -15.4125   -5.8388    4.9856 C   0  0  0  0  0  0  0  0  0  0  0  0
  -14.9011   -6.5853    3.9218 F   0  0  0  0  0  0  0  0  0  0  0  0
  -15.0149   -4.5094    4.7021 F   0  0  0  0  0  0  0  0  0  0  0  0
  -16.8808   -5.9082    4.9791 C   0  0  0  0  0  0  0  0  0  0  0  0
  -17.5530   -4.7698    5.2571 F   0  0  0  0  0  0  0  0  0  0  0  0
  -17.2574   -6.8893    5.9095 F   0  0  0  0  0  0  0  0  0  0  0  0
  -17.2668   -6.4114    3.7266 F   0  0  0  0  0  0  0  0  0  0  0  0
  2  1  1  0  0  0
  2  3  1  0  0  0
  3  4  1  0  0  0
  4  5  1  0  0  0
  5  6  1  0  0  0
  6  7  1  0  0  0
  7  8  1  0  0  0
  8  9  1  0  0  0
  9 10  1  0  0  0
 10 11  1  0  0  0
  6 12  1  0  0  0
 12 23  1  0  0  0
 23 24  1  0  0  0
 24 25  1  0  0  0
 25 26  1  0  0  0
 26 27  1  0  0  0
 27 28  1  0  0  0
 28 29  1  0  0  0
 29 30  1  0  0  0
 30 31  1  0  0  0
 31 32  1  0  0  0
 32 33  2  0  0  0
 32 34  1  0  0  0
 34 35  1  0  0  0
 35 36  1  0  0  0
 36 37  1  0  0  0
 37 38  1  0  0  0
 37 39  1  0  0  0
 37 40  1  0  0  0
 40 41  1  0  0  0
 40 42  1  0  0  0
 40 43  1  0  0  0
 12 13  1  0  0  0
 13 14  1  0  0  0
 14 15  2  0  0  0
 15 16  1  0  0  0
 16 17  1  0  0  0
 16 18  2  0  0  0
 18 19  1  0  0  0
 19 20  2  0  0  0
  7  2  1  0  0  0
 20 14  1  0  0  0
 10  2  1  0  0  0
 20  5  1  0  0  0
 11 21  1  0  0  0
 17 22  1  0  0  0
M  END
> <minimizedAffinity>
-7.48464

> <CNNscore>
0.3479061127

> <CNNaffinity>
6.9135980606

> <CNN_VS>
2.4052829742

> <CNNaffinity_variance>
0.0436389521

$$$$
[H]Oc1c([H])c([H])c2c(c1[H])C([H])([H])[C@@]([H])(C([H])([H])C([H])([H])C([H])([H])C([H])([H])C([H])([H])C([H])([H])C([H])([H])C([H])([H])C([H])([H])S(=O)C([H])([H])C([H])([H])C([H])([H])C(F)(F)C(F)(F)F)[C@]1([H])[C@]2([H])C([H])([H])C([H])([H])[C@]2(C([H])([H])[H])[C@@]([H])(O[H])C([H])([H])C([H])([H])[C@]21[H]


 43 46  0  0  0  0  0  0  0  0999 V2000
  -11.5997   -9.4951    5.4900 C   0  0  0  0  0  0  0  0  0  0  0  0
  -11.9528   -9.5930    6.9532 C   0  0  0  0  0  0  0  0  0  0  0  0
  -13.0917  -10.5404    7.1362 C   0  0  0  0  0  0  0  0  0  0  0  0
  -14.4208  -10.0222    6.7145 C   0  0  0  0  0  0  0  0  0  0  0  0
  -14.6475   -8.5558    6.9655 C   0  0  0  0  0  0  0  0  0  0  0  0
  -13.4466   -7.7209    6.7425 C   0  0  0  0  0  0  0  0  0  0  0  0
  -12.3393   -8.2695    7.5707 C   0  0  0  0  0  0  0  0  0  0  0  0
  -11.0509   -7.5257    7.5522 C   0  0  0  0  0  0  0  0  0  0  0  0
  -10.0995   -8.5922    8.1146 C   0  0  0  0  0  0  0  0  0  0  0  0
  -10.7400   -9.9365    7.7563 C   0  0  0  0  0  0  0  0  0  0  0  0
   -9.7959  -10.6619    7.0003 O   0  0  0  0  0  0  0  0  0  0  0  0
  -13.6975   -6.2377    7.0375 C   0  0  0  0  0  0  0  0  0  0  0  0
  -14.6655   -5.7772    5.9908 C   0  0  0  0  0  0  0  0  0  0  0  0
  -15.6952   -6.7584    5.6484 C   0  0  0  0  0  0  0  0  0  0  0  0
  -16.7173   -6.2731    4.7979 C   0  0  0  0  0  0  0  0  0  0  0  0
  -17.7441   -7.0792    4.3857 C   0  0  0  0  0  0  0  0  0  0  0  0
  -18.7493   -6.5714    3.5393 O   0  0  0  0  0  0  0  0  0  0  0  0
  -17.7596   -8.3822    4.8210 C   0  0  0  0  0  0  0  0  0  0  0  0
  -16.7603   -8.8717    5.6579 C   0  0  0  0  0  0  0  0  0  0  0  0
  -15.7221   -8.0552    6.0740 C   0  0  0  0  0  0  0  0  0  0  0  0
   -9.0158  -10.8645    7.5606 H   0  0  0  0  0  0  0  0  0  0  0  0
  -18.6113   -6.6424    2.5376 H   0  0  0  0  0  0  0  0  0  0  0  0
  -14.1796   -6.0111    8.3969 C   0  0  0  0  0  0  0  0  0  0  0  0
  -13.2337   -6.2139    9.5144 C   0  0  0  0  0  0  0  0  0  0  0  0
  -12.9050   -5.1089   10.4063 C   0  0  0  0  0  0  0  0  0  0  0  0
  -12.5647   -5.2230   11.8222 C   0  0  0  0  0  0  0  0  0  0  0  0
  -11.1282   -5.6241   12.1288 C   0  0  0  0  0  0  0  0  0  0  0  0
  -10.8966   -5.2670   13.6046 C   0  0  0  0  0  0  0  0  0  0  0  0
   -9.5870   -5.9282   13.9867 C   0  0  0  0  0  0  0  0  0  0  0  0
   -8.3852   -5.1101   13.6249 C   0  0  0  0  0  0  0  0  0  0  0  0
   -7.2803   -5.2868   14.6427 C   0  0  0  0  0  0  0  0  0  0  0  0
   -5.7468   -4.5926   13.9476 S   0  0  0  0  0  0  0  0  0  0  0  0
   -4.6375   -4.9826   14.9558 O   0  0  0  0  0  0  0  0  0  0  0  0
   -5.3767   -5.3460   12.3871 C   0  0  0  0  0  0  0  0  0  0  0  0
   -4.0771   -4.9237   11.7924 C   0  0  0  0  0  0  0  0  0  0  0  0
   -4.1390   -4.2584   10.4610 C   0  0  0  0  0  0  0  0  0  0  0  0
   -3.5024   -5.0273    9.3614 C   0  0  0  0  0  0  0  0  0  0  0  0
   -4.4961   -5.7902    8.7441 F   0  0  0  0  0  0  0  0  0  0  0  0
   -2.6670   -5.9836    9.9885 F   0  0  0  0  0  0  0  0  0  0  0  0
   -2.7233   -4.3100    8.3420 C   0  0  0  0  0  0  0  0  0  0  0  0
   -1.4120   -4.1086    8.5970 F   0  0  0  0  0  0  0  0  0  0  0  0
   -3.3381   -3.0635    8.1459 F   0  0  0  0  0  0  0  0  0  0  0  0
   -2.8861   -5.0028    7.1319 F   0  0  0  0  0  0  0  0  0  0  0  0
  2  1  1  0  0  0
  2  3  1  0  0  0
  3  4  1  0  0  0
  4  5  1  0  0  0
  5  6  1  0  0  0
  6  7  1  0  0  0
  7  8  1  0  0  0
  8  9  1  0  0  0
  9 10  1  0  0  0
 10 11  1  0  0  0
  6 12  1  0  0  0
 12 23  1  0  0  0
 23 24  1  0  0  0
 24 25  1  0  0  0
 25 26  1  0  0  0
 26 27  1  0  0  0
 27 28  1  0  0  0
 28 29  1  0  0  0
 29 30  1  0  0  0
 30 31  1  0  0  0
 31 32  1  0  0  0
 32 33  2  0  0  0
 32 34  1  0  0  0
 34 35  1  0  0  0
 35 36  1  0  0  0
 36 37  1  0  0  0
 37 38  1  0  0  0
 37 39  1  0  0  0
 37 40  1  0  0  0
 40 41  1  0  0  0
 40 42  1  0  0  0
 40 43  1  0  0  0
 12 13  1  0  0  0
 13 14  1  0  0  0
 14 15  2  0  0  0
 15 16  1  0  0  0
 16 17  1  0  0  0
 16 18  2  0  0  0
 18 19  1  0  0  0
 19 20  2  0  0  0
  7  2  1  0  0  0
 20 14  1  0  0  0
 10  2  1  0  0  0
 20  5  1  0  0  0
 11 21  1  0  0  0
 17 22  1  0  0  0
M  END
> <minimizedAffinity>
-2.08467

> <CNNscore>
0.3297903538

> <CNNaffinity>
7.1287612915

> <CNN_VS>
2.3509967327

> <CNNaffinity_variance>
0.5876314044

$$$$
[H]Oc1c([H])c([H])c2c(c1[H])C([H])([H])[C@@]([H])(C([H])([H])C([H])([H])C([H])([H])C([H])([H])C([H])([H])C([H])([H])C([H])([H])C([H])([H])C([H])([H])S(=O)C([H])([H])C([H])([H])C([H])([H])C(F)(F)C(F)(F)F)[C@]1([H])[C@]2([H])C([H])([H])C([H])([H])[C@]2(C([H])([H])[H])[C@@]([H])(O[H])C([H])([H])C([H])([H])[C@]21[H]


 43 46  0  0  0  0  0  0  0  0999 V2000
  -16.3742   -6.7454    6.8814 C   0  0  0  0  0  0  0  0  0  0  0  0
  -15.7085   -8.0392    6.4838 C   0  0  0  0  0  0  0  0  0  0  0  0
  -15.8335   -9.0331    7.5903 C   0  0  0  0  0  0  0  0  0  0  0  0
  -14.9539   -8.7879    8.7646 C   0  0  0  0  0  0  0  0  0  0  0  0
  -13.5957   -8.2250    8.4432 C   0  0  0  0  0  0  0  0  0  0  0  0
  -13.6044   -7.2455    7.3343 C   0  0  0  0  0  0  0  0  0  0  0  0
  -14.2422   -7.8868    6.1533 C   0  0  0  0  0  0  0  0  0  0  0  0
  -14.2843   -7.0931    4.8955 C   0  0  0  0  0  0  0  0  0  0  0  0
  -15.3578   -7.8616    4.1108 C   0  0  0  0  0  0  0  0  0  0  0  0
  -16.2458   -8.5163    5.1732 C   0  0  0  0  0  0  0  0  0  0  0  0
  -17.5646   -8.0687    4.9506 O   0  0  0  0  0  0  0  0  0  0  0  0
  -12.2042   -6.7142    7.0069 C   0  0  0  0  0  0  0  0  0  0  0  0
  -11.7879   -5.9131    8.2026 C   0  0  0  0  0  0  0  0  0  0  0  0
  -12.1977   -6.4860    9.4847 C   0  0  0  0  0  0  0  0  0  0  0  0
  -11.6593   -5.8389   10.6226 C   0  0  0  0  0  0  0  0  0  0  0  0
  -11.9603   -6.2586   11.8903 C   0  0  0  0  0  0  0  0  0  0  0  0
  -11.4107   -5.5972   13.0062 O   0  0  0  0  0  0  0  0  0  0  0  0
  -12.8051   -7.3324   12.0338 C   0  0  0  0  0  0  0  0  0  0  0  0
  -13.3414   -7.9777   10.9226 C   0  0  0  0  0  0  0  0  0  0  0  0
  -13.0360   -7.5521    9.6407 C   0  0  0  0  0  0  0  0  0  0  0  0
  -17.8787   -8.3994    4.0813 H   0  0  0  0  0  0  0  0  0  0  0  0
  -11.9250   -4.8181   13.4011 H   0  0  0  0  0  0  0  0  0  0  0  0
  -11.2624   -7.7815    6.6818 C   0  0  0  0  0  0  0  0  0  0  0  0
  -11.3690   -9.0549    7.4245 C   0  0  0  0  0  0  0  0  0  0  0  0
  -10.1786   -9.6719    7.9963 C   0  0  0  0  0  0  0  0  0  0  0  0
   -9.0344  -10.1833    7.2460 C   0  0  0  0  0  0  0  0  0  0  0  0
   -7.7027  -10.1811    7.9843 C   0  0  0  0  0  0  0  0  0  0  0  0
   -7.3066   -8.7048    8.1350 C   0  0  0  0  0  0  0  0  0  0  0  0
   -6.6953   -8.3057    6.8063 C   0  0  0  0  0  0  0  0  0  0  0  0
   -5.2099   -8.4960    6.7593 C   0  0  0  0  0  0  0  0  0  0  0  0
   -4.4967   -7.4003    7.5200 C   0  0  0  0  0  0  0  0  0  0  0  0
   -5.1280   -5.7951    6.9356 S   0  0  0  0  0  0  0  0  0  0  0  0
   -4.6388   -4.7662    7.9850 O   0  0  0  0  0  0  0  0  0  0  0  0
   -4.4128   -5.3809    5.3683 C   0  0  0  0  0  0  0  0  0  0  0  0
   -4.9488   -4.1315    4.7579 C   0  0  0  0  0  0  0  0  0  0  0  0
   -3.9703   -3.2685    4.0390 C   0  0  0  0  0  0  0  0  0  0  0  0
   -3.7502   -1.9395    4.6639 C   0  0  0  0  0  0  0  0  0  0  0  0
   -4.9458   -1.5513    5.2723 F   0  0  0  0  0  0  0  0  0  0  0  0
   -3.5917   -1.0272    3.5922 F   0  0  0  0  0  0  0  0  0  0  0  0
   -2.6353   -1.7655    5.6060 C   0  0  0  0  0  0  0  0  0  0  0  0
   -1.3960   -1.6527    5.0805 F   0  0  0  0  0  0  0  0  0  0  0  0
   -2.6525   -2.8624    6.4816 F   0  0  0  0  0  0  0  0  0  0  0  0
   -2.9341   -0.6471    6.4003 F   0  0  0  0  0  0  0  0  0  0  0  0
  2  1  1  0  0  0
  2  3  1  0  0  0
  3  4  1  0  0  0
  4  5  1  0  0  0
  5  6  1  0  0  0
  6  7  1  0  0  0
  7  8  1  0  0  0
  8  9  1  0  0  0
  9 10  1  0  0  0
 10 11  1  0  0  0
  6 12  1  0  0  0
 12 23  1  0  0  0
 23 24  1  0  0  0
 24 25  1  0  0  0
 25 26  1  0  0  0
 26 27  1  0  0  0
 27 28  1  0  0  0
 28 29  1  0  0  0
 29 30  1  0  0  0
 30 31  1  0  0  0
 31 32  1  0  0  0
 32 33  2  0  0  0
 32 34  1  0  0  0
 34 35  1  0  0  0
 35 36  1  0  0  0
 36 37  1  0  0  0
 37 38  1  0  0  0
 37 39  1  0  0  0
 37 40  1  0  0  0
 40 41  1  0  0  0
 40 42  1  0  0  0
 40 43  1  0  0  0
 12 13  1  0  0  0
 13 14  1  0  0  0
 14 15  2  0  0  0
 15 16  1  0  0  0
 16 17  1  0  0  0
 16 18  2  0  0  0
 18 19  1  0  0  0
 19 20  2  0  0  0
  7  2  1  0  0  0
 20 14  1  0  0  0
 10  2  1  0  0  0
 20  5  1  0  0  0
 11 21  1  0  0  0
 17 22  1  0  0  0
M  END
> <minimizedAffinity>
-0.89147

> <CNNscore>
0.3262443542

> <CNNaffinity>
7.4707689285

> <CNN_VS>
2.4372961521

> <CNNaffinity_variance>
0.8766957521

$$$$
[H]Oc1c([H])c([H])c2c(c1[H])C([H])([H])[C@@]([H])(C([H])([H])C([H])([H])C([H])([H])C([H])([H])C([H])([H])C([H])([H])C([H])([H])C([H])([H])C([H])([H])S(=O)C([H])([H])C([H])([H])C([H])([H])C(F)(F)C(F)(F)F)[C@]1([H])[C@]2([H])C([H])([H])C([H])([H])[C@]2(C([H])([H])[H])[C@@]([H])(O[H])C([H])([H])C([H])([H])[C@]21[H]


 43 46  0  0  0  0  0  0  0  0999 V2000
  -11.4901   -9.3792    5.5055 C   0  0  0  0  0  0  0  0  0  0  0  0
  -11.8730   -9.6543    6.9383 C   0  0  0  0  0  0  0  0  0  0  0  0
  -13.0025  -10.6291    6.9816 C   0  0  0  0  0  0  0  0  0  0  0  0
  -14.3293  -10.0790    6.5941 C   0  0  0  0  0  0  0  0  0  0  0  0
  -14.5811   -8.6554    7.0121 C   0  0  0  0  0  0  0  0  0  0  0  0
  -13.3871   -7.7869    6.9173 C   0  0  0  0  0  0  0  0  0  0  0  0
  -12.2905   -8.4180    7.6995 C   0  0  0  0  0  0  0  0  0  0  0  0
  -11.0121   -7.6633    7.7990 C   0  0  0  0  0  0  0  0  0  0  0  0
  -10.0586   -8.7786    8.2524 C   0  0  0  0  0  0  0  0  0  0  0  0
  -10.6730  -10.0777    7.7225 C   0  0  0  0  0  0  0  0  0  0  0  0
   -9.7033  -10.6977    6.9074 O   0  0  0  0  0  0  0  0  0  0  0  0
  -13.6643   -6.3521    7.3805 C   0  0  0  0  0  0  0  0  0  0  0  0
  -14.6159   -5.7810    6.3740 C   0  0  0  0  0  0  0  0  0  0  0  0
  -15.6246   -6.7255    5.8941 C   0  0  0  0  0  0  0  0  0  0  0  0
  -16.6348   -6.1537    5.0841 C   0  0  0  0  0  0  0  0  0  0  0  0
  -17.6415   -6.9162    4.5559 C   0  0  0  0  0  0  0  0  0  0  0  0
  -18.6352   -6.3223    3.7529 O   0  0  0  0  0  0  0  0  0  0  0  0
  -17.6487   -8.2617    4.8329 C   0  0  0  0  0  0  0  0  0  0  0  0
  -16.6610   -8.8365    5.6283 C   0  0  0  0  0  0  0  0  0  0  0  0
  -15.6431   -8.0640    6.1620 C   0  0  0  0  0  0  0  0  0  0  0  0
   -8.9327  -10.9570    7.4574 H   0  0  0  0  0  0  0  0  0  0  0  0
  -18.4749   -6.2721    2.7533 H   0  0  0  0  0  0  0  0  0  0  0  0
  -14.1784   -6.2941    8.7458 C   0  0  0  0  0  0  0  0  0  0  0  0
  -13.2352   -6.5419    9.8564 C   0  0  0  0  0  0  0  0  0  0  0  0
  -12.4149   -5.4557   10.3778 C   0  0  0  0  0  0  0  0  0  0  0  0
  -12.1051   -5.2156   11.7849 C   0  0  0  0  0  0  0  0  0  0  0  0
  -10.8267   -5.8612   12.3020 C   0  0  0  0  0  0  0  0  0  0  0  0
  -10.4329   -5.0697   13.5581 C   0  0  0  0  0  0  0  0  0  0  0  0
   -9.2231   -5.7822   14.1302 C   0  0  0  0  0  0  0  0  0  0  0  0
   -7.9225   -5.2256   13.6369 C   0  0  0  0  0  0  0  0  0  0  0  0
   -6.8428   -5.3522   14.6887 C   0  0  0  0  0  0  0  0  0  0  0  0
   -5.2247   -5.1941   13.8682 S   0  0  0  0  0  0  0  0  0  0  0  0
   -4.4683   -6.4994   14.2191 O   0  0  0  0  0  0  0  0  0  0  0  0
   -5.4261   -5.1180   12.1094 C   0  0  0  0  0  0  0  0  0  0  0  0
   -4.1536   -4.9570   11.3505 C   0  0  0  0  0  0  0  0  0  0  0  0
   -3.6004   -3.5767   11.2630 C   0  0  0  0  0  0  0  0  0  0  0  0
   -2.3341   -3.3753   12.0121 C   0  0  0  0  0  0  0  0  0  0  0  0
   -1.2777   -3.5184   11.1098 F   0  0  0  0  0  0  0  0  0  0  0  0
   -2.2103   -4.4921   12.8743 F   0  0  0  0  0  0  0  0  0  0  0  0
   -2.1525   -2.1457   12.7968 C   0  0  0  0  0  0  0  0  0  0  0  0
   -1.0803   -2.0903   13.6167 F   0  0  0  0  0  0  0  0  0  0  0  0
   -3.3134   -1.9641   13.5646 F   0  0  0  0  0  0  0  0  0  0  0  0
   -2.1314   -1.0742   11.8899 F   0  0  0  0  0  0  0  0  0  0  0  0
  2  1  1  0  0  0
  2  3  1  0  0  0
  3  4  1  0  0  0
  4  5  1  0  0  0
  5  6  1  0  0  0
  6  7  1  0  0  0
  7  8  1  0  0  0
  8  9  1  0  0  0
  9 10  1  0  0  0
 10 11  1  0  0  0
  6 12  1  0  0  0
 12 23  1  0  0  0
 23 24  1  0  0  0
 24 25  1  0  0  0
 25 26  1  0  0  0
 26 27  1  0  0  0
 27 28  1  0  0  0
 28 29  1  0  0  0
 29 30  1  0  0  0
 30 31  1  0  0  0
 31 32  1  0  0  0
 32 33  2  0  0  0
 32 34  1  0  0  0
 34 35  1  0  0  0
 35 36  1  0  0  0
 36 37  1  0  0  0
 37 38  1  0  0  0
 37 39  1  0  0  0
 37 40  1  0  0  0
 40 41  1  0  0  0
 40 42  1  0  0  0
 40 43  1  0  0  0
 12 13  1  0  0  0
 13 14  1  0  0  0
 14 15  2  0  0  0
 15 16  1  0  0  0
 16 17  1  0  0  0
 16 18  2  0  0  0
 18 19  1  0  0  0
 19 20  2  0  0  0
  7  2  1  0  0  0
 20 14  1  0  0  0
 10  2  1  0  0  0
 20  5  1  0  0  0
 11 21  1  0  0  0
 17 22  1  0  0  0
M  END
> <minimizedAffinity>
-0.95048

> <CNNscore>
0.2658684254

> <CNNaffinity>
7.0840506554

> <CNN_VS>
1.8834253550

> <CNNaffinity_variance>
1.0945901871

$$$$
[H]Oc1c([H])c([H])c2c(c1[H])C([H])([H])[C@@]([H])(C([H])([H])C([H])([H])C([H])([H])C([H])([H])C([H])([H])C([H])([H])C([H])([H])C([H])([H])C([H])([H])S(=O)C([H])([H])C([H])([H])C([H])([H])C(F)(F)C(F)(F)F)[C@]1([H])[C@]2([H])C([H])([H])C([H])([H])[C@]2(C([H])([H])[H])[C@@]([H])(O[H])C([H])([H])C([H])([H])[C@]21[H]


 43 46  0  0  0  0  0  0  0  0999 V2000
  -12.9637   -8.1547    4.2770 C   0  0  0  0  0  0  0  0  0  0  0  0
  -13.5694   -9.2726    5.0885 C   0  0  0  0  0  0  0  0  0  0  0  0
  -14.6425   -9.9462    4.2995 C   0  0  0  0  0  0  0  0  0  0  0  0
  -15.9094   -9.1778    4.1680 C   0  0  0  0  0  0  0  0  0  0  0  0
  -16.2955   -8.3648    5.3740 C   0  0  0  0  0  0  0  0  0  0  0  0
  -15.1452   -7.7419    6.0653 C   0  0  0  0  0  0  0  0  0  0  0  0
  -14.1675   -8.8127    6.3974 C   0  0  0  0  0  0  0  0  0  0  0  0
  -12.9616   -8.4092    7.1697 C   0  0  0  0  0  0  0  0  0  0  0  0
  -12.0464   -9.6167    6.9182 C   0  0  0  0  0  0  0  0  0  0  0  0
  -12.5002  -10.1967    5.5753 C   0  0  0  0  0  0  0  0  0  0  0  0
  -11.3785  -10.2008    4.7203 O   0  0  0  0  0  0  0  0  0  0  0  0
  -15.5644   -6.9481    7.3080 C   0  0  0  0  0  0  0  0  0  0  0  0
  -16.3586   -5.7861    6.7945 C   0  0  0  0  0  0  0  0  0  0  0  0
  -17.2259   -6.1029    5.6598 C   0  0  0  0  0  0  0  0  0  0  0  0
  -18.1108   -5.0649    5.2819 C   0  0  0  0  0  0  0  0  0  0  0  0
  -18.9767   -5.2134    4.2321 C   0  0  0  0  0  0  0  0  0  0  0  0
  -19.8477   -4.1648    3.8765 O   0  0  0  0  0  0  0  0  0  0  0  0
  -18.9666   -6.4045    3.5475 C   0  0  0  0  0  0  0  0  0  0  0  0
  -18.1011   -7.4334    3.9092 C   0  0  0  0  0  0  0  0  0  0  0  0
  -17.2256   -7.2818    4.9715 C   0  0  0  0  0  0  0  0  0  0  0  0
  -10.7004  -10.8154    5.0753 H   0  0  0  0  0  0  0  0  0  0  0  0
  -19.5237   -3.4830    3.2000 H   0  0  0  0  0  0  0  0  0  0  0  0
  -16.3036   -7.7618    8.2688 C   0  0  0  0  0  0  0  0  0  0  0  0
  -15.5957   -8.2230    9.4815 C   0  0  0  0  0  0  0  0  0  0  0  0
  -14.5260   -7.4173   10.0571 C   0  0  0  0  0  0  0  0  0  0  0  0
  -13.3213   -7.9298   10.7050 C   0  0  0  0  0  0  0  0  0  0  0  0
  -12.0123   -7.6695    9.9720 C   0  0  0  0  0  0  0  0  0  0  0  0
  -11.9185   -6.1456    9.8047 C   0  0  0  0  0  0  0  0  0  0  0  0
  -10.5893   -5.8881    9.1225 C   0  0  0  0  0  0  0  0  0  0  0  0
   -9.9342   -7.1368    8.6163 C   0  0  0  0  0  0  0  0  0  0  0  0
   -8.8252   -6.8120    7.6404 C   0  0  0  0  0  0  0  0  0  0  0  0
   -7.6059   -8.1640    7.6905 S   0  0  0  0  0  0  0  0  0  0  0  0
   -8.4134   -9.4162    8.1136 O   0  0  0  0  0  0  0  0  0  0  0  0
   -6.9310   -8.4503    6.0774 C   0  0  0  0  0  0  0  0  0  0  0  0
   -5.7062   -7.6578    5.7730 C   0  0  0  0  0  0  0  0  0  0  0  0
   -4.5238   -7.8969    6.6470 C   0  0  0  0  0  0  0  0  0  0  0  0
   -3.5222   -6.8006    6.6366 C   0  0  0  0  0  0  0  0  0  0  0  0
   -3.6898   -6.0813    5.4513 F   0  0  0  0  0  0  0  0  0  0  0  0
   -2.2609   -7.4276    6.4890 F   0  0  0  0  0  0  0  0  0  0  0  0
   -3.4623   -5.8728    7.7752 C   0  0  0  0  0  0  0  0  0  0  0  0
   -3.2608   -6.4100    8.9982 F   0  0  0  0  0  0  0  0  0  0  0  0
   -4.6687   -5.1555    7.7942 F   0  0  0  0  0  0  0  0  0  0  0  0
   -2.4673   -4.9254    7.4864 F   0  0  0  0  0  0  0  0  0  0  0  0
  2  1  1  0  0  0
  2  3  1  0  0  0
  3  4  1  0  0  0
  4  5  1  0  0  0
  5  6  1  0  0  0
  6  7  1  0  0  0
  7  8  1  0  0  0
  8  9  1  0  0  0
  9 10  1  0  0  0
 10 11  1  0  0  0
  6 12  1  0  0  0
 12 23  1  0  0  0
 23 24  1  0  0  0
 24 25  1  0  0  0
 25 26  1  0  0  0
 26 27  1  0  0  0
 27 28  1  0  0  0
 28 29  1  0  0  0
 29 30  1  0  0  0
 30 31  1  0  0  0
 31 32  1  0  0  0
 32 33  2  0  0  0
 32 34  1  0  0  0
 34 35  1  0  0  0
 35 36  1  0  0  0
 36 37  1  0  0  0
 37 38  1  0  0  0
 37 39  1  0  0  0
 37 40  1  0  0  0
 40 41  1  0  0  0
 40 42  1  0  0  0
 40 43  1  0  0  0
 12 13  1  0  0  0
 13 14  1  0  0  0
 14 15  2  0  0  0
 15 16  1  0  0  0
 16 17  1  0  0  0
 16 18  2  0  0  0
 18 19  1  0  0  0
 19 20  2  0  0  0
  7  2  1  0  0  0
 20 14  1  0  0  0
 10  2  1  0  0  0
 20  5  1  0  0  0
 11 21  1  0  0  0
 17 22  1  0  0  0
M  END
> <minimizedAffinity>
1.28132

> <CNNscore>
0.2652634382

> <CNNaffinity>
7.2528715134

> <CNN_VS>
1.9239215851

> <CNNaffinity_variance>
0.1618536413

$$$$
[H]Oc1c([H])c([H])c(-c2nc3c([H])c([H])c(O[H])c([H])c3c(Br)c2[H])c([H])c1[H]


 21 23  0  0  0  0  0  0  0  0999 V2000
  -10.1744   -7.5659    7.9666 C   0  0  0  0  0  0  0  0  0  0  0  0
  -10.6521   -6.6706    8.8846 C   0  0  0  0  0  0  0  0  0  0  0  0
  -12.0083   -6.6401    9.2286 C   0  0  0  0  0  0  0  0  0  0  0  0
  -12.5948   -5.3782   10.5023 Br  0  0  0  0  0  0  0  0  0  0  0  0
  -12.9026   -7.5069    8.6567 C   0  0  0  0  0  0  0  0  0  0  0  0
  -14.2404   -7.5302    8.9481 C   0  0  0  0  0  0  0  0  0  0  0  0
  -15.1232   -8.4162    8.3560 C   0  0  0  0  0  0  0  0  0  0  0  0
  -16.4738   -8.4029    8.6832 O   0  0  0  0  0  0  0  0  0  0  0  0
  -14.5901   -9.2960    7.4390 C   0  0  0  0  0  0  0  0  0  0  0  0
  -13.2356   -9.2862    7.1317 C   0  0  0  0  0  0  0  0  0  0  0  0
  -12.3673   -8.3979    7.7292 C   0  0  0  0  0  0  0  0  0  0  0  0
  -11.0525   -8.4089    7.4122 N   0  0  0  0  0  0  0  0  0  0  0  0
  -17.0883   -7.8020    8.1325 H   0  0  0  0  0  0  0  0  0  0  0  0
   -4.7337   -8.0028    6.6222 O   0  0  0  0  0  0  0  0  0  0  0  0
   -6.0794   -7.8376    6.9373 C   0  0  0  0  0  0  0  0  0  0  0  0
   -6.7639   -8.9255    7.4551 C   0  0  0  0  0  0  0  0  0  0  0  0
   -8.0925   -8.8121    7.7814 C   0  0  0  0  0  0  0  0  0  0  0  0
   -8.7825   -7.6098    7.6020 C   0  0  0  0  0  0  0  0  0  0  0  0
   -8.0536   -6.5650    7.0852 C   0  0  0  0  0  0  0  0  0  0  0  0
   -6.7188   -6.6317    6.7429 C   0  0  0  0  0  0  0  0  0  0  0  0
   -4.0408   -7.8181    7.3076 H   0  0  0  0  0  0  0  0  0  0  0  0
 14 15  1  0  0  0
 15 16  2  0  0  0
 16 17  1  0  0  0
 17 18  2  0  0  0
 18 19  1  0  0  0
 19 20  2  0  0  0
 18  1  1  0  0  0
  1  2  2  0  0  0
  2  3  1  0  0  0
  3  4  1  0  0  0
  3  5  2  0  0  0
  5  6  1  0  0  0
  6  7  2  0  0  0
  7  8  1  0  0  0
  7  9  1  0  0  0
  9 10  2  0  0  0
 10 11  1  0  0  0
 11 12  2  0  0  0
 20 15  1  0  0  0
 12  1  1  0  0  0
 11  5  1  0  0  0
 14 21  1  0  0  0
  8 13  1  0  0  0
M  END
> <minimizedAffinity>
-9.37376

> <CNNscore>
0.8373098373

> <CNNaffinity>
6.2324213982

> <CNN_VS>
5.2184677124

> <CNNaffinity_variance>
0.0362580940

$$$$
[H]Oc1c([H])c([H])c(-c2nc3c([H])c([H])c(O[H])c([H])c3c(Br)c2[H])c([H])c1[H]


 21 23  0  0  0  0  0  0  0  0999 V2000
   -9.1515   -7.9355    7.8621 C   0  0  0  0  0  0  0  0  0  0  0  0
   -9.7703   -7.0277    8.6778 C   0  0  0  0  0  0  0  0  0  0  0  0
  -11.1497   -7.0830    8.9075 C   0  0  0  0  0  0  0  0  0  0  0  0
  -11.9341   -5.7978   10.0441 Br  0  0  0  0  0  0  0  0  0  0  0  0
  -11.9260   -8.0491    8.3224 C   0  0  0  0  0  0  0  0  0  0  0  0
  -13.2786   -8.1595    8.5049 C   0  0  0  0  0  0  0  0  0  0  0  0
  -14.0403   -9.1450    7.9019 C   0  0  0  0  0  0  0  0  0  0  0  0
  -15.4114   -9.2179    8.1165 O   0  0  0  0  0  0  0  0  0  0  0  0
  -13.3676  -10.0330    7.0908 C   0  0  0  0  0  0  0  0  0  0  0  0
  -11.9959   -9.9357    6.8948 C   0  0  0  0  0  0  0  0  0  0  0  0
  -11.2493   -8.9486    7.5018 C   0  0  0  0  0  0  0  0  0  0  0  0
   -9.9148   -8.8757    7.2942 N   0  0  0  0  0  0  0  0  0  0  0  0
  -16.0183   -8.7002    7.4796 H   0  0  0  0  0  0  0  0  0  0  0  0
   -3.6613   -7.8883    6.6554 O   0  0  0  0  0  0  0  0  0  0  0  0
   -5.0082   -7.8736    7.0063 C   0  0  0  0  0  0  0  0  0  0  0  0
   -5.9194   -8.4070    6.1089 C   0  0  0  0  0  0  0  0  0  0  0  0
   -7.2588   -8.4155    6.4097 C   0  0  0  0  0  0  0  0  0  0  0  0
   -7.7338   -7.8921    7.6156 C   0  0  0  0  0  0  0  0  0  0  0  0
   -6.7854   -7.3765    8.4669 C   0  0  0  0  0  0  0  0  0  0  0  0
   -5.4306   -7.3463    8.2081 C   0  0  0  0  0  0  0  0  0  0  0  0
   -3.0965   -8.6660    6.9011 H   0  0  0  0  0  0  0  0  0  0  0  0
 14 15  1  0  0  0
 15 16  2  0  0  0
 16 17  1  0  0  0
 17 18  2  0  0  0
 18 19  1  0  0  0
 19 20  2  0  0  0
 18  1  1  0  0  0
  1  2  2  0  0  0
  2  3  1  0  0  0
  3  4  1  0  0  0
  3  5  2  0  0  0
  5  6  1  0  0  0
  6  7  2  0  0  0
  7  8  1  0  0  0
  7  9  1  0  0  0
  9 10  2  0  0  0
 10 11  1  0  0  0
 11 12  2  0  0  0
 20 15  1  0  0  0
 12  1  1  0  0  0
 11  5  1  0  0  0
 14 21  1  0  0  0
  8 13  1  0  0  0
M  END
> <minimizedAffinity>
-8.93059

> <CNNscore>
0.8070796132

> <CNNaffinity>
6.0387392044

> <CNN_VS>
4.8737435341

> <CNNaffinity_variance>
0.0433547907

$$$$
[H]Oc1c([H])c([H])c(-c2nc3c([H])c([H])c(O[H])c([H])c3c(Br)c2[H])c([H])c1[H]


 21 23  0  0  0  0  0  0  0  0999 V2000
  -10.2715   -7.6231    7.7805 C   0  0  0  0  0  0  0  0  0  0  0  0
  -10.7282   -6.8561    8.8175 C   0  0  0  0  0  0  0  0  0  0  0  0
  -12.0961   -6.7556    9.0962 C   0  0  0  0  0  0  0  0  0  0  0  0
  -12.6524   -5.6793   10.5422 Br  0  0  0  0  0  0  0  0  0  0  0  0
  -13.0230   -7.4227    8.3386 C   0  0  0  0  0  0  0  0  0  0  0  0
  -14.3737   -7.3676    8.5569 C   0  0  0  0  0  0  0  0  0  0  0  0
  -15.2896   -8.0512    7.7767 C   0  0  0  0  0  0  0  0  0  0  0  0
  -16.6522   -7.9652    8.0360 O   0  0  0  0  0  0  0  0  0  0  0  0
  -14.7764   -8.8084    6.7460 C   0  0  0  0  0  0  0  0  0  0  0  0
  -13.4092   -8.8756    6.5105 C   0  0  0  0  0  0  0  0  0  0  0  0
  -12.5079   -8.1892    7.2957 C   0  0  0  0  0  0  0  0  0  0  0  0
  -11.1813   -8.2714    7.0451 N   0  0  0  0  0  0  0  0  0  0  0  0
  -17.1766   -7.2232    7.5707 H   0  0  0  0  0  0  0  0  0  0  0  0
   -4.7955   -7.8045    6.5231 O   0  0  0  0  0  0  0  0  0  0  0  0
   -6.1478   -7.8163    6.8527 C   0  0  0  0  0  0  0  0  0  0  0  0
   -6.8792   -6.6591    6.6381 C   0  0  0  0  0  0  0  0  0  0  0  0
   -8.2161   -6.6214    6.9473 C   0  0  0  0  0  0  0  0  0  0  0  0
   -8.8680   -7.7368    7.4809 C   0  0  0  0  0  0  0  0  0  0  0  0
   -8.0934   -8.8563    7.6725 C   0  0  0  0  0  0  0  0  0  0  0  0
   -6.7484   -8.9411    7.3773 C   0  0  0  0  0  0  0  0  0  0  0  0
   -4.5083   -8.0689    5.6111 H   0  0  0  0  0  0  0  0  0  0  0  0
 14 15  1  0  0  0
 15 16  2  0  0  0
 16 17  1  0  0  0
 17 18  2  0  0  0
 18 19  1  0  0  0
 19 20  2  0  0  0
 18  1  1  0  0  0
  1  2  2  0  0  0
  2  3  1  0  0  0
  3  4  1  0  0  0
  3  5  2  0  0  0
  5  6  1  0  0  0
  6  7  2  0  0  0
  7  8  1  0  0  0
  7  9  1  0  0  0
  9 10  2  0  0  0
 10 11  1  0  0  0
 11 12  2  0  0  0
 20 15  1  0  0  0
 12  1  1  0  0  0
 11  5  1  0  0  0
 14 21  1  0  0  0
  8 13  1  0  0  0
M  END
> <minimizedAffinity>
-8.92879

> <CNNscore>
0.6915497780

> <CNNaffinity>
6.1454353333

> <CNN_VS>
4.2498745918

> <CNNaffinity_variance>
0.0545620732

$$$$
[H]Oc1c([H])c([H])c(-c2nc3c([H])c([H])c(O[H])c([H])c3c(Br)c2[H])c([H])c1[H]


 21 23  0  0  0  0  0  0  0  0999 V2000
   -8.7883   -7.4138    7.7947 C   0  0  0  0  0  0  0  0  0  0  0  0
   -9.4914   -8.4587    7.2599 C   0  0  0  0  0  0  0  0  0  0  0  0
  -10.8217   -8.6978    7.6231 C   0  0  0  0  0  0  0  0  0  0  0  0
  -11.7282  -10.1576    6.8446 Br  0  0  0  0  0  0  0  0  0  0  0  0
  -11.4637   -7.8922    8.5271 C   0  0  0  0  0  0  0  0  0  0  0  0
  -12.7617   -8.0701    8.9253 C   0  0  0  0  0  0  0  0  0  0  0  0
  -13.3873   -7.2418    9.8405 C   0  0  0  0  0  0  0  0  0  0  0  0
  -14.7075   -7.4614   10.2150 O   0  0  0  0  0  0  0  0  0  0  0  0
  -12.6342   -6.2053   10.3479 C   0  0  0  0  0  0  0  0  0  0  0  0
  -11.3163   -6.0102    9.9549 C   0  0  0  0  0  0  0  0  0  0  0  0
  -10.7055   -6.8432    9.0422 C   0  0  0  0  0  0  0  0  0  0  0  0
   -9.4207   -6.6315    8.6763 N   0  0  0  0  0  0  0  0  0  0  0  0
  -14.8769   -8.0698   11.0170 H   0  0  0  0  0  0  0  0  0  0  0  0
   -3.5301   -6.3432    6.1200 O   0  0  0  0  0  0  0  0  0  0  0  0
   -4.8109   -6.6204    6.5892 C   0  0  0  0  0  0  0  0  0  0  0  0
   -5.8675   -6.5070    5.6998 C   0  0  0  0  0  0  0  0  0  0  0  0
   -7.1492   -6.7699    6.1152 C   0  0  0  0  0  0  0  0  0  0  0  0
   -7.4196   -7.1546    7.4315 C   0  0  0  0  0  0  0  0  0  0  0  0
   -6.3338   -7.2506    8.2692 C   0  0  0  0  0  0  0  0  0  0  0  0
   -5.0297   -6.9968    7.8974 C   0  0  0  0  0  0  0  0  0  0  0  0
   -2.9789   -7.0713    5.7325 H   0  0  0  0  0  0  0  0  0  0  0  0
 14 15  1  0  0  0
 15 16  2  0  0  0
 16 17  1  0  0  0
 17 18  2  0  0  0
 18 19  1  0  0  0
 19 20  2  0  0  0
 18  1  1  0  0  0
  1  2  2  0  0  0
  2  3  1  0  0  0
  3  4  1  0  0  0
  3  5  2  0  0  0
  5  6  1  0  0  0
  6  7  2  0  0  0
  7  8  1  0  0  0
  7  9  1  0  0  0
  9 10  2  0  0  0
 10 11  1  0  0  0
 11 12  2  0  0  0
 20 15  1  0  0  0
 12  1  1  0  0  0
 11  5  1  0  0  0
 14 21  1  0  0  0
  8 13  1  0  0  0
M  END
> <minimizedAffinity>
-7.51031

> <CNNscore>
0.6765491366

> <CNNaffinity>
5.6895985603

> <CNN_VS>
3.8492929935

> <CNNaffinity_variance>
0.0126327900

$$$$
[H]Oc1c([H])c([H])c(-c2nc3c([H])c([H])c(O[H])c([H])c3c(Br)c2[H])c([H])c1[H]


 21 23  0  0  0  0  0  0  0  0999 V2000
   -7.0786   -9.0210    5.0817 C   0  0  0  0  0  0  0  0  0  0  0  0
   -8.0655   -8.6957    5.9720 C   0  0  0  0  0  0  0  0  0  0  0  0
   -7.7945   -7.9109    7.0986 C   0  0  0  0  0  0  0  0  0  0  0  0
   -9.2053   -7.5025    8.2826 Br  0  0  0  0  0  0  0  0  0  0  0  0
   -6.5307   -7.4424    7.3468 C   0  0  0  0  0  0  0  0  0  0  0  0
   -6.1982   -6.6712    8.4283 C   0  0  0  0  0  0  0  0  0  0  0  0
   -4.9134   -6.2105    8.6563 C   0  0  0  0  0  0  0  0  0  0  0  0
   -4.6226   -5.4299    9.7688 O   0  0  0  0  0  0  0  0  0  0  0  0
   -3.9581   -6.5669    7.7293 C   0  0  0  0  0  0  0  0  0  0  0  0
   -4.2780   -7.3484    6.6265 C   0  0  0  0  0  0  0  0  0  0  0  0
   -5.5623   -7.8007    6.4117 C   0  0  0  0  0  0  0  0  0  0  0  0
   -5.8475   -8.5606    5.3297 N   0  0  0  0  0  0  0  0  0  0  0  0
   -4.3403   -5.9110   10.6237 H   0  0  0  0  0  0  0  0  0  0  0  0
   -7.9153  -12.0198    0.4012 O   0  0  0  0  0  0  0  0  0  0  0  0
   -7.7492  -11.3109    1.5875 C   0  0  0  0  0  0  0  0  0  0  0  0
   -6.8273  -10.2764    1.6028 C   0  0  0  0  0  0  0  0  0  0  0  0
   -6.6278   -9.5479    2.7491 C   0  0  0  0  0  0  0  0  0  0  0  0
   -7.3411   -9.8272    3.9183 C   0  0  0  0  0  0  0  0  0  0  0  0
   -8.2416  -10.8634    3.8450 C   0  0  0  0  0  0  0  0  0  0  0  0
   -8.4758  -11.6225    2.7171 C   0  0  0  0  0  0  0  0  0  0  0  0
   -8.5889  -11.7193   -0.2622 H   0  0  0  0  0  0  0  0  0  0  0  0
 14 15  1  0  0  0
 15 16  2  0  0  0
 16 17  1  0  0  0
 17 18  2  0  0  0
 18 19  1  0  0  0
 19 20  2  0  0  0
 18  1  1  0  0  0
  1  2  2  0  0  0
  2  3  1  0  0  0
  3  4  1  0  0  0
  3  5  2  0  0  0
  5  6  1  0  0  0
  6  7  2  0  0  0
  7  8  1  0  0  0
  7  9  1  0  0  0
  9 10  2  0  0  0
 10 11  1  0  0  0
 11 12  2  0  0  0
 20 15  1  0  0  0
 12  1  1  0  0  0
 11  5  1  0  0  0
 14 21  1  0  0  0
  8 13  1  0  0  0
M  END
> <minimizedAffinity>
5.99044

> <CNNscore>
0.5394976139

> <CNNaffinity>
5.0318727493

> <CNN_VS>
2.7146832943

> <CNNaffinity_variance>
0.7014656663

$$$$
[H]Oc1c([H])c([H])c(-c2nc3c([H])c([H])c(O[H])c([H])c3c(Br)c2[H])c([H])c1[H]


 21 23  0  0  0  0  0  0  0  0999 V2000
  -17.1711   -6.0238    4.2363 C   0  0  0  0  0  0  0  0  0  0  0  0
  -16.4049   -5.0201    4.7634 C   0  0  0  0  0  0  0  0  0  0  0  0
  -16.9804   -3.8183    5.1914 C   0  0  0  0  0  0  0  0  0  0  0  0
  -15.8615   -2.4791    5.9079 Br  0  0  0  0  0  0  0  0  0  0  0  0
  -18.3313   -3.6078    5.0962 C   0  0  0  0  0  0  0  0  0  0  0  0
  -18.9574   -2.4574    5.4957 C   0  0  0  0  0  0  0  0  0  0  0  0
  -20.3242   -2.2695    5.3887 C   0  0  0  0  0  0  0  0  0  0  0  0
  -20.9160   -1.0839    5.8076 O   0  0  0  0  0  0  0  0  0  0  0  0
  -21.0485   -3.3114    4.8512 C   0  0  0  0  0  0  0  0  0  0  0  0
  -20.4296   -4.4853    4.4410 C   0  0  0  0  0  0  0  0  0  0  0  0
  -19.0668   -4.6589    4.5533 C   0  0  0  0  0  0  0  0  0  0  0  0
  -18.4886   -5.8119    4.1462 N   0  0  0  0  0  0  0  0  0  0  0  0
  -21.0050   -0.3318    5.1232 H   0  0  0  0  0  0  0  0  0  0  0  0
  -14.6875  -10.7348    2.4366 O   0  0  0  0  0  0  0  0  0  0  0  0
  -15.3512   -9.6004    2.8949 C   0  0  0  0  0  0  0  0  0  0  0  0
  -14.6748   -8.3916    2.8564 C   0  0  0  0  0  0  0  0  0  0  0  0
  -15.2870   -7.2448    3.2974 C   0  0  0  0  0  0  0  0  0  0  0  0
  -16.5943   -7.2656    3.7916 C   0  0  0  0  0  0  0  0  0  0  0  0
  -17.2163   -8.4915    3.8064 C   0  0  0  0  0  0  0  0  0  0  0  0
  -16.6421   -9.6692    3.3743 C   0  0  0  0  0  0  0  0  0  0  0  0
  -14.7547  -10.9926    1.4810 H   0  0  0  0  0  0  0  0  0  0  0  0
 14 15  1  0  0  0
 15 16  2  0  0  0
 16 17  1  0  0  0
 17 18  2  0  0  0
 18 19  1  0  0  0
 19 20  2  0  0  0
 18  1  1  0  0  0
  1  2  2  0  0  0
  2  3  1  0  0  0
  3  4  1  0  0  0
  3  5  2  0  0  0
  5  6  1  0  0  0
  6  7  2  0  0  0
  7  8  1  0  0  0
  7  9  1  0  0  0
  9 10  2  0  0  0
 10 11  1  0  0  0
 11 12  2  0  0  0
 20 15  1  0  0  0
 12  1  1  0  0  0
 11  5  1  0  0  0
 14 21  1  0  0  0
  8 13  1  0  0  0
M  END
> <minimizedAffinity>
25.10464

> <CNNscore>
0.5123518705

> <CNNaffinity>
5.8067321777

> <CNN_VS>
2.9750900269

> <CNNaffinity_variance>
1.1606426239

$$$$
[H]Oc1c([H])c([H])c(-c2nc3c([H])c([H])c(O[H])c([H])c3c(Br)c2[H])c([H])c1[H]


 21 23  0  0  0  0  0  0  0  0999 V2000
  -10.7986   -6.8396    8.7898 C   0  0  0  0  0  0  0  0  0  0  0  0
   -9.4354   -6.9534    8.8190 C   0  0  0  0  0  0  0  0  0  0  0  0
   -8.7868   -8.0428    8.2264 C   0  0  0  0  0  0  0  0  0  0  0  0
   -6.9041   -8.1329    8.3061 Br  0  0  0  0  0  0  0  0  0  0  0  0
   -9.4968   -9.0318    7.5971 C   0  0  0  0  0  0  0  0  0  0  0  0
   -8.9254  -10.1225    6.9983 C   0  0  0  0  0  0  0  0  0  0  0  0
   -9.6655  -11.1081    6.3690 C   0  0  0  0  0  0  0  0  0  0  0  0
   -9.0414  -12.1982    5.7743 O   0  0  0  0  0  0  0  0  0  0  0  0
  -11.0337  -10.9447    6.3685 C   0  0  0  0  0  0  0  0  0  0  0  0
  -11.6299   -9.8443    6.9711 C   0  0  0  0  0  0  0  0  0  0  0  0
  -10.8804   -8.8699    7.5946 C   0  0  0  0  0  0  0  0  0  0  0  0
  -11.4856   -7.8081    8.1741 N   0  0  0  0  0  0  0  0  0  0  0  0
   -8.8838  -13.0257    6.3508 H   0  0  0  0  0  0  0  0  0  0  0  0
  -13.2477   -2.3282   11.0809 O   0  0  0  0  0  0  0  0  0  0  0  0
  -12.6887   -3.4777   10.5300 C   0  0  0  0  0  0  0  0  0  0  0  0
  -11.4452   -3.3713    9.9278 C   0  0  0  0  0  0  0  0  0  0  0  0
  -10.8526   -4.4769    9.3702 C   0  0  0  0  0  0  0  0  0  0  0  0
  -11.4807   -5.7253    9.3946 C   0  0  0  0  0  0  0  0  0  0  0  0
  -12.7119   -5.7716   10.0045 C   0  0  0  0  0  0  0  0  0  0  0  0
  -13.3459   -4.6888   10.5777 C   0  0  0  0  0  0  0  0  0  0  0  0
  -13.0662   -2.0974   12.0285 H   0  0  0  0  0  0  0  0  0  0  0  0
 14 15  1  0  0  0
 15 16  2  0  0  0
 16 17  1  0  0  0
 17 18  2  0  0  0
 18 19  1  0  0  0
 19 20  2  0  0  0
 18  1  1  0  0  0
  1  2  2  0  0  0
  2  3  1  0  0  0
  3  4  1  0  0  0
  3  5  2  0  0  0
  5  6  1  0  0  0
  6  7  2  0  0  0
  7  8  1  0  0  0
  7  9  1  0  0  0
  9 10  2  0  0  0
 10 11  1  0  0  0
 11 12  2  0  0  0
 20 15  1  0  0  0
 12  1  1  0  0  0
 11  5  1  0  0  0
 14 21  1  0  0  0
  8 13  1  0  0  0
M  END
> <minimizedAffinity>
4.33761

> <CNNscore>
0.4972484410

> <CNNaffinity>
5.3500180244

> <CNN_VS>
2.6602880955

> <CNNaffinity_variance>
0.8684905767

$$$$
[H]Oc1c([H])c([H])c(-c2nc3c([H])c([H])c(O[H])c([H])c3c(Br)c2[H])c([H])c1[H]


 21 23  0  0  0  0  0  0  0  0999 V2000
   -6.3020   -7.3458    8.6416 C   0  0  0  0  0  0  0  0  0  0  0  0
   -7.6436   -7.3282    8.3731 C   0  0  0  0  0  0  0  0  0  0  0  0
   -8.5710   -6.9304    9.3428 C   0  0  0  0  0  0  0  0  0  0  0  0
  -10.4050   -6.9312    8.9009 Br  0  0  0  0  0  0  0  0  0  0  0  0
   -8.1650   -6.5453   10.5938 C   0  0  0  0  0  0  0  0  0  0  0  0
   -9.0186   -6.1455   11.5870 C   0  0  0  0  0  0  0  0  0  0  0  0
   -8.5829   -5.7612   12.8430 C   0  0  0  0  0  0  0  0  0  0  0  0
   -9.4868   -5.3627   13.8204 O   0  0  0  0  0  0  0  0  0  0  0  0
   -7.2226   -5.7974   13.0603 C   0  0  0  0  0  0  0  0  0  0  0  0
   -6.3425   -6.2002   12.0641 C   0  0  0  0  0  0  0  0  0  0  0  0
   -6.7904   -6.5806   10.8172 C   0  0  0  0  0  0  0  0  0  0  0  0
   -5.9124   -6.9689    9.8644 N   0  0  0  0  0  0  0  0  0  0  0  0
   -9.8630   -6.0825   14.4388 H   0  0  0  0  0  0  0  0  0  0  0  0
   -2.7366   -9.0287    4.6346 O   0  0  0  0  0  0  0  0  0  0  0  0
   -3.5727   -8.5923    5.6583 C   0  0  0  0  0  0  0  0  0  0  0  0
   -4.9370   -8.7841    5.5095 C   0  0  0  0  0  0  0  0  0  0  0  0
   -5.8023   -8.3709    6.4918 C   0  0  0  0  0  0  0  0  0  0  0  0
   -5.3355   -7.7524    7.6552 C   0  0  0  0  0  0  0  0  0  0  0  0
   -3.9738   -7.5882    7.7487 C   0  0  0  0  0  0  0  0  0  0  0  0
   -3.0666   -7.9867    6.7888 C   0  0  0  0  0  0  0  0  0  0  0  0
   -2.3741   -9.9519    4.6542 H   0  0  0  0  0  0  0  0  0  0  0  0
 14 15  1  0  0  0
 15 16  2  0  0  0
 16 17  1  0  0  0
 17 18  2  0  0  0
 18 19  1  0  0  0
 19 20  2  0  0  0
 18  1  1  0  0  0
  1  2  2  0  0  0
  2  3  1  0  0  0
  3  4  1  0  0  0
  3  5  2  0  0  0
  5  6  1  0  0  0
  6  7  2  0  0  0
  7  8  1  0  0  0
  7  9  1  0  0  0
  9 10  2  0  0  0
 10 11  1  0  0  0
 11 12  2  0  0  0
 20 15  1  0  0  0
 12  1  1  0  0  0
 11  5  1  0  0  0
 14 21  1  0  0  0
  8 13  1  0  0  0
M  END
> <minimizedAffinity>
14.91201

> <CNNscore>
0.4904030263

> <CNNaffinity>
4.6663184166

> <CNN_VS>
2.2883765697

> <CNNaffinity_variance>
1.2843396664

$$$$
[H]Oc1c([H])c([H])c(-c2nc3c([H])c([H])c(O[H])c([H])c3c(Br)c2[H])c([H])c1[H]


 21 23  0  0  0  0  0  0  0  0999 V2000
  -14.5639   -6.9089    6.2236 C   0  0  0  0  0  0  0  0  0  0  0  0
  -14.1416   -5.7980    5.5456 C   0  0  0  0  0  0  0  0  0  0  0  0
  -15.0209   -5.0610    4.7441 C   0  0  0  0  0  0  0  0  0  0  0  0
  -14.3678   -3.5403    3.8387 Br  0  0  0  0  0  0  0  0  0  0  0  0
  -16.3346   -5.4287    4.6123 C   0  0  0  0  0  0  0  0  0  0  0  0
  -17.2459   -4.7532    3.8455 C   0  0  0  0  0  0  0  0  0  0  0  0
  -18.5679   -5.1455    3.7290 C   0  0  0  0  0  0  0  0  0  0  0  0
  -19.4576   -4.4281    2.9384 O   0  0  0  0  0  0  0  0  0  0  0  0
  -18.9403   -6.2705    4.4323 C   0  0  0  0  0  0  0  0  0  0  0  0
  -18.0289   -6.9677    5.2149 C   0  0  0  0  0  0  0  0  0  0  0  0
  -16.7148   -6.5656    5.3219 C   0  0  0  0  0  0  0  0  0  0  0  0
  -15.8470   -7.2623    6.0907 N   0  0  0  0  0  0  0  0  0  0  0  0
  -19.5448   -4.6997    1.9583 H   0  0  0  0  0  0  0  0  0  0  0  0
  -11.0494  -10.0875    9.2477 O   0  0  0  0  0  0  0  0  0  0  0  0
  -11.9248   -9.2638    8.5458 C   0  0  0  0  0  0  0  0  0  0  0  0
  -12.2444   -9.6147    7.2439 C   0  0  0  0  0  0  0  0  0  0  0  0
  -13.1033   -8.8341    6.5108 C   0  0  0  0  0  0  0  0  0  0  0  0
  -13.6720   -7.6776    7.0520 C   0  0  0  0  0  0  0  0  0  0  0  0
  -13.3194   -7.3785    8.3467 C   0  0  0  0  0  0  0  0  0  0  0  0
  -12.4615   -8.1317    9.1213 C   0  0  0  0  0  0  0  0  0  0  0  0
  -11.4059  -10.8417    9.7846 H   0  0  0  0  0  0  0  0  0  0  0  0
 14 15  1  0  0  0
 15 16  2  0  0  0
 16 17  1  0  0  0
 17 18  2  0  0  0
 18 19  1  0  0  0
 19 20  2  0  0  0
 18  1  1  0  0  0
  1  2  2  0  0  0
  2  3  1  0  0  0
  3  4  1  0  0  0
  3  5  2  0  0  0
  5  6  1  0  0  0
  6  7  2  0  0  0
  7  8  1  0  0  0
  7  9  1  0  0  0
  9 10  2  0  0  0
 10 11  1  0  0  0
 11 12  2  0  0  0
 20 15  1  0  0  0
 12  1  1  0  0  0
 11  5  1  0  0  0
 14 21  1  0  0  0
  8 13  1  0  0  0
M  END
> <minimizedAffinity>
1.49623

> <CNNscore>
0.4220461547

> <CNNaffinity>
6.0468330383

> <CNN_VS>
2.5520427227

> <CNNaffinity_variance>
1.0991609097

$$$$
[H]Oc1c([H])c([H])c2c(c1[H])OC([H])([H])c1c-2nc2c([H])c([H])c(O[H])c([H])c2c1-c1c([H])c([H])c([H])c(OC([H])([H])[H])c1[H]


 30 34  0  0  0  0  0  0  0  0999 V2000
  -12.9942   -7.5627    7.5742 C   0  0  0  0  0  0  0  0  0  0  0  0
  -12.9036   -6.8189    8.7306 C   0  0  0  0  0  0  0  0  0  0  0  0
  -13.9980   -5.8868    9.0778 C   0  0  0  0  0  0  0  0  0  0  0  0
  -13.7586   -5.2022   10.2804 O   0  0  0  0  0  0  0  0  0  0  0  0
  -12.6626   -5.3306   11.0939 C   0  0  0  0  0  0  0  0  0  0  0  0
  -12.5301   -4.5920   12.2783 C   0  0  0  0  0  0  0  0  0  0  0  0
  -11.4228   -4.7289   13.0899 C   0  0  0  0  0  0  0  0  0  0  0  0
  -11.2952   -3.9981   14.2590 O   0  0  0  0  0  0  0  0  0  0  0  0
  -10.4051   -5.5998   12.7623 C   0  0  0  0  0  0  0  0  0  0  0  0
  -10.5532   -6.3188   11.5922 C   0  0  0  0  0  0  0  0  0  0  0  0
  -11.6464   -6.1957   10.7740 C   0  0  0  0  0  0  0  0  0  0  0  0
  -11.7949   -6.9619    9.5349 C   0  0  0  0  0  0  0  0  0  0  0  0
  -10.7867   -7.8096    9.2303 N   0  0  0  0  0  0  0  0  0  0  0  0
  -10.8669   -8.5477    8.0917 C   0  0  0  0  0  0  0  0  0  0  0  0
   -9.8477   -9.4103    7.7760 C   0  0  0  0  0  0  0  0  0  0  0  0
   -9.9506  -10.1428    6.6254 C   0  0  0  0  0  0  0  0  0  0  0  0
  -11.0442  -10.0253    5.7985 C   0  0  0  0  0  0  0  0  0  0  0  0
  -11.1430  -10.7625    4.6451 O   0  0  0  0  0  0  0  0  0  0  0  0
  -12.0799   -9.1629    6.0986 C   0  0  0  0  0  0  0  0  0  0  0  0
  -11.9742   -8.4236    7.2612 C   0  0  0  0  0  0  0  0  0  0  0  0
  -11.6805   -4.4362   15.1078 H   0  0  0  0  0  0  0  0  0  0  0  0
  -10.7702  -10.3787    3.7864 H   0  0  0  0  0  0  0  0  0  0  0  0
  -15.4474   -6.3477    5.0370 C   0  0  0  0  0  0  0  0  0  0  0  0
  -16.4402   -7.3065    5.1412 C   0  0  0  0  0  0  0  0  0  0  0  0
  -16.2734   -8.3305    6.0464 C   0  0  0  0  0  0  0  0  0  0  0  0
  -15.1384   -8.3920    6.8288 C   0  0  0  0  0  0  0  0  0  0  0  0
  -14.1524   -7.4270    6.7154 C   0  0  0  0  0  0  0  0  0  0  0  0
  -14.3123   -6.4068    5.8176 C   0  0  0  0  0  0  0  0  0  0  0  0
  -16.9145   -5.1120    3.5664 C   0  0  0  0  0  0  0  0  0  0  0  0
  -15.6430   -5.3261    4.1159 O   0  0  0  0  0  0  0  0  0  0  0  0
 29 30  1  0  0  0
 30 23  1  0  0  0
 23 24  2  0  0  0
 24 25  1  0  0  0
 25 26  2  0  0  0
 26 27  1  0  0  0
 27 28  2  0  0  0
 27  1  1  0  0  0
  1  2  2  0  0  0
  2  3  1  0  0  0
  3  4  1  0  0  0
  4  5  1  0  0  0
  5  6  2  0  0  0
  6  7  1  0  0  0
  7  8  1  0  0  0
  7  9  2  0  0  0
  9 10  1  0  0  0
 10 11  2  0  0  0
 11 12  1  0  0  0
 12 13  2  0  0  0
 13 14  1  0  0  0
 14 15  2  0  0  0
 15 16  1  0  0  0
 16 17  2  0  0  0
 17 18  1  0  0  0
 17 19  1  0  0  0
 19 20  2  0  0  0
 28 23  1  0  0  0
 20  1  1  0  0  0
 12  2  1  0  0  0
 20 14  1  0  0  0
 11  5  1  0  0  0
  8 21  1  0  0  0
 18 22  1  0  0  0
M  END
> <minimizedAffinity>
5.48321

> <CNNscore>
0.5002382398

> <CNNaffinity>
6.6908202171

> <CNN_VS>
3.3470041752

> <CNNaffinity_variance>
1.3504737616

$$$$
[H]Oc1c([H])c([H])c2c(c1[H])OC([H])([H])c1c-2nc2c([H])c([H])c(O[H])c([H])c2c1-c1c([H])c([H])c([H])c(OC([H])([H])[H])c1[H]


 30 34  0  0  0  0  0  0  0  0999 V2000
   -8.1900   -8.6702    6.6707 C   0  0  0  0  0  0  0  0  0  0  0  0
   -7.7591   -9.1697    5.4610 C   0  0  0  0  0  0  0  0  0  0  0  0
   -6.4170   -8.7988    4.9628 C   0  0  0  0  0  0  0  0  0  0  0  0
   -6.1251   -9.3841    3.7200 O   0  0  0  0  0  0  0  0  0  0  0  0
   -6.9381  -10.2145    2.9926 C   0  0  0  0  0  0  0  0  0  0  0  0
   -6.5392  -10.7436    1.7569 C   0  0  0  0  0  0  0  0  0  0  0  0
   -7.3652  -11.5785    1.0330 C   0  0  0  0  0  0  0  0  0  0  0  0
   -6.9680  -12.0994   -0.1869 O   0  0  0  0  0  0  0  0  0  0  0  0
   -8.6156  -11.9221    1.5019 C   0  0  0  0  0  0  0  0  0  0  0  0
   -8.9911  -11.3916    2.7207 C   0  0  0  0  0  0  0  0  0  0  0  0
   -8.1835  -10.5607    3.4536 C   0  0  0  0  0  0  0  0  0  0  0  0
   -8.5900  -10.0026    4.7450 C   0  0  0  0  0  0  0  0  0  0  0  0
   -9.8194  -10.3501    5.1875 N   0  0  0  0  0  0  0  0  0  0  0  0
  -10.2534   -9.8625    6.3796 C   0  0  0  0  0  0  0  0  0  0  0  0
  -11.4998  -10.2108    6.8354 C   0  0  0  0  0  0  0  0  0  0  0  0
  -11.9148   -9.7082    8.0380 C   0  0  0  0  0  0  0  0  0  0  0  0
  -11.1107   -8.8736    8.7798 C   0  0  0  0  0  0  0  0  0  0  0  0
  -11.5315   -8.3718    9.9859 O   0  0  0  0  0  0  0  0  0  0  0  0
   -9.8536   -8.5112    8.3385 C   0  0  0  0  0  0  0  0  0  0  0  0
   -9.4360   -9.0199    7.1234 C   0  0  0  0  0  0  0  0  0  0  0  0
   -6.4755  -13.0032   -0.1514 H   0  0  0  0  0  0  0  0  0  0  0  0
  -12.0286   -7.4907   10.0020 H   0  0  0  0  0  0  0  0  0  0  0  0
   -5.6970   -6.0806    7.6759 C   0  0  0  0  0  0  0  0  0  0  0  0
   -5.7405   -6.1856    9.0553 C   0  0  0  0  0  0  0  0  0  0  0  0
   -6.5930   -7.1087    9.6182 C   0  0  0  0  0  0  0  0  0  0  0  0
   -7.3833   -7.9077    8.8175 C   0  0  0  0  0  0  0  0  0  0  0  0
   -7.3308   -7.7933    7.4389 C   0  0  0  0  0  0  0  0  0  0  0  0
   -6.4855   -6.8778    6.8734 C   0  0  0  0  0  0  0  0  0  0  0  0
   -4.0626   -5.4623    6.0061 C   0  0  0  0  0  0  0  0  0  0  0  0
   -4.8272   -5.1413    7.1360 O   0  0  0  0  0  0  0  0  0  0  0  0
 29 30  1  0  0  0
 30 23  1  0  0  0
 23 24  2  0  0  0
 24 25  1  0  0  0
 25 26  2  0  0  0
 26 27  1  0  0  0
 27 28  2  0  0  0
 27  1  1  0  0  0
  1  2  2  0  0  0
  2  3  1  0  0  0
  3  4  1  0  0  0
  4  5  1  0  0  0
  5  6  2  0  0  0
  6  7  1  0  0  0
  7  8  1  0  0  0
  7  9  2  0  0  0
  9 10  1  0  0  0
 10 11  2  0  0  0
 11 12  1  0  0  0
 12 13  2  0  0  0
 13 14  1  0  0  0
 14 15  2  0  0  0
 15 16  1  0  0  0
 16 17  2  0  0  0
 17 18  1  0  0  0
 17 19  1  0  0  0
 19 20  2  0  0  0
 28 23  1  0  0  0
 20  1  1  0  0  0
 12  2  1  0  0  0
 20 14  1  0  0  0
 11  5  1  0  0  0
  8 21  1  0  0  0
 18 22  1  0  0  0
M  END
> <minimizedAffinity>
13.45007

> <CNNscore>
0.4524331093

> <CNNaffinity>
5.7772259712

> <CNN_VS>
2.6138083935

> <CNNaffinity_variance>
0.8751331568

$$$$
[H]Oc1c([H])c([H])c2c(c1[H])OC([H])([H])c1c-2nc2c([H])c([H])c(O[H])c([H])c2c1-c1c([H])c([H])c([H])c(OC([H])([H])[H])c1[H]


 30 34  0  0  0  0  0  0  0  0999 V2000
  -13.6446   -7.9542    8.7564 C   0  0  0  0  0  0  0  0  0  0  0  0
  -14.6814   -7.9100    7.8500 C   0  0  0  0  0  0  0  0  0  0  0  0
  -16.0343   -8.3258    8.2787 C   0  0  0  0  0  0  0  0  0  0  0  0
  -16.9792   -8.2265    7.2445 O   0  0  0  0  0  0  0  0  0  0  0  0
  -16.7502   -7.8012    5.9615 C   0  0  0  0  0  0  0  0  0  0  0  0
  -17.7763   -7.7421    5.0077 C   0  0  0  0  0  0  0  0  0  0  0  0
  -17.5350   -7.3124    3.7191 C   0  0  0  0  0  0  0  0  0  0  0  0
  -18.5507   -7.2552    2.7798 O   0  0  0  0  0  0  0  0  0  0  0  0
  -16.2719   -6.9252    3.3241 C   0  0  0  0  0  0  0  0  0  0  0  0
  -15.2741   -6.9899    4.2771 C   0  0  0  0  0  0  0  0  0  0  0  0
  -15.4957   -7.4140    5.5619 C   0  0  0  0  0  0  0  0  0  0  0  0
  -14.4317   -7.4796    6.5658 C   0  0  0  0  0  0  0  0  0  0  0  0
  -13.2003   -7.0968    6.1595 N   0  0  0  0  0  0  0  0  0  0  0  0
  -12.1711   -7.1369    7.0463 C   0  0  0  0  0  0  0  0  0  0  0  0
  -10.9186   -6.7498    6.6414 C   0  0  0  0  0  0  0  0  0  0  0  0
   -9.8986   -6.7983    7.5515 C   0  0  0  0  0  0  0  0  0  0  0  0
  -10.1122   -7.2228    8.8428 C   0  0  0  0  0  0  0  0  0  0  0  0
   -9.0855   -7.2696    9.7524 O   0  0  0  0  0  0  0  0  0  0  0  0
  -11.3649   -7.6165    9.2695 C   0  0  0  0  0  0  0  0  0  0  0  0
  -12.3941   -7.5670    8.3489 C   0  0  0  0  0  0  0  0  0  0  0  0
  -19.0676   -6.3658    2.7296 H   0  0  0  0  0  0  0  0  0  0  0  0
   -8.5417   -8.1190    9.8323 H   0  0  0  0  0  0  0  0  0  0  0  0
  -13.3836   -9.6734   12.0592 C   0  0  0  0  0  0  0  0  0  0  0  0
  -14.4938   -9.1693   12.7140 C   0  0  0  0  0  0  0  0  0  0  0  0
  -15.3000   -8.2736   12.0480 C   0  0  0  0  0  0  0  0  0  0  0  0
  -15.0004   -7.8921   10.7561 C   0  0  0  0  0  0  0  0  0  0  0  0
  -13.8869   -8.4033   10.1118 C   0  0  0  0  0  0  0  0  0  0  0  0
  -13.0818   -9.2939   10.7684 C   0  0  0  0  0  0  0  0  0  0  0  0
  -13.0981  -11.8339   13.1044 C   0  0  0  0  0  0  0  0  0  0  0  0
  -12.5889  -10.5756   12.7554 O   0  0  0  0  0  0  0  0  0  0  0  0
 29 30  1  0  0  0
 30 23  1  0  0  0
 23 24  2  0  0  0
 24 25  1  0  0  0
 25 26  2  0  0  0
 26 27  1  0  0  0
 27 28  2  0  0  0
 27  1  1  0  0  0
  1  2  2  0  0  0
  2  3  1  0  0  0
  3  4  1  0  0  0
  4  5  1  0  0  0
  5  6  2  0  0  0
  6  7  1  0  0  0
  7  8  1  0  0  0
  7  9  2  0  0  0
  9 10  1  0  0  0
 10 11  2  0  0  0
 11 12  1  0  0  0
 12 13  2  0  0  0
 13 14  1  0  0  0
 14 15  2  0  0  0
 15 16  1  0  0  0
 16 17  2  0  0  0
 17 18  1  0  0  0
 17 19  1  0  0  0
 19 20  2  0  0  0
 28 23  1  0  0  0
 20  1  1  0  0  0
 12  2  1  0  0  0
 20 14  1  0  0  0
 11  5  1  0  0  0
  8 21  1  0  0  0
 18 22  1  0  0  0
M  END
> <minimizedAffinity>
8.28606

> <CNNscore>
0.4047197998

> <CNNaffinity>
6.5266828537

> <CNN_VS>
2.6414778233

> <CNNaffinity_variance>
1.1884510517

$$$$
[H]Oc1c([H])c([H])c2c(c1[H])OC([H])([H])c1c-2nc2c([H])c([H])c(O[H])c([H])c2c1-c1c([H])c([H])c([H])c(OC([H])([H])[H])c1[H]


 30 34  0  0  0  0  0  0  0  0999 V2000
   -6.1641   -8.9301    7.2359 C   0  0  0  0  0  0  0  0  0  0  0  0
   -7.5188   -9.0420    7.4613 C   0  0  0  0  0  0  0  0  0  0  0  0
   -8.0598  -10.3093    7.9980 C   0  0  0  0  0  0  0  0  0  0  0  0
   -9.4530  -10.2678    8.1706 O   0  0  0  0  0  0  0  0  0  0  0  0
  -10.2828   -9.2113    7.8970 C   0  0  0  0  0  0  0  0  0  0  0  0
  -11.6667   -9.2833    8.1106 C   0  0  0  0  0  0  0  0  0  0  0  0
  -12.4929   -8.2141    7.8320 C   0  0  0  0  0  0  0  0  0  0  0  0
  -13.8591   -8.2886    8.0442 O   0  0  0  0  0  0  0  0  0  0  0  0
  -11.9837   -7.0341    7.3322 C   0  0  0  0  0  0  0  0  0  0  0  0
  -10.6185   -6.9817    7.1286 C   0  0  0  0  0  0  0  0  0  0  0  0
   -9.7826   -8.0341    7.3999 C   0  0  0  0  0  0  0  0  0  0  0  0
   -8.3362   -7.9697    7.1806 C   0  0  0  0  0  0  0  0  0  0  0  0
   -7.8559   -6.8052    6.6895 N   0  0  0  0  0  0  0  0  0  0  0  0
   -6.5210   -6.6852    6.4637 C   0  0  0  0  0  0  0  0  0  0  0  0
   -6.0262   -5.5064    5.9655 C   0  0  0  0  0  0  0  0  0  0  0  0
   -4.6795   -5.4089    5.7468 C   0  0  0  0  0  0  0  0  0  0  0  0
   -3.8335   -6.4601    6.0162 C   0  0  0  0  0  0  0  0  0  0  0  0
   -2.4828   -6.3575    5.7952 O   0  0  0  0  0  0  0  0  0  0  0  0
   -4.3118   -7.6543    6.5176 C   0  0  0  0  0  0  0  0  0  0  0  0
   -5.6726   -7.7512    6.7379 C   0  0  0  0  0  0  0  0  0  0  0  0
  -14.1863   -7.9973    8.9763 H   0  0  0  0  0  0  0  0  0  0  0  0
   -2.1140   -6.6229    4.8912 H   0  0  0  0  0  0  0  0  0  0  0  0
   -3.1626  -11.1037    7.6819 C   0  0  0  0  0  0  0  0  0  0  0  0
   -3.7449  -12.2813    8.1177 C   0  0  0  0  0  0  0  0  0  0  0  0
   -5.1142  -12.3269    8.2539 C   0  0  0  0  0  0  0  0  0  0  0  0
   -5.8819  -11.2185    7.9603 C   0  0  0  0  0  0  0  0  0  0  0  0
   -5.2878  -10.0463    7.5253 C   0  0  0  0  0  0  0  0  0  0  0  0
   -3.9273   -9.9946    7.3878 C   0  0  0  0  0  0  0  0  0  0  0  0
   -1.0606   -9.9247    7.8647 C   0  0  0  0  0  0  0  0  0  0  0  0
   -1.7793  -11.0870    7.5532 O   0  0  0  0  0  0  0  0  0  0  0  0
 29 30  1  0  0  0
 30 23  1  0  0  0
 23 24  2  0  0  0
 24 25  1  0  0  0
 25 26  2  0  0  0
 26 27  1  0  0  0
 27 28  2  0  0  0
 27  1  1  0  0  0
  1  2  2  0  0  0
  2  3  1  0  0  0
  3  4  1  0  0  0
  4  5  1  0  0  0
  5  6  2  0  0  0
  6  7  1  0  0  0
  7  8  1  0  0  0
  7  9  2  0  0  0
  9 10  1  0  0  0
 10 11  2  0  0  0
 11 12  1  0  0  0
 12 13  2  0  0  0
 13 14  1  0  0  0
 14 15  2  0  0  0
 15 16  1  0  0  0
 16 17  2  0  0  0
 17 18  1  0  0  0
 17 19  1  0  0  0
 19 20  2  0  0  0
 28 23  1  0  0  0
 20  1  1  0  0  0
 12  2  1  0  0  0
 20 14  1  0  0  0
 11  5  1  0  0  0
  8 21  1  0  0  0
 18 22  1  0  0  0
M  END
> <minimizedAffinity>
14.43468

> <CNNscore>
0.4019710422

> <CNNaffinity>
5.6715664864

> <CNN_VS>
2.2798054218

> <CNNaffinity_variance>
0.5698291659

$$$$
[H]Oc1c([H])c([H])c2c(c1[H])OC([H])([H])c1c-2nc2c([H])c([H])c(O[H])c([H])c2c1-c1c([H])c([H])c([H])c(OC([H])([H])[H])c1[H]


 30 34  0  0  0  0  0  0  0  0999 V2000
  -13.2576   -7.1842    7.5846 C   0  0  0  0  0  0  0  0  0  0  0  0
  -12.4858   -8.2328    7.1335 C   0  0  0  0  0  0  0  0  0  0  0  0
  -12.9519   -9.0278    5.9769 C   0  0  0  0  0  0  0  0  0  0  0  0
  -12.0597  -10.0588    5.6398 O   0  0  0  0  0  0  0  0  0  0  0  0
  -10.8747  -10.3550    6.2624 C   0  0  0  0  0  0  0  0  0  0  0  0
  -10.0600  -11.4136    5.8364 C   0  0  0  0  0  0  0  0  0  0  0  0
   -8.8692  -11.7032    6.4701 C   0  0  0  0  0  0  0  0  0  0  0  0
   -8.0669  -12.7493    6.0467 O   0  0  0  0  0  0  0  0  0  0  0  0
   -8.4384  -10.9587    7.5478 C   0  0  0  0  0  0  0  0  0  0  0  0
   -9.2539   -9.9200    7.9530 C   0  0  0  0  0  0  0  0  0  0  0  0
  -10.4400   -9.6178    7.3352 C   0  0  0  0  0  0  0  0  0  0  0  0
  -11.2985   -8.5148    7.7718 C   0  0  0  0  0  0  0  0  0  0  0  0
  -10.8599   -7.7970    8.8303 N   0  0  0  0  0  0  0  0  0  0  0  0
  -11.6142   -6.7608    9.2826 C   0  0  0  0  0  0  0  0  0  0  0  0
  -11.1755   -6.0277   10.3563 C   0  0  0  0  0  0  0  0  0  0  0  0
  -11.9513   -4.9894   10.7935 C   0  0  0  0  0  0  0  0  0  0  0  0
  -13.1431   -4.6795   10.1794 C   0  0  0  0  0  0  0  0  0  0  0  0
  -13.9180   -3.6366   10.6217 O   0  0  0  0  0  0  0  0  0  0  0  0
  -13.6018   -5.4051    9.0980 C   0  0  0  0  0  0  0  0  0  0  0  0
  -12.8169   -6.4537    8.6577 C   0  0  0  0  0  0  0  0  0  0  0  0
   -7.3606  -12.5150    5.3347 H   0  0  0  0  0  0  0  0  0  0  0  0
  -14.6200   -3.8148   11.3282 H   0  0  0  0  0  0  0  0  0  0  0  0
  -16.7911   -7.2695    6.3850 C   0  0  0  0  0  0  0  0  0  0  0  0
  -16.8340   -6.1361    5.5919 C   0  0  0  0  0  0  0  0  0  0  0  0
  -15.6947   -5.3720    5.4743 C   0  0  0  0  0  0  0  0  0  0  0  0
  -14.5396   -5.7354    6.1360 C   0  0  0  0  0  0  0  0  0  0  0  0
  -14.5092   -6.8714    6.9265 C   0  0  0  0  0  0  0  0  0  0  0  0
  -15.6383   -7.6349    7.0474 C   0  0  0  0  0  0  0  0  0  0  0  0
  -18.4911   -8.6376    5.3455 C   0  0  0  0  0  0  0  0  0  0  0  0
  -17.9553   -8.0213    6.4846 O   0  0  0  0  0  0  0  0  0  0  0  0
 29 30  1  0  0  0
 30 23  1  0  0  0
 23 24  2  0  0  0
 24 25  1  0  0  0
 25 26  2  0  0  0
 26 27  1  0  0  0
 27 28  2  0  0  0
 27  1  1  0  0  0
  1  2  2  0  0  0
  2  3  1  0  0  0
  3  4  1  0  0  0
  4  5  1  0  0  0
  5  6  2  0  0  0
  6  7  1  0  0  0
  7  8  1  0  0  0
  7  9  2  0  0  0
  9 10  1  0  0  0
 10 11  2  0  0  0
 11 12  1  0  0  0
 12 13  2  0  0  0
 13 14  1  0  0  0
 14 15  2  0  0  0
 15 16  1  0  0  0
 16 17  2  0  0  0
 17 18  1  0  0  0
 17 19  1  0  0  0
 19 20  2  0  0  0
 28 23  1  0  0  0
 20  1  1  0  0  0
 12  2  1  0  0  0
 20 14  1  0  0  0
 11  5  1  0  0  0
  8 21  1  0  0  0
 18 22  1  0  0  0
M  END
> <minimizedAffinity>
5.82265

> <CNNscore>
0.3963117301

> <CNNaffinity>
6.3872313499

> <CNN_VS>
2.5313346386

> <CNNaffinity_variance>
0.9235083461

$$$$
[H]Oc1c([H])c([H])c2c(c1[H])OC([H])([H])c1c-2nc2c([H])c([H])c(O[H])c([H])c2c1-c1c([H])c([H])c([H])c(OC([H])([H])[H])c1[H]


 30 34  0  0  0  0  0  0  0  0999 V2000
   -9.7915   -7.7135    8.2181 C   0  0  0  0  0  0  0  0  0  0  0  0
   -8.4441   -7.4260    8.1955 C   0  0  0  0  0  0  0  0  0  0  0  0
   -7.9382   -6.2727    8.9708 C   0  0  0  0  0  0  0  0  0  0  0  0
   -6.5490   -6.1095    8.8452 O   0  0  0  0  0  0  0  0  0  0  0  0
   -5.6941   -6.8887    8.1093 C   0  0  0  0  0  0  0  0  0  0  0  0
   -4.3169   -6.6306    8.0580 C   0  0  0  0  0  0  0  0  0  0  0  0
   -3.4653   -7.4212    7.3142 C   0  0  0  0  0  0  0  0  0  0  0  0
   -2.1058   -7.1635    7.2659 O   0  0  0  0  0  0  0  0  0  0  0  0
   -3.9416   -8.4960    6.5934 C   0  0  0  0  0  0  0  0  0  0  0  0
   -5.3007   -8.7348    6.6562 C   0  0  0  0  0  0  0  0  0  0  0  0
   -6.1614   -7.9600    7.3900 C   0  0  0  0  0  0  0  0  0  0  0  0
   -7.6011   -8.2206    7.4506 C   0  0  0  0  0  0  0  0  0  0  0  0
   -8.0492   -9.2778    6.7368 N   0  0  0  0  0  0  0  0  0  0  0  0
   -9.3767   -9.5693    6.7527 C   0  0  0  0  0  0  0  0  0  0  0  0
   -9.8388  -10.6408    6.0309 C   0  0  0  0  0  0  0  0  0  0  0  0
  -11.1785  -10.9150    6.0624 C   0  0  0  0  0  0  0  0  0  0  0  0
  -12.0494  -10.1425    6.7961 C   0  0  0  0  0  0  0  0  0  0  0  0
  -13.3928  -10.4217    6.8247 O   0  0  0  0  0  0  0  0  0  0  0  0
  -11.6040   -9.0603    7.5287 C   0  0  0  0  0  0  0  0  0  0  0  0
  -10.2504   -8.7846    7.4957 C   0  0  0  0  0  0  0  0  0  0  0  0
   -1.5336   -7.6301    7.9839 H   0  0  0  0  0  0  0  0  0  0  0  0
  -13.9955   -9.9947    6.1333 H   0  0  0  0  0  0  0  0  0  0  0  0
  -12.6894   -6.4915   10.2282 C   0  0  0  0  0  0  0  0  0  0  0  0
  -12.3180   -5.1797   10.4667 C   0  0  0  0  0  0  0  0  0  0  0  0
  -11.1192   -4.7325    9.9581 C   0  0  0  0  0  0  0  0  0  0  0  0
  -10.3117   -5.5801    9.2276 C   0  0  0  0  0  0  0  0  0  0  0  0
  -10.6941   -6.8903    8.9958 C   0  0  0  0  0  0  0  0  0  0  0  0
  -11.8844   -7.3406    9.4987 C   0  0  0  0  0  0  0  0  0  0  0  0
  -14.6389   -7.9146   10.1012 C   0  0  0  0  0  0  0  0  0  0  0  0
  -13.9042   -6.9148   10.7531 O   0  0  0  0  0  0  0  0  0  0  0  0
 29 30  1  0  0  0
 30 23  1  0  0  0
 23 24  2  0  0  0
 24 25  1  0  0  0
 25 26  2  0  0  0
 26 27  1  0  0  0
 27 28  2  0  0  0
 27  1  1  0  0  0
  1  2  2  0  0  0
  2  3  1  0  0  0
  3  4  1  0  0  0
  4  5  1  0  0  0
  5  6  2  0  0  0
  6  7  1  0  0  0
  7  8  1  0  0  0
  7  9  2  0  0  0
  9 10  1  0  0  0
 10 11  2  0  0  0
 11 12  1  0  0  0
 12 13  2  0  0  0
 13 14  1  0  0  0
 14 15  2  0  0  0
 15 16  1  0  0  0
 16 17  2  0  0  0
 17 18  1  0  0  0
 17 19  1  0  0  0
 19 20  2  0  0  0
 28 23  1  0  0  0
 20  1  1  0  0  0
 12  2  1  0  0  0
 20 14  1  0  0  0
 11  5  1  0  0  0
  8 21  1  0  0  0
 18 22  1  0  0  0
M  END
> <minimizedAffinity>
-2.48412

> <CNNscore>
0.3450385034

> <CNNaffinity>
6.0127344131

> <CNN_VS>
2.0746247768

> <CNNaffinity_variance>
0.2193872929

$$$$
[H]Oc1c([H])c([H])c2c(c1[H])OC([H])([H])c1c-2nc2c([H])c([H])c(O[H])c([H])c2c1-c1c([H])c([H])c([H])c(OC([H])([H])[H])c1[H]


 30 34  0  0  0  0  0  0  0  0999 V2000
  -11.1808   -7.4274    8.7781 C   0  0  0  0  0  0  0  0  0  0  0  0
   -9.8361   -7.3487    8.4878 C   0  0  0  0  0  0  0  0  0  0  0  0
   -9.0074   -6.3326    9.1718 C   0  0  0  0  0  0  0  0  0  0  0  0
   -7.6627   -6.3770    8.7691 O   0  0  0  0  0  0  0  0  0  0  0  0
   -7.1076   -7.2346    7.8549 C   0  0  0  0  0  0  0  0  0  0  0  0
   -5.7445   -7.1877    7.5296 C   0  0  0  0  0  0  0  0  0  0  0  0
   -5.1959   -8.0556    6.6080 C   0  0  0  0  0  0  0  0  0  0  0  0
   -3.8494   -8.0067    6.2893 O   0  0  0  0  0  0  0  0  0  0  0  0
   -5.9725   -9.0019    5.9732 C   0  0  0  0  0  0  0  0  0  0  0  0
   -7.3126   -9.0331    6.3064 C   0  0  0  0  0  0  0  0  0  0  0  0
   -7.8746   -8.1789    7.2198 C   0  0  0  0  0  0  0  0  0  0  0  0
   -9.2967   -8.2191    7.5668 C   0  0  0  0  0  0  0  0  0  0  0  0
  -10.0418   -9.1527    6.9335 N   0  0  0  0  0  0  0  0  0  0  0  0
  -11.3692   -9.2381    7.2130 C   0  0  0  0  0  0  0  0  0  0  0  0
  -12.1318  -10.1832    6.5745 C   0  0  0  0  0  0  0  0  0  0  0  0
  -13.4651  -10.2506    6.8723 C   0  0  0  0  0  0  0  0  0  0  0  0
  -14.0372   -9.3971    7.7875 C   0  0  0  0  0  0  0  0  0  0  0  0
  -15.3756   -9.4685    8.0831 O   0  0  0  0  0  0  0  0  0  0  0  0
  -13.2870   -8.4393    8.4404 C   0  0  0  0  0  0  0  0  0  0  0  0
  -11.9403   -8.3726    8.1383 C   0  0  0  0  0  0  0  0  0  0  0  0
   -3.2294   -8.5956    6.8633 H   0  0  0  0  0  0  0  0  0  0  0  0
  -16.0261   -8.9155    7.5403 H   0  0  0  0  0  0  0  0  0  0  0  0
  -11.9949   -5.5754   11.9148 C   0  0  0  0  0  0  0  0  0  0  0  0
  -12.9962   -4.7272   11.4749 C   0  0  0  0  0  0  0  0  0  0  0  0
  -13.3762   -4.7880   10.1530 C   0  0  0  0  0  0  0  0  0  0  0  0
  -12.7672   -5.6781    9.2922 C   0  0  0  0  0  0  0  0  0  0  0  0
  -11.7668   -6.5215    9.7442 C   0  0  0  0  0  0  0  0  0  0  0  0
  -11.3846   -6.4658   11.0569 C   0  0  0  0  0  0  0  0  0  0  0  0
  -10.2866   -5.6164   13.6242 C   0  0  0  0  0  0  0  0  0  0  0  0
  -11.6326   -5.4923   13.2536 O   0  0  0  0  0  0  0  0  0  0  0  0
 29 30  1  0  0  0
 30 23  1  0  0  0
 23 24  2  0  0  0
 24 25  1  0  0  0
 25 26  2  0  0  0
 26 27  1  0  0  0
 27 28  2  0  0  0
 27  1  1  0  0  0
  1  2  2  0  0  0
  2  3  1  0  0  0
  3  4  1  0  0  0
  4  5  1  0  0  0
  5  6  2  0  0  0
  6  7  1  0  0  0
  7  8  1  0  0  0
  7  9  2  0  0  0
  9 10  1  0  0  0
 10 11  2  0  0  0
 11 12  1  0  0  0
 12 13  2  0  0  0
 13 14  1  0  0  0
 14 15  2  0  0  0
 15 16  1  0  0  0
 16 17  2  0  0  0
 17 18  1  0  0  0
 17 19  1  0  0  0
 19 20  2  0  0  0
 28 23  1  0  0  0
 20  1  1  0  0  0
 12  2  1  0  0  0
 20 14  1  0  0  0
 11  5  1  0  0  0
  8 21  1  0  0  0
 18 22  1  0  0  0
M  END
> <minimizedAffinity>
-3.67516

> <CNNscore>
0.3152563274

> <CNNaffinity>
6.0818161964

> <CNN_VS>
1.9173309803

> <CNNaffinity_variance>
0.1049073488

$$$$
[H]Oc1c([H])c([H])c2c(c1[H])OC([H])([H])c1c-2nc2c([H])c([H])c(O[H])c([H])c2c1-c1c([H])c([H])c([H])c(OC([H])([H])[H])c1[H]


 30 34  0  0  0  0  0  0  0  0999 V2000
  -12.6456   -7.6040    7.3349 C   0  0  0  0  0  0  0  0  0  0  0  0
  -11.2874   -7.4020    7.2199 C   0  0  0  0  0  0  0  0  0  0  0  0
  -10.7095   -7.1165    5.8889 C   0  0  0  0  0  0  0  0  0  0  0  0
   -9.3173   -6.9370    5.9355 O   0  0  0  0  0  0  0  0  0  0  0  0
   -8.5181   -7.0022    7.0475 C   0  0  0  0  0  0  0  0  0  0  0  0
   -7.1320   -6.8042    6.9747 C   0  0  0  0  0  0  0  0  0  0  0  0
   -6.3368   -6.8719    8.1001 C   0  0  0  0  0  0  0  0  0  0  0  0
   -4.9682   -6.6757    8.0245 O   0  0  0  0  0  0  0  0  0  0  0  0
   -6.8803   -7.1378    9.3392 C   0  0  0  0  0  0  0  0  0  0  0  0
   -8.2472   -7.3298    9.3914 C   0  0  0  0  0  0  0  0  0  0  0  0
   -9.0526   -7.2660    8.2837 C   0  0  0  0  0  0  0  0  0  0  0  0
  -10.5011   -7.4712    8.3484 C   0  0  0  0  0  0  0  0  0  0  0  0
  -11.0152   -7.7315    9.5715 N   0  0  0  0  0  0  0  0  0  0  0  0
  -12.3538   -7.9323    9.6951 C   0  0  0  0  0  0  0  0  0  0  0  0
  -12.8829   -8.1968   10.9331 C   0  0  0  0  0  0  0  0  0  0  0  0
  -14.2327   -8.3949   11.0330 C   0  0  0  0  0  0  0  0  0  0  0  0
  -15.0482   -8.3328    9.9264 C   0  0  0  0  0  0  0  0  0  0  0  0
  -16.4020   -8.5323   10.0317 O   0  0  0  0  0  0  0  0  0  0  0  0
  -14.5351   -8.0682    8.6722 C   0  0  0  0  0  0  0  0  0  0  0  0
  -13.1714   -7.8683    8.5731 C   0  0  0  0  0  0  0  0  0  0  0  0
   -4.6458   -5.7045    8.1414 H   0  0  0  0  0  0  0  0  0  0  0  0
  -16.7667   -9.4710    9.9338 H   0  0  0  0  0  0  0  0  0  0  0  0
  -14.8593   -6.3967    4.5828 C   0  0  0  0  0  0  0  0  0  0  0  0
  -15.0903   -7.5711    3.8878 C   0  0  0  0  0  0  0  0  0  0  0  0
  -14.5081   -8.7318    4.3456 C   0  0  0  0  0  0  0  0  0  0  0  0
  -13.7131   -8.7159    5.4734 C   0  0  0  0  0  0  0  0  0  0  0  0
  -13.4895   -7.5348    6.1600 C   0  0  0  0  0  0  0  0  0  0  0  0
  -14.0653   -6.3779    5.7100 C   0  0  0  0  0  0  0  0  0  0  0  0
  -16.7916   -4.9532    4.4269 C   0  0  0  0  0  0  0  0  0  0  0  0
  -15.4600   -5.2414    4.0982 O   0  0  0  0  0  0  0  0  0  0  0  0
 29 30  1  0  0  0
 30 23  1  0  0  0
 23 24  2  0  0  0
 24 25  1  0  0  0
 25 26  2  0  0  0
 26 27  1  0  0  0
 27 28  2  0  0  0
 27  1  1  0  0  0
  1  2  2  0  0  0
  2  3  1  0  0  0
  3  4  1  0  0  0
  4  5  1  0  0  0
  5  6  2  0  0  0
  6  7  1  0  0  0
  7  8  1  0  0  0
  7  9  2  0  0  0
  9 10  1  0  0  0
 10 11  2  0  0  0
 11 12  1  0  0  0
 12 13  2  0  0  0
 13 14  1  0  0  0
 14 15  2  0  0  0
 15 16  1  0  0  0
 16 17  2  0  0  0
 17 18  1  0  0  0
 17 19  1  0  0  0
 19 20  2  0  0  0
 28 23  1  0  0  0
 20  1  1  0  0  0
 12  2  1  0  0  0
 20 14  1  0  0  0
 11  5  1  0  0  0
  8 21  1  0  0  0
 18 22  1  0  0  0
M  END
> <minimizedAffinity>
3.41919

> <CNNscore>
0.3142285049

> <CNNaffinity>
6.2391228676

> <CNN_VS>
1.9605102539

> <CNNaffinity_variance>
0.3464710712

$$$$
[H]Oc1c([H])c([H])c2c(c1[H])OC([H])([H])c1c-2nc2c([H])c([H])c(O[H])c([H])c2c1-c1c([H])c([H])c([H])c(OC([H])([H])[H])c1[H]


 30 34  0  0  0  0  0  0  0  0999 V2000
  -13.2049   -8.5838    7.4333 C   0  0  0  0  0  0  0  0  0  0  0  0
  -13.9793   -8.4337    6.3036 C   0  0  0  0  0  0  0  0  0  0  0  0
  -13.3500   -8.5720    4.9725 C   0  0  0  0  0  0  0  0  0  0  0  0
  -14.2666   -8.3903    3.9240 O   0  0  0  0  0  0  0  0  0  0  0  0
  -15.6046   -8.1155    4.0418 C   0  0  0  0  0  0  0  0  0  0  0  0
  -16.4281   -7.9541    2.9185 C   0  0  0  0  0  0  0  0  0  0  0  0
  -17.7736   -7.6778    3.0483 C   0  0  0  0  0  0  0  0  0  0  0  0
  -18.5840   -7.5192    1.9368 O   0  0  0  0  0  0  0  0  0  0  0  0
  -18.3560   -7.5503    4.2916 C   0  0  0  0  0  0  0  0  0  0  0  0
  -17.5293   -7.7128    5.3862 C   0  0  0  0  0  0  0  0  0  0  0  0
  -16.1906   -7.9878    5.2761 C   0  0  0  0  0  0  0  0  0  0  0  0
  -15.3216   -8.1582    6.4423 C   0  0  0  0  0  0  0  0  0  0  0  0
  -15.9105   -8.0287    7.6524 N   0  0  0  0  0  0  0  0  0  0  0  0
  -15.1549   -8.1749    8.7726 C   0  0  0  0  0  0  0  0  0  0  0  0
  -15.7455   -8.0451   10.0043 C   0  0  0  0  0  0  0  0  0  0  0  0
  -14.9651   -8.1969   11.1173 C   0  0  0  0  0  0  0  0  0  0  0  0
  -13.6209   -8.4729   11.0159 C   0  0  0  0  0  0  0  0  0  0  0  0
  -12.8420   -8.6243   12.1357 O   0  0  0  0  0  0  0  0  0  0  0  0
  -13.0080   -8.6070    9.7860 C   0  0  0  0  0  0  0  0  0  0  0  0
  -13.7978   -8.4533    8.6625 C   0  0  0  0  0  0  0  0  0  0  0  0
  -19.0334   -8.3751    1.5819 H   0  0  0  0  0  0  0  0  0  0  0  0
  -12.3867   -7.8104   12.5281 H   0  0  0  0  0  0  0  0  0  0  0  0
   -9.4809   -8.3350    7.4777 C   0  0  0  0  0  0  0  0  0  0  0  0
   -9.1215   -9.5858    7.0066 C   0  0  0  0  0  0  0  0  0  0  0  0
  -10.1186  -10.4799    6.6871 C   0  0  0  0  0  0  0  0  0  0  0  0
  -11.4447  -10.1286    6.8362 C   0  0  0  0  0  0  0  0  0  0  0  0
  -11.7916   -8.8744    7.3084 C   0  0  0  0  0  0  0  0  0  0  0  0
  -10.8051   -7.9814    7.6277 C   0  0  0  0  0  0  0  0  0  0  0  0
   -7.3794   -7.2862    6.9072 C   0  0  0  0  0  0  0  0  0  0  0  0
   -8.4538   -7.4536    7.7915 O   0  0  0  0  0  0  0  0  0  0  0  0
 29 30  1  0  0  0
 30 23  1  0  0  0
 23 24  2  0  0  0
 24 25  1  0  0  0
 25 26  2  0  0  0
 26 27  1  0  0  0
 27 28  2  0  0  0
 27  1  1  0  0  0
  1  2  2  0  0  0
  2  3  1  0  0  0
  3  4  1  0  0  0
  4  5  1  0  0  0
  5  6  2  0  0  0
  6  7  1  0  0  0
  7  8  1  0  0  0
  7  9  2  0  0  0
  9 10  1  0  0  0
 10 11  2  0  0  0
 11 12  1  0  0  0
 12 13  2  0  0  0
 13 14  1  0  0  0
 14 15  2  0  0  0
 15 16  1  0  0  0
 16 17  2  0  0  0
 17 18  1  0  0  0
 17 19  1  0  0  0
 19 20  2  0  0  0
 28 23  1  0  0  0
 20  1  1  0  0  0
 12  2  1  0  0  0
 20 14  1  0  0  0
 11  5  1  0  0  0
  8 21  1  0  0  0
 18 22  1  0  0  0
M  END
> <minimizedAffinity>
-1.21236

> <CNNscore>
0.3043556511

> <CNNaffinity>
6.6008272171

> <CNN_VS>
2.0089991093

> <CNNaffinity_variance>
0.6932066679

$$$$
[H]/C(=C1/SC(=O)N(C([H])([H])[C@@]([H])(N([H])[H])C([H])([H])[H])C1=O)c1c([H])c([H])c2c(c([H])nn2C([H])([H])c2c([H])c([H])c(Cl)c([H])c2C(F)(F)F)c1[H]


 35 38  0  0  0  0  0  0  0  0999 V2000
   -8.1228   -7.6503    8.1909 C   0  0  0  0  0  0  0  0  0  0  0  0
   -9.3282   -7.1612    8.6459 C   0  0  0  0  0  0  0  0  0  0  0  0
  -10.4825   -7.8238    8.3671 C   0  0  0  0  0  0  0  0  0  0  0  0
  -10.5575   -8.9981    7.6333 C   0  0  0  0  0  0  0  0  0  0  0  0
  -11.5374   -9.8193    7.2694 N   0  0  0  0  0  0  0  0  0  0  0  0
  -10.9406  -10.8422    6.5800 N   0  0  0  0  0  0  0  0  0  0  0  0
   -9.6252  -10.6527    6.5202 C   0  0  0  0  0  0  0  0  0  0  0  0
   -9.3203   -9.4691    7.1881 C   0  0  0  0  0  0  0  0  0  0  0  0
   -8.1544   -8.8085    7.4643 C   0  0  0  0  0  0  0  0  0  0  0  0
   -3.4786   -6.8361    7.3815 N   0  0  0  0  0  0  0  0  0  0  0  0
   -3.7355   -8.0074    6.6275 C   0  0  0  0  0  0  0  0  0  0  0  0
   -2.9727   -8.8889    6.2200 O   0  0  0  0  0  0  0  0  0  0  0  0
   -5.5194   -7.9732    6.3514 S   0  0  0  0  0  0  0  0  0  0  0  0
   -5.8574   -6.9748    7.8290 C   0  0  0  0  0  0  0  0  0  0  0  0
   -6.9474   -6.8890    8.5357 C   0  0  0  0  0  0  0  0  0  0  0  0
   -4.5756   -6.2721    8.0225 C   0  0  0  0  0  0  0  0  0  0  0  0
   -4.5287   -5.2041    8.7488 O   0  0  0  0  0  0  0  0  0  0  0  0
   -2.1216   -6.2516    7.4401 C   0  0  0  0  0  0  0  0  0  0  0  0
   -1.5256   -5.6394    5.1012 C   0  0  0  0  0  0  0  0  0  0  0  0
   -2.0376   -5.1611    6.4150 C   0  0  0  0  0  0  0  0  0  0  0  0
   -1.3051   -4.0106    6.9170 N   0  0  0  0  0  0  0  0  0  0  0  0
   -0.7731   -3.6021    6.1215 H   0  0  0  0  0  0  0  0  0  0  0  0
   -1.9728   -3.3141    7.3042 H   0  0  0  0  0  0  0  0  0  0  0  0
  -12.9615   -9.7231    7.4354 C   0  0  0  0  0  0  0  0  0  0  0  0
  -13.6579   -8.5908    6.8456 C   0  0  0  0  0  0  0  0  0  0  0  0
  -13.8690   -8.7396    5.4487 C   0  0  0  0  0  0  0  0  0  0  0  0
  -14.4816   -7.7945    4.6926 C   0  0  0  0  0  0  0  0  0  0  0  0
  -14.9095   -6.6523    5.3198 C   0  0  0  0  0  0  0  0  0  0  0  0
  -15.7008   -5.3966    4.4211 Cl  0  0  0  0  0  0  0  0  0  0  0  0
  -14.7159   -6.4888    6.6684 C   0  0  0  0  0  0  0  0  0  0  0  0
  -14.0829   -7.4562    7.4724 C   0  0  0  0  0  0  0  0  0  0  0  0
  -13.9116   -7.1931    8.9027 C   0  0  0  0  0  0  0  0  0  0  0  0
  -13.1149   -8.0846    9.5757 F   0  0  0  0  0  0  0  0  0  0  0  0
  -15.2059   -7.5353    9.4789 F   0  0  0  0  0  0  0  0  0  0  0  0
  -13.8129   -5.8791    9.2617 F   0  0  0  0  0  0  0  0  0  0  0  0
 19 20  1  0  0  0
 20 21  1  0  0  0
 20 18  1  0  0  0
 18 10  1  0  0  0
 10 11  1  0  0  0
 11 12  2  0  0  0
 11 13  1  0  0  0
 13 14  1  0  0  0
 14 15  2  0  0  0
 15  1  1  0  0  0
  1  2  2  0  0  0
  2  3  1  0  0  0
  3  4  2  0  0  0
  4  5  1  0  0  0
  5 24  1  0  0  0
 24 25  1  0  0  0
 25 26  2  0  0  0
 26 27  1  0  0  0
 27 28  2  0  0  0
 28 29  1  0  0  0
 28 30  1  0  0  0
 30 31  2  0  0  0
 31 32  1  0  0  0
 32 33  1  0  0  0
 32 34  1  0  0  0
 32 35  1  0  0  0
  5  6  1  0  0  0
  6  7  2  0  0  0
  7  8  1  0  0  0
  8  9  2  0  0  0
 14 16  1  0  0  0
 16 17  2  0  0  0
 16 10  1  0  0  0
  9  1  1  0  0  0
  8  4  1  0  0  0
 31 25  1  0  0  0
 21 22  1  0  0  0
 21 23  1  0  0  0
M  END
> <minimizedAffinity>
-8.44543

> <CNNscore>
0.4546715319

> <CNNaffinity>
6.9783844948

> <CNN_VS>
3.1728727818

> <CNNaffinity_variance>
0.1018577591

$$$$
[H]/C(=C1/SC(=O)N(C([H])([H])[C@@]([H])(N([H])[H])C([H])([H])[H])C1=O)c1c([H])c([H])c2c(c([H])nn2C([H])([H])c2c([H])c([H])c(Cl)c([H])c2C(F)(F)F)c1[H]


 35 38  0  0  0  0  0  0  0  0999 V2000
   -9.0047   -7.2005    7.1669 C   0  0  0  0  0  0  0  0  0  0  0  0
   -9.3238   -6.4797    8.2973 C   0  0  0  0  0  0  0  0  0  0  0  0
  -10.4415   -6.7857    9.0088 C   0  0  0  0  0  0  0  0  0  0  0  0
  -11.3271   -7.8019    8.6833 C   0  0  0  0  0  0  0  0  0  0  0  0
  -12.4357   -8.2942    9.2272 N   0  0  0  0  0  0  0  0  0  0  0  0
  -12.8174   -9.3423    8.4313 N   0  0  0  0  0  0  0  0  0  0  0  0
  -11.9643   -9.4893    7.4211 C   0  0  0  0  0  0  0  0  0  0  0  0
  -10.9757   -8.5147    7.5347 C   0  0  0  0  0  0  0  0  0  0  0  0
   -9.8530   -8.2132    6.8132 C   0  0  0  0  0  0  0  0  0  0  0  0
   -4.3790   -6.0253    7.4969 N   0  0  0  0  0  0  0  0  0  0  0  0
   -4.8013   -6.0502    8.8487 C   0  0  0  0  0  0  0  0  0  0  0  0
   -4.3288   -5.5078    9.8524 O   0  0  0  0  0  0  0  0  0  0  0  0
   -6.2704   -7.0996    8.8339 S   0  0  0  0  0  0  0  0  0  0  0  0
   -6.6565   -6.7529    7.0947 C   0  0  0  0  0  0  0  0  0  0  0  0
   -7.7999   -6.8133    6.4750 C   0  0  0  0  0  0  0  0  0  0  0  0
   -5.3332   -6.3908    6.5543 C   0  0  0  0  0  0  0  0  0  0  0  0
   -5.1246   -6.4286    5.2795 O   0  0  0  0  0  0  0  0  0  0  0  0
   -2.9914   -5.6596    7.1401 C   0  0  0  0  0  0  0  0  0  0  0  0
   -2.0914   -7.9074    7.7211 C   0  0  0  0  0  0  0  0  0  0  0  0
   -2.2941   -6.8929    6.6503 C   0  0  0  0  0  0  0  0  0  0  0  0
   -1.0652   -6.5682    5.9457 N   0  0  0  0  0  0  0  0  0  0  0  0
   -0.3741   -7.3180    6.1522 H   0  0  0  0  0  0  0  0  0  0  0  0
   -1.2522   -6.5169    4.9243 H   0  0  0  0  0  0  0  0  0  0  0  0
  -13.2069   -7.8586   10.3587 C   0  0  0  0  0  0  0  0  0  0  0  0
  -12.6402   -6.8538   11.2444 C   0  0  0  0  0  0  0  0  0  0  0  0
  -12.1215   -7.4068   12.4457 C   0  0  0  0  0  0  0  0  0  0  0  0
  -11.5642   -6.6494   13.4235 C   0  0  0  0  0  0  0  0  0  0  0  0
  -11.5070   -5.2931   13.2273 C   0  0  0  0  0  0  0  0  0  0  0  0
  -10.8100   -4.2567   14.4318 Cl  0  0  0  0  0  0  0  0  0  0  0  0
  -12.0019   -4.7387   12.0738 C   0  0  0  0  0  0  0  0  0  0  0  0
  -12.5842   -5.5054   11.0462 C   0  0  0  0  0  0  0  0  0  0  0  0
  -13.0941   -4.8274    9.8525 C   0  0  0  0  0  0  0  0  0  0  0  0
  -13.9373   -5.5712    9.0660 F   0  0  0  0  0  0  0  0  0  0  0  0
  -11.9360   -4.7531    8.9708 F   0  0  0  0  0  0  0  0  0  0  0  0
  -13.3889   -3.5018    9.9973 F   0  0  0  0  0  0  0  0  0  0  0  0
 19 20  1  0  0  0
 20 21  1  0  0  0
 20 18  1  0  0  0
 18 10  1  0  0  0
 10 11  1  0  0  0
 11 12  2  0  0  0
 11 13  1  0  0  0
 13 14  1  0  0  0
 14 15  2  0  0  0
 15  1  1  0  0  0
  1  2  2  0  0  0
  2  3  1  0  0  0
  3  4  2  0  0  0
  4  5  1  0  0  0
  5 24  1  0  0  0
 24 25  1  0  0  0
 25 26  2  0  0  0
 26 27  1  0  0  0
 27 28  2  0  0  0
 28 29  1  0  0  0
 28 30  1  0  0  0
 30 31  2  0  0  0
 31 32  1  0  0  0
 32 33  1  0  0  0
 32 34  1  0  0  0
 32 35  1  0  0  0
  5  6  1  0  0  0
  6  7  2  0  0  0
  7  8  1  0  0  0
  8  9  2  0  0  0
 14 16  1  0  0  0
 16 17  2  0  0  0
 16 10  1  0  0  0
  9  1  1  0  0  0
  8  4  1  0  0  0
 31 25  1  0  0  0
 21 22  1  0  0  0
 21 23  1  0  0  0
M  END
> <minimizedAffinity>
2.52736

> <CNNscore>
0.4052535892

> <CNNaffinity>
6.5307149887

> <CNN_VS>
2.6465957165

> <CNNaffinity_variance>
0.5168592334

$$$$
[H]/C(=C1/SC(=O)N(C([H])([H])[C@@]([H])(N([H])[H])C([H])([H])[H])C1=O)c1c([H])c([H])c2c(c([H])nn2C([H])([H])c2c([H])c([H])c(Cl)c([H])c2C(F)(F)F)c1[H]


 35 38  0  0  0  0  0  0  0  0999 V2000
   -5.8445   -6.7855    6.3894 C   0  0  0  0  0  0  0  0  0  0  0  0
   -7.1035   -6.3920    5.9903 C   0  0  0  0  0  0  0  0  0  0  0  0
   -8.1888   -7.1438    6.3165 C   0  0  0  0  0  0  0  0  0  0  0  0
   -8.1385   -8.3223    7.0456 C   0  0  0  0  0  0  0  0  0  0  0  0
   -9.0402   -9.1869    7.5000 N   0  0  0  0  0  0  0  0  0  0  0  0
   -8.3402  -10.1352    8.1988 N   0  0  0  0  0  0  0  0  0  0  0  0
   -7.0387   -9.8606    8.1727 C   0  0  0  0  0  0  0  0  0  0  0  0
   -6.8500   -8.6933    7.4366 C   0  0  0  0  0  0  0  0  0  0  0  0
   -5.7530   -7.9425    7.1127 C   0  0  0  0  0  0  0  0  0  0  0  0
   -2.4985   -3.6658    7.7890 N   0  0  0  0  0  0  0  0  0  0  0  0
   -3.2929   -3.8275    8.9506 C   0  0  0  0  0  0  0  0  0  0  0  0
   -3.4435   -3.0961    9.9341 O   0  0  0  0  0  0  0  0  0  0  0  0
   -4.1083   -5.4203    8.7105 S   0  0  0  0  0  0  0  0  0  0  0  0
   -4.0060   -5.3437    6.9000 C   0  0  0  0  0  0  0  0  0  0  0  0
   -4.7500   -5.9281    6.0057 C   0  0  0  0  0  0  0  0  0  0  0  0
   -2.8504   -4.4507    6.6969 C   0  0  0  0  0  0  0  0  0  0  0  0
   -2.2375   -4.4374    5.5592 O   0  0  0  0  0  0  0  0  0  0  0  0
   -1.3501   -2.7344    7.7764 C   0  0  0  0  0  0  0  0  0  0  0  0
   -1.0600   -0.7382    6.3166 C   0  0  0  0  0  0  0  0  0  0  0  0
   -1.8559   -1.3737    7.4027 C   0  0  0  0  0  0  0  0  0  0  0  0
   -1.9978   -0.5173    8.5683 N   0  0  0  0  0  0  0  0  0  0  0  0
   -1.7561    0.4527    8.2800 H   0  0  0  0  0  0  0  0  0  0  0  0
   -2.9769   -0.5606    8.9154 H   0  0  0  0  0  0  0  0  0  0  0  0
  -10.4615   -9.2616    7.3015 C   0  0  0  0  0  0  0  0  0  0  0  0
  -11.3196   -8.3611    8.0551 C   0  0  0  0  0  0  0  0  0  0  0  0
  -10.5965   -7.3269    8.7073 C   0  0  0  0  0  0  0  0  0  0  0  0
  -11.1943   -6.3869    9.4815 C   0  0  0  0  0  0  0  0  0  0  0  0
  -12.5562   -6.4526    9.6300 C   0  0  0  0  0  0  0  0  0  0  0  0
  -13.3940   -5.2872   10.6050 Cl  0  0  0  0  0  0  0  0  0  0  0  0
  -13.2737   -7.4433    9.0082 C   0  0  0  0  0  0  0  0  0  0  0  0
  -12.6742   -8.4287    8.2004 C   0  0  0  0  0  0  0  0  0  0  0  0
  -13.5178   -9.4537    7.5822 C   0  0  0  0  0  0  0  0  0  0  0  0
  -13.6688   -9.3526    6.2222 F   0  0  0  0  0  0  0  0  0  0  0  0
  -14.8664   -9.0999    8.0070 F   0  0  0  0  0  0  0  0  0  0  0  0
  -13.4093  -10.7118    8.1026 F   0  0  0  0  0  0  0  0  0  0  0  0
 19 20  1  0  0  0
 20 21  1  0  0  0
 20 18  1  0  0  0
 18 10  1  0  0  0
 10 11  1  0  0  0
 11 12  2  0  0  0
 11 13  1  0  0  0
 13 14  1  0  0  0
 14 15  2  0  0  0
 15  1  1  0  0  0
  1  2  2  0  0  0
  2  3  1  0  0  0
  3  4  2  0  0  0
  4  5  1  0  0  0
  5 24  1  0  0  0
 24 25  1  0  0  0
 25 26  2  0  0  0
 26 27  1  0  0  0
 27 28  2  0  0  0
 28 29  1  0  0  0
 28 30  1  0  0  0
 30 31  2  0  0  0
 31 32  1  0  0  0
 32 33  1  0  0  0
 32 34  1  0  0  0
 32 35  1  0  0  0
  5  6  1  0  0  0
  6  7  2  0  0  0
  7  8  1  0  0  0
  8  9  2  0  0  0
 14 16  1  0  0  0
 16 17  2  0  0  0
 16 10  1  0  0  0
  9  1  1  0  0  0
  8  4  1  0  0  0
 31 25  1  0  0  0
 21 22  1  0  0  0
 21 23  1  0  0  0
M  END
> <minimizedAffinity>
-8.67046

> <CNNscore>
0.3402789235

> <CNNaffinity>
6.2855753899

> <CNN_VS>
2.1388487816

> <CNNaffinity_variance>
0.1085819975

$$$$
[H]/C(=C1/SC(=O)N(C([H])([H])[C@@]([H])(N([H])[H])C([H])([H])[H])C1=O)c1c([H])c([H])c2c(c([H])nn2C([H])([H])c2c([H])c([H])c(Cl)c([H])c2C(F)(F)F)c1[H]


 35 38  0  0  0  0  0  0  0  0999 V2000
   -7.2880   -7.1142    6.4332 C   0  0  0  0  0  0  0  0  0  0  0  0
   -8.3181   -6.4457    7.0586 C   0  0  0  0  0  0  0  0  0  0  0  0
   -9.3994   -7.1324    7.5153 C   0  0  0  0  0  0  0  0  0  0  0  0
   -9.5648   -8.5045    7.4019 C   0  0  0  0  0  0  0  0  0  0  0  0
  -10.4919   -9.3757    7.7873 N   0  0  0  0  0  0  0  0  0  0  0  0
  -10.0373  -10.6102    7.4039 N   0  0  0  0  0  0  0  0  0  0  0  0
   -8.8594  -10.4998    6.7955 C   0  0  0  0  0  0  0  0  0  0  0  0
   -8.5041   -9.1533    6.7657 C   0  0  0  0  0  0  0  0  0  0  0  0
   -7.4126   -8.4699    6.3034 C   0  0  0  0  0  0  0  0  0  0  0  0
   -3.3521   -4.6697    7.6248 N   0  0  0  0  0  0  0  0  0  0  0  0
   -3.9332   -4.9744    8.8801 C   0  0  0  0  0  0  0  0  0  0  0  0
   -3.8000   -4.4363    9.9836 O   0  0  0  0  0  0  0  0  0  0  0  0
   -4.9860   -6.4024    8.5451 S   0  0  0  0  0  0  0  0  0  0  0  0
   -5.2097   -5.9868    6.7925 C   0  0  0  0  0  0  0  0  0  0  0  0
   -6.1776   -6.3107    5.9843 C   0  0  0  0  0  0  0  0  0  0  0  0
   -4.0016   -5.1895    6.5111 C   0  0  0  0  0  0  0  0  0  0  0  0
   -3.6128   -5.0164    5.2908 O   0  0  0  0  0  0  0  0  0  0  0  0
   -2.1107   -3.8712    7.5350 C   0  0  0  0  0  0  0  0  0  0  0  0
   -1.6892   -1.6947    6.4012 C   0  0  0  0  0  0  0  0  0  0  0  0
   -2.4919   -2.4260    7.4200 C   0  0  0  0  0  0  0  0  0  0  0  0
   -2.4877   -1.7672    8.7154 N   0  0  0  0  0  0  0  0  0  0  0  0
   -2.1622   -0.7894    8.5724 H   0  0  0  0  0  0  0  0  0  0  0  0
   -3.4479   -1.7766    9.1142 H   0  0  0  0  0  0  0  0  0  0  0  0
  -11.7724   -9.1795    8.4093 C   0  0  0  0  0  0  0  0  0  0  0  0
  -12.7480   -8.3297    7.7450 C   0  0  0  0  0  0  0  0  0  0  0  0
  -13.2057   -8.8727    6.5148 C   0  0  0  0  0  0  0  0  0  0  0  0
  -14.1028   -8.2381    5.7193 C   0  0  0  0  0  0  0  0  0  0  0  0
  -14.5781   -7.0209    6.1359 C   0  0  0  0  0  0  0  0  0  0  0  0
  -15.7271   -6.1466    5.1734 Cl  0  0  0  0  0  0  0  0  0  0  0  0
  -14.1493   -6.4787    7.3213 C   0  0  0  0  0  0  0  0  0  0  0  0
  -13.2193   -7.1196    8.1624 C   0  0  0  0  0  0  0  0  0  0  0  0
  -12.8119   -6.4624    9.4060 C   0  0  0  0  0  0  0  0  0  0  0  0
  -13.0688   -7.1647   10.5564 F   0  0  0  0  0  0  0  0  0  0  0  0
  -13.7731   -5.3776    9.5596 F   0  0  0  0  0  0  0  0  0  0  0  0
  -11.6417   -5.7600    9.3561 F   0  0  0  0  0  0  0  0  0  0  0  0
 19 20  1  0  0  0
 20 21  1  0  0  0
 20 18  1  0  0  0
 18 10  1  0  0  0
 10 11  1  0  0  0
 11 12  2  0  0  0
 11 13  1  0  0  0
 13 14  1  0  0  0
 14 15  2  0  0  0
 15  1  1  0  0  0
  1  2  2  0  0  0
  2  3  1  0  0  0
  3  4  2  0  0  0
  4  5  1  0  0  0
  5 24  1  0  0  0
 24 25  1  0  0  0
 25 26  2  0  0  0
 26 27  1  0  0  0
 27 28  2  0  0  0
 28 29  1  0  0  0
 28 30  1  0  0  0
 30 31  2  0  0  0
 31 32  1  0  0  0
 32 33  1  0  0  0
 32 34  1  0  0  0
 32 35  1  0  0  0
  5  6  1  0  0  0
  6  7  2  0  0  0
  7  8  1  0  0  0
  8  9  2  0  0  0
 14 16  1  0  0  0
 16 17  2  0  0  0
 16 10  1  0  0  0
  9  1  1  0  0  0
  8  4  1  0  0  0
 31 25  1  0  0  0
 21 22  1  0  0  0
 21 23  1  0  0  0
M  END
> <minimizedAffinity>
-8.36755

> <CNNscore>
0.3326314092

> <CNNaffinity>
6.8325204849

> <CNN_VS>
2.2727108002

> <CNNaffinity_variance>
0.1132809892

$$$$
[H]/C(=C1/SC(=O)N(C([H])([H])[C@@]([H])(N([H])[H])C([H])([H])[H])C1=O)c1c([H])c([H])c2c(c([H])nn2C([H])([H])c2c([H])c([H])c(Cl)c([H])c2C(F)(F)F)c1[H]


 35 38  0  0  0  0  0  0  0  0999 V2000
   -6.9891   -8.4795    6.9933 C   0  0  0  0  0  0  0  0  0  0  0  0
   -7.7363   -9.6201    6.7930 C   0  0  0  0  0  0  0  0  0  0  0  0
   -9.0558   -9.6379    7.1217 C   0  0  0  0  0  0  0  0  0  0  0  0
   -9.7454   -8.5642    7.6646 C   0  0  0  0  0  0  0  0  0  0  0  0
  -11.0047   -8.3411    8.0272 N   0  0  0  0  0  0  0  0  0  0  0  0
  -11.0524   -7.0409    8.4572 N   0  0  0  0  0  0  0  0  0  0  0  0
   -9.8502   -6.4791    8.3627 C   0  0  0  0  0  0  0  0  0  0  0  0
   -8.9619   -7.4236    7.8538 C   0  0  0  0  0  0  0  0  0  0  0  0
   -7.6339   -7.3974    7.5257 C   0  0  0  0  0  0  0  0  0  0  0  0
   -2.8373   -6.1517    6.5136 N   0  0  0  0  0  0  0  0  0  0  0  0
   -3.7580   -5.1120    6.7928 C   0  0  0  0  0  0  0  0  0  0  0  0
   -3.7044   -3.9011    6.5571 O   0  0  0  0  0  0  0  0  0  0  0  0
   -5.1298   -5.9462    7.6186 S   0  0  0  0  0  0  0  0  0  0  0  0
   -4.7911   -7.5499    6.8389 C   0  0  0  0  0  0  0  0  0  0  0  0
   -5.5995   -8.5450    6.6127 C   0  0  0  0  0  0  0  0  0  0  0  0
   -3.3528   -7.4425    6.5320 C   0  0  0  0  0  0  0  0  0  0  0  0
   -2.6605   -8.5097    6.3041 O   0  0  0  0  0  0  0  0  0  0  0  0
   -1.4120   -5.8559    6.2531 C   0  0  0  0  0  0  0  0  0  0  0  0
   -2.1782   -5.1677    3.9860 C   0  0  0  0  0  0  0  0  0  0  0  0
   -1.1797   -5.9410    4.7746 C   0  0  0  0  0  0  0  0  0  0  0  0
   -1.0608   -7.3197    4.3305 N   0  0  0  0  0  0  0  0  0  0  0  0
   -1.4881   -7.3856    3.3842 H   0  0  0  0  0  0  0  0  0  0  0  0
   -0.0573   -7.5895    4.2964 H   0  0  0  0  0  0  0  0  0  0  0  0
  -12.1427   -9.2170    8.0780 C   0  0  0  0  0  0  0  0  0  0  0  0
  -13.3478   -8.8380    7.3573 C   0  0  0  0  0  0  0  0  0  0  0  0
  -13.3216   -9.2324    5.9929 C   0  0  0  0  0  0  0  0  0  0  0  0
  -14.3333   -8.9635    5.1300 C   0  0  0  0  0  0  0  0  0  0  0  0
  -15.4206   -8.2807    5.6124 C   0  0  0  0  0  0  0  0  0  0  0  0
  -16.7545   -7.8981    4.5707 Cl  0  0  0  0  0  0  0  0  0  0  0  0
  -15.4661   -7.8909    6.9272 C   0  0  0  0  0  0  0  0  0  0  0  0
  -14.4280   -8.1593    7.8401 C   0  0  0  0  0  0  0  0  0  0  0  0
  -14.5585   -7.6977    9.2237 C   0  0  0  0  0  0  0  0  0  0  0  0
  -14.0897   -6.4319    9.4705 F   0  0  0  0  0  0  0  0  0  0  0  0
  -13.5610   -8.4755    9.9477 F   0  0  0  0  0  0  0  0  0  0  0  0
  -15.6976   -8.0754    9.8756 F   0  0  0  0  0  0  0  0  0  0  0  0
 19 20  1  0  0  0
 20 21  1  0  0  0
 20 18  1  0  0  0
 18 10  1  0  0  0
 10 11  1  0  0  0
 11 12  2  0  0  0
 11 13  1  0  0  0
 13 14  1  0  0  0
 14 15  2  0  0  0
 15  1  1  0  0  0
  1  2  2  0  0  0
  2  3  1  0  0  0
  3  4  2  0  0  0
  4  5  1  0  0  0
  5 24  1  0  0  0
 24 25  1  0  0  0
 25 26  2  0  0  0
 26 27  1  0  0  0
 27 28  2  0  0  0
 28 29  1  0  0  0
 28 30  1  0  0  0
 30 31  2  0  0  0
 31 32  1  0  0  0
 32 33  1  0  0  0
 32 34  1  0  0  0
 32 35  1  0  0  0
  5  6  1  0  0  0
  6  7  2  0  0  0
  7  8  1  0  0  0
  8  9  2  0  0  0
 14 16  1  0  0  0
 16 17  2  0  0  0
 16 10  1  0  0  0
  9  1  1  0  0  0
  8  4  1  0  0  0
 31 25  1  0  0  0
 21 22  1  0  0  0
 21 23  1  0  0  0
M  END
> <minimizedAffinity>
-9.13645

> <CNNscore>
0.2771825790

> <CNNaffinity>
6.6293654442

> <CNN_VS>
1.8375445604

> <CNNaffinity_variance>
0.0797329471

$$$$
[H]/C(=C1/SC(=O)N(C([H])([H])[C@@]([H])(N([H])[H])C([H])([H])[H])C1=O)c1c([H])c([H])c2c(c([H])nn2C([H])([H])c2c([H])c([H])c(Cl)c([H])c2C(F)(F)F)c1[H]


 35 38  0  0  0  0  0  0  0  0999 V2000
  -11.1802   -9.3921    7.4759 C   0  0  0  0  0  0  0  0  0  0  0  0
  -11.5585   -9.5190    6.1568 C   0  0  0  0  0  0  0  0  0  0  0  0
  -12.8398   -9.2543    5.7859 C   0  0  0  0  0  0  0  0  0  0  0  0
  -13.8426   -8.8514    6.6548 C   0  0  0  0  0  0  0  0  0  0  0  0
  -15.1219   -8.5145    6.5239 N   0  0  0  0  0  0  0  0  0  0  0  0
  -15.5539   -8.1660    7.7768 N   0  0  0  0  0  0  0  0  0  0  0  0
  -14.5638   -8.2877    8.6569 C   0  0  0  0  0  0  0  0  0  0  0  0
  -13.4280   -8.7303    7.9830 C   0  0  0  0  0  0  0  0  0  0  0  0
  -12.1409   -8.9947    8.3645 C   0  0  0  0  0  0  0  0  0  0  0  0
   -6.6147   -7.9856    7.2226 N   0  0  0  0  0  0  0  0  0  0  0  0
   -7.2862   -7.0459    6.4025 C   0  0  0  0  0  0  0  0  0  0  0  0
   -6.8680   -6.3249    5.4914 O   0  0  0  0  0  0  0  0  0  0  0  0
   -8.9970   -7.1008    6.9767 S   0  0  0  0  0  0  0  0  0  0  0  0
   -8.8666   -8.7997    7.6019 C   0  0  0  0  0  0  0  0  0  0  0  0
   -9.8020   -9.6872    7.7819 C   0  0  0  0  0  0  0  0  0  0  0  0
   -7.4207   -8.9181    7.8654 C   0  0  0  0  0  0  0  0  0  0  0  0
   -6.9821   -9.8449    8.6521 O   0  0  0  0  0  0  0  0  0  0  0  0
   -5.1466   -7.9351    7.3921 C   0  0  0  0  0  0  0  0  0  0  0  0
   -3.3209   -6.4203    8.1488 C   0  0  0  0  0  0  0  0  0  0  0  0
   -4.7870   -6.5930    7.9549 C   0  0  0  0  0  0  0  0  0  0  0  0
   -5.5502   -6.2946    9.1551 N   0  0  0  0  0  0  0  0  0  0  0  0
   -4.9332   -5.7563    9.7971 H   0  0  0  0  0  0  0  0  0  0  0  0
   -6.3902   -5.7357    8.9040 H   0  0  0  0  0  0  0  0  0  0  0  0
  -15.9948   -8.5440    5.3828 C   0  0  0  0  0  0  0  0  0  0  0  0
  -16.7662   -7.3532    5.0635 C   0  0  0  0  0  0  0  0  0  0  0  0
  -18.1304   -7.6373    4.7871 C   0  0  0  0  0  0  0  0  0  0  0  0
  -19.0271   -6.6780    4.4466 C   0  0  0  0  0  0  0  0  0  0  0  0
  -18.5806   -5.3834    4.3706 C   0  0  0  0  0  0  0  0  0  0  0  0
  -19.6663   -4.1001    3.9403 Cl  0  0  0  0  0  0  0  0  0  0  0  0
  -17.2669   -5.0873    4.6341 C   0  0  0  0  0  0  0  0  0  0  0  0
  -16.3193   -6.0666    4.9893 C   0  0  0  0  0  0  0  0  0  0  0  0
  -14.9359   -5.6601    5.2449 C   0  0  0  0  0  0  0  0  0  0  0  0
  -14.5776   -5.5843    6.5673 F   0  0  0  0  0  0  0  0  0  0  0  0
  -14.9185   -4.2434    4.9032 F   0  0  0  0  0  0  0  0  0  0  0  0
  -14.0000   -6.1429    4.3753 F   0  0  0  0  0  0  0  0  0  0  0  0
 19 20  1  0  0  0
 20 21  1  0  0  0
 20 18  1  0  0  0
 18 10  1  0  0  0
 10 11  1  0  0  0
 11 12  2  0  0  0
 11 13  1  0  0  0
 13 14  1  0  0  0
 14 15  2  0  0  0
 15  1  1  0  0  0
  1  2  2  0  0  0
  2  3  1  0  0  0
  3  4  2  0  0  0
  4  5  1  0  0  0
  5 24  1  0  0  0
 24 25  1  0  0  0
 25 26  2  0  0  0
 26 27  1  0  0  0
 27 28  2  0  0  0
 28 29  1  0  0  0
 28 30  1  0  0  0
 30 31  2  0  0  0
 31 32  1  0  0  0
 32 33  1  0  0  0
 32 34  1  0  0  0
 32 35  1  0  0  0
  5  6  1  0  0  0
  6  7  2  0  0  0
  7  8  1  0  0  0
  8  9  2  0  0  0
 14 16  1  0  0  0
 16 17  2  0  0  0
 16 10  1  0  0  0
  9  1  1  0  0  0
  8  4  1  0  0  0
 31 25  1  0  0  0
 21 22  1  0  0  0
 21 23  1  0  0  0
M  END
> <minimizedAffinity>
-7.52862

> <CNNscore>
0.2643821239

> <CNNaffinity>
6.9745674133

> <CNN_VS>
1.8439509869

> <CNNaffinity_variance>
0.1959213167

$$$$
[H]/C(=C1/SC(=O)N(C([H])([H])[C@@]([H])(N([H])[H])C([H])([H])[H])C1=O)c1c([H])c([H])c2c(c([H])nn2C([H])([H])c2c([H])c([H])c(Cl)c([H])c2C(F)(F)F)c1[H]


 35 38  0  0  0  0  0  0  0  0999 V2000
  -11.4968   -9.3819    7.6483 C   0  0  0  0  0  0  0  0  0  0  0  0
  -12.0236   -9.2677    6.3800 C   0  0  0  0  0  0  0  0  0  0  0  0
  -13.3204   -8.8951    6.2107 C   0  0  0  0  0  0  0  0  0  0  0  0
  -14.1976   -8.6084    7.2458 C   0  0  0  0  0  0  0  0  0  0  0  0
  -15.4621   -8.2059    7.3233 N   0  0  0  0  0  0  0  0  0  0  0  0
  -15.7341   -8.0599    8.6584 N   0  0  0  0  0  0  0  0  0  0  0  0
  -14.6623   -8.3674    9.3841 C   0  0  0  0  0  0  0  0  0  0  0  0
  -13.6341   -8.7314    8.5178 C   0  0  0  0  0  0  0  0  0  0  0  0
  -12.3303   -9.1057    8.6967 C   0  0  0  0  0  0  0  0  0  0  0  0
   -6.9154   -8.1486    7.0349 N   0  0  0  0  0  0  0  0  0  0  0  0
   -7.6199   -7.0709    6.4443 C   0  0  0  0  0  0  0  0  0  0  0  0
   -7.2676   -6.2423    5.5992 O   0  0  0  0  0  0  0  0  0  0  0  0
   -9.2529   -7.1369    7.2115 S   0  0  0  0  0  0  0  0  0  0  0  0
   -9.1529   -8.9133    7.5705 C   0  0  0  0  0  0  0  0  0  0  0  0
  -10.1125   -9.7771    7.7375 C   0  0  0  0  0  0  0  0  0  0  0  0
   -7.6958   -9.1303    7.6344 C   0  0  0  0  0  0  0  0  0  0  0  0
   -7.2253  -10.1804    8.2228 O   0  0  0  0  0  0  0  0  0  0  0  0
   -5.4371   -8.1859    7.0277 C   0  0  0  0  0  0  0  0  0  0  0  0
   -3.4548   -6.9232    7.8502 C   0  0  0  0  0  0  0  0  0  0  0  0
   -4.9349   -6.9375    7.6883 C   0  0  0  0  0  0  0  0  0  0  0  0
   -5.6375   -6.6711    8.9323 N   0  0  0  0  0  0  0  0  0  0  0  0
   -4.9562   -6.2513    9.5973 H   0  0  0  0  0  0  0  0  0  0  0  0
   -6.4242   -6.0149    8.7546 H   0  0  0  0  0  0  0  0  0  0  0  0
  -16.4547   -8.0071    6.3034 C   0  0  0  0  0  0  0  0  0  0  0  0
  -16.3386   -6.8476    5.4332 C   0  0  0  0  0  0  0  0  0  0  0  0
  -15.2546   -5.9998    5.7855 C   0  0  0  0  0  0  0  0  0  0  0  0
  -14.9732   -4.8511    5.1209 C   0  0  0  0  0  0  0  0  0  0  0  0
  -15.7800   -4.5087    4.0659 C   0  0  0  0  0  0  0  0  0  0  0  0
  -15.4855   -3.0543    3.1666 Cl  0  0  0  0  0  0  0  0  0  0  0  0
  -16.8321   -5.3139    3.7088 C   0  0  0  0  0  0  0  0  0  0  0  0
  -17.1424   -6.5101    4.3841 C   0  0  0  0  0  0  0  0  0  0  0  0
  -18.2901   -7.3030    3.9385 C   0  0  0  0  0  0  0  0  0  0  0  0
  -18.3623   -7.5295    2.5872 F   0  0  0  0  0  0  0  0  0  0  0  0
  -19.4226   -6.3995    4.0979 F   0  0  0  0  0  0  0  0  0  0  0  0
  -18.6647   -8.3276    4.7602 F   0  0  0  0  0  0  0  0  0  0  0  0
 19 20  1  0  0  0
 20 21  1  0  0  0
 20 18  1  0  0  0
 18 10  1  0  0  0
 10 11  1  0  0  0
 11 12  2  0  0  0
 11 13  1  0  0  0
 13 14  1  0  0  0
 14 15  2  0  0  0
 15  1  1  0  0  0
  1  2  2  0  0  0
  2  3  1  0  0  0
  3  4  2  0  0  0
  4  5  1  0  0  0
  5 24  1  0  0  0
 24 25  1  0  0  0
 25 26  2  0  0  0
 26 27  1  0  0  0
 27 28  2  0  0  0
 28 29  1  0  0  0
 28 30  1  0  0  0
 30 31  2  0  0  0
 31 32  1  0  0  0
 32 33  1  0  0  0
 32 34  1  0  0  0
 32 35  1  0  0  0
  5  6  1  0  0  0
  6  7  2  0  0  0
  7  8  1  0  0  0
  8  9  2  0  0  0
 14 16  1  0  0  0
 16 17  2  0  0  0
 16 10  1  0  0  0
  9  1  1  0  0  0
  8  4  1  0  0  0
 31 25  1  0  0  0
 21 22  1  0  0  0
 21 23  1  0  0  0
M  END
> <minimizedAffinity>
-9.03378

> <CNNscore>
0.2068268508

> <CNNaffinity>
7.0742273331

> <CNN_VS>
1.4631401300

> <CNNaffinity_variance>
0.0546640269

$$$$
[H]/C(=C1/SC(=O)N(C([H])([H])[C@@]([H])(N([H])[H])C([H])([H])[H])C1=O)c1c([H])c([H])c2c(c([H])nn2C([H])([H])c2c([H])c([H])c(Cl)c([H])c2C(F)(F)F)c1[H]


 35 38  0  0  0  0  0  0  0  0999 V2000
  -10.1785   -8.2999    8.1677 C   0  0  0  0  0  0  0  0  0  0  0  0
  -10.7759   -9.0428    7.1725 C   0  0  0  0  0  0  0  0  0  0  0  0
  -12.1242   -8.9955    7.0015 C   0  0  0  0  0  0  0  0  0  0  0  0
  -12.9884   -8.2339    7.7737 C   0  0  0  0  0  0  0  0  0  0  0  0
  -14.2985   -8.0088    7.7753 N   0  0  0  0  0  0  0  0  0  0  0  0
  -14.5288   -7.1081    8.7820 N   0  0  0  0  0  0  0  0  0  0  0  0
  -13.3872   -6.7890    9.3859 C   0  0  0  0  0  0  0  0  0  0  0  0
  -12.3532   -7.4916    8.7718 C   0  0  0  0  0  0  0  0  0  0  0  0
  -10.9973   -7.5335    8.9503 C   0  0  0  0  0  0  0  0  0  0  0  0
   -5.9091   -6.9157    6.5116 N   0  0  0  0  0  0  0  0  0  0  0  0
   -6.8116   -6.3808    5.5598 C   0  0  0  0  0  0  0  0  0  0  0  0
   -6.6387   -6.0402    4.3855 O   0  0  0  0  0  0  0  0  0  0  0  0
   -8.3815   -6.2820    6.4459 S   0  0  0  0  0  0  0  0  0  0  0  0
   -7.9579   -7.6141    7.6036 C   0  0  0  0  0  0  0  0  0  0  0  0
   -8.7441   -8.4043    8.2763 C   0  0  0  0  0  0  0  0  0  0  0  0
   -6.4841   -7.5682    7.5960 C   0  0  0  0  0  0  0  0  0  0  0  0
   -5.8168   -8.1128    8.5595 O   0  0  0  0  0  0  0  0  0  0  0  0
   -4.4485   -6.7480    6.3529 C   0  0  0  0  0  0  0  0  0  0  0  0
   -3.1750   -4.6097    6.2737 C   0  0  0  0  0  0  0  0  0  0  0  0
   -4.0377   -5.5085    7.0891 C   0  0  0  0  0  0  0  0  0  0  0  0
   -3.4546   -5.8234    8.3826 N   0  0  0  0  0  0  0  0  0  0  0  0
   -2.7015   -5.1298    8.5679 H   0  0  0  0  0  0  0  0  0  0  0  0
   -4.1878   -5.7697    9.1178 H   0  0  0  0  0  0  0  0  0  0  0  0
  -15.3571   -8.5844    6.9924 C   0  0  0  0  0  0  0  0  0  0  0  0
  -15.9584   -7.7849    5.9368 C   0  0  0  0  0  0  0  0  0  0  0  0
  -16.7877   -6.7453    6.4364 C   0  0  0  0  0  0  0  0  0  0  0  0
  -17.4637   -5.8910    5.6281 C   0  0  0  0  0  0  0  0  0  0  0  0
  -17.3295   -6.0520    4.2727 C   0  0  0  0  0  0  0  0  0  0  0  0
  -18.1629   -4.9998    3.1730 Cl  0  0  0  0  0  0  0  0  0  0  0  0
  -16.5330   -7.0495    3.7692 C   0  0  0  0  0  0  0  0  0  0  0  0
  -15.8224   -7.9471    4.5892 C   0  0  0  0  0  0  0  0  0  0  0  0
  -15.0024   -8.9870    3.9644 C   0  0  0  0  0  0  0  0  0  0  0  0
  -13.7806   -9.2063    4.5491 F   0  0  0  0  0  0  0  0  0  0  0  0
  -14.5705   -8.3851    2.7093 F   0  0  0  0  0  0  0  0  0  0  0  0
  -15.6748  -10.0825    3.5028 F   0  0  0  0  0  0  0  0  0  0  0  0
 19 20  1  0  0  0
 20 21  1  0  0  0
 20 18  1  0  0  0
 18 10  1  0  0  0
 10 11  1  0  0  0
 11 12  2  0  0  0
 11 13  1  0  0  0
 13 14  1  0  0  0
 14 15  2  0  0  0
 15  1  1  0  0  0
  1  2  2  0  0  0
  2  3  1  0  0  0
  3  4  2  0  0  0
  4  5  1  0  0  0
  5 24  1  0  0  0
 24 25  1  0  0  0
 25 26  2  0  0  0
 26 27  1  0  0  0
 27 28  2  0  0  0
 28 29  1  0  0  0
 28 30  1  0  0  0
 30 31  2  0  0  0
 31 32  1  0  0  0
 32 33  1  0  0  0
 32 34  1  0  0  0
 32 35  1  0  0  0
  5  6  1  0  0  0
  6  7  2  0  0  0
  7  8  1  0  0  0
  8  9  2  0  0  0
 14 16  1  0  0  0
 16 17  2  0  0  0
 16 10  1  0  0  0
  9  1  1  0  0  0
  8  4  1  0  0  0
 31 25  1  0  0  0
 21 22  1  0  0  0
 21 23  1  0  0  0
M  END
> <minimizedAffinity>
-7.73867

> <CNNscore>
0.2057781518

> <CNNaffinity>
6.8852796555

> <CNN_VS>
1.4168400764

> <CNNaffinity_variance>
0.0257192403

$$$$
[H]/C(=C1/SC(=O)N(C([H])([H])[C@@]([H])(N([H])[H])C([H])([H])[H])C1=O)c1c([H])c([H])c2c(c([H])nn2C([H])([H])c2c([H])c([H])c(Cl)c([H])c2C(F)(F)F)c1[H]


 35 38  0  0  0  0  0  0  0  0999 V2000
   -7.7527   -8.9229    7.4658 C   0  0  0  0  0  0  0  0  0  0  0  0
   -8.4522   -9.9696    6.9051 C   0  0  0  0  0  0  0  0  0  0  0  0
   -9.8115   -9.9805    6.9440 C   0  0  0  0  0  0  0  0  0  0  0  0
  -10.5894   -8.9896    7.5236 C   0  0  0  0  0  0  0  0  0  0  0  0
  -11.8946   -8.7730    7.6528 N   0  0  0  0  0  0  0  0  0  0  0  0
  -12.0189   -7.5713    8.2993 N   0  0  0  0  0  0  0  0  0  0  0  0
  -10.8183   -7.0625    8.5629 C   0  0  0  0  0  0  0  0  0  0  0  0
   -9.8521   -7.9427    8.0812 C   0  0  0  0  0  0  0  0  0  0  0  0
   -8.4845   -7.9240    8.0462 C   0  0  0  0  0  0  0  0  0  0  0  0
   -3.6887   -6.6695    6.3286 N   0  0  0  0  0  0  0  0  0  0  0  0
   -4.6893   -5.7860    5.8546 C   0  0  0  0  0  0  0  0  0  0  0  0
   -4.6442   -4.9023    4.9933 O   0  0  0  0  0  0  0  0  0  0  0  0
   -6.1554   -6.2232    6.8133 S   0  0  0  0  0  0  0  0  0  0  0  0
   -5.6070   -7.9270    7.1142 C   0  0  0  0  0  0  0  0  0  0  0  0
   -6.3146   -8.9879    7.3760 C   0  0  0  0  0  0  0  0  0  0  0  0
   -4.1426   -7.8020    6.9948 C   0  0  0  0  0  0  0  0  0  0  0  0
   -3.3746   -8.7127    7.4957 O   0  0  0  0  0  0  0  0  0  0  0  0
   -2.2540   -6.3651    6.1403 C   0  0  0  0  0  0  0  0  0  0  0  0
   -1.1983   -4.1537    6.5821 C   0  0  0  0  0  0  0  0  0  0  0  0
   -1.8513   -5.3547    7.1719 C   0  0  0  0  0  0  0  0  0  0  0  0
   -1.0614   -5.9586    8.2319 N   0  0  0  0  0  0  0  0  0  0  0  0
   -0.3533   -5.2598    8.5366 H   0  0  0  0  0  0  0  0  0  0  0  0
   -1.6821   -6.2174    9.0248 H   0  0  0  0  0  0  0  0  0  0  0  0
  -13.0266   -9.5856    7.3017 C   0  0  0  0  0  0  0  0  0  0  0  0
  -14.0694   -9.0072    6.4691 C   0  0  0  0  0  0  0  0  0  0  0  0
  -13.8217   -9.1729    5.0801 C   0  0  0  0  0  0  0  0  0  0  0  0
  -14.6541   -8.6934    4.1223 C   0  0  0  0  0  0  0  0  0  0  0  0
  -15.7787   -8.0225    4.5299 C   0  0  0  0  0  0  0  0  0  0  0  0
  -16.8920   -7.3785    3.3652 Cl  0  0  0  0  0  0  0  0  0  0  0  0
  -16.0370   -7.8519    5.8668 C   0  0  0  0  0  0  0  0  0  0  0  0
  -15.1873   -8.3410    6.8776 C   0  0  0  0  0  0  0  0  0  0  0  0
  -15.5381   -8.1049    8.2797 C   0  0  0  0  0  0  0  0  0  0  0  0
  -15.7110   -9.2321    9.0428 F   0  0  0  0  0  0  0  0  0  0  0  0
  -16.9159   -7.6333    8.2210 F   0  0  0  0  0  0  0  0  0  0  0  0
  -14.9295   -7.0383    8.8773 F   0  0  0  0  0  0  0  0  0  0  0  0
 19 20  1  0  0  0
 20 21  1  0  0  0
 20 18  1  0  0  0
 18 10  1  0  0  0
 10 11  1  0  0  0
 11 12  2  0  0  0
 11 13  1  0  0  0
 13 14  1  0  0  0
 14 15  2  0  0  0
 15  1  1  0  0  0
  1  2  2  0  0  0
  2  3  1  0  0  0
  3  4  2  0  0  0
  4  5  1  0  0  0
  5 24  1  0  0  0
 24 25  1  0  0  0
 25 26  2  0  0  0
 26 27  1  0  0  0
 27 28  2  0  0  0
 28 29  1  0  0  0
 28 30  1  0  0  0
 30 31  2  0  0  0
 31 32  1  0  0  0
 32 33  1  0  0  0
 32 34  1  0  0  0
 32 35  1  0  0  0
  5  6  1  0  0  0
  6  7  2  0  0  0
  7  8  1  0  0  0
  8  9  2  0  0  0
 14 16  1  0  0  0
 16 17  2  0  0  0
 16 10  1  0  0  0
  9  1  1  0  0  0
  8  4  1  0  0  0
 31 25  1  0  0  0
 21 22  1  0  0  0
 21 23  1  0  0  0
M  END
> <minimizedAffinity>
-8.78186

> <CNNscore>
0.2048233896

> <CNNaffinity>
6.7125291824

> <CNN_VS>
1.3748829365

> <CNNaffinity_variance>
0.1397213638

$$$$
[H]C#Cc1c2c(nc3c([H])c([H])c(O[H])c([H])c13)-c1c([H])c([H])c(O[H])c([H])c1OC2([H])[H]


 24 27  0  0  0  0  0  0  0  0999 V2000
  -10.6915  -10.8774    4.3964 O   0  0  0  0  0  0  0  0  0  0  0  0
  -10.6134  -10.0973    5.5387 C   0  0  0  0  0  0  0  0  0  0  0  0
  -11.7773   -9.5961    6.0823 C   0  0  0  0  0  0  0  0  0  0  0  0
  -11.6960   -8.8172    7.2233 C   0  0  0  0  0  0  0  0  0  0  0  0
  -10.4735   -8.5274    7.8349 C   0  0  0  0  0  0  0  0  0  0  0  0
   -9.3167   -9.0210    7.3012 C   0  0  0  0  0  0  0  0  0  0  0  0
   -8.1055   -8.7531    7.8794 O   0  0  0  0  0  0  0  0  0  0  0  0
   -7.9402   -7.9776    9.0284 C   0  0  0  0  0  0  0  0  0  0  0  0
   -9.1977   -7.4423    9.6067 C   0  0  0  0  0  0  0  0  0  0  0  0
  -10.4079   -7.7129    9.0251 C   0  0  0  0  0  0  0  0  0  0  0  0
  -11.5193   -7.2152    9.5718 N   0  0  0  0  0  0  0  0  0  0  0  0
  -11.4686   -6.4531   10.6837 C   0  0  0  0  0  0  0  0  0  0  0  0
  -12.6351   -5.9416   11.2417 C   0  0  0  0  0  0  0  0  0  0  0  0
  -12.6131   -5.1598   12.3776 C   0  0  0  0  0  0  0  0  0  0  0  0
  -11.4020   -4.8596   13.0024 C   0  0  0  0  0  0  0  0  0  0  0  0
  -11.3916   -4.0701   14.1476 O   0  0  0  0  0  0  0  0  0  0  0  0
  -10.2567   -5.3767   12.4328 C   0  0  0  0  0  0  0  0  0  0  0  0
  -10.2649   -6.1609   11.2957 C   0  0  0  0  0  0  0  0  0  0  0  0
   -9.1208   -6.6735   10.7324 C   0  0  0  0  0  0  0  0  0  0  0  0
   -9.4151   -9.8092    6.1440 C   0  0  0  0  0  0  0  0  0  0  0  0
  -11.5483  -11.0942    3.9478 H   0  0  0  0  0  0  0  0  0  0  0  0
  -11.3111   -3.0630   14.0970 H   0  0  0  0  0  0  0  0  0  0  0  0
   -7.8381   -6.3806   11.3578 C   0  0  0  0  0  0  0  0  0  0  0  0
   -6.7843   -6.1212   11.8823 C   0  0  0  0  0  0  0  0  0  0  0  0
  1  2  1  0  0  0
  2  3  2  0  0  0
  3  4  1  0  0  0
  4  5  2  0  0  0
  5  6  1  0  0  0
  6  7  1  0  0  0
  7  8  1  0  0  0
  8  9  1  0  0  0
  9 10  2  0  0  0
 10 11  1  0  0  0
 11 12  2  0  0  0
 12 13  1  0  0  0
 13 14  2  0  0  0
 14 15  1  0  0  0
 15 16  1  0  0  0
 15 17  2  0  0  0
 17 18  1  0  0  0
 18 19  2  0  0  0
 19 23  1  0  0  0
 23 24  3  0  0  0
  6 20  2  0  0  0
 20  2  1  0  0  0
  5 10  1  0  0  0
 18 12  1  0  0  0
 19  9  1  0  0  0
  1 21  1  0  0  0
 16 22  1  0  0  0
M  END
> <minimizedAffinity>
22.89856

> <CNNscore>
0.4294529557

> <CNNaffinity>
5.4421730042

> <CNN_VS>
2.3371572495

> <CNNaffinity_variance>
1.4403675795

$$$$
[H]C#Cc1c2c(nc3c([H])c([H])c(O[H])c([H])c13)-c1c([H])c([H])c(O[H])c([H])c1OC2([H])[H]


 24 27  0  0  0  0  0  0  0  0999 V2000
  -17.9395   -5.9171    1.4001 O   0  0  0  0  0  0  0  0  0  0  0  0
  -17.2456   -6.2785    2.5435 C   0  0  0  0  0  0  0  0  0  0  0  0
  -17.0251   -7.6167    2.7922 C   0  0  0  0  0  0  0  0  0  0  0  0
  -16.3318   -7.9746    3.9352 C   0  0  0  0  0  0  0  0  0  0  0  0
  -15.8525   -7.0217    4.8377 C   0  0  0  0  0  0  0  0  0  0  0  0
  -16.0676   -5.6941    4.5970 C   0  0  0  0  0  0  0  0  0  0  0  0
  -15.6094   -4.7393    5.4639 O   0  0  0  0  0  0  0  0  0  0  0  0
  -14.9036   -5.0187    6.6355 C   0  0  0  0  0  0  0  0  0  0  0  0
  -14.6708   -6.4611    6.8954 C   0  0  0  0  0  0  0  0  0  0  0  0
  -15.1310   -7.4135    6.0252 C   0  0  0  0  0  0  0  0  0  0  0  0
  -14.9038   -8.7020    6.2900 N   0  0  0  0  0  0  0  0  0  0  0  0
  -14.2308   -9.0784    7.3967 C   0  0  0  0  0  0  0  0  0  0  0  0
  -14.0019  -10.4247    7.6590 C   0  0  0  0  0  0  0  0  0  0  0  0
  -13.3170  -10.8382    8.7824 C   0  0  0  0  0  0  0  0  0  0  0  0
  -12.8308   -9.9014    9.6951 C   0  0  0  0  0  0  0  0  0  0  0  0
  -12.1414  -10.3296   10.8249 O   0  0  0  0  0  0  0  0  0  0  0  0
  -13.0686   -8.5713    9.4163 C   0  0  0  0  0  0  0  0  0  0  0  0
  -13.7528   -8.1438    8.2951 C   0  0  0  0  0  0  0  0  0  0  0  0
  -13.9870   -6.8173    8.0222 C   0  0  0  0  0  0  0  0  0  0  0  0
  -16.7723   -5.3466    3.4339 C   0  0  0  0  0  0  0  0  0  0  0  0
  -18.2874   -6.5774    0.7479 H   0  0  0  0  0  0  0  0  0  0  0  0
  -12.6197  -10.5338   11.6926 H   0  0  0  0  0  0  0  0  0  0  0  0
  -13.4939   -5.8113    8.9532 C   0  0  0  0  0  0  0  0  0  0  0  0
  -13.1041   -4.9771    9.7311 C   0  0  0  0  0  0  0  0  0  0  0  0
  1  2  1  0  0  0
  2  3  2  0  0  0
  3  4  1  0  0  0
  4  5  2  0  0  0
  5  6  1  0  0  0
  6  7  1  0  0  0
  7  8  1  0  0  0
  8  9  1  0  0  0
  9 10  2  0  0  0
 10 11  1  0  0  0
 11 12  2  0  0  0
 12 13  1  0  0  0
 13 14  2  0  0  0
 14 15  1  0  0  0
 15 16  1  0  0  0
 15 17  2  0  0  0
 17 18  1  0  0  0
 18 19  2  0  0  0
 19 23  1  0  0  0
 23 24  3  0  0  0
  6 20  2  0  0  0
 20  2  1  0  0  0
  5 10  1  0  0  0
 18 12  1  0  0  0
 19  9  1  0  0  0
  1 21  1  0  0  0
 16 22  1  0  0  0
M  END
> <minimizedAffinity>
4.41544

> <CNNscore>
0.4133607149

> <CNNaffinity>
6.0278129578

> <CNN_VS>
2.4916610718

> <CNNaffinity_variance>
0.9992212057

$$$$
[H]C#Cc1c2c(nc3c([H])c([H])c(O[H])c([H])c13)-c1c([H])c([H])c(O[H])c([H])c1OC2([H])[H]


 24 27  0  0  0  0  0  0  0  0999 V2000
   -9.8258   -6.0549    4.7928 O   0  0  0  0  0  0  0  0  0  0  0  0
   -8.7258   -6.1355    5.6313 C   0  0  0  0  0  0  0  0  0  0  0  0
   -8.7513   -5.4527    6.8289 C   0  0  0  0  0  0  0  0  0  0  0  0
   -7.6509   -5.5351    7.6642 C   0  0  0  0  0  0  0  0  0  0  0  0
   -6.5224   -6.2872    7.3279 C   0  0  0  0  0  0  0  0  0  0  0  0
   -6.4909   -6.9661    6.1426 C   0  0  0  0  0  0  0  0  0  0  0  0
   -5.3986   -7.7105    5.7878 O   0  0  0  0  0  0  0  0  0  0  0  0
   -4.2524   -7.8435    6.5735 C   0  0  0  0  0  0  0  0  0  0  0  0
   -4.2882   -7.1055    7.8605 C   0  0  0  0  0  0  0  0  0  0  0  0
   -5.3834   -6.3618    8.2119 C   0  0  0  0  0  0  0  0  0  0  0  0
   -5.3820   -5.7105    9.3771 N   0  0  0  0  0  0  0  0  0  0  0  0
   -4.3228   -5.7738   10.2101 C   0  0  0  0  0  0  0  0  0  0  0  0
   -4.3361   -5.0898   11.4207 C   0  0  0  0  0  0  0  0  0  0  0  0
   -3.2676   -5.1365   12.2915 C   0  0  0  0  0  0  0  0  0  0  0  0
   -2.1319   -5.8821   11.9731 C   0  0  0  0  0  0  0  0  0  0  0  0
   -1.0600   -5.9222   12.8587 O   0  0  0  0  0  0  0  0  0  0  0  0
   -2.1391   -6.5530   10.7675 C   0  0  0  0  0  0  0  0  0  0  0  0
   -3.2023   -6.5146    9.8866 C   0  0  0  0  0  0  0  0  0  0  0  0
   -3.2042   -7.1850    8.6867 C   0  0  0  0  0  0  0  0  0  0  0  0
   -7.6141   -6.8729    5.3061 C   0  0  0  0  0  0  0  0  0  0  0  0
  -10.6353   -5.5271    5.0130 H   0  0  0  0  0  0  0  0  0  0  0  0
   -0.3069   -5.2484   12.8110 H   0  0  0  0  0  0  0  0  0  0  0  0
   -2.0352   -7.9735    8.3212 C   0  0  0  0  0  0  0  0  0  0  0  0
   -1.0600   -8.6101    8.0102 C   0  0  0  0  0  0  0  0  0  0  0  0
  1  2  1  0  0  0
  2  3  2  0  0  0
  3  4  1  0  0  0
  4  5  2  0  0  0
  5  6  1  0  0  0
  6  7  1  0  0  0
  7  8  1  0  0  0
  8  9  1  0  0  0
  9 10  2  0  0  0
 10 11  1  0  0  0
 11 12  2  0  0  0
 12 13  1  0  0  0
 13 14  2  0  0  0
 14 15  1  0  0  0
 15 16  1  0  0  0
 15 17  2  0  0  0
 17 18  1  0  0  0
 18 19  2  0  0  0
 19 23  1  0  0  0
 23 24  3  0  0  0
  6 20  2  0  0  0
 20  2  1  0  0  0
  5 10  1  0  0  0
 18 12  1  0  0  0
 19  9  1  0  0  0
  1 21  1  0  0  0
 16 22  1  0  0  0
M  END
> <minimizedAffinity>
7.56104

> <CNNscore>
0.4079984426

> <CNNaffinity>
4.9419217110

> <CNN_VS>
2.0162963867

> <CNNaffinity_variance>
1.5429054499

$$$$
[H]C#Cc1c2c(nc3c([H])c([H])c(O[H])c([H])c13)-c1c([H])c([H])c(O[H])c([H])c1OC2([H])[H]


 24 27  0  0  0  0  0  0  0  0999 V2000
   -1.0679   -6.2840    4.4365 O   0  0  0  0  0  0  0  0  0  0  0  0
   -2.3302   -6.6291    4.8914 C   0  0  0  0  0  0  0  0  0  0  0  0
   -2.8959   -7.8075    4.4526 C   0  0  0  0  0  0  0  0  0  0  0  0
   -4.1569   -8.1494    4.9087 C   0  0  0  0  0  0  0  0  0  0  0  0
   -4.8672   -7.3371    5.7964 C   0  0  0  0  0  0  0  0  0  0  0  0
   -4.3123   -6.1681    6.2350 C   0  0  0  0  0  0  0  0  0  0  0  0
   -4.9854   -5.3533    7.1045 O   0  0  0  0  0  0  0  0  0  0  0  0
   -6.2578   -5.6272    7.6093 C   0  0  0  0  0  0  0  0  0  0  0  0
   -6.8591   -6.8972    7.1319 C   0  0  0  0  0  0  0  0  0  0  0  0
   -6.1820   -7.7099    6.2618 C   0  0  0  0  0  0  0  0  0  0  0  0
   -6.7527   -8.8452    5.8527 N   0  0  0  0  0  0  0  0  0  0  0  0
   -7.9806   -9.2025    6.2816 C   0  0  0  0  0  0  0  0  0  0  0  0
   -8.5621  -10.3883    5.8465 C   0  0  0  0  0  0  0  0  0  0  0  0
   -9.8159  -10.7784    6.2685 C   0  0  0  0  0  0  0  0  0  0  0  0
  -10.5404   -9.9805    7.1547 C   0  0  0  0  0  0  0  0  0  0  0  0
  -11.8041  -10.3837    7.5737 O   0  0  0  0  0  0  0  0  0  0  0  0
   -9.9456   -8.8084    7.5740 C   0  0  0  0  0  0  0  0  0  0  0  0
   -8.6910   -8.4061    7.1593 C   0  0  0  0  0  0  0  0  0  0  0  0
   -8.1031   -7.2372    7.5802 C   0  0  0  0  0  0  0  0  0  0  0  0
   -3.0329   -5.8348    5.7637 C   0  0  0  0  0  0  0  0  0  0  0  0
   -0.5481   -6.8462    3.8071 H   0  0  0  0  0  0  0  0  0  0  0  0
  -12.6398  -10.1200    7.0684 H   0  0  0  0  0  0  0  0  0  0  0  0
   -8.8305   -6.3791    8.5057 C   0  0  0  0  0  0  0  0  0  0  0  0
   -9.4163   -5.6577    9.2734 C   0  0  0  0  0  0  0  0  0  0  0  0
  1  2  1  0  0  0
  2  3  2  0  0  0
  3  4  1  0  0  0
  4  5  2  0  0  0
  5  6  1  0  0  0
  6  7  1  0  0  0
  7  8  1  0  0  0
  8  9  1  0  0  0
  9 10  2  0  0  0
 10 11  1  0  0  0
 11 12  2  0  0  0
 12 13  1  0  0  0
 13 14  2  0  0  0
 14 15  1  0  0  0
 15 16  1  0  0  0
 15 17  2  0  0  0
 17 18  1  0  0  0
 18 19  2  0  0  0
 19 23  1  0  0  0
 23 24  3  0  0  0
  6 20  2  0  0  0
 20  2  1  0  0  0
  5 10  1  0  0  0
 18 12  1  0  0  0
 19  9  1  0  0  0
  1 21  1  0  0  0
 16 22  1  0  0  0
M  END
> <minimizedAffinity>
4.33649

> <CNNscore>
0.3716284037

> <CNNaffinity>
5.1424708366

> <CNN_VS>
1.9110882282

> <CNNaffinity_variance>
1.0630369186

$$$$
[H]C#Cc1c2c(nc3c([H])c([H])c(O[H])c([H])c13)-c1c([H])c([H])c(O[H])c([H])c1OC2([H])[H]


 24 27  0  0  0  0  0  0  0  0999 V2000
   -8.9651   -7.0602    5.6349 O   0  0  0  0  0  0  0  0  0  0  0  0
  -10.2621   -7.1967    6.1025 C   0  0  0  0  0  0  0  0  0  0  0  0
  -11.2700   -6.4876    5.4839 C   0  0  0  0  0  0  0  0  0  0  0  0
  -12.5644   -6.6260    5.9533 C   0  0  0  0  0  0  0  0  0  0  0  0
  -12.8748   -7.4600    7.0305 C   0  0  0  0  0  0  0  0  0  0  0  0
  -11.8807   -8.1654    7.6479 C   0  0  0  0  0  0  0  0  0  0  0  0
  -12.1560   -8.9897    8.7051 O   0  0  0  0  0  0  0  0  0  0  0  0
  -13.4325   -9.1828    9.2363 C   0  0  0  0  0  0  0  0  0  0  0  0
  -14.5110   -8.4160    8.5647 C   0  0  0  0  0  0  0  0  0  0  0  0
  -14.2312   -7.5922    7.5068 C   0  0  0  0  0  0  0  0  0  0  0  0
  -15.2257   -6.9171    6.9261 N   0  0  0  0  0  0  0  0  0  0  0  0
  -16.4963   -7.0336    7.3635 C   0  0  0  0  0  0  0  0  0  0  0  0
  -17.5217   -6.3239    6.7483 C   0  0  0  0  0  0  0  0  0  0  0  0
  -18.8296   -6.4237    7.1744 C   0  0  0  0  0  0  0  0  0  0  0  0
  -19.1590   -7.2514    8.2484 C   0  0  0  0  0  0  0  0  0  0  0  0
  -20.4814   -7.3445    8.6698 O   0  0  0  0  0  0  0  0  0  0  0  0
  -18.1271   -7.9465    8.8447 C   0  0  0  0  0  0  0  0  0  0  0  0
  -16.8134   -7.8556    8.4278 C   0  0  0  0  0  0  0  0  0  0  0  0
  -15.7892   -8.5505    9.0255 C   0  0  0  0  0  0  0  0  0  0  0  0
  -10.5730   -8.0147    7.1606 C   0  0  0  0  0  0  0  0  0  0  0  0
   -8.7246   -6.4741    4.8726 H   0  0  0  0  0  0  0  0  0  0  0  0
  -20.8585   -6.7245    9.3747 H   0  0  0  0  0  0  0  0  0  0  0  0
  -16.0960   -9.4242   10.1500 C   0  0  0  0  0  0  0  0  0  0  0  0
  -16.3676  -10.1386   11.0821 C   0  0  0  0  0  0  0  0  0  0  0  0
  1  2  1  0  0  0
  2  3  2  0  0  0
  3  4  1  0  0  0
  4  5  2  0  0  0
  5  6  1  0  0  0
  6  7  1  0  0  0
  7  8  1  0  0  0
  8  9  1  0  0  0
  9 10  2  0  0  0
 10 11  1  0  0  0
 11 12  2  0  0  0
 12 13  1  0  0  0
 13 14  2  0  0  0
 14 15  1  0  0  0
 15 16  1  0  0  0
 15 17  2  0  0  0
 17 18  1  0  0  0
 18 19  2  0  0  0
 19 23  1  0  0  0
 23 24  3  0  0  0
  6 20  2  0  0  0
 20  2  1  0  0  0
  5 10  1  0  0  0
 18 12  1  0  0  0
 19  9  1  0  0  0
  1 21  1  0  0  0
 16 22  1  0  0  0
M  END
> <minimizedAffinity>
38.52581

> <CNNscore>
0.3504955769

> <CNNaffinity>
5.5815916061

> <CNN_VS>
1.9563231468

> <CNNaffinity_variance>
1.7412910461

$$$$
[H]C#Cc1c2c(nc3c([H])c([H])c(O[H])c([H])c13)-c1c([H])c([H])c(O[H])c([H])c1OC2([H])[H]


 24 27  0  0  0  0  0  0  0  0999 V2000
   -1.1537   -2.2779   12.0855 O   0  0  0  0  0  0  0  0  0  0  0  0
   -1.8334   -3.1887   11.2930 C   0  0  0  0  0  0  0  0  0  0  0  0
   -3.2061   -3.2666   11.3975 C   0  0  0  0  0  0  0  0  0  0  0  0
   -3.8821   -4.1775   10.6047 C   0  0  0  0  0  0  0  0  0  0  0  0
   -3.2145   -5.0146    9.7071 C   0  0  0  0  0  0  0  0  0  0  0  0
   -1.8544   -4.9424    9.5988 C   0  0  0  0  0  0  0  0  0  0  0  0
   -1.1747   -5.7502    8.7278 O   0  0  0  0  0  0  0  0  0  0  0  0
   -1.7827   -6.6922    7.8960 C   0  0  0  0  0  0  0  0  0  0  0  0
   -3.2599   -6.7694    8.0149 C   0  0  0  0  0  0  0  0  0  0  0  0
   -3.9363   -5.9590    8.8877 C   0  0  0  0  0  0  0  0  0  0  0  0
   -5.2652   -6.0549    8.9691 N   0  0  0  0  0  0  0  0  0  0  0  0
   -5.9489   -6.9340    8.2079 C   0  0  0  0  0  0  0  0  0  0  0  0
   -7.3333   -7.0223    8.3039 C   0  0  0  0  0  0  0  0  0  0  0  0
   -8.0578   -7.9117    7.5382 C   0  0  0  0  0  0  0  0  0  0  0  0
   -7.4088   -8.7558    6.6363 C   0  0  0  0  0  0  0  0  0  0  0  0
   -8.1494   -9.6489    5.8690 O   0  0  0  0  0  0  0  0  0  0  0  0
   -6.0353   -8.6522    6.5565 C   0  0  0  0  0  0  0  0  0  0  0  0
   -5.2980   -7.7660    7.3174 C   0  0  0  0  0  0  0  0  0  0  0  0
   -3.9296   -7.6670    7.2340 C   0  0  0  0  0  0  0  0  0  0  0  0
   -1.1827   -4.0139   10.4093 C   0  0  0  0  0  0  0  0  0  0  0  0
   -1.6087   -1.6757   12.7279 H   0  0  0  0  0  0  0  0  0  0  0  0
   -8.3511  -10.5860    6.1927 H   0  0  0  0  0  0  0  0  0  0  0  0
   -3.2185   -8.5329    6.3030 C   0  0  0  0  0  0  0  0  0  0  0  0
   -2.6153   -9.2508    5.5456 C   0  0  0  0  0  0  0  0  0  0  0  0
  1  2  1  0  0  0
  2  3  2  0  0  0
  3  4  1  0  0  0
  4  5  2  0  0  0
  5  6  1  0  0  0
  6  7  1  0  0  0
  7  8  1  0  0  0
  8  9  1  0  0  0
  9 10  2  0  0  0
 10 11  1  0  0  0
 11 12  2  0  0  0
 12 13  1  0  0  0
 13 14  2  0  0  0
 14 15  1  0  0  0
 15 16  1  0  0  0
 15 17  2  0  0  0
 17 18  1  0  0  0
 18 19  2  0  0  0
 19 23  1  0  0  0
 23 24  3  0  0  0
  6 20  2  0  0  0
 20  2  1  0  0  0
  5 10  1  0  0  0
 18 12  1  0  0  0
 19  9  1  0  0  0
  1 21  1  0  0  0
 16 22  1  0  0  0
M  END
> <minimizedAffinity>
-3.82650

> <CNNscore>
0.3235906363

> <CNNaffinity>
4.5218162537

> <CNN_VS>
1.4632173777

> <CNNaffinity_variance>
0.1663431227

$$$$
[H]C#Cc1c2c(nc3c([H])c([H])c(O[H])c([H])c13)-c1c([H])c([H])c(O[H])c([H])c1OC2([H])[H]


 24 27  0  0  0  0  0  0  0  0999 V2000
   -4.8056   -8.3364    6.3872 O   0  0  0  0  0  0  0  0  0  0  0  0
   -6.1416   -8.2531    6.7447 C   0  0  0  0  0  0  0  0  0  0  0  0
   -7.0121   -9.2229    6.2942 C   0  0  0  0  0  0  0  0  0  0  0  0
   -8.3459   -9.1368    6.6530 C   0  0  0  0  0  0  0  0  0  0  0  0
   -8.8303   -8.0999    7.4545 C   0  0  0  0  0  0  0  0  0  0  0  0
   -7.9729   -7.1359    7.9042 C   0  0  0  0  0  0  0  0  0  0  0  0
   -8.4199   -6.1089    8.6907 O   0  0  0  0  0  0  0  0  0  0  0  0
   -9.7469   -5.9522    9.0951 C   0  0  0  0  0  0  0  0  0  0  0  0
  -10.6768   -7.0001    8.6058 C   0  0  0  0  0  0  0  0  0  0  0  0
  -10.2253   -8.0263    7.8190 C   0  0  0  0  0  0  0  0  0  0  0  0
  -11.0893   -8.9519    7.3964 N   0  0  0  0  0  0  0  0  0  0  0  0
  -12.3946   -8.8921    7.7313 C   0  0  0  0  0  0  0  0  0  0  0  0
  -13.2827   -9.8638    7.2834 C   0  0  0  0  0  0  0  0  0  0  0  0
  -14.6221   -9.8277    7.6101 C   0  0  0  0  0  0  0  0  0  0  0  0
  -15.1244   -8.8001    8.4095 C   0  0  0  0  0  0  0  0  0  0  0  0
  -16.4771   -8.7736    8.7328 O   0  0  0  0  0  0  0  0  0  0  0  0
  -14.2268   -7.8464    8.8432 C   0  0  0  0  0  0  0  0  0  0  0  0
  -12.8833   -7.8709    8.5233 C   0  0  0  0  0  0  0  0  0  0  0  0
  -11.9933   -6.9180    8.9581 C   0  0  0  0  0  0  0  0  0  0  0  0
   -6.6232   -7.2365    7.5321 C   0  0  0  0  0  0  0  0  0  0  0  0
   -4.4426   -9.0635    5.8198 H   0  0  0  0  0  0  0  0  0  0  0  0
  -17.1521   -8.2935    8.1521 H   0  0  0  0  0  0  0  0  0  0  0  0
  -12.4824   -5.8302    9.7946 C   0  0  0  0  0  0  0  0  0  0  0  0
  -12.8952   -4.9434   10.4989 C   0  0  0  0  0  0  0  0  0  0  0  0
  1  2  1  0  0  0
  2  3  2  0  0  0
  3  4  1  0  0  0
  4  5  2  0  0  0
  5  6  1  0  0  0
  6  7  1  0  0  0
  7  8  1  0  0  0
  8  9  1  0  0  0
  9 10  2  0  0  0
 10 11  1  0  0  0
 11 12  2  0  0  0
 12 13  1  0  0  0
 13 14  2  0  0  0
 14 15  1  0  0  0
 15 16  1  0  0  0
 15 17  2  0  0  0
 17 18  1  0  0  0
 18 19  2  0  0  0
 19 23  1  0  0  0
 23 24  3  0  0  0
  6 20  2  0  0  0
 20  2  1  0  0  0
  5 10  1  0  0  0
 18 12  1  0  0  0
 19  9  1  0  0  0
  1 21  1  0  0  0
 16 22  1  0  0  0
M  END
> <minimizedAffinity>
-7.16711

> <CNNscore>
0.3217236996

> <CNNaffinity>
5.9713068008

> <CNN_VS>
1.9211108685

> <CNNaffinity_variance>
0.0883197859

$$$$
[H]C#Cc1c2c(nc3c([H])c([H])c(O[H])c([H])c13)-c1c([H])c([H])c(O[H])c([H])c1OC2([H])[H]


 24 27  0  0  0  0  0  0  0  0999 V2000
  -14.2994   -4.9494   11.3153 O   0  0  0  0  0  0  0  0  0  0  0  0
  -13.2488   -5.5288   10.6224 C   0  0  0  0  0  0  0  0  0  0  0  0
  -12.0531   -4.8475   10.5362 C   0  0  0  0  0  0  0  0  0  0  0  0
  -11.0057   -5.4288    9.8434 C   0  0  0  0  0  0  0  0  0  0  0  0
  -11.1271   -6.6799    9.2331 C   0  0  0  0  0  0  0  0  0  0  0  0
  -12.3092   -7.3602    9.3149 C   0  0  0  0  0  0  0  0  0  0  0  0
  -12.4562   -8.5872    8.7267 O   0  0  0  0  0  0  0  0  0  0  0  0
  -11.4496   -9.2390    8.0120 C   0  0  0  0  0  0  0  0  0  0  0  0
  -10.1665   -8.4988    7.9242 C   0  0  0  0  0  0  0  0  0  0  0  0
  -10.0234   -7.2711    8.5143 C   0  0  0  0  0  0  0  0  0  0  0  0
   -8.8552   -6.6329    8.4155 N   0  0  0  0  0  0  0  0  0  0  0  0
   -7.8179   -7.1767    7.7463 C   0  0  0  0  0  0  0  0  0  0  0  0
   -6.6069   -6.4997    7.6519 C   0  0  0  0  0  0  0  0  0  0  0  0
   -5.5300   -7.0315    6.9741 C   0  0  0  0  0  0  0  0  0  0  0  0
   -5.6321   -8.2795    6.3583 C   0  0  0  0  0  0  0  0  0  0  0  0
   -4.5396   -8.8063    5.6774 O   0  0  0  0  0  0  0  0  0  0  0  0
   -6.8419   -8.9343    6.4637 C   0  0  0  0  0  0  0  0  0  0  0  0
   -7.9280   -8.4131    7.1394 C   0  0  0  0  0  0  0  0  0  0  0  0
   -9.1311   -9.0698    7.2413 C   0  0  0  0  0  0  0  0  0  0  0  0
  -13.3623   -6.7578   10.0207 C   0  0  0  0  0  0  0  0  0  0  0  0
  -14.2333   -4.0635   11.7548 H   0  0  0  0  0  0  0  0  0  0  0  0
   -4.3916   -8.6276    4.6927 H   0  0  0  0  0  0  0  0  0  0  0  0
   -9.2742  -10.3750    6.6106 C   0  0  0  0  0  0  0  0  0  0  0  0
   -9.4111  -11.4561    6.0953 C   0  0  0  0  0  0  0  0  0  0  0  0
  1  2  1  0  0  0
  2  3  2  0  0  0
  3  4  1  0  0  0
  4  5  2  0  0  0
  5  6  1  0  0  0
  6  7  1  0  0  0
  7  8  1  0  0  0
  8  9  1  0  0  0
  9 10  2  0  0  0
 10 11  1  0  0  0
 11 12  2  0  0  0
 12 13  1  0  0  0
 13 14  2  0  0  0
 14 15  1  0  0  0
 15 16  1  0  0  0
 15 17  2  0  0  0
 17 18  1  0  0  0
 18 19  2  0  0  0
 19 23  1  0  0  0
 23 24  3  0  0  0
  6 20  2  0  0  0
 20  2  1  0  0  0
  5 10  1  0  0  0
 18 12  1  0  0  0
 19  9  1  0  0  0
  1 21  1  0  0  0
 16 22  1  0  0  0
M  END
> <minimizedAffinity>
-4.62323

> <CNNscore>
0.3113370240

> <CNNaffinity>
5.4981241226

> <CNN_VS>
1.7117695808

> <CNNaffinity_variance>
0.1601586938

$$$$
[H]C#Cc1c2c(nc3c([H])c([H])c(O[H])c([H])c13)-c1c([H])c([H])c(O[H])c([H])c1OC2([H])[H]


 24 27  0  0  0  0  0  0  0  0999 V2000
   -6.2384   -6.4250    7.7204 O   0  0  0  0  0  0  0  0  0  0  0  0
   -7.6056   -6.6475    7.6939 C   0  0  0  0  0  0  0  0  0  0  0  0
   -8.2315   -6.7959    6.4744 C   0  0  0  0  0  0  0  0  0  0  0  0
   -9.5973   -7.0180    6.4512 C   0  0  0  0  0  0  0  0  0  0  0  0
  -10.3535   -7.0954    7.6236 C   0  0  0  0  0  0  0  0  0  0  0  0
   -9.7393   -6.9492    8.8353 C   0  0  0  0  0  0  0  0  0  0  0  0
  -10.4553   -7.0205    9.9995 O   0  0  0  0  0  0  0  0  0  0  0  0
  -11.8325   -7.2412   10.0600 C   0  0  0  0  0  0  0  0  0  0  0  0
  -12.4980   -7.3997    8.7431 C   0  0  0  0  0  0  0  0  0  0  0  0
  -11.7777   -7.3278    7.5803 C   0  0  0  0  0  0  0  0  0  0  0  0
  -12.4085   -7.4749    6.4131 N   0  0  0  0  0  0  0  0  0  0  0  0
  -13.7388   -7.6924    6.3619 C   0  0  0  0  0  0  0  0  0  0  0  0
  -14.3819   -7.8436    5.1383 C   0  0  0  0  0  0  0  0  0  0  0  0
  -15.7404   -8.0668    5.0561 C   0  0  0  0  0  0  0  0  0  0  0  0
  -16.5122   -8.1472    6.2158 C   0  0  0  0  0  0  0  0  0  0  0  0
  -17.8816   -8.3727    6.1211 O   0  0  0  0  0  0  0  0  0  0  0  0
  -15.8549   -7.9944    7.4192 C   0  0  0  0  0  0  0  0  0  0  0  0
  -14.4953   -7.7705    7.5155 C   0  0  0  0  0  0  0  0  0  0  0  0
  -13.8454   -7.6190    8.7170 C   0  0  0  0  0  0  0  0  0  0  0  0
   -8.3538   -6.7245    8.8427 C   0  0  0  0  0  0  0  0  0  0  0  0
   -5.6846   -6.3668    6.9005 H   0  0  0  0  0  0  0  0  0  0  0  0
  -18.5415   -7.6090    6.0524 H   0  0  0  0  0  0  0  0  0  0  0  0
  -14.6194   -7.6969    9.9486 C   0  0  0  0  0  0  0  0  0  0  0  0
  -15.2438   -7.7564   10.9780 C   0  0  0  0  0  0  0  0  0  0  0  0
  1  2  1  0  0  0
  2  3  2  0  0  0
  3  4  1  0  0  0
  4  5  2  0  0  0
  5  6  1  0  0  0
  6  7  1  0  0  0
  7  8  1  0  0  0
  8  9  1  0  0  0
  9 10  2  0  0  0
 10 11  1  0  0  0
 11 12  2  0  0  0
 12 13  1  0  0  0
 13 14  2  0  0  0
 14 15  1  0  0  0
 15 16  1  0  0  0
 15 17  2  0  0  0
 17 18  1  0  0  0
 18 19  2  0  0  0
 19 23  1  0  0  0
 23 24  3  0  0  0
  6 20  2  0  0  0
 20  2  1  0  0  0
  5 10  1  0  0  0
 18 12  1  0  0  0
 19  9  1  0  0  0
  1 21  1  0  0  0
 16 22  1  0  0  0
M  END
> <minimizedAffinity>
-2.21702

> <CNNscore>
0.3108236194

> <CNNaffinity>
5.8128271103

> <CNN_VS>
1.8067640066

> <CNNaffinity_variance>
0.4553521276

$$$$
[H]C#Cc1c([H])c(-c2c([H])c([H])c(O[H])c([H])c2[H])nc2c([H])c([H])c(O[H])c([H])c12


 22 24  0  0  0  0  0  0  0  0999 V2000
   -9.3870   -7.8800    7.9382 C   0  0  0  0  0  0  0  0  0  0  0  0
   -9.9964   -6.9629    8.7503 C   0  0  0  0  0  0  0  0  0  0  0  0
  -11.3838   -6.9974    8.9767 C   0  0  0  0  0  0  0  0  0  0  0  0
  -12.0786   -8.0005    8.3363 C   0  0  0  0  0  0  0  0  0  0  0  0
  -13.4491   -8.0944    8.5140 C   0  0  0  0  0  0  0  0  0  0  0  0
  -14.2133   -9.0697    7.9075 C   0  0  0  0  0  0  0  0  0  0  0  0
  -15.5852   -9.1719    8.0792 O   0  0  0  0  0  0  0  0  0  0  0  0
  -13.5858   -9.9960    7.0851 C   0  0  0  0  0  0  0  0  0  0  0  0
  -12.2236   -9.9061    6.9057 C   0  0  0  0  0  0  0  0  0  0  0  0
  -11.4573   -8.9331    7.5101 C   0  0  0  0  0  0  0  0  0  0  0  0
  -10.1382   -8.8203    7.3560 N   0  0  0  0  0  0  0  0  0  0  0  0
  -15.9269   -9.7506    8.8492 H   0  0  0  0  0  0  0  0  0  0  0  0
   -3.8355   -7.9079    6.8063 O   0  0  0  0  0  0  0  0  0  0  0  0
   -5.1984   -7.8929    7.0951 C   0  0  0  0  0  0  0  0  0  0  0  0
   -6.1233   -8.5941    6.3508 C   0  0  0  0  0  0  0  0  0  0  0  0
   -7.4520   -8.5819    6.6290 C   0  0  0  0  0  0  0  0  0  0  0  0
   -7.9543   -7.8411    7.7069 C   0  0  0  0  0  0  0  0  0  0  0  0
   -7.0677   -7.1373    8.4620 C   0  0  0  0  0  0  0  0  0  0  0  0
   -5.7060   -7.1691    8.1514 C   0  0  0  0  0  0  0  0  0  0  0  0
   -3.5426   -8.4588    6.0208 H   0  0  0  0  0  0  0  0  0  0  0  0
  -12.0138   -6.0300    9.8309 C   0  0  0  0  0  0  0  0  0  0  0  0
  -12.5568   -5.2174   10.5487 C   0  0  0  0  0  0  0  0  0  0  0  0
 13 14  1  0  0  0
 14 15  2  0  0  0
 15 16  1  0  0  0
 16 17  2  0  0  0
 17 18  1  0  0  0
 18 19  2  0  0  0
 17  1  1  0  0  0
  1  2  2  0  0  0
  2  3  1  0  0  0
  3 21  1  0  0  0
 21 22  3  0  0  0
  3  4  2  0  0  0
  4  5  1  0  0  0
  5  6  2  0  0  0
  6  7  1  0  0  0
  6  8  1  0  0  0
  8  9  2  0  0  0
  9 10  1  0  0  0
 10 11  2  0  0  0
 19 14  1  0  0  0
 11  1  1  0  0  0
 10  4  1  0  0  0
 13 20  1  0  0  0
  7 12  1  0  0  0
M  END
> <minimizedAffinity>
-9.38063

> <CNNscore>
0.7622672319

> <CNNaffinity>
6.0908417702

> <CNN_VS>
4.6428489685

> <CNNaffinity_variance>
0.0882122591

$$$$
[H]C#Cc1c([H])c(-c2c([H])c([H])c(O[H])c([H])c2[H])nc2c([H])c([H])c(O[H])c([H])c12


 22 24  0  0  0  0  0  0  0  0999 V2000
  -10.1067   -7.7520    7.9318 C   0  0  0  0  0  0  0  0  0  0  0  0
  -10.5727   -6.7917    8.7876 C   0  0  0  0  0  0  0  0  0  0  0  0
  -11.9337   -6.7225    9.1348 C   0  0  0  0  0  0  0  0  0  0  0  0
  -12.7545   -7.6714    8.5648 C   0  0  0  0  0  0  0  0  0  0  0  0
  -14.1072   -7.6629    8.8624 C   0  0  0  0  0  0  0  0  0  0  0  0
  -14.9919   -8.5788    8.3320 C   0  0  0  0  0  0  0  0  0  0  0  0
  -16.3472   -8.5785    8.6239 O   0  0  0  0  0  0  0  0  0  0  0  0
  -14.5096   -9.5497    7.4644 C   0  0  0  0  0  0  0  0  0  0  0  0
  -13.1655   -9.5616    7.1658 C   0  0  0  0  0  0  0  0  0  0  0  0
  -12.2790   -8.6481    7.6940 C   0  0  0  0  0  0  0  0  0  0  0  0
  -10.9738   -8.6340    7.4242 N   0  0  0  0  0  0  0  0  0  0  0  0
  -16.6621   -9.1297    9.4249 H   0  0  0  0  0  0  0  0  0  0  0  0
   -4.6346   -7.7347    6.4632 O   0  0  0  0  0  0  0  0  0  0  0  0
   -5.9792   -7.7519    6.8278 C   0  0  0  0  0  0  0  0  0  0  0  0
   -6.7921   -6.6433    6.7212 C   0  0  0  0  0  0  0  0  0  0  0  0
   -8.1026   -6.6562    7.0754 C   0  0  0  0  0  0  0  0  0  0  0  0
   -8.7010   -7.8201    7.5757 C   0  0  0  0  0  0  0  0  0  0  0  0
   -7.9261   -8.9323    7.6937 C   0  0  0  0  0  0  0  0  0  0  0  0
   -6.5803   -8.8888    7.3211 C   0  0  0  0  0  0  0  0  0  0  0  0
   -4.2691   -6.8689    6.1122 H   0  0  0  0  0  0  0  0  0  0  0  0
  -12.4127   -5.7105   10.0341 C   0  0  0  0  0  0  0  0  0  0  0  0
  -12.8284   -4.8566   10.7881 C   0  0  0  0  0  0  0  0  0  0  0  0
 13 14  1  0  0  0
 14 15  2  0  0  0
 15 16  1  0  0  0
 16 17  2  0  0  0
 17 18  1  0  0  0
 18 19  2  0  0  0
 17  1  1  0  0  0
  1  2  2  0  0  0
  2  3  1  0  0  0
  3 21  1  0  0  0
 21 22  3  0  0  0
  3  4  2  0  0  0
  4  5  1  0  0  0
  5  6  2  0  0  0
  6  7  1  0  0  0
  6  8  1  0  0  0
  8  9  2  0  0  0
  9 10  1  0  0  0
 10 11  2  0  0  0
 19 14  1  0  0  0
 11  1  1  0  0  0
 10  4  1  0  0  0
 13 20  1  0  0  0
  7 12  1  0  0  0
M  END
> <minimizedAffinity>
-9.45203

> <CNNscore>
0.6982279420

> <CNNaffinity>
6.0530672073

> <CNN_VS>
4.2264208794

> <CNNaffinity_variance>
0.0378481522

$$$$
[H]C#Cc1c([H])c(-c2c([H])c([H])c(O[H])c([H])c2[H])nc2c([H])c([H])c(O[H])c([H])c12


 22 24  0  0  0  0  0  0  0  0999 V2000
   -7.7066   -7.1205    7.6175 C   0  0  0  0  0  0  0  0  0  0  0  0
   -8.0749   -8.3500    7.1434 C   0  0  0  0  0  0  0  0  0  0  0  0
   -9.3699   -8.8554    7.3555 C   0  0  0  0  0  0  0  0  0  0  0  0
  -10.2305   -8.0431    8.0616 C   0  0  0  0  0  0  0  0  0  0  0  0
  -11.5225   -8.4775    8.3076 C   0  0  0  0  0  0  0  0  0  0  0  0
  -12.4414   -7.7224    9.0064 C   0  0  0  0  0  0  0  0  0  0  0  0
  -13.7366   -8.1485    9.2575 O   0  0  0  0  0  0  0  0  0  0  0  0
  -12.0584   -6.4760    9.4836 C   0  0  0  0  0  0  0  0  0  0  0  0
  -10.7749   -6.0404    9.2412 C   0  0  0  0  0  0  0  0  0  0  0  0
   -9.8544   -6.7922    8.5435 C   0  0  0  0  0  0  0  0  0  0  0  0
   -8.6060   -6.3982    8.2932 N   0  0  0  0  0  0  0  0  0  0  0  0
  -14.4566   -7.9144    8.5709 H   0  0  0  0  0  0  0  0  0  0  0  0
   -2.5386   -5.1041    6.4659 O   0  0  0  0  0  0  0  0  0  0  0  0
   -3.8067   -5.5995    6.7622 C   0  0  0  0  0  0  0  0  0  0  0  0
   -4.7324   -5.9028    5.7865 C   0  0  0  0  0  0  0  0  0  0  0  0
   -5.9689   -6.3857    6.0713 C   0  0  0  0  0  0  0  0  0  0  0  0
   -6.3688   -6.6023    7.3965 C   0  0  0  0  0  0  0  0  0  0  0  0
   -5.4784   -6.3129    8.3840 C   0  0  0  0  0  0  0  0  0  0  0  0
   -4.2130   -5.8171    8.0602 C   0  0  0  0  0  0  0  0  0  0  0  0
   -2.3164   -4.9724    5.4966 H   0  0  0  0  0  0  0  0  0  0  0  0
   -9.7465  -10.1473    6.8537 C   0  0  0  0  0  0  0  0  0  0  0  0
  -10.0654  -11.2333    6.4186 C   0  0  0  0  0  0  0  0  0  0  0  0
 13 14  1  0  0  0
 14 15  2  0  0  0
 15 16  1  0  0  0
 16 17  2  0  0  0
 17 18  1  0  0  0
 18 19  2  0  0  0
 17  1  1  0  0  0
  1  2  2  0  0  0
  2  3  1  0  0  0
  3 21  1  0  0  0
 21 22  3  0  0  0
  3  4  2  0  0  0
  4  5  1  0  0  0
  5  6  2  0  0  0
  6  7  1  0  0  0
  6  8  1  0  0  0
  8  9  2  0  0  0
  9 10  1  0  0  0
 10 11  2  0  0  0
 19 14  1  0  0  0
 11  1  1  0  0  0
 10  4  1  0  0  0
 13 20  1  0  0  0
  7 12  1  0  0  0
M  END
> <minimizedAffinity>
-6.71393

> <CNNscore>
0.4673801363

> <CNNaffinity>
5.3040509224

> <CNN_VS>
2.4790079594

> <CNNaffinity_variance>
0.0417762063

$$$$
[H]C#Cc1c([H])c(-c2c([H])c([H])c(O[H])c([H])c2[H])nc2c([H])c([H])c(O[H])c([H])c12


 22 24  0  0  0  0  0  0  0  0999 V2000
   -8.7988   -9.4539    6.1464 C   0  0  0  0  0  0  0  0  0  0  0  0
   -9.1989  -10.7612    6.1997 C   0  0  0  0  0  0  0  0  0  0  0  0
   -8.9505  -11.6439    5.1335 C   0  0  0  0  0  0  0  0  0  0  0  0
   -8.2876  -11.1134    4.0481 C   0  0  0  0  0  0  0  0  0  0  0  0
   -8.0096  -11.9261    2.9615 C   0  0  0  0  0  0  0  0  0  0  0  0
   -7.3505  -11.4689    1.8392 C   0  0  0  0  0  0  0  0  0  0  0  0
   -7.0676  -12.2744    0.7469 O   0  0  0  0  0  0  0  0  0  0  0  0
   -6.9483  -10.1406    1.7944 C   0  0  0  0  0  0  0  0  0  0  0  0
   -7.2228   -9.3293    2.8725 C   0  0  0  0  0  0  0  0  0  0  0  0
   -7.8810   -9.7829    3.9951 C   0  0  0  0  0  0  0  0  0  0  0  0
   -8.1610   -9.0226    5.0535 N   0  0  0  0  0  0  0  0  0  0  0  0
   -6.1784  -12.7784    0.7443 H   0  0  0  0  0  0  0  0  0  0  0  0
  -10.0939   -5.9658   10.4191 O   0  0  0  0  0  0  0  0  0  0  0  0
   -9.7624   -6.8207    9.3701 C   0  0  0  0  0  0  0  0  0  0  0  0
  -10.7099   -7.5251    8.6580 C   0  0  0  0  0  0  0  0  0  0  0  0
  -10.3908   -8.3590    7.6354 C   0  0  0  0  0  0  0  0  0  0  0  0
   -9.0571   -8.5457    7.2491 C   0  0  0  0  0  0  0  0  0  0  0  0
   -8.0968   -7.8650    7.9318 C   0  0  0  0  0  0  0  0  0  0  0  0
   -8.4556   -7.0137    8.9798 C   0  0  0  0  0  0  0  0  0  0  0  0
  -11.0675   -5.8776   10.6442 H   0  0  0  0  0  0  0  0  0  0  0  0
   -9.3747  -13.0144    5.1994 C   0  0  0  0  0  0  0  0  0  0  0  0
   -9.7301  -14.1729    5.2430 C   0  0  0  0  0  0  0  0  0  0  0  0
 13 14  1  0  0  0
 14 15  2  0  0  0
 15 16  1  0  0  0
 16 17  2  0  0  0
 17 18  1  0  0  0
 18 19  2  0  0  0
 17  1  1  0  0  0
  1  2  2  0  0  0
  2  3  1  0  0  0
  3 21  1  0  0  0
 21 22  3  0  0  0
  3  4  2  0  0  0
  4  5  1  0  0  0
  5  6  2  0  0  0
  6  7  1  0  0  0
  6  8  1  0  0  0
  8  9  2  0  0  0
  9 10  1  0  0  0
 10 11  2  0  0  0
 19 14  1  0  0  0
 11  1  1  0  0  0
 10  4  1  0  0  0
 13 20  1  0  0  0
  7 12  1  0  0  0
M  END
> <minimizedAffinity>
20.72577

> <CNNscore>
0.4567301273

> <CNNaffinity>
4.8556470871

> <CNN_VS>
2.2177202702

> <CNNaffinity_variance>
1.0056091547

$$$$
[H]C#Cc1c([H])c(-c2c([H])c([H])c(O[H])c([H])c2[H])nc2c([H])c([H])c(O[H])c([H])c12


 22 24  0  0  0  0  0  0  0  0999 V2000
  -13.3562   -6.7289    8.8579 C   0  0  0  0  0  0  0  0  0  0  0  0
  -13.3052   -8.0837    8.6732 C   0  0  0  0  0  0  0  0  0  0  0  0
  -13.7592   -8.6747    7.4806 C   0  0  0  0  0  0  0  0  0  0  0  0
  -14.2513   -7.8124    6.5249 C   0  0  0  0  0  0  0  0  0  0  0  0
  -14.7159   -8.3258    5.3252 C   0  0  0  0  0  0  0  0  0  0  0  0
  -15.2228   -7.5279    4.3206 C   0  0  0  0  0  0  0  0  0  0  0  0
  -15.6900   -8.0321    3.1166 O   0  0  0  0  0  0  0  0  0  0  0  0
  -15.2705   -6.1541    4.5173 C   0  0  0  0  0  0  0  0  0  0  0  0
  -14.8097   -5.6398    5.7085 C   0  0  0  0  0  0  0  0  0  0  0  0
  -14.3026   -6.4341    6.7141 C   0  0  0  0  0  0  0  0  0  0  0  0
  -13.8496   -5.9662    7.8770 N   0  0  0  0  0  0  0  0  0  0  0  0
  -15.0224   -8.1259    2.3484 H   0  0  0  0  0  0  0  0  0  0  0  0
  -11.2832   -4.5313   13.6509 O   0  0  0  0  0  0  0  0  0  0  0  0
  -11.8038   -5.0639   12.4734 C   0  0  0  0  0  0  0  0  0  0  0  0
  -11.1476   -6.0307   11.7416 C   0  0  0  0  0  0  0  0  0  0  0  0
  -11.6516   -6.5520   10.5938 C   0  0  0  0  0  0  0  0  0  0  0  0
  -12.8866   -6.1226   10.0904 C   0  0  0  0  0  0  0  0  0  0  0  0
  -13.5603   -5.1688   10.7890 C   0  0  0  0  0  0  0  0  0  0  0  0
  -13.0164   -4.6510   11.9671 C   0  0  0  0  0  0  0  0  0  0  0  0
  -10.3945   -4.8830   13.9557 H   0  0  0  0  0  0  0  0  0  0  0  0
  -13.7014  -10.0978    7.2967 C   0  0  0  0  0  0  0  0  0  0  0  0
  -13.6647  -11.2995    7.1391 C   0  0  0  0  0  0  0  0  0  0  0  0
 13 14  1  0  0  0
 14 15  2  0  0  0
 15 16  1  0  0  0
 16 17  2  0  0  0
 17 18  1  0  0  0
 18 19  2  0  0  0
 17  1  1  0  0  0
  1  2  2  0  0  0
  2  3  1  0  0  0
  3 21  1  0  0  0
 21 22  3  0  0  0
  3  4  2  0  0  0
  4  5  1  0  0  0
  5  6  2  0  0  0
  6  7  1  0  0  0
  6  8  1  0  0  0
  8  9  2  0  0  0
  9 10  1  0  0  0
 10 11  2  0  0  0
 19 14  1  0  0  0
 11  1  1  0  0  0
 10  4  1  0  0  0
 13 20  1  0  0  0
  7 12  1  0  0  0
M  END
> <minimizedAffinity>
0.60216

> <CNNscore>
0.3962192237

> <CNNaffinity>
5.6720705032

> <CNN_VS>
2.2473833561

> <CNNaffinity_variance>
0.5803374648

$$$$
[H]C#Cc1c([H])c(-c2c([H])c([H])c(O[H])c([H])c2[H])nc2c([H])c([H])c(O[H])c([H])c12


 22 24  0  0  0  0  0  0  0  0999 V2000
   -9.8309   -7.5442    8.1547 C   0  0  0  0  0  0  0  0  0  0  0  0
   -9.6989   -6.8203    7.0012 C   0  0  0  0  0  0  0  0  0  0  0  0
   -8.4509   -6.6763    6.3695 C   0  0  0  0  0  0  0  0  0  0  0  0
   -7.3858   -7.3028    6.9795 C   0  0  0  0  0  0  0  0  0  0  0  0
   -6.1263   -7.2029    6.4118 C   0  0  0  0  0  0  0  0  0  0  0  0
   -5.0120   -7.8013    6.9625 C   0  0  0  0  0  0  0  0  0  0  0  0
   -3.7475   -7.7072    6.4019 O   0  0  0  0  0  0  0  0  0  0  0  0
   -5.1559   -8.5339    8.1333 C   0  0  0  0  0  0  0  0  0  0  0  0
   -6.4063   -8.6356    8.7008 C   0  0  0  0  0  0  0  0  0  0  0  0
   -7.5215   -8.0391    8.1533 C   0  0  0  0  0  0  0  0  0  0  0  0
   -8.7438   -8.1193    8.6788 N   0  0  0  0  0  0  0  0  0  0  0  0
   -3.4732   -8.4204    5.7231 H   0  0  0  0  0  0  0  0  0  0  0  0
  -14.8325   -7.8451   10.7994 O   0  0  0  0  0  0  0  0  0  0  0  0
  -13.6044   -7.7835   10.1442 C   0  0  0  0  0  0  0  0  0  0  0  0
  -12.7803   -6.6802   10.2128 C   0  0  0  0  0  0  0  0  0  0  0  0
  -11.5831   -6.6165    9.5758 C   0  0  0  0  0  0  0  0  0  0  0  0
  -11.1211   -7.6906    8.8039 C   0  0  0  0  0  0  0  0  0  0  0  0
  -11.9108   -8.7952    8.7154 C   0  0  0  0  0  0  0  0  0  0  0  0
  -13.1379   -8.8318    9.3821 C   0  0  0  0  0  0  0  0  0  0  0  0
  -15.1034   -7.0415   11.3353 H   0  0  0  0  0  0  0  0  0  0  0  0
   -8.3230   -5.9142    5.1589 C   0  0  0  0  0  0  0  0  0  0  0  0
   -8.2273   -5.2691    4.1367 C   0  0  0  0  0  0  0  0  0  0  0  0
 13 14  1  0  0  0
 14 15  2  0  0  0
 15 16  1  0  0  0
 16 17  2  0  0  0
 17 18  1  0  0  0
 18 19  2  0  0  0
 17  1  1  0  0  0
  1  2  2  0  0  0
  2  3  1  0  0  0
  3 21  1  0  0  0
 21 22  3  0  0  0
  3  4  2  0  0  0
  4  5  1  0  0  0
  5  6  2  0  0  0
  6  7  1  0  0  0
  6  8  1  0  0  0
  8  9  2  0  0  0
  9 10  1  0  0  0
 10 11  2  0  0  0
 19 14  1  0  0  0
 11  1  1  0  0  0
 10  4  1  0  0  0
 13 20  1  0  0  0
  7 12  1  0  0  0
M  END
> <minimizedAffinity>
0.59507

> <CNNscore>
0.3773156106

> <CNNaffinity>
5.3327283859

> <CNN_VS>
2.0121216774

> <CNNaffinity_variance>
0.4432635307

$$$$
[H]C#Cc1c([H])c(-c2c([H])c([H])c(O[H])c([H])c2[H])nc2c([H])c([H])c(O[H])c([H])c12


 22 24  0  0  0  0  0  0  0  0999 V2000
  -10.6138   -8.1243    7.6321 C   0  0  0  0  0  0  0  0  0  0  0  0
   -9.8244   -9.1875    7.9764 C   0  0  0  0  0  0  0  0  0  0  0  0
   -8.4449   -9.1902    7.7032 C   0  0  0  0  0  0  0  0  0  0  0  0
   -7.9483   -8.0685    7.0754 C   0  0  0  0  0  0  0  0  0  0  0  0
   -6.5975   -8.0029    6.7756 C   0  0  0  0  0  0  0  0  0  0  0  0
   -6.0260   -6.9150    6.1489 C   0  0  0  0  0  0  0  0  0  0  0  0
   -4.6755   -6.8401    5.8448 O   0  0  0  0  0  0  0  0  0  0  0  0
   -6.8353   -5.8409    5.8033 C   0  0  0  0  0  0  0  0  0  0  0  0
   -8.1786   -5.9021    6.0995 C   0  0  0  0  0  0  0  0  0  0  0  0
   -8.7526   -6.9873    6.7256 C   0  0  0  0  0  0  0  0  0  0  0  0
  -10.0484   -7.0759    7.0251 N   0  0  0  0  0  0  0  0  0  0  0  0
   -4.0514   -6.4347    6.5453 H   0  0  0  0  0  0  0  0  0  0  0  0
  -16.1802   -8.4079    8.6496 O   0  0  0  0  0  0  0  0  0  0  0  0
  -14.8113   -8.3254    8.4035 C   0  0  0  0  0  0  0  0  0  0  0  0
  -14.0799   -9.3852    7.9105 C   0  0  0  0  0  0  0  0  0  0  0  0
  -12.7460   -9.3086    7.6695 C   0  0  0  0  0  0  0  0  0  0  0  0
  -12.0374   -8.1253    7.9158 C   0  0  0  0  0  0  0  0  0  0  0  0
  -12.7299   -7.0600    8.4030 C   0  0  0  0  0  0  0  0  0  0  0  0
  -14.1022   -7.1687    8.6411 C   0  0  0  0  0  0  0  0  0  0  0  0
  -16.6263   -9.2843    8.4514 H   0  0  0  0  0  0  0  0  0  0  0  0
   -7.6251  -10.3113    8.0686 C   0  0  0  0  0  0  0  0  0  0  0  0
   -6.9428  -11.2636    8.3817 C   0  0  0  0  0  0  0  0  0  0  0  0
 13 14  1  0  0  0
 14 15  2  0  0  0
 15 16  1  0  0  0
 16 17  2  0  0  0
 17 18  1  0  0  0
 18 19  2  0  0  0
 17  1  1  0  0  0
  1  2  2  0  0  0
  2  3  1  0  0  0
  3 21  1  0  0  0
 21 22  3  0  0  0
  3  4  2  0  0  0
  4  5  1  0  0  0
  5  6  2  0  0  0
  6  7  1  0  0  0
  6  8  1  0  0  0
  8  9  2  0  0  0
  9 10  1  0  0  0
 10 11  2  0  0  0
 19 14  1  0  0  0
 11  1  1  0  0  0
 10  4  1  0  0  0
 13 20  1  0  0  0
  7 12  1  0  0  0
M  END
> <minimizedAffinity>
-4.00409

> <CNNscore>
0.3654846847

> <CNNaffinity>
5.5770440102

> <CNN_VS>
2.0383241177

> <CNNaffinity_variance>
0.3195774555

$$$$
[H]C#Cc1c([H])c(-c2c([H])c([H])c(O[H])c([H])c2[H])nc2c([H])c([H])c(O[H])c([H])c12


 22 24  0  0  0  0  0  0  0  0999 V2000
  -14.4216   -7.3564    6.6910 C   0  0  0  0  0  0  0  0  0  0  0  0
  -14.6548   -7.5002    8.0315 C   0  0  0  0  0  0  0  0  0  0  0  0
  -13.5998   -7.4844    8.9610 C   0  0  0  0  0  0  0  0  0  0  0  0
  -12.3348   -7.3172    8.4407 C   0  0  0  0  0  0  0  0  0  0  0  0
  -11.2479   -7.2919    9.2990 C   0  0  0  0  0  0  0  0  0  0  0  0
   -9.9521   -7.1287    8.8547 C   0  0  0  0  0  0  0  0  0  0  0  0
   -8.8580   -7.1021    9.7057 O   0  0  0  0  0  0  0  0  0  0  0  0
   -9.7254   -6.9836    7.4925 C   0  0  0  0  0  0  0  0  0  0  0  0
  -10.8032   -7.0082    6.6359 C   0  0  0  0  0  0  0  0  0  0  0  0
  -12.0988   -7.1710    7.0764 C   0  0  0  0  0  0  0  0  0  0  0  0
  -13.1616   -7.1990    6.2726 N   0  0  0  0  0  0  0  0  0  0  0  0
   -8.5672   -6.1963   10.0794 H   0  0  0  0  0  0  0  0  0  0  0  0
  -18.5910   -7.1606    2.8597 O   0  0  0  0  0  0  0  0  0  0  0  0
  -17.5702   -7.2207    3.8061 C   0  0  0  0  0  0  0  0  0  0  0  0
  -16.6320   -6.2208    3.9514 C   0  0  0  0  0  0  0  0  0  0  0  0
  -15.6360   -6.2758    4.8722 C   0  0  0  0  0  0  0  0  0  0  0  0
  -15.5134   -7.3733    5.7344 C   0  0  0  0  0  0  0  0  0  0  0  0
  -16.4236   -8.3780    5.6170 C   0  0  0  0  0  0  0  0  0  0  0  0
  -17.4377   -8.2934    4.6598 C   0  0  0  0  0  0  0  0  0  0  0  0
  -18.6215   -6.3467    2.2741 H   0  0  0  0  0  0  0  0  0  0  0  0
  -13.8553   -7.6362   10.3661 C   0  0  0  0  0  0  0  0  0  0  0  0
  -14.0714   -7.7521   11.5536 C   0  0  0  0  0  0  0  0  0  0  0  0
 13 14  1  0  0  0
 14 15  2  0  0  0
 15 16  1  0  0  0
 16 17  2  0  0  0
 17 18  1  0  0  0
 18 19  2  0  0  0
 17  1  1  0  0  0
  1  2  2  0  0  0
  2  3  1  0  0  0
  3 21  1  0  0  0
 21 22  3  0  0  0
  3  4  2  0  0  0
  4  5  1  0  0  0
  5  6  2  0  0  0
  6  7  1  0  0  0
  6  8  1  0  0  0
  8  9  2  0  0  0
  9 10  1  0  0  0
 10 11  2  0  0  0
 19 14  1  0  0  0
 11  1  1  0  0  0
 10  4  1  0  0  0
 13 20  1  0  0  0
  7 12  1  0  0  0
M  END
> <minimizedAffinity>
-2.87501

> <CNNscore>
0.3457623124

> <CNNaffinity>
5.8937692642

> <CNN_VS>
2.0378432274

> <CNNaffinity_variance>
0.5753225088

$$$$
[H]C#Cc1c([H])c(-c2c([H])c([H])c(O[H])c([H])c2[H])nc2c([H])c([H])c(O[H])c([H])c12


 22 24  0  0  0  0  0  0  0  0999 V2000
   -4.9546   -5.6164    7.4736 C   0  0  0  0  0  0  0  0  0  0  0  0
   -5.4939   -5.7213    6.2205 C   0  0  0  0  0  0  0  0  0  0  0  0
   -6.4767   -6.6836    5.9278 C   0  0  0  0  0  0  0  0  0  0  0  0
   -6.8550   -7.5015    6.9704 C   0  0  0  0  0  0  0  0  0  0  0  0
   -7.8188   -8.4724    6.7535 C   0  0  0  0  0  0  0  0  0  0  0  0
   -8.2496   -9.3284    7.7458 C   0  0  0  0  0  0  0  0  0  0  0  0
   -9.2135  -10.3031    7.5386 O   0  0  0  0  0  0  0  0  0  0  0  0
   -7.6964   -9.2143    9.0143 C   0  0  0  0  0  0  0  0  0  0  0  0
   -6.7380   -8.2504    9.2340 C   0  0  0  0  0  0  0  0  0  0  0  0
   -6.3054   -7.3937    8.2450 C   0  0  0  0  0  0  0  0  0  0  0  0
   -5.3802   -6.4516    8.4268 N   0  0  0  0  0  0  0  0  0  0  0  0
  -10.1905  -10.0477    7.6960 H   0  0  0  0  0  0  0  0  0  0  0  0
   -1.0654   -1.5988    8.3862 O   0  0  0  0  0  0  0  0  0  0  0  0
   -2.0183   -2.5927    8.1733 C   0  0  0  0  0  0  0  0  0  0  0  0
   -2.8313   -2.6161    7.0600 C   0  0  0  0  0  0  0  0  0  0  0  0
   -3.7609   -3.5828    6.8492 C   0  0  0  0  0  0  0  0  0  0  0  0
   -3.9402   -4.6218    7.7719 C   0  0  0  0  0  0  0  0  0  0  0  0
   -3.1534   -4.6281    8.8821 C   0  0  0  0  0  0  0  0  0  0  0  0
   -2.2053   -3.6197    9.0719 C   0  0  0  0  0  0  0  0  0  0  0  0
   -0.9886   -0.8843    7.6863 H   0  0  0  0  0  0  0  0  0  0  0  0
   -7.0364   -6.7855    4.6091 C   0  0  0  0  0  0  0  0  0  0  0  0
   -7.5145   -6.8822    3.4990 C   0  0  0  0  0  0  0  0  0  0  0  0
 13 14  1  0  0  0
 14 15  2  0  0  0
 15 16  1  0  0  0
 16 17  2  0  0  0
 17 18  1  0  0  0
 18 19  2  0  0  0
 17  1  1  0  0  0
  1  2  2  0  0  0
  2  3  1  0  0  0
  3 21  1  0  0  0
 21 22  3  0  0  0
  3  4  2  0  0  0
  4  5  1  0  0  0
  5  6  2  0  0  0
  6  7  1  0  0  0
  6  8  1  0  0  0
  8  9  2  0  0  0
  9 10  1  0  0  0
 10 11  2  0  0  0
 19 14  1  0  0  0
 11  1  1  0  0  0
 10  4  1  0  0  0
 13 20  1  0  0  0
  7 12  1  0  0  0
M  END
> <minimizedAffinity>
-0.93795

> <CNNscore>
0.3332069218

> <CNNaffinity>
4.4686727524

> <CNN_VS>
1.4889926910

> <CNNaffinity_variance>
0.4642897248

$$$$
[H]Oc1c([H])c([H])c(-n2c([H])c(Br)c3c([H])c(O[H])c([H])c(O[H])c3c2=O)c([H])c1F


 25 27  0  0  0  0  0  0  0  0999 V2000
  -16.3123   -8.5011    8.9287 O   0  0  0  0  0  0  0  0  0  0  0  0
  -14.9718   -8.4830    8.6114 C   0  0  0  0  0  0  0  0  0  0  0  0
  -14.3867   -9.4122    7.7815 C   0  0  0  0  0  0  0  0  0  0  0  0
  -13.0632   -9.3950    7.4679 C   0  0  0  0  0  0  0  0  0  0  0  0
  -12.5165  -10.3507    6.6279 O   0  0  0  0  0  0  0  0  0  0  0  0
  -12.2726   -8.3866    8.0168 C   0  0  0  0  0  0  0  0  0  0  0  0
  -12.8096   -7.4314    8.8540 C   0  0  0  0  0  0  0  0  0  0  0  0
  -14.1556   -7.4898    9.1429 C   0  0  0  0  0  0  0  0  0  0  0  0
  -11.9546   -6.4718    9.3511 C   0  0  0  0  0  0  0  0  0  0  0  0
  -12.6473   -5.1305   10.5117 Br  0  0  0  0  0  0  0  0  0  0  0  0
  -10.6112   -6.4418    9.0419 C   0  0  0  0  0  0  0  0  0  0  0  0
  -10.1066   -7.3760    8.2282 N   0  0  0  0  0  0  0  0  0  0  0  0
  -10.9316   -8.3234    7.7328 C   0  0  0  0  0  0  0  0  0  0  0  0
  -10.4714   -9.2132    6.9627 O   0  0  0  0  0  0  0  0  0  0  0  0
  -16.9497   -9.1773    8.5870 H   0  0  0  0  0  0  0  0  0  0  0  0
  -13.1109  -11.0612    6.2503 H   0  0  0  0  0  0  0  0  0  0  0  0
   -8.7193   -7.3383    7.9139 C   0  0  0  0  0  0  0  0  0  0  0  0
   -7.7825   -7.8668    8.7698 C   0  0  0  0  0  0  0  0  0  0  0  0
   -6.4471   -7.8221    8.4510 C   0  0  0  0  0  0  0  0  0  0  0  0
   -5.9913   -7.2503    7.2691 C   0  0  0  0  0  0  0  0  0  0  0  0
   -4.6367   -7.2053    6.9462 O   0  0  0  0  0  0  0  0  0  0  0  0
   -6.9427   -6.7249    6.4216 C   0  0  0  0  0  0  0  0  0  0  0  0
   -6.5206   -6.1557    5.2507 F   0  0  0  0  0  0  0  0  0  0  0  0
   -8.2960   -6.7650    6.7350 C   0  0  0  0  0  0  0  0  0  0  0  0
   -3.9884   -7.6131    7.6195 H   0  0  0  0  0  0  0  0  0  0  0  0
  1  2  1  0  0  0
  2  3  2  0  0  0
  3  4  1  0  0  0
  4  5  1  0  0  0
  4  6  2  0  0  0
  6  7  1  0  0  0
  7  8  2  0  0  0
  7  9  1  0  0  0
  9 10  1  0  0  0
  9 11  2  0  0  0
 11 12  1  0  0  0
 12 17  1  0  0  0
 17 18  2  0  0  0
 18 19  1  0  0  0
 19 20  2  0  0  0
 20 21  1  0  0  0
 20 22  1  0  0  0
 22 23  1  0  0  0
 22 24  2  0  0  0
 12 13  1  0  0  0
 13 14  2  0  0  0
  8  2  1  0  0  0
 24 17  1  0  0  0
 13  6  1  0  0  0
  1 15  1  0  0  0
  5 16  1  0  0  0
 21 25  1  0  0  0
M  END
> <minimizedAffinity>
-9.05052

> <CNNscore>
0.6484977007

> <CNNaffinity>
6.3803110123

> <CNN_VS>
4.1376171112

> <CNNaffinity_variance>
0.0518449917

$$$$
[H]Oc1c([H])c([H])c(-n2c([H])c(Br)c3c([H])c(O[H])c([H])c(O[H])c3c2=O)c([H])c1F


 25 27  0  0  0  0  0  0  0  0999 V2000
  -16.7967   -8.1532    8.6646 O   0  0  0  0  0  0  0  0  0  0  0  0
  -15.4581   -8.2323    8.3487 C   0  0  0  0  0  0  0  0  0  0  0  0
  -14.9540   -9.1450    7.4502 C   0  0  0  0  0  0  0  0  0  0  0  0
  -13.6325   -9.2236    7.1378 C   0  0  0  0  0  0  0  0  0  0  0  0
  -13.1688  -10.1584    6.2272 O   0  0  0  0  0  0  0  0  0  0  0  0
  -12.7576   -8.3353    7.7613 C   0  0  0  0  0  0  0  0  0  0  0  0
  -13.2115   -7.4017    8.6690 C   0  0  0  0  0  0  0  0  0  0  0  0
  -14.5591   -7.3600    8.9536 C   0  0  0  0  0  0  0  0  0  0  0  0
  -12.2766   -6.5636    9.2370 C   0  0  0  0  0  0  0  0  0  0  0  0
  -12.8529   -5.2570   10.4967 Br  0  0  0  0  0  0  0  0  0  0  0  0
  -10.9341   -6.6317    8.9301 C   0  0  0  0  0  0  0  0  0  0  0  0
  -10.5107   -7.5433    8.0474 N   0  0  0  0  0  0  0  0  0  0  0  0
  -11.4146   -8.3720    7.4819 C   0  0  0  0  0  0  0  0  0  0  0  0
  -11.0318   -9.2389    6.6461 O   0  0  0  0  0  0  0  0  0  0  0  0
  -17.4904   -8.7413    8.2730 H   0  0  0  0  0  0  0  0  0  0  0  0
  -13.8225  -10.7817    5.7971 H   0  0  0  0  0  0  0  0  0  0  0  0
   -9.1237   -7.6074    7.7359 C   0  0  0  0  0  0  0  0  0  0  0  0
   -8.4508   -6.5065    7.2618 C   0  0  0  0  0  0  0  0  0  0  0  0
   -7.1116   -6.5855    6.9660 C   0  0  0  0  0  0  0  0  0  0  0  0
   -6.3898   -7.7618    7.1298 C   0  0  0  0  0  0  0  0  0  0  0  0
   -5.0316   -7.8414    6.8296 O   0  0  0  0  0  0  0  0  0  0  0  0
   -7.0787   -8.8565    7.6059 C   0  0  0  0  0  0  0  0  0  0  0  0
   -6.3914  -10.0277    7.7764 F   0  0  0  0  0  0  0  0  0  0  0  0
   -8.4334   -8.7869    7.9081 C   0  0  0  0  0  0  0  0  0  0  0  0
   -4.5859   -6.9928    6.4816 H   0  0  0  0  0  0  0  0  0  0  0  0
  1  2  1  0  0  0
  2  3  2  0  0  0
  3  4  1  0  0  0
  4  5  1  0  0  0
  4  6  2  0  0  0
  6  7  1  0  0  0
  7  8  2  0  0  0
  7  9  1  0  0  0
  9 10  1  0  0  0
  9 11  2  0  0  0
 11 12  1  0  0  0
 12 17  1  0  0  0
 17 18  2  0  0  0
 18 19  1  0  0  0
 19 20  2  0  0  0
 20 21  1  0  0  0
 20 22  1  0  0  0
 22 23  1  0  0  0
 22 24  2  0  0  0
 12 13  1  0  0  0
 13 14  2  0  0  0
  8  2  1  0  0  0
 24 17  1  0  0  0
 13  6  1  0  0  0
  1 15  1  0  0  0
  5 16  1  0  0  0
 21 25  1  0  0  0
M  END
> <minimizedAffinity>
-8.02634

> <CNNscore>
0.5451509953

> <CNNaffinity>
6.3356547356

> <CNN_VS>
3.4538884163

> <CNNaffinity_variance>
0.0315772071

$$$$
[H]Oc1c([H])c([H])c(-n2c([H])c(Br)c3c([H])c(O[H])c([H])c(O[H])c3c2=O)c([H])c1F


 25 27  0  0  0  0  0  0  0  0999 V2000
  -15.3047   -9.2969    8.6632 O   0  0  0  0  0  0  0  0  0  0  0  0
  -13.9778   -9.0931    8.3541 C   0  0  0  0  0  0  0  0  0  0  0  0
  -13.2465   -9.9672    7.5824 C   0  0  0  0  0  0  0  0  0  0  0  0
  -11.9363   -9.7666    7.2768 C   0  0  0  0  0  0  0  0  0  0  0  0
  -11.2386  -10.6732    6.4963 O   0  0  0  0  0  0  0  0  0  0  0  0
  -11.3156   -8.6210    7.7725 C   0  0  0  0  0  0  0  0  0  0  0  0
  -12.0034   -7.7135    8.5503 C   0  0  0  0  0  0  0  0  0  0  0  0
  -13.3293   -7.9596    8.8334 C   0  0  0  0  0  0  0  0  0  0  0  0
  -11.3110   -6.6091    8.9974 C   0  0  0  0  0  0  0  0  0  0  0  0
  -12.2160   -5.3264   10.0751 Br  0  0  0  0  0  0  0  0  0  0  0  0
   -9.9831   -6.3926    8.6957 C   0  0  0  0  0  0  0  0  0  0  0  0
   -9.3307   -7.2830    7.9399 N   0  0  0  0  0  0  0  0  0  0  0  0
   -9.9954   -8.3707    7.4940 C   0  0  0  0  0  0  0  0  0  0  0  0
   -9.3944   -9.2216    6.7789 O   0  0  0  0  0  0  0  0  0  0  0  0
  -15.8273  -10.0800    8.3566 H   0  0  0  0  0  0  0  0  0  0  0  0
  -11.7130  -11.4856    6.1560 H   0  0  0  0  0  0  0  0  0  0  0  0
   -7.9605   -7.0526    7.6329 C   0  0  0  0  0  0  0  0  0  0  0  0
   -7.5438   -6.8742    6.3352 C   0  0  0  0  0  0  0  0  0  0  0  0
   -6.2170   -6.6527    6.0563 C   0  0  0  0  0  0  0  0  0  0  0  0
   -5.2535   -6.6000    7.0564 C   0  0  0  0  0  0  0  0  0  0  0  0
   -3.9080   -6.3752    6.7729 O   0  0  0  0  0  0  0  0  0  0  0  0
   -5.6872   -6.7806    8.3521 C   0  0  0  0  0  0  0  0  0  0  0  0
   -4.7585   -6.7334    9.3563 F   0  0  0  0  0  0  0  0  0  0  0  0
   -7.0270   -7.0054    8.6448 C   0  0  0  0  0  0  0  0  0  0  0  0
   -3.6581   -6.2501    5.7922 H   0  0  0  0  0  0  0  0  0  0  0  0
  1  2  1  0  0  0
  2  3  2  0  0  0
  3  4  1  0  0  0
  4  5  1  0  0  0
  4  6  2  0  0  0
  6  7  1  0  0  0
  7  8  2  0  0  0
  7  9  1  0  0  0
  9 10  1  0  0  0
  9 11  2  0  0  0
 11 12  1  0  0  0
 12 17  1  0  0  0
 17 18  2  0  0  0
 18 19  1  0  0  0
 19 20  2  0  0  0
 20 21  1  0  0  0
 20 22  1  0  0  0
 22 23  1  0  0  0
 22 24  2  0  0  0
 12 13  1  0  0  0
 13 14  2  0  0  0
  8  2  1  0  0  0
 24 17  1  0  0  0
 13  6  1  0  0  0
  1 15  1  0  0  0
  5 16  1  0  0  0
 21 25  1  0  0  0
M  END
> <minimizedAffinity>
-7.03289

> <CNNscore>
0.5111263394

> <CNNaffinity>
6.0960779190

> <CNN_VS>
3.1158659458

> <CNNaffinity_variance>
0.0203133337

$$$$
[H]Oc1c([H])c([H])c(-n2c([H])c(Br)c3c([H])c(O[H])c([H])c(O[H])c3c2=O)c([H])c1F


 25 27  0  0  0  0  0  0  0  0999 V2000
  -12.5543  -10.1376    4.6385 O   0  0  0  0  0  0  0  0  0  0  0  0
  -13.5585   -9.2290    4.8911 C   0  0  0  0  0  0  0  0  0  0  0  0
  -14.0032   -8.9390    6.1610 C   0  0  0  0  0  0  0  0  0  0  0  0
  -14.9947   -8.0420    6.4111 C   0  0  0  0  0  0  0  0  0  0  0  0
  -15.4109   -7.7810    7.7059 O   0  0  0  0  0  0  0  0  0  0  0  0
  -15.5802   -7.3925    5.3255 C   0  0  0  0  0  0  0  0  0  0  0  0
  -15.1714   -7.6470    4.0333 C   0  0  0  0  0  0  0  0  0  0  0  0
  -14.1633   -8.5640    3.8294 C   0  0  0  0  0  0  0  0  0  0  0  0
  -15.8054   -6.9595    3.0212 C   0  0  0  0  0  0  0  0  0  0  0  0
  -15.2772   -7.2754    1.2192 Br  0  0  0  0  0  0  0  0  0  0  0  0
  -16.8117   -6.0475    3.2596 C   0  0  0  0  0  0  0  0  0  0  0  0
  -17.1962   -5.8126    4.5191 N   0  0  0  0  0  0  0  0  0  0  0  0
  -16.5845   -6.4784    5.5222 C   0  0  0  0  0  0  0  0  0  0  0  0
  -16.9353   -6.2684    6.7178 O   0  0  0  0  0  0  0  0  0  0  0  0
  -12.0814  -10.6457    5.3445 H   0  0  0  0  0  0  0  0  0  0  0  0
  -14.9704   -8.2639    8.4632 H   0  0  0  0  0  0  0  0  0  0  0  0
  -18.2353   -4.8700    4.7571 C   0  0  0  0  0  0  0  0  0  0  0  0
  -19.3049   -4.7608    3.9005 C   0  0  0  0  0  0  0  0  0  0  0  0
  -20.2996   -3.8454    4.1450 C   0  0  0  0  0  0  0  0  0  0  0  0
  -20.2695   -3.0034    5.2503 C   0  0  0  0  0  0  0  0  0  0  0  0
  -21.2787   -2.0753    5.4978 O   0  0  0  0  0  0  0  0  0  0  0  0
  -19.1908   -3.1252    6.0994 C   0  0  0  0  0  0  0  0  0  0  0  0
  -19.1366   -2.3076    7.1957 F   0  0  0  0  0  0  0  0  0  0  0  0
  -18.1793   -4.0479    5.8609 C   0  0  0  0  0  0  0  0  0  0  0  0
  -22.0468   -2.0396    4.8279 H   0  0  0  0  0  0  0  0  0  0  0  0
  1  2  1  0  0  0
  2  3  2  0  0  0
  3  4  1  0  0  0
  4  5  1  0  0  0
  4  6  2  0  0  0
  6  7  1  0  0  0
  7  8  2  0  0  0
  7  9  1  0  0  0
  9 10  1  0  0  0
  9 11  2  0  0  0
 11 12  1  0  0  0
 12 17  1  0  0  0
 17 18  2  0  0  0
 18 19  1  0  0  0
 19 20  2  0  0  0
 20 21  1  0  0  0
 20 22  1  0  0  0
 22 23  1  0  0  0
 22 24  2  0  0  0
 12 13  1  0  0  0
 13 14  2  0  0  0
  8  2  1  0  0  0
 24 17  1  0  0  0
 13  6  1  0  0  0
  1 15  1  0  0  0
  5 16  1  0  0  0
 21 25  1  0  0  0
M  END
> <minimizedAffinity>
14.81973

> <CNNscore>
0.4915318489

> <CNNaffinity>
6.2108988762

> <CNN_VS>
3.0528545380

> <CNNaffinity_variance>
1.6460031271

$$$$
[H]Oc1c([H])c([H])c(-n2c([H])c(Br)c3c([H])c(O[H])c([H])c(O[H])c3c2=O)c([H])c1F


 25 27  0  0  0  0  0  0  0  0999 V2000
  -14.3023   -3.3491    3.3766 O   0  0  0  0  0  0  0  0  0  0  0  0
  -14.9664   -4.4043    3.9626 C   0  0  0  0  0  0  0  0  0  0  0  0
  -14.3151   -5.4536    4.5702 C   0  0  0  0  0  0  0  0  0  0  0  0
  -14.9702   -6.4958    5.1489 C   0  0  0  0  0  0  0  0  0  0  0  0
  -14.2739   -7.5314    5.7496 O   0  0  0  0  0  0  0  0  0  0  0  0
  -16.3639   -6.4913    5.1200 C   0  0  0  0  0  0  0  0  0  0  0  0
  -17.0645   -5.4640    4.5240 C   0  0  0  0  0  0  0  0  0  0  0  0
  -16.3572   -4.4297    3.9506 C   0  0  0  0  0  0  0  0  0  0  0  0
  -18.4402   -5.5413    4.5419 C   0  0  0  0  0  0  0  0  0  0  0  0
  -19.4535   -4.1473    3.7318 Br  0  0  0  0  0  0  0  0  0  0  0  0
  -19.1178   -6.5913    5.1246 C   0  0  0  0  0  0  0  0  0  0  0  0
  -18.4227   -7.5798    5.6985 N   0  0  0  0  0  0  0  0  0  0  0  0
  -17.0737   -7.5186    5.6893 C   0  0  0  0  0  0  0  0  0  0  0  0
  -16.4017   -8.4438    6.2269 O   0  0  0  0  0  0  0  0  0  0  0  0
  -13.3160   -3.2668    3.3485 H   0  0  0  0  0  0  0  0  0  0  0  0
  -13.2739   -7.5049    5.7534 H   0  0  0  0  0  0  0  0  0  0  0  0
  -19.1291   -8.6599    6.2978 C   0  0  0  0  0  0  0  0  0  0  0  0
  -19.1793   -8.8047    7.6638 C   0  0  0  0  0  0  0  0  0  0  0  0
  -19.8658   -9.8533    8.2262 C   0  0  0  0  0  0  0  0  0  0  0  0
  -20.5287  -10.7984    7.4524 C   0  0  0  0  0  0  0  0  0  0  0  0
  -21.2249  -11.8617    8.0233 O   0  0  0  0  0  0  0  0  0  0  0  0
  -20.4690  -10.6394    6.0846 C   0  0  0  0  0  0  0  0  0  0  0  0
  -21.1134  -11.5565    5.2993 F   0  0  0  0  0  0  0  0  0  0  0  0
  -19.7772   -9.5822    5.5060 C   0  0  0  0  0  0  0  0  0  0  0  0
  -21.2273  -11.9176    9.0415 H   0  0  0  0  0  0  0  0  0  0  0  0
  1  2  1  0  0  0
  2  3  2  0  0  0
  3  4  1  0  0  0
  4  5  1  0  0  0
  4  6  2  0  0  0
  6  7  1  0  0  0
  7  8  2  0  0  0
  7  9  1  0  0  0
  9 10  1  0  0  0
  9 11  2  0  0  0
 11 12  1  0  0  0
 12 17  1  0  0  0
 17 18  2  0  0  0
 18 19  1  0  0  0
 19 20  2  0  0  0
 20 21  1  0  0  0
 20 22  1  0  0  0
 22 23  1  0  0  0
 22 24  2  0  0  0
 12 13  1  0  0  0
 13 14  2  0  0  0
  8  2  1  0  0  0
 24 17  1  0  0  0
 13  6  1  0  0  0
  1 15  1  0  0  0
  5 16  1  0  0  0
 21 25  1  0  0  0
M  END
> <minimizedAffinity>
6.97509

> <CNNscore>
0.4567585289

> <CNNaffinity>
5.8988337517

> <CNN_VS>
2.6943426132

> <CNNaffinity_variance>
0.6357749104

$$$$
[H]Oc1c([H])c([H])c(-n2c([H])c(Br)c3c([H])c(O[H])c([H])c(O[H])c3c2=O)c([H])c1F


 25 27  0  0  0  0  0  0  0  0999 V2000
  -11.9287   -6.7872   10.0857 O   0  0  0  0  0  0  0  0  0  0  0  0
  -10.7443   -6.8838    9.3887 C   0  0  0  0  0  0  0  0  0  0  0  0
  -10.6911   -7.0558    8.0242 C   0  0  0  0  0  0  0  0  0  0  0  0
   -9.5220   -7.1513    7.3353 C   0  0  0  0  0  0  0  0  0  0  0  0
   -9.5155   -7.3242    5.9613 O   0  0  0  0  0  0  0  0  0  0  0  0
   -8.3298   -7.0700    8.0531 C   0  0  0  0  0  0  0  0  0  0  0  0
   -8.3280   -6.8980    9.4213 C   0  0  0  0  0  0  0  0  0  0  0  0
   -9.5372   -6.8066   10.0757 C   0  0  0  0  0  0  0  0  0  0  0  0
   -7.1035   -6.8281   10.0495 C   0  0  0  0  0  0  0  0  0  0  0  0
   -7.0472   -6.5911   11.9380 Br  0  0  0  0  0  0  0  0  0  0  0  0
   -5.9106   -6.9233    9.3645 C   0  0  0  0  0  0  0  0  0  0  0  0
   -5.9304   -7.0901    8.0373 N   0  0  0  0  0  0  0  0  0  0  0  0
   -7.1226   -7.1604    7.4070 C   0  0  0  0  0  0  0  0  0  0  0  0
   -7.1594   -7.3177    6.1537 O   0  0  0  0  0  0  0  0  0  0  0  0
  -12.8222   -6.8339    9.6618 H   0  0  0  0  0  0  0  0  0  0  0  0
  -10.3883   -7.3787    5.4755 H   0  0  0  0  0  0  0  0  0  0  0  0
   -4.6953   -7.1874    7.3374 C   0  0  0  0  0  0  0  0  0  0  0  0
   -3.7814   -6.1610    7.3636 C   0  0  0  0  0  0  0  0  0  0  0  0
   -2.5936   -6.2713    6.6823 C   0  0  0  0  0  0  0  0  0  0  0  0
   -2.2685   -7.4060    5.9488 C   0  0  0  0  0  0  0  0  0  0  0  0
   -1.0637   -7.5174    5.2580 O   0  0  0  0  0  0  0  0  0  0  0  0
   -3.1951   -8.4262    5.9324 C   0  0  0  0  0  0  0  0  0  0  0  0
   -2.8998   -9.5552    5.2173 F   0  0  0  0  0  0  0  0  0  0  0  0
   -4.3995   -8.3244    6.6181 C   0  0  0  0  0  0  0  0  0  0  0  0
   -0.4251   -6.7242    5.3139 H   0  0  0  0  0  0  0  0  0  0  0  0
  1  2  1  0  0  0
  2  3  2  0  0  0
  3  4  1  0  0  0
  4  5  1  0  0  0
  4  6  2  0  0  0
  6  7  1  0  0  0
  7  8  2  0  0  0
  7  9  1  0  0  0
  9 10  1  0  0  0
  9 11  2  0  0  0
 11 12  1  0  0  0
 12 17  1  0  0  0
 17 18  2  0  0  0
 18 19  1  0  0  0
 19 20  2  0  0  0
 20 21  1  0  0  0
 20 22  1  0  0  0
 22 23  1  0  0  0
 22 24  2  0  0  0
 12 13  1  0  0  0
 13 14  2  0  0  0
  8  2  1  0  0  0
 24 17  1  0  0  0
 13  6  1  0  0  0
  1 15  1  0  0  0
  5 16  1  0  0  0
 21 25  1  0  0  0
M  END
> <minimizedAffinity>
5.68580

> <CNNscore>
0.4421833754

> <CNNaffinity>
5.4309439659

> <CNN_VS>
2.4014730453

> <CNNaffinity_variance>
1.4276534319

$$$$
[H]Oc1c([H])c([H])c(-n2c([H])c(Br)c3c([H])c(O[H])c([H])c(O[H])c3c2=O)c([H])c1F


 25 27  0  0  0  0  0  0  0  0999 V2000
  -10.6140   -5.7377    7.7222 O   0  0  0  0  0  0  0  0  0  0  0  0
  -11.8373   -6.3713    7.7229 C   0  0  0  0  0  0  0  0  0  0  0  0
  -12.0956   -7.4986    8.4691 C   0  0  0  0  0  0  0  0  0  0  0  0
  -13.3031   -8.1248    8.4702 C   0  0  0  0  0  0  0  0  0  0  0  0
  -13.5188   -9.2576    9.2371 O   0  0  0  0  0  0  0  0  0  0  0  0
  -14.3181   -7.5926    7.6766 C   0  0  0  0  0  0  0  0  0  0  0  0
  -14.1112   -6.4650    6.9103 C   0  0  0  0  0  0  0  0  0  0  0  0
  -12.8710   -5.8653    6.9416 C   0  0  0  0  0  0  0  0  0  0  0  0
  -15.1703   -6.0083    6.1562 C   0  0  0  0  0  0  0  0  0  0  0  0
  -14.9354   -4.4546    5.0807 Br  0  0  0  0  0  0  0  0  0  0  0  0
  -16.3998   -6.6325    6.1474 C   0  0  0  0  0  0  0  0  0  0  0  0
  -16.5835   -7.7254    6.8966 N   0  0  0  0  0  0  0  0  0  0  0  0
  -15.5552   -8.1855    7.6413 C   0  0  0  0  0  0  0  0  0  0  0  0
  -15.7115   -9.2166    8.3548 O   0  0  0  0  0  0  0  0  0  0  0  0
   -9.8359   -6.0425    8.2532 H   0  0  0  0  0  0  0  0  0  0  0  0
  -12.7698   -9.6145    9.7958 H   0  0  0  0  0  0  0  0  0  0  0  0
  -17.8550   -8.3639    6.8822 C   0  0  0  0  0  0  0  0  0  0  0  0
  -18.6858   -8.3167    7.9763 C   0  0  0  0  0  0  0  0  0  0  0  0
  -19.9103   -8.9386    7.9456 C   0  0  0  0  0  0  0  0  0  0  0  0
  -20.3562   -9.6314    6.8264 C   0  0  0  0  0  0  0  0  0  0  0  0
  -21.5982  -10.2619    6.7958 O   0  0  0  0  0  0  0  0  0  0  0  0
  -19.5118   -9.6696    5.7377 C   0  0  0  0  0  0  0  0  0  0  0  0
  -19.9267  -10.3454    4.6222 F   0  0  0  0  0  0  0  0  0  0  0  0
  -18.2712   -9.0438    5.7587 C   0  0  0  0  0  0  0  0  0  0  0  0
  -22.1711  -10.1930    7.6367 H   0  0  0  0  0  0  0  0  0  0  0  0
  1  2  1  0  0  0
  2  3  2  0  0  0
  3  4  1  0  0  0
  4  5  1  0  0  0
  4  6  2  0  0  0
  6  7  1  0  0  0
  7  8  2  0  0  0
  7  9  1  0  0  0
  9 10  1  0  0  0
  9 11  2  0  0  0
 11 12  1  0  0  0
 12 17  1  0  0  0
 17 18  2  0  0  0
 18 19  1  0  0  0
 19 20  2  0  0  0
 20 21  1  0  0  0
 20 22  1  0  0  0
 22 23  1  0  0  0
 22 24  2  0  0  0
 12 13  1  0  0  0
 13 14  2  0  0  0
  8  2  1  0  0  0
 24 17  1  0  0  0
 13  6  1  0  0  0
  1 15  1  0  0  0
  5 16  1  0  0  0
 21 25  1  0  0  0
M  END
> <minimizedAffinity>
10.08211

> <CNNscore>
0.4137456417

> <CNNaffinity>
6.1019935608

> <CNN_VS>
2.5246732235

> <CNNaffinity_variance>
2.2966094017

$$$$
[H]Oc1c([H])c([H])c(-n2c([H])c(Br)c3c([H])c(O[H])c([H])c(O[H])c3c2=O)c([H])c1F


 25 27  0  0  0  0  0  0  0  0999 V2000
  -12.7855   -6.2105   11.2927 O   0  0  0  0  0  0  0  0  0  0  0  0
  -11.6855   -6.3930   10.4836 C   0  0  0  0  0  0  0  0  0  0  0  0
  -11.7833   -6.6613    9.1372 C   0  0  0  0  0  0  0  0  0  0  0  0
  -10.6976   -6.8417    8.3378 C   0  0  0  0  0  0  0  0  0  0  0  0
  -10.8428   -7.1100    6.9869 O   0  0  0  0  0  0  0  0  0  0  0  0
   -9.4336   -6.7484    8.9181 C   0  0  0  0  0  0  0  0  0  0  0  0
   -9.2807   -6.4816   10.2624 C   0  0  0  0  0  0  0  0  0  0  0  0
  -10.4101   -6.3065   11.0322 C   0  0  0  0  0  0  0  0  0  0  0  0
   -7.9945   -6.4071   10.7513 C   0  0  0  0  0  0  0  0  0  0  0  0
   -7.7301   -6.0409   12.6011 Br  0  0  0  0  0  0  0  0  0  0  0  0
   -6.8847   -6.5876    9.9531 C   0  0  0  0  0  0  0  0  0  0  0  0
   -7.0509   -6.8458    8.6511 N   0  0  0  0  0  0  0  0  0  0  0  0
   -8.3052   -6.9219    8.1566 C   0  0  0  0  0  0  0  0  0  0  0  0
   -8.4802   -7.1649    6.9290 O   0  0  0  0  0  0  0  0  0  0  0  0
  -13.7203   -6.2582   10.9698 H   0  0  0  0  0  0  0  0  0  0  0  0
  -11.7637   -7.1705    6.6010 H   0  0  0  0  0  0  0  0  0  0  0  0
   -5.9008   -7.0308    7.8339 C   0  0  0  0  0  0  0  0  0  0  0  0
   -5.7704   -8.1394    7.0317 C   0  0  0  0  0  0  0  0  0  0  0  0
   -4.6534   -8.3026    6.2489 C   0  0  0  0  0  0  0  0  0  0  0  0
   -3.6230   -7.3701    6.2332 C   0  0  0  0  0  0  0  0  0  0  0  0
   -2.4904   -7.5361    5.4390 O   0  0  0  0  0  0  0  0  0  0  0  0
   -3.7686   -6.2642    7.0428 C   0  0  0  0  0  0  0  0  0  0  0  0
   -2.7681   -5.3304    7.0463 F   0  0  0  0  0  0  0  0  0  0  0  0
   -4.8946   -6.0899    7.8385 C   0  0  0  0  0  0  0  0  0  0  0  0
   -2.4491   -8.3779    4.8649 H   0  0  0  0  0  0  0  0  0  0  0  0
  1  2  1  0  0  0
  2  3  2  0  0  0
  3  4  1  0  0  0
  4  5  1  0  0  0
  4  6  2  0  0  0
  6  7  1  0  0  0
  7  8  2  0  0  0
  7  9  1  0  0  0
  9 10  1  0  0  0
  9 11  2  0  0  0
 11 12  1  0  0  0
 12 17  1  0  0  0
 17 18  2  0  0  0
 18 19  1  0  0  0
 19 20  2  0  0  0
 20 21  1  0  0  0
 20 22  1  0  0  0
 22 23  1  0  0  0
 22 24  2  0  0  0
 12 13  1  0  0  0
 13 14  2  0  0  0
  8  2  1  0  0  0
 24 17  1  0  0  0
 13  6  1  0  0  0
  1 15  1  0  0  0
  5 16  1  0  0  0
 21 25  1  0  0  0
M  END
> <minimizedAffinity>
9.94333

> <CNNscore>
0.3869999945

> <CNNaffinity>
5.0635766983

> <CNN_VS>
1.9596041441

> <CNNaffinity_variance>
0.5138838887

$$$$
[H]Oc1c([H])c([H])c(-n2c([H])c(Br)c3c([H])c(O[H])c([H])c(O[H])c3c2=O)c([H])c1F


 25 27  0  0  0  0  0  0  0  0999 V2000
   -4.9851   -2.0614    4.3206 O   0  0  0  0  0  0  0  0  0  0  0  0
   -4.3855   -3.2228    4.7560 C   0  0  0  0  0  0  0  0  0  0  0  0
   -3.0260   -3.3416    4.9343 C   0  0  0  0  0  0  0  0  0  0  0  0
   -2.4333   -4.4880    5.3641 C   0  0  0  0  0  0  0  0  0  0  0  0
   -1.0604   -4.5629    5.5297 O   0  0  0  0  0  0  0  0  0  0  0  0
   -3.2486   -5.5862    5.6334 C   0  0  0  0  0  0  0  0  0  0  0  0
   -4.6163   -5.5196    5.4710 C   0  0  0  0  0  0  0  0  0  0  0  0
   -5.1713   -4.3367    5.0332 C   0  0  0  0  0  0  0  0  0  0  0  0
   -5.3447   -6.6530    5.7605 C   0  0  0  0  0  0  0  0  0  0  0  0
   -7.2370   -6.6123    5.5523 Br  0  0  0  0  0  0  0  0  0  0  0  0
   -4.7578   -7.8219    6.1969 C   0  0  0  0  0  0  0  0  0  0  0  0
   -3.4296   -7.8694    6.3491 N   0  0  0  0  0  0  0  0  0  0  0  0
   -2.7017   -6.7668    6.0694 C   0  0  0  0  0  0  0  0  0  0  0  0
   -1.4460   -6.7944    6.2078 O   0  0  0  0  0  0  0  0  0  0  0  0
   -4.4881   -1.2326    4.1052 H   0  0  0  0  0  0  0  0  0  0  0  0
   -0.5032   -3.7569    5.3279 H   0  0  0  0  0  0  0  0  0  0  0  0
   -2.8313   -9.0792    6.7999 C   0  0  0  0  0  0  0  0  0  0  0  0
   -2.6855  -10.1561    5.9581 C   0  0  0  0  0  0  0  0  0  0  0  0
   -2.1057  -11.3167    6.4095 C   0  0  0  0  0  0  0  0  0  0  0  0
   -1.6485  -11.4517    7.7150 C   0  0  0  0  0  0  0  0  0  0  0  0
   -1.0604  -12.6291    8.1723 O   0  0  0  0  0  0  0  0  0  0  0  0
   -1.8019  -10.3633    8.5465 C   0  0  0  0  0  0  0  0  0  0  0  0
   -1.3600  -10.4697    9.8375 F   0  0  0  0  0  0  0  0  0  0  0  0
   -2.3872   -9.1848    8.0996 C   0  0  0  0  0  0  0  0  0  0  0  0
   -0.9791  -13.3941    7.5028 H   0  0  0  0  0  0  0  0  0  0  0  0
  1  2  1  0  0  0
  2  3  2  0  0  0
  3  4  1  0  0  0
  4  5  1  0  0  0
  4  6  2  0  0  0
  6  7  1  0  0  0
  7  8  2  0  0  0
  7  9  1  0  0  0
  9 10  1  0  0  0
  9 11  2  0  0  0
 11 12  1  0  0  0
 12 17  1  0  0  0
 17 18  2  0  0  0
 18 19  1  0  0  0
 19 20  2  0  0  0
 20 21  1  0  0  0
 20 22  1  0  0  0
 22 23  1  0  0  0
 22 24  2  0  0  0
 12 13  1  0  0  0
 13 14  2  0  0  0
  8  2  1  0  0  0
 24 17  1  0  0  0
 13  6  1  0  0  0
  1 15  1  0  0  0
  5 16  1  0  0  0
 21 25  1  0  0  0
M  END
> <minimizedAffinity>
0.27947

> <CNNscore>
0.3851324618

> <CNNaffinity>
4.9238729477

> <CNN_VS>
1.8963433504

> <CNNaffinity_variance>
0.9279420972

$$$$
[H]/C(=C1/SC(=O)N(C([H])([H])[C@]2([H])N([H])C([H])([H])C([H])([H])OC2([H])[H])C1=O)c1c([H])c([H])c2c(c([H])nn2C([H])([H])c2c([H])c([H])c(Cl)c([H])c2C(F)(F)F)c1[H]


 37 41  0  0  0  0  0  0  0  0999 V2000
  -14.2164   -8.5840    7.6564 N   0  0  0  0  0  0  0  0  0  0  0  0
  -14.1789   -9.8010    7.1621 N   0  0  0  0  0  0  0  0  0  0  0  0
  -12.9066  -10.2354    7.1360 C   0  0  0  0  0  0  0  0  0  0  0  0
  -12.1295   -9.2197    7.6454 C   0  0  0  0  0  0  0  0  0  0  0  0
  -10.7792   -9.0878    7.8610 C   0  0  0  0  0  0  0  0  0  0  0  0
  -10.2454   -7.9201    8.4032 C   0  0  0  0  0  0  0  0  0  0  0  0
  -11.0722   -6.8897    8.7260 C   0  0  0  0  0  0  0  0  0  0  0  0
  -12.4337   -7.0368    8.5032 C   0  0  0  0  0  0  0  0  0  0  0  0
  -12.9722   -8.1876    7.9676 C   0  0  0  0  0  0  0  0  0  0  0  0
   -8.8005   -7.9054    8.5721 C   0  0  0  0  0  0  0  0  0  0  0  0
   -8.0120   -7.2311    7.7844 C   0  0  0  0  0  0  0  0  0  0  0  0
   -8.5011   -6.2043    6.3687 S   0  0  0  0  0  0  0  0  0  0  0  0
   -6.9049   -6.3976    5.5265 C   0  0  0  0  0  0  0  0  0  0  0  0
   -6.6896   -6.3167    4.2870 O   0  0  0  0  0  0  0  0  0  0  0  0
   -5.9980   -6.6534    6.5840 N   0  0  0  0  0  0  0  0  0  0  0  0
   -6.5603   -7.0940    7.7844 C   0  0  0  0  0  0  0  0  0  0  0  0
   -5.8612   -7.3688    8.8400 O   0  0  0  0  0  0  0  0  0  0  0  0
   -4.5394   -6.4594    6.4149 C   0  0  0  0  0  0  0  0  0  0  0  0
   -4.2706   -4.9662    6.5330 C   0  0  0  0  0  0  0  0  0  0  0  0
   -2.8593   -4.7284    7.0178 C   0  0  0  0  0  0  0  0  0  0  0  0
   -1.8984   -5.2729    6.2037 O   0  0  0  0  0  0  0  0  0  0  0  0
   -2.0770   -4.9449    4.8717 C   0  0  0  0  0  0  0  0  0  0  0  0
   -3.1612   -3.9077    4.6705 C   0  0  0  0  0  0  0  0  0  0  0  0
   -4.4148   -4.2709    5.2852 N   0  0  0  0  0  0  0  0  0  0  0  0
   -4.9756   -3.3761    5.3870 H   0  0  0  0  0  0  0  0  0  0  0  0
  -15.3895   -7.7650    7.8512 C   0  0  0  0  0  0  0  0  0  0  0  0
  -15.7721   -6.6999    5.6633 C   0  0  0  0  0  0  0  0  0  0  0  0
  -16.5189   -6.5606    4.4858 C   0  0  0  0  0  0  0  0  0  0  0  0
  -17.6537   -7.3053    4.2513 C   0  0  0  0  0  0  0  0  0  0  0  0
  -18.6032   -7.1506    2.7930 Cl  0  0  0  0  0  0  0  0  0  0  0  0
  -18.0440   -8.2004    5.2089 C   0  0  0  0  0  0  0  0  0  0  0  0
  -17.3116   -8.3440    6.3751 C   0  0  0  0  0  0  0  0  0  0  0  0
  -16.1693   -7.5952    6.6122 C   0  0  0  0  0  0  0  0  0  0  0  0
  -13.4365   -6.5464    5.4118 F   0  0  0  0  0  0  0  0  0  0  0  0
  -14.5714   -5.8546    5.8329 C   0  0  0  0  0  0  0  0  0  0  0  0
  -14.6802   -4.7235    5.0099 F   0  0  0  0  0  0  0  0  0  0  0  0
  -14.4323   -5.3497    7.1073 F   0  0  0  0  0  0  0  0  0  0  0  0
 34 35  1  0  0  0
 35 36  1  0  0  0
 35 37  1  0  0  0
 35 27  1  0  0  0
 27 28  2  0  0  0
 28 29  1  0  0  0
 29 30  1  0  0  0
 29 31  2  0  0  0
 31 32  1  0  0  0
 32 33  2  0  0  0
 33 26  1  0  0  0
 26  1  1  0  0  0
  1  2  1  0  0  0
  2  3  2  0  0  0
  3  4  1  0  0  0
  4  5  2  0  0  0
  5  6  1  0  0  0
  6 10  1  0  0  0
 10 11  2  0  0  0
 11 12  1  0  0  0
 12 13  1  0  0  0
 13 14  2  0  0  0
 13 15  1  0  0  0
 15 18  1  0  0  0
 18 19  1  0  0  0
 19 20  1  0  0  0
 20 21  1  0  0  0
 21 22  1  0  0  0
 22 23  1  0  0  0
 23 24  1  0  0  0
 15 16  1  0  0  0
 16 17  2  0  0  0
  6  7  2  0  0  0
  7  8  1  0  0  0
  8  9  2  0  0  0
 33 27  1  0  0  0
  9  1  1  0  0  0
  9  4  1  0  0  0
 16 11  1  0  0  0
 24 19  1  0  0  0
 24 25  1  0  0  0
M  END
> <minimizedAffinity>
-7.26796

> <CNNscore>
0.3851341307

> <CNNaffinity>
7.1691446304

> <CNN_VS>
2.7610821724

> <CNNaffinity_variance>
0.2266406119

$$$$
[H]/C(=C1/SC(=O)N(C([H])([H])[C@]2([H])N([H])C([H])([H])C([H])([H])OC2([H])[H])C1=O)c1c([H])c([H])c2c(c([H])nn2C([H])([H])c2c([H])c([H])c(Cl)c([H])c2C(F)(F)F)c1[H]


 37 41  0  0  0  0  0  0  0  0999 V2000
  -11.5044   -6.7877    9.4217 N   0  0  0  0  0  0  0  0  0  0  0  0
  -10.3931   -6.1123    9.2325 N   0  0  0  0  0  0  0  0  0  0  0  0
   -9.6170   -6.7645    8.3490 C   0  0  0  0  0  0  0  0  0  0  0  0
  -10.3009   -7.9016    7.9827 C   0  0  0  0  0  0  0  0  0  0  0  0
  -10.0134   -8.9355    7.1252 C   0  0  0  0  0  0  0  0  0  0  0  0
  -10.9079   -9.9877    6.9374 C   0  0  0  0  0  0  0  0  0  0  0  0
  -12.0879   -9.9955    7.6134 C   0  0  0  0  0  0  0  0  0  0  0  0
  -12.3654   -8.9448    8.4759 C   0  0  0  0  0  0  0  0  0  0  0  0
  -11.4878   -7.8989    8.6688 C   0  0  0  0  0  0  0  0  0  0  0  0
  -10.4790  -11.0231    6.0098 C   0  0  0  0  0  0  0  0  0  0  0  0
   -9.3763  -10.9321    5.3224 C   0  0  0  0  0  0  0  0  0  0  0  0
   -8.1773   -9.5686    5.3580 S   0  0  0  0  0  0  0  0  0  0  0  0
   -7.5712   -9.9014    3.6799 C   0  0  0  0  0  0  0  0  0  0  0  0
   -7.0440   -9.0737    2.8886 O   0  0  0  0  0  0  0  0  0  0  0  0
   -7.8345  -11.2811    3.4971 N   0  0  0  0  0  0  0  0  0  0  0  0
   -8.7835  -11.8456    4.3528 C   0  0  0  0  0  0  0  0  0  0  0  0
   -9.1304  -13.0930    4.3080 O   0  0  0  0  0  0  0  0  0  0  0  0
   -7.1360  -12.0697    2.4559 C   0  0  0  0  0  0  0  0  0  0  0  0
   -7.6410  -11.5761    1.1078 C   0  0  0  0  0  0  0  0  0  0  0  0
   -7.1854  -12.5078    0.0089 C   0  0  0  0  0  0  0  0  0  0  0  0
   -7.6063  -13.8030    0.1752 O   0  0  0  0  0  0  0  0  0  0  0  0
   -8.9613  -13.8958    0.4379 C   0  0  0  0  0  0  0  0  0  0  0  0
   -9.6753  -12.5707    0.2754 C   0  0  0  0  0  0  0  0  0  0  0  0
   -9.0733  -11.5047    1.0386 N   0  0  0  0  0  0  0  0  0  0  0  0
   -9.4093  -10.5944    0.6094 H   0  0  0  0  0  0  0  0  0  0  0  0
  -12.5977   -6.4280   10.2935 C   0  0  0  0  0  0  0  0  0  0  0  0
  -12.2007   -4.3173   11.4998 C   0  0  0  0  0  0  0  0  0  0  0  0
  -11.7805   -3.6230   12.6421 C   0  0  0  0  0  0  0  0  0  0  0  0
  -11.3102   -4.2770   13.7595 C   0  0  0  0  0  0  0  0  0  0  0  0
  -10.7793   -3.4359   15.1956 Cl  0  0  0  0  0  0  0  0  0  0  0  0
  -11.2609   -5.6435   13.7309 C   0  0  0  0  0  0  0  0  0  0  0  0
  -11.6743   -6.3370   12.6060 C   0  0  0  0  0  0  0  0  0  0  0  0
  -12.1479   -5.6799   11.4810 C   0  0  0  0  0  0  0  0  0  0  0  0
  -13.6186   -4.2738    9.6211 F   0  0  0  0  0  0  0  0  0  0  0  0
  -12.6849   -3.5328   10.3443 C   0  0  0  0  0  0  0  0  0  0  0  0
  -13.3524   -2.3887   10.8073 F   0  0  0  0  0  0  0  0  0  0  0  0
  -11.6709   -3.0493    9.5467 F   0  0  0  0  0  0  0  0  0  0  0  0
 34 35  1  0  0  0
 35 36  1  0  0  0
 35 37  1  0  0  0
 35 27  1  0  0  0
 27 28  2  0  0  0
 28 29  1  0  0  0
 29 30  1  0  0  0
 29 31  2  0  0  0
 31 32  1  0  0  0
 32 33  2  0  0  0
 33 26  1  0  0  0
 26  1  1  0  0  0
  1  2  1  0  0  0
  2  3  2  0  0  0
  3  4  1  0  0  0
  4  5  2  0  0  0
  5  6  1  0  0  0
  6 10  1  0  0  0
 10 11  2  0  0  0
 11 12  1  0  0  0
 12 13  1  0  0  0
 13 14  2  0  0  0
 13 15  1  0  0  0
 15 18  1  0  0  0
 18 19  1  0  0  0
 19 20  1  0  0  0
 20 21  1  0  0  0
 21 22  1  0  0  0
 22 23  1  0  0  0
 23 24  1  0  0  0
 15 16  1  0  0  0
 16 17  2  0  0  0
  6  7  2  0  0  0
  7  8  1  0  0  0
  8  9  2  0  0  0
 33 27  1  0  0  0
  9  1  1  0  0  0
  9  4  1  0  0  0
 16 11  1  0  0  0
 24 19  1  0  0  0
 24 25  1  0  0  0
M  END
> <minimizedAffinity>
26.11583

> <CNNscore>
0.3364010453

> <CNNaffinity>
6.0161886215

> <CNN_VS>
2.0238521099

> <CNNaffinity_variance>
0.6518697739

$$$$
[H]/C(=C1/SC(=O)N(C([H])([H])[C@]2([H])N([H])C([H])([H])C([H])([H])OC2([H])[H])C1=O)c1c([H])c([H])c2c(c([H])nn2C([H])([H])c2c([H])c([H])c(Cl)c([H])c2C(F)(F)F)c1[H]


 37 41  0  0  0  0  0  0  0  0999 V2000
  -13.6628   -7.6472    6.1192 N   0  0  0  0  0  0  0  0  0  0  0  0
  -13.9009   -6.3647    6.2790 N   0  0  0  0  0  0  0  0  0  0  0  0
  -12.8352   -5.7789    6.8527 C   0  0  0  0  0  0  0  0  0  0  0  0
  -11.8974   -6.7670    7.0509 C   0  0  0  0  0  0  0  0  0  0  0  0
  -10.6335   -6.7682    7.5891 C   0  0  0  0  0  0  0  0  0  0  0  0
   -9.8844   -7.9407    7.6696 C   0  0  0  0  0  0  0  0  0  0  0  0
  -10.4099   -9.1073    7.2087 C   0  0  0  0  0  0  0  0  0  0  0  0
  -11.6872   -9.0913    6.6673 C   0  0  0  0  0  0  0  0  0  0  0  0
  -12.4368   -7.9371    6.5826 C   0  0  0  0  0  0  0  0  0  0  0  0
   -8.5655   -7.8074    8.2690 C   0  0  0  0  0  0  0  0  0  0  0  0
   -7.4828   -7.6851    7.5551 C   0  0  0  0  0  0  0  0  0  0  0  0
   -7.3683   -7.6512    5.7430 S   0  0  0  0  0  0  0  0  0  0  0  0
   -5.6585   -8.2599    5.7220 C   0  0  0  0  0  0  0  0  0  0  0  0
   -5.0928   -8.8926    4.7898 O   0  0  0  0  0  0  0  0  0  0  0  0
   -5.1442   -7.8547    6.9780 N   0  0  0  0  0  0  0  0  0  0  0  0
   -6.0889   -7.5466    7.9599 C   0  0  0  0  0  0  0  0  0  0  0  0
   -5.7734   -7.1617    9.1560 O   0  0  0  0  0  0  0  0  0  0  0  0
   -3.6863   -7.7652    7.2234 C   0  0  0  0  0  0  0  0  0  0  0  0
   -3.1771   -6.5554    6.4534 C   0  0  0  0  0  0  0  0  0  0  0  0
   -4.1670   -5.4184    6.5570 C   0  0  0  0  0  0  0  0  0  0  0  0
   -4.4235   -5.0275    7.8469 O   0  0  0  0  0  0  0  0  0  0  0  0
   -3.2703   -4.8113    8.5798 C   0  0  0  0  0  0  0  0  0  0  0  0
   -2.0220   -4.8613    7.7247 C   0  0  0  0  0  0  0  0  0  0  0  0
   -1.9180   -6.0694    6.9431 N   0  0  0  0  0  0  0  0  0  0  0  0
   -1.2333   -5.8674    6.1583 H   0  0  0  0  0  0  0  0  0  0  0  0
  -14.5522   -8.6269    5.5412 C   0  0  0  0  0  0  0  0  0  0  0  0
  -16.7605   -7.6172    5.9554 C   0  0  0  0  0  0  0  0  0  0  0  0
  -17.9485   -7.0412    5.4857 C   0  0  0  0  0  0  0  0  0  0  0  0
  -18.1954   -6.8768    4.1406 C   0  0  0  0  0  0  0  0  0  0  0  0
  -19.6678   -6.1631    3.5285 Cl  0  0  0  0  0  0  0  0  0  0  0  0
  -17.2396   -7.2948    3.2562 C   0  0  0  0  0  0  0  0  0  0  0  0
  -16.0631   -7.8649    3.7122 C   0  0  0  0  0  0  0  0  0  0  0  0
  -15.8134   -8.0308    5.0657 C   0  0  0  0  0  0  0  0  0  0  0  0
  -15.7771   -8.8629    7.6942 F   0  0  0  0  0  0  0  0  0  0  0  0
  -16.5834   -7.7599    7.4160 C   0  0  0  0  0  0  0  0  0  0  0  0
  -15.9094   -6.6345    7.9139 F   0  0  0  0  0  0  0  0  0  0  0  0
  -17.7723   -7.7935    8.1114 F   0  0  0  0  0  0  0  0  0  0  0  0
 34 35  1  0  0  0
 35 36  1  0  0  0
 35 37  1  0  0  0
 35 27  1  0  0  0
 27 28  2  0  0  0
 28 29  1  0  0  0
 29 30  1  0  0  0
 29 31  2  0  0  0
 31 32  1  0  0  0
 32 33  2  0  0  0
 33 26  1  0  0  0
 26  1  1  0  0  0
  1  2  1  0  0  0
  2  3  2  0  0  0
  3  4  1  0  0  0
  4  5  2  0  0  0
  5  6  1  0  0  0
  6 10  1  0  0  0
 10 11  2  0  0  0
 11 12  1  0  0  0
 12 13  1  0  0  0
 13 14  2  0  0  0
 13 15  1  0  0  0
 15 18  1  0  0  0
 18 19  1  0  0  0
 19 20  1  0  0  0
 20 21  1  0  0  0
 21 22  1  0  0  0
 22 23  1  0  0  0
 23 24  1  0  0  0
 15 16  1  0  0  0
 16 17  2  0  0  0
  6  7  2  0  0  0
  7  8  1  0  0  0
  8  9  2  0  0  0
 33 27  1  0  0  0
  9  1  1  0  0  0
  9  4  1  0  0  0
 16 11  1  0  0  0
 24 19  1  0  0  0
 24 25  1  0  0  0
M  END
> <minimizedAffinity>
1.37064

> <CNNscore>
0.3098853827

> <CNNaffinity>
6.4489793777

> <CNN_VS>
1.9984444380

> <CNNaffinity_variance>
0.4416852891

$$$$
[H]/C(=C1/SC(=O)N(C([H])([H])[C@]2([H])N([H])C([H])([H])C([H])([H])OC2([H])[H])C1=O)c1c([H])c([H])c2c(c([H])nn2C([H])([H])c2c([H])c([H])c(Cl)c([H])c2C(F)(F)F)c1[H]


 37 41  0  0  0  0  0  0  0  0999 V2000
  -12.1736   -8.6771    7.8695 N   0  0  0  0  0  0  0  0  0  0  0  0
  -12.2153   -7.4929    8.4378 N   0  0  0  0  0  0  0  0  0  0  0  0
  -10.9647   -7.0200    8.5809 C   0  0  0  0  0  0  0  0  0  0  0  0
  -10.1173   -7.9759    8.0680 C   0  0  0  0  0  0  0  0  0  0  0  0
   -8.7514   -8.0500    7.9419 C   0  0  0  0  0  0  0  0  0  0  0  0
   -8.1387   -9.1634    7.3696 C   0  0  0  0  0  0  0  0  0  0  0  0
   -8.9026  -10.1977    6.9269 C   0  0  0  0  0  0  0  0  0  0  0  0
  -10.2807  -10.1093    7.0603 C   0  0  0  0  0  0  0  0  0  0  0  0
  -10.8971   -9.0125    7.6246 C   0  0  0  0  0  0  0  0  0  0  0  0
   -6.6860   -9.1205    7.3039 C   0  0  0  0  0  0  0  0  0  0  0  0
   -6.0311   -8.0293    7.0259 C   0  0  0  0  0  0  0  0  0  0  0  0
   -6.7358   -6.3926    6.6763 S   0  0  0  0  0  0  0  0  0  0  0  0
   -5.3084   -5.8583    5.6907 C   0  0  0  0  0  0  0  0  0  0  0  0
   -5.3045   -4.9942    4.7728 O   0  0  0  0  0  0  0  0  0  0  0  0
   -4.2400   -6.6354    6.2016 N   0  0  0  0  0  0  0  0  0  0  0  0
   -4.5984   -7.7852    6.9094 C   0  0  0  0  0  0  0  0  0  0  0  0
   -3.7353   -8.5954    7.4359 O   0  0  0  0  0  0  0  0  0  0  0  0
   -2.8280   -6.2401    5.9921 C   0  0  0  0  0  0  0  0  0  0  0  0
   -2.4543   -5.2990    7.1282 C   0  0  0  0  0  0  0  0  0  0  0  0
   -1.1434   -4.6116    6.8243 C   0  0  0  0  0  0  0  0  0  0  0  0
   -1.1578   -3.8895    5.6578 O   0  0  0  0  0  0  0  0  0  0  0  0
   -2.2482   -3.0432    5.5658 C   0  0  0  0  0  0  0  0  0  0  0  0
   -3.0390   -2.9744    6.8549 C   0  0  0  0  0  0  0  0  0  0  0  0
   -3.4325   -4.2715    7.3488 N   0  0  0  0  0  0  0  0  0  0  0  0
   -3.6617   -4.1500    8.3775 H   0  0  0  0  0  0  0  0  0  0  0  0
  -13.2994   -9.5198    7.5423 C   0  0  0  0  0  0  0  0  0  0  0  0
  -15.3086   -8.2847    6.8315 C   0  0  0  0  0  0  0  0  0  0  0  0
  -16.1050   -7.7221    5.8251 C   0  0  0  0  0  0  0  0  0  0  0  0
  -15.7603   -7.8027    4.4939 C   0  0  0  0  0  0  0  0  0  0  0  0
  -16.7353   -7.1113    3.2198 Cl  0  0  0  0  0  0  0  0  0  0  0  0
  -14.6032   -8.4550    4.1682 C   0  0  0  0  0  0  0  0  0  0  0  0
  -13.8108   -9.0137    5.1567 C   0  0  0  0  0  0  0  0  0  0  0  0
  -14.1566   -8.9331    6.4967 C   0  0  0  0  0  0  0  0  0  0  0  0
  -15.0173   -7.1715    8.8852 F   0  0  0  0  0  0  0  0  0  0  0  0
  -15.7597   -8.1552    8.2332 C   0  0  0  0  0  0  0  0  0  0  0  0
  -17.0961   -7.7285    8.2530 F   0  0  0  0  0  0  0  0  0  0  0  0
  -15.7619   -9.3493    8.9205 F   0  0  0  0  0  0  0  0  0  0  0  0
 34 35  1  0  0  0
 35 36  1  0  0  0
 35 37  1  0  0  0
 35 27  1  0  0  0
 27 28  2  0  0  0
 28 29  1  0  0  0
 29 30  1  0  0  0
 29 31  2  0  0  0
 31 32  1  0  0  0
 32 33  2  0  0  0
 33 26  1  0  0  0
 26  1  1  0  0  0
  1  2  1  0  0  0
  2  3  2  0  0  0
  3  4  1  0  0  0
  4  5  2  0  0  0
  5  6  1  0  0  0
  6 10  1  0  0  0
 10 11  2  0  0  0
 11 12  1  0  0  0
 12 13  1  0  0  0
 13 14  2  0  0  0
 13 15  1  0  0  0
 15 18  1  0  0  0
 18 19  1  0  0  0
 19 20  1  0  0  0
 20 21  1  0  0  0
 21 22  1  0  0  0
 22 23  1  0  0  0
 23 24  1  0  0  0
 15 16  1  0  0  0
 16 17  2  0  0  0
  6  7  2  0  0  0
  7  8  1  0  0  0
  8  9  2  0  0  0
 33 27  1  0  0  0
  9  1  1  0  0  0
  9  4  1  0  0  0
 16 11  1  0  0  0
 24 19  1  0  0  0
 24 25  1  0  0  0
M  END
> <minimizedAffinity>
-8.94737

> <CNNscore>
0.3034095764

> <CNNaffinity>
6.9755425453

> <CNN_VS>
2.1164464951

> <CNNaffinity_variance>
0.1842719764

$$$$
[H]/C(=C1/SC(=O)N(C([H])([H])[C@]2([H])N([H])C([H])([H])C([H])([H])OC2([H])[H])C1=O)c1c([H])c([H])c2c(c([H])nn2C([H])([H])c2c([H])c([H])c(Cl)c([H])c2C(F)(F)F)c1[H]


 37 41  0  0  0  0  0  0  0  0999 V2000
  -14.1193   -8.0566    7.7207 N   0  0  0  0  0  0  0  0  0  0  0  0
  -14.3888   -7.0820    8.5600 N   0  0  0  0  0  0  0  0  0  0  0  0
  -13.2486   -6.6509    9.1276 C   0  0  0  0  0  0  0  0  0  0  0  0
  -12.2296   -7.4107    8.5992 C   0  0  0  0  0  0  0  0  0  0  0  0
  -10.8703   -7.4266    8.7964 C   0  0  0  0  0  0  0  0  0  0  0  0
  -10.0521   -8.3241    8.1126 C   0  0  0  0  0  0  0  0  0  0  0  0
  -10.6049   -9.2021    7.2334 C   0  0  0  0  0  0  0  0  0  0  0  0
  -11.9790   -9.1747    7.0438 C   0  0  0  0  0  0  0  0  0  0  0  0
  -12.7975   -8.2909    7.7148 C   0  0  0  0  0  0  0  0  0  0  0  0
   -8.6322   -8.2436    8.4190 C   0  0  0  0  0  0  0  0  0  0  0  0
   -7.8269   -7.4344    7.7917 C   0  0  0  0  0  0  0  0  0  0  0  0
   -8.2608   -6.2769    6.4614 S   0  0  0  0  0  0  0  0  0  0  0  0
   -6.5873   -6.2729    5.7587 C   0  0  0  0  0  0  0  0  0  0  0  0
   -6.2703   -6.0319    4.5626 O   0  0  0  0  0  0  0  0  0  0  0  0
   -5.7610   -6.5986    6.8621 N   0  0  0  0  0  0  0  0  0  0  0  0
   -6.3941   -7.2121    7.9457 C   0  0  0  0  0  0  0  0  0  0  0  0
   -5.7727   -7.5688    9.0251 O   0  0  0  0  0  0  0  0  0  0  0  0
   -4.3104   -6.2993    6.8559 C   0  0  0  0  0  0  0  0  0  0  0  0
   -4.1614   -4.8055    7.1054 C   0  0  0  0  0  0  0  0  0  0  0  0
   -2.8922   -4.5312    7.8781 C   0  0  0  0  0  0  0  0  0  0  0  0
   -1.7570   -4.9750    7.2481 O   0  0  0  0  0  0  0  0  0  0  0  0
   -1.6857   -4.5711    5.9269 C   0  0  0  0  0  0  0  0  0  0  0  0
   -2.7687   -3.5769    5.5654 C   0  0  0  0  0  0  0  0  0  0  0  0
   -4.0954   -4.0393    5.8930 N   0  0  0  0  0  0  0  0  0  0  0  0
   -4.7184   -3.1812    5.9264 H   0  0  0  0  0  0  0  0  0  0  0  0
  -15.0654   -8.7887    6.9122 C   0  0  0  0  0  0  0  0  0  0  0  0
  -15.9062   -7.9617    4.7496 C   0  0  0  0  0  0  0  0  0  0  0  0
  -16.7416   -7.1185    4.0048 C   0  0  0  0  0  0  0  0  0  0  0  0
  -17.5931   -6.2195    4.6084 C   0  0  0  0  0  0  0  0  0  0  0  0
  -18.6437   -5.1566    3.7038 Cl  0  0  0  0  0  0  0  0  0  0  0  0
  -17.6069   -6.1657    5.9749 C   0  0  0  0  0  0  0  0  0  0  0  0
  -16.7845   -6.9955    6.7180 C   0  0  0  0  0  0  0  0  0  0  0  0
  -15.9273   -7.9007    6.1118 C   0  0  0  0  0  0  0  0  0  0  0  0
  -15.6949  -10.0806    3.7458 F   0  0  0  0  0  0  0  0  0  0  0  0
  -15.0201   -8.8911    4.0174 C   0  0  0  0  0  0  0  0  0  0  0  0
  -14.6819   -8.3294    2.7770 F   0  0  0  0  0  0  0  0  0  0  0  0
  -13.8133   -9.1071    4.6460 F   0  0  0  0  0  0  0  0  0  0  0  0
 34 35  1  0  0  0
 35 36  1  0  0  0
 35 37  1  0  0  0
 35 27  1  0  0  0
 27 28  2  0  0  0
 28 29  1  0  0  0
 29 30  1  0  0  0
 29 31  2  0  0  0
 31 32  1  0  0  0
 32 33  2  0  0  0
 33 26  1  0  0  0
 26  1  1  0  0  0
  1  2  1  0  0  0
  2  3  2  0  0  0
  3  4  1  0  0  0
  4  5  2  0  0  0
  5  6  1  0  0  0
  6 10  1  0  0  0
 10 11  2  0  0  0
 11 12  1  0  0  0
 12 13  1  0  0  0
 13 14  2  0  0  0
 13 15  1  0  0  0
 15 18  1  0  0  0
 18 19  1  0  0  0
 19 20  1  0  0  0
 20 21  1  0  0  0
 21 22  1  0  0  0
 22 23  1  0  0  0
 23 24  1  0  0  0
 15 16  1  0  0  0
 16 17  2  0  0  0
  6  7  2  0  0  0
  7  8  1  0  0  0
  8  9  2  0  0  0
 33 27  1  0  0  0
  9  1  1  0  0  0
  9  4  1  0  0  0
 16 11  1  0  0  0
 24 19  1  0  0  0
 24 25  1  0  0  0
M  END
> <minimizedAffinity>
-8.29119

> <CNNscore>
0.2988263071

> <CNNaffinity>
6.9625654221

> <CNN_VS>
2.0805976391

> <CNNaffinity_variance>
0.0862777978

$$$$
[H]/C(=C1/SC(=O)N(C([H])([H])[C@]2([H])N([H])C([H])([H])C([H])([H])OC2([H])[H])C1=O)c1c([H])c([H])c2c(c([H])nn2C([H])([H])c2c([H])c([H])c(Cl)c([H])c2C(F)(F)F)c1[H]


 37 41  0  0  0  0  0  0  0  0999 V2000
   -7.1473   -9.2850    7.0816 N   0  0  0  0  0  0  0  0  0  0  0  0
   -6.9466   -9.8478    5.9111 N   0  0  0  0  0  0  0  0  0  0  0  0
   -8.1305  -10.0915    5.3219 C   0  0  0  0  0  0  0  0  0  0  0  0
   -9.1042   -9.6490    6.1886 C   0  0  0  0  0  0  0  0  0  0  0  0
  -10.4766   -9.6338    6.1309 C   0  0  0  0  0  0  0  0  0  0  0  0
  -11.2373   -9.1133    7.1763 C   0  0  0  0  0  0  0  0  0  0  0  0
  -10.6142   -8.6105    8.2756 C   0  0  0  0  0  0  0  0  0  0  0  0
   -9.2277   -8.6320    8.3202 C   0  0  0  0  0  0  0  0  0  0  0  0
   -8.4656   -9.1443    7.2916 C   0  0  0  0  0  0  0  0  0  0  0  0
  -12.6798   -9.1652    6.9943 C   0  0  0  0  0  0  0  0  0  0  0  0
  -13.2749   -8.6217    5.9709 C   0  0  0  0  0  0  0  0  0  0  0  0
  -12.4895   -7.7222    4.6028 S   0  0  0  0  0  0  0  0  0  0  0  0
  -13.9763   -6.7488    4.2335 C   0  0  0  0  0  0  0  0  0  0  0  0
  -14.0200   -5.6126    3.6891 O   0  0  0  0  0  0  0  0  0  0  0  0
  -15.0351   -7.5669    4.6984 N   0  0  0  0  0  0  0  0  0  0  0  0
  -14.6877   -8.5615    5.6156 C   0  0  0  0  0  0  0  0  0  0  0  0
  -15.5440   -9.3865    6.1300 O   0  0  0  0  0  0  0  0  0  0  0  0
  -16.4264   -7.3700    4.2300 C   0  0  0  0  0  0  0  0  0  0  0  0
  -17.1571   -6.5919    5.3147 C   0  0  0  0  0  0  0  0  0  0  0  0
  -16.2027   -6.2330    6.4299 C   0  0  0  0  0  0  0  0  0  0  0  0
  -15.1291   -5.4853    6.0166 O   0  0  0  0  0  0  0  0  0  0  0  0
  -15.4995   -4.3963    5.2481 C   0  0  0  0  0  0  0  0  0  0  0  0
  -16.9986   -4.1862    5.2249 C   0  0  0  0  0  0  0  0  0  0  0  0
  -17.7308   -5.3665    4.8346 N   0  0  0  0  0  0  0  0  0  0  0  0
  -18.7282   -5.2320    5.1702 H   0  0  0  0  0  0  0  0  0  0  0  0
   -6.1375   -8.8681    8.0256 C   0  0  0  0  0  0  0  0  0  0  0  0
   -5.6219   -6.5152    7.5101 C   0  0  0  0  0  0  0  0  0  0  0  0
   -4.7602   -5.5374    6.9955 C   0  0  0  0  0  0  0  0  0  0  0  0
   -3.5364   -5.8593    6.4512 C   0  0  0  0  0  0  0  0  0  0  0  0
   -2.4440   -4.6604    5.8021 Cl  0  0  0  0  0  0  0  0  0  0  0  0
   -3.1726   -7.1773    6.4229 C   0  0  0  0  0  0  0  0  0  0  0  0
   -4.0184   -8.1496    6.9293 C   0  0  0  0  0  0  0  0  0  0  0  0
   -5.2502   -7.8268    7.4774 C   0  0  0  0  0  0  0  0  0  0  0  0
   -6.7713   -5.7469    9.4155 F   0  0  0  0  0  0  0  0  0  0  0  0
   -6.9188   -6.0788    8.0694 C   0  0  0  0  0  0  0  0  0  0  0  0
   -7.3385   -4.9124    7.4122 F   0  0  0  0  0  0  0  0  0  0  0  0
   -7.9368   -6.9839    7.8632 F   0  0  0  0  0  0  0  0  0  0  0  0
 34 35  1  0  0  0
 35 36  1  0  0  0
 35 37  1  0  0  0
 35 27  1  0  0  0
 27 28  2  0  0  0
 28 29  1  0  0  0
 29 30  1  0  0  0
 29 31  2  0  0  0
 31 32  1  0  0  0
 32 33  2  0  0  0
 33 26  1  0  0  0
 26  1  1  0  0  0
  1  2  1  0  0  0
  2  3  2  0  0  0
  3  4  1  0  0  0
  4  5  2  0  0  0
  5  6  1  0  0  0
  6 10  1  0  0  0
 10 11  2  0  0  0
 11 12  1  0  0  0
 12 13  1  0  0  0
 13 14  2  0  0  0
 13 15  1  0  0  0
 15 18  1  0  0  0
 18 19  1  0  0  0
 19 20  1  0  0  0
 20 21  1  0  0  0
 21 22  1  0  0  0
 22 23  1  0  0  0
 23 24  1  0  0  0
 15 16  1  0  0  0
 16 17  2  0  0  0
  6  7  2  0  0  0
  7  8  1  0  0  0
  8  9  2  0  0  0
 33 27  1  0  0  0
  9  1  1  0  0  0
  9  4  1  0  0  0
 16 11  1  0  0  0
 24 19  1  0  0  0
 24 25  1  0  0  0
M  END
> <minimizedAffinity>
12.74081

> <CNNscore>
0.2969098687

> <CNNaffinity>
6.4678497314

> <CNN_VS>
1.9203684330

> <CNNaffinity_variance>
1.2855546474

$$$$
[H]/C(=C1/SC(=O)N(C([H])([H])[C@]2([H])N([H])C([H])([H])C([H])([H])OC2([H])[H])C1=O)c1c([H])c([H])c2c(c([H])nn2C([H])([H])c2c([H])c([H])c(Cl)c([H])c2C(F)(F)F)c1[H]


 37 41  0  0  0  0  0  0  0  0999 V2000
  -13.8269   -7.1543    7.4649 N   0  0  0  0  0  0  0  0  0  0  0  0
  -13.9866   -6.0599    8.1747 N   0  0  0  0  0  0  0  0  0  0  0  0
  -12.8027   -5.4368    8.3104 C   0  0  0  0  0  0  0  0  0  0  0  0
  -11.8727   -6.2008    7.6424 C   0  0  0  0  0  0  0  0  0  0  0  0
  -10.5205   -6.0692    7.4388 C   0  0  0  0  0  0  0  0  0  0  0  0
   -9.8057   -7.0140    6.7047 C   0  0  0  0  0  0  0  0  0  0  0  0
  -10.4541   -8.0875    6.1788 C   0  0  0  0  0  0  0  0  0  0  0  0
  -11.8198   -8.2076    6.3919 C   0  0  0  0  0  0  0  0  0  0  0  0
  -12.5365   -7.2787    7.1163 C   0  0  0  0  0  0  0  0  0  0  0  0
   -8.3792   -6.7621    6.5708 C   0  0  0  0  0  0  0  0  0  0  0  0
   -7.5640   -6.8044    7.5859 C   0  0  0  0  0  0  0  0  0  0  0  0
   -7.9896   -7.1699    9.3131 S   0  0  0  0  0  0  0  0  0  0  0  0
   -6.5746   -6.2496    9.9800 C   0  0  0  0  0  0  0  0  0  0  0  0
   -6.4904   -5.7127   11.1175 O   0  0  0  0  0  0  0  0  0  0  0  0
   -5.6250   -6.2898    8.9298 N   0  0  0  0  0  0  0  0  0  0  0  0
   -6.1250   -6.5807    7.6583 C   0  0  0  0  0  0  0  0  0  0  0  0
   -5.3814   -6.6526    6.5998 O   0  0  0  0  0  0  0  0  0  0  0  0
   -4.1868   -6.0376    9.1785 C   0  0  0  0  0  0  0  0  0  0  0  0
   -4.0132   -5.8875   10.6829 C   0  0  0  0  0  0  0  0  0  0  0  0
   -2.6906   -5.2246   10.9904 C   0  0  0  0  0  0  0  0  0  0  0  0
   -2.5492   -3.9858   10.4177 O   0  0  0  0  0  0  0  0  0  0  0  0
   -3.6359   -3.1618   10.6499 C   0  0  0  0  0  0  0  0  0  0  0  0
   -4.6127   -3.7564   11.6420 C   0  0  0  0  0  0  0  0  0  0  0  0
   -5.0408   -5.0879   11.2880 N   0  0  0  0  0  0  0  0  0  0  0  0
   -5.4249   -5.5304   12.1724 H   0  0  0  0  0  0  0  0  0  0  0  0
  -14.8507   -8.1029    7.0952 C   0  0  0  0  0  0  0  0  0  0  0  0
  -15.0517   -9.8626    8.8071 C   0  0  0  0  0  0  0  0  0  0  0  0
  -15.6885  -10.4086    9.9297 C   0  0  0  0  0  0  0  0  0  0  0  0
  -16.7795   -9.8034   10.5136 C   0  0  0  0  0  0  0  0  0  0  0  0
  -17.5923  -10.4632   11.9122 Cl  0  0  0  0  0  0  0  0  0  0  0  0
  -17.2371   -8.6370    9.9654 C   0  0  0  0  0  0  0  0  0  0  0  0
  -16.6134   -8.0911    8.8563 C   0  0  0  0  0  0  0  0  0  0  0  0
  -15.5154   -8.6991    8.2678 C   0  0  0  0  0  0  0  0  0  0  0  0
  -13.8129  -10.3619    6.8686 F   0  0  0  0  0  0  0  0  0  0  0  0
  -13.8914  -10.5839    8.2428 C   0  0  0  0  0  0  0  0  0  0  0  0
  -12.7103  -10.0708    8.8002 F   0  0  0  0  0  0  0  0  0  0  0  0
  -13.8743  -11.9252    8.5570 F   0  0  0  0  0  0  0  0  0  0  0  0
 34 35  1  0  0  0
 35 36  1  0  0  0
 35 37  1  0  0  0
 35 27  1  0  0  0
 27 28  2  0  0  0
 28 29  1  0  0  0
 29 30  1  0  0  0
 29 31  2  0  0  0
 31 32  1  0  0  0
 32 33  2  0  0  0
 33 26  1  0  0  0
 26  1  1  0  0  0
  1  2  1  0  0  0
  2  3  2  0  0  0
  3  4  1  0  0  0
  4  5  2  0  0  0
  5  6  1  0  0  0
  6 10  1  0  0  0
 10 11  2  0  0  0
 11 12  1  0  0  0
 12 13  1  0  0  0
 13 14  2  0  0  0
 13 15  1  0  0  0
 15 18  1  0  0  0
 18 19  1  0  0  0
 19 20  1  0  0  0
 20 21  1  0  0  0
 21 22  1  0  0  0
 22 23  1  0  0  0
 23 24  1  0  0  0
 15 16  1  0  0  0
 16 17  2  0  0  0
  6  7  2  0  0  0
  7  8  1  0  0  0
  8  9  2  0  0  0
 33 27  1  0  0  0
  9  1  1  0  0  0
  9  4  1  0  0  0
 16 11  1  0  0  0
 24 19  1  0  0  0
 24 25  1  0  0  0
M  END
> <minimizedAffinity>
32.44167

> <CNNscore>
0.2945125997

> <CNNaffinity>
6.0681657791

> <CNN_VS>
1.7871513367

> <CNNaffinity_variance>
1.5464423895

$$$$
[H]/C(=C1/SC(=O)N(C([H])([H])[C@]2([H])N([H])C([H])([H])C([H])([H])OC2([H])[H])C1=O)c1c([H])c([H])c2c(c([H])nn2C([H])([H])c2c([H])c([H])c(Cl)c([H])c2C(F)(F)F)c1[H]


 37 41  0  0  0  0  0  0  0  0999 V2000
  -14.2755   -8.4929    6.8127 N   0  0  0  0  0  0  0  0  0  0  0  0
  -14.0753   -9.5191    6.0165 N   0  0  0  0  0  0  0  0  0  0  0  0
  -12.7847   -9.8913    6.0805 C   0  0  0  0  0  0  0  0  0  0  0  0
  -12.1690   -9.0387    6.9688 C   0  0  0  0  0  0  0  0  0  0  0  0
  -10.8792   -8.9340    7.4299 C   0  0  0  0  0  0  0  0  0  0  0  0
  -10.5195   -7.9521    8.3513 C   0  0  0  0  0  0  0  0  0  0  0  0
  -11.4588   -7.0794    8.8048 C   0  0  0  0  0  0  0  0  0  0  0  0
  -12.7574   -7.1970    8.3309 C   0  0  0  0  0  0  0  0  0  0  0  0
  -13.1240   -8.1647    7.4196 C   0  0  0  0  0  0  0  0  0  0  0  0
   -9.1208   -7.9438    8.7514 C   0  0  0  0  0  0  0  0  0  0  0  0
   -8.2008   -7.3308    8.0625 C   0  0  0  0  0  0  0  0  0  0  0  0
   -8.4322   -6.3911    6.5259 S   0  0  0  0  0  0  0  0  0  0  0  0
   -6.7257   -6.6569    5.9676 C   0  0  0  0  0  0  0  0  0  0  0  0
   -6.3114   -6.6582    4.7770 O   0  0  0  0  0  0  0  0  0  0  0  0
   -6.0072   -6.8551    7.1722 N   0  0  0  0  0  0  0  0  0  0  0  0
   -6.7655   -7.2112    8.2900 C   0  0  0  0  0  0  0  0  0  0  0  0
   -6.2521   -7.4260    9.4599 O   0  0  0  0  0  0  0  0  0  0  0  0
   -4.5365   -6.6897    7.2307 C   0  0  0  0  0  0  0  0  0  0  0  0
   -4.2569   -5.1948    7.2851 C   0  0  0  0  0  0  0  0  0  0  0  0
   -2.8417   -4.9470    7.7532 C   0  0  0  0  0  0  0  0  0  0  0  0
   -1.8884   -5.5318    6.9584 O   0  0  0  0  0  0  0  0  0  0  0  0
   -2.0710   -5.2585    5.6147 C   0  0  0  0  0  0  0  0  0  0  0  0
   -3.1490   -4.2230    5.3750 C   0  0  0  0  0  0  0  0  0  0  0  0
   -4.4021   -4.5513    6.0099 N   0  0  0  0  0  0  0  0  0  0  0  0
   -4.9563   -3.6491    6.0766 H   0  0  0  0  0  0  0  0  0  0  0  0
  -15.5215   -7.7968    7.0302 C   0  0  0  0  0  0  0  0  0  0  0  0
  -16.8478   -6.9932    5.1164 C   0  0  0  0  0  0  0  0  0  0  0  0
  -17.1103   -6.0359    4.1273 C   0  0  0  0  0  0  0  0  0  0  0  0
  -16.3421   -4.9006    3.9911 C   0  0  0  0  0  0  0  0  0  0  0  0
  -16.6469   -3.6925    2.7665 Cl  0  0  0  0  0  0  0  0  0  0  0  0
  -15.2986   -4.7234    4.8572 C   0  0  0  0  0  0  0  0  0  0  0  0
  -15.0327   -5.6646    5.8372 C   0  0  0  0  0  0  0  0  0  0  0  0
  -15.8051   -6.8074    5.9753 C   0  0  0  0  0  0  0  0  0  0  0  0
  -18.1720   -8.3716    6.4906 F   0  0  0  0  0  0  0  0  0  0  0  0
  -17.7208   -8.1842    5.1847 C   0  0  0  0  0  0  0  0  0  0  0  0
  -18.8596   -7.9708    4.3934 F   0  0  0  0  0  0  0  0  0  0  0  0
  -17.1395   -9.3200    4.6650 F   0  0  0  0  0  0  0  0  0  0  0  0
 34 35  1  0  0  0
 35 36  1  0  0  0
 35 37  1  0  0  0
 35 27  1  0  0  0
 27 28  2  0  0  0
 28 29  1  0  0  0
 29 30  1  0  0  0
 29 31  2  0  0  0
 31 32  1  0  0  0
 32 33  2  0  0  0
 33 26  1  0  0  0
 26  1  1  0  0  0
  1  2  1  0  0  0
  2  3  2  0  0  0
  3  4  1  0  0  0
  4  5  2  0  0  0
  5  6  1  0  0  0
  6 10  1  0  0  0
 10 11  2  0  0  0
 11 12  1  0  0  0
 12 13  1  0  0  0
 13 14  2  0  0  0
 13 15  1  0  0  0
 15 18  1  0  0  0
 18 19  1  0  0  0
 19 20  1  0  0  0
 20 21  1  0  0  0
 21 22  1  0  0  0
 22 23  1  0  0  0
 23 24  1  0  0  0
 15 16  1  0  0  0
 16 17  2  0  0  0
  6  7  2  0  0  0
  7  8  1  0  0  0
  8  9  2  0  0  0
 33 27  1  0  0  0
  9  1  1  0  0  0
  9  4  1  0  0  0
 16 11  1  0  0  0
 24 19  1  0  0  0
 24 25  1  0  0  0
M  END
> <minimizedAffinity>
-7.54899

> <CNNscore>
0.2629732788

> <CNNaffinity>
6.9995756149

> <CNN_VS>
1.8407013416

> <CNNaffinity_variance>
0.1108701974

$$$$
[H]/C(=C1/SC(=O)N(C([H])([H])[C@]2([H])N([H])C([H])([H])C([H])([H])OC2([H])[H])C1=O)c1c([H])c([H])c2c(c([H])nn2C([H])([H])c2c([H])c([H])c(Cl)c([H])c2C(F)(F)F)c1[H]


 37 41  0  0  0  0  0  0  0  0999 V2000
  -12.5135   -8.7198    7.7111 N   0  0  0  0  0  0  0  0  0  0  0  0
  -12.5888   -7.5748    8.3517 N   0  0  0  0  0  0  0  0  0  0  0  0
  -11.3491   -7.1080    8.5829 C   0  0  0  0  0  0  0  0  0  0  0  0
  -10.4729   -8.0262    8.0498 C   0  0  0  0  0  0  0  0  0  0  0  0
   -9.1022   -8.0876    7.9829 C   0  0  0  0  0  0  0  0  0  0  0  0
   -8.4568   -9.1598    7.3695 C   0  0  0  0  0  0  0  0  0  0  0  0
   -9.1929  -10.1660    6.8263 C   0  0  0  0  0  0  0  0  0  0  0  0
  -10.5763  -10.0908    6.9007 C   0  0  0  0  0  0  0  0  0  0  0  0
  -11.2249   -9.0346    7.5049 C   0  0  0  0  0  0  0  0  0  0  0  0
   -7.0029   -9.1081    7.3744 C   0  0  0  0  0  0  0  0  0  0  0  0
   -6.3412   -8.0297    7.0645 C   0  0  0  0  0  0  0  0  0  0  0  0
   -7.0368   -6.4231    6.5820 S   0  0  0  0  0  0  0  0  0  0  0  0
   -5.5644   -5.9361    5.6390 C   0  0  0  0  0  0  0  0  0  0  0  0
   -5.5190   -5.1284    4.6721 O   0  0  0  0  0  0  0  0  0  0  0  0
   -4.5188   -6.6717    6.2488 N   0  0  0  0  0  0  0  0  0  0  0  0
   -4.9058   -7.7802    7.0056 C   0  0  0  0  0  0  0  0  0  0  0  0
   -4.0658   -8.5498    7.6226 O   0  0  0  0  0  0  0  0  0  0  0  0
   -3.1003   -6.2772    6.0871 C   0  0  0  0  0  0  0  0  0  0  0  0
   -2.9755   -4.8447    6.5854 C   0  0  0  0  0  0  0  0  0  0  0  0
   -3.5337   -4.7303    7.9849 C   0  0  0  0  0  0  0  0  0  0  0  0
   -2.9175   -5.5542    8.8926 O   0  0  0  0  0  0  0  0  0  0  0  0
   -1.5379   -5.4609    8.8495 C   0  0  0  0  0  0  0  0  0  0  0  0
   -1.0607   -4.3321    7.9607 C   0  0  0  0  0  0  0  0  0  0  0  0
   -1.6164   -4.3840    6.6303 N   0  0  0  0  0  0  0  0  0  0  0  0
   -1.5079   -3.4134    6.2159 H   0  0  0  0  0  0  0  0  0  0  0  0
  -13.6176   -9.5434    7.2784 C   0  0  0  0  0  0  0  0  0  0  0  0
  -15.5785   -8.1809    6.6736 C   0  0  0  0  0  0  0  0  0  0  0  0
  -16.3679   -7.5337    5.7135 C   0  0  0  0  0  0  0  0  0  0  0  0
  -16.0564   -7.5679    4.3721 C   0  0  0  0  0  0  0  0  0  0  0  0
  -17.0236   -6.7710    3.1549 Cl  0  0  0  0  0  0  0  0  0  0  0  0
  -14.9402   -8.2590    3.9892 C   0  0  0  0  0  0  0  0  0  0  0  0
  -14.1550   -8.9012    4.9317 C   0  0  0  0  0  0  0  0  0  0  0  0
  -14.4673   -8.8674    6.2818 C   0  0  0  0  0  0  0  0  0  0  0  0
  -17.3449   -7.7686    8.1742 F   0  0  0  0  0  0  0  0  0  0  0  0
  -15.9923   -8.0962    8.0901 C   0  0  0  0  0  0  0  0  0  0  0  0
  -15.8461   -9.3551    8.6922 F   0  0  0  0  0  0  0  0  0  0  0  0
  -15.2032   -7.2534    8.8419 F   0  0  0  0  0  0  0  0  0  0  0  0
 34 35  1  0  0  0
 35 36  1  0  0  0
 35 37  1  0  0  0
 35 27  1  0  0  0
 27 28  2  0  0  0
 28 29  1  0  0  0
 29 30  1  0  0  0
 29 31  2  0  0  0
 31 32  1  0  0  0
 32 33  2  0  0  0
 33 26  1  0  0  0
 26  1  1  0  0  0
  1  2  1  0  0  0
  2  3  2  0  0  0
  3  4  1  0  0  0
  4  5  2  0  0  0
  5  6  1  0  0  0
  6 10  1  0  0  0
 10 11  2  0  0  0
 11 12  1  0  0  0
 12 13  1  0  0  0
 13 14  2  0  0  0
 13 15  1  0  0  0
 15 18  1  0  0  0
 18 19  1  0  0  0
 19 20  1  0  0  0
 20 21  1  0  0  0
 21 22  1  0  0  0
 22 23  1  0  0  0
 23 24  1  0  0  0
 15 16  1  0  0  0
 16 17  2  0  0  0
  6  7  2  0  0  0
  7  8  1  0  0  0
  8  9  2  0  0  0
 33 27  1  0  0  0
  9  1  1  0  0  0
  9  4  1  0  0  0
 16 11  1  0  0  0
 24 19  1  0  0  0
 24 25  1  0  0  0
M  END
> <minimizedAffinity>
-8.93583

> <CNNscore>
0.2489258796

> <CNNaffinity>
6.9279303551

> <CNN_VS>
1.7245411873

> <CNNaffinity_variance>
0.1977328360

$$$$
[H]/C(=C1/SC(=O)N(C([H])([H])C([H])([H])N2C([H])([H])C([H])([H])C([H])([H])C2([H])[H])C1=O)c1c([H])c([H])c2c(c([H])nn2C([H])([H])c2c([H])c([H])c(OC([H])([H])[H])c([H])c2C(F)(F)F)c1[H]


 37 41  0  0  0  0  0  0  0  0999 V2000
  -13.3891   -8.5343    8.7119 N   0  0  0  0  0  0  0  0  0  0  0  0
  -13.9863   -9.5085    7.9563 N   0  0  0  0  0  0  0  0  0  0  0  0
  -13.0858  -10.1142    7.1916 C   0  0  0  0  0  0  0  0  0  0  0  0
  -11.8726   -9.5261    7.4496 C   0  0  0  0  0  0  0  0  0  0  0  0
  -10.6240   -9.7311    6.9533 C   0  0  0  0  0  0  0  0  0  0  0  0
   -9.5342   -9.0004    7.3503 C   0  0  0  0  0  0  0  0  0  0  0  0
   -9.7188   -8.0083    8.3034 C   0  0  0  0  0  0  0  0  0  0  0  0
  -10.9895   -7.8189    8.7908 C   0  0  0  0  0  0  0  0  0  0  0  0
  -12.1040   -8.5344    8.4136 C   0  0  0  0  0  0  0  0  0  0  0  0
   -8.2462   -9.2440    6.7406 C   0  0  0  0  0  0  0  0  0  0  0  0
   -7.3484   -8.3376    6.6874 C   0  0  0  0  0  0  0  0  0  0  0  0
   -7.5340   -6.6523    7.3472 S   0  0  0  0  0  0  0  0  0  0  0  0
   -5.7623   -6.5524    7.7783 C   0  0  0  0  0  0  0  0  0  0  0  0
   -5.3284   -5.9055    8.7608 O   0  0  0  0  0  0  0  0  0  0  0  0
   -5.1526   -7.3381    6.7820 N   0  0  0  0  0  0  0  0  0  0  0  0
   -5.9829   -8.3052    6.1788 C   0  0  0  0  0  0  0  0  0  0  0  0
   -5.6181   -9.1179    5.2524 O   0  0  0  0  0  0  0  0  0  0  0  0
   -3.7276   -7.1297    6.4266 C   0  0  0  0  0  0  0  0  0  0  0  0
   -3.5489   -5.8191    5.7208 C   0  0  0  0  0  0  0  0  0  0  0  0
   -2.7123   -4.8781    6.3538 N   0  0  0  0  0  0  0  0  0  0  0  0
   -3.2653   -3.6062    6.6671 C   0  0  0  0  0  0  0  0  0  0  0  0
   -2.9274   -3.3242    8.1143 C   0  0  0  0  0  0  0  0  0  0  0  0
   -1.6554   -4.1140    8.3136 C   0  0  0  0  0  0  0  0  0  0  0  0
   -1.8784   -5.3202    7.4125 C   0  0  0  0  0  0  0  0  0  0  0  0
  -14.1721   -7.7495    9.6168 C   0  0  0  0  0  0  0  0  0  0  0  0
  -11.7385   -6.2257   12.8532 C   0  0  0  0  0  0  0  0  0  0  0  0
  -12.3604   -7.4495   12.9090 C   0  0  0  0  0  0  0  0  0  0  0  0
  -13.1526   -7.8869   11.8725 C   0  0  0  0  0  0  0  0  0  0  0  0
  -13.3786   -7.1293   10.7048 C   0  0  0  0  0  0  0  0  0  0  0  0
  -12.7668   -5.9147   10.6485 C   0  0  0  0  0  0  0  0  0  0  0  0
  -11.9525   -5.4820   11.7270 C   0  0  0  0  0  0  0  0  0  0  0  0
  -12.9915   -4.9620    9.5500 C   0  0  0  0  0  0  0  0  0  0  0  0
  -13.4234   -3.7425    9.8953 F   0  0  0  0  0  0  0  0  0  0  0  0
  -11.7601   -4.9015    8.8608 F   0  0  0  0  0  0  0  0  0  0  0  0
  -13.8774   -5.4922    8.6175 F   0  0  0  0  0  0  0  0  0  0  0  0
  -11.2884   -4.5445   14.5381 C   0  0  0  0  0  0  0  0  0  0  0  0
  -10.9246   -5.7479   13.8863 O   0  0  0  0  0  0  0  0  0  0  0  0
 36 37  1  0  0  0
 37 26  1  0  0  0
 26 27  2  0  0  0
 27 28  1  0  0  0
 28 29  2  0  0  0
 29 25  1  0  0  0
 25  1  1  0  0  0
  1  2  1  0  0  0
  2  3  2  0  0  0
  3  4  1  0  0  0
  4  5  2  0  0  0
  5  6  1  0  0  0
  6 10  1  0  0  0
 10 11  2  0  0  0
 11 12  1  0  0  0
 12 13  1  0  0  0
 13 14  2  0  0  0
 13 15  1  0  0  0
 15 18  1  0  0  0
 18 19  1  0  0  0
 19 20  1  0  0  0
 20 21  1  0  0  0
 21 22  1  0  0  0
 22 23  1  0  0  0
 23 24  1  0  0  0
 15 16  1  0  0  0
 16 17  2  0  0  0
  6  7  2  0  0  0
  7  8  1  0  0  0
  8  9  2  0  0  0
 29 30  1  0  0  0
 30 31  2  0  0  0
 30 32  1  0  0  0
 32 33  1  0  0  0
 32 34  1  0  0  0
 32 35  1  0  0  0
 31 26  1  0  0  0
  9  1  1  0  0  0
  9  4  1  0  0  0
 16 11  1  0  0  0
 24 20  1  0  0  0
M  END
> <minimizedAffinity>
1.14303

> <CNNscore>
0.4546936750

> <CNNaffinity>
6.8967161179

> <CNN_VS>
3.1358931065

> <CNNaffinity_variance>
0.2446027249

$$$$
[H]/C(=C1/SC(=O)N(C([H])([H])C([H])([H])N2C([H])([H])C([H])([H])C([H])([H])C2([H])[H])C1=O)c1c([H])c([H])c2c(c([H])nn2C([H])([H])c2c([H])c([H])c(OC([H])([H])[H])c([H])c2C(F)(F)F)c1[H]


 37 41  0  0  0  0  0  0  0  0999 V2000
  -10.3691   -9.2689    7.7459 N   0  0  0  0  0  0  0  0  0  0  0  0
   -9.9514  -10.5106    7.3453 N   0  0  0  0  0  0  0  0  0  0  0  0
   -8.7865  -10.4227    6.7146 C   0  0  0  0  0  0  0  0  0  0  0  0
   -8.4316   -9.0967    6.7002 C   0  0  0  0  0  0  0  0  0  0  0  0
   -7.3626   -8.4334    6.1858 C   0  0  0  0  0  0  0  0  0  0  0  0
   -7.2156   -7.0733    6.2737 C   0  0  0  0  0  0  0  0  0  0  0  0
   -8.2053   -6.3450    6.9195 C   0  0  0  0  0  0  0  0  0  0  0  0
   -9.2766   -7.0365    7.4315 C   0  0  0  0  0  0  0  0  0  0  0  0
   -9.4542   -8.4002    7.3602 C   0  0  0  0  0  0  0  0  0  0  0  0
   -6.0744   -6.4336    5.6587 C   0  0  0  0  0  0  0  0  0  0  0  0
   -5.0685   -6.0531    6.3471 C   0  0  0  0  0  0  0  0  0  0  0  0
   -4.9102   -6.2474    8.1491 S   0  0  0  0  0  0  0  0  0  0  0  0
   -3.1008   -6.4665    8.0352 C   0  0  0  0  0  0  0  0  0  0  0  0
   -2.4447   -7.1923    8.8194 O   0  0  0  0  0  0  0  0  0  0  0  0
   -2.7573   -5.6668    6.9289 N   0  0  0  0  0  0  0  0  0  0  0  0
   -3.7966   -5.4284    6.0060 C   0  0  0  0  0  0  0  0  0  0  0  0
   -3.6873   -4.7260    4.9354 O   0  0  0  0  0  0  0  0  0  0  0  0
   -1.3800   -5.1357    6.7830 C   0  0  0  0  0  0  0  0  0  0  0  0
   -1.0626   -4.1864    7.8992 C   0  0  0  0  0  0  0  0  0  0  0  0
   -1.4882   -2.8541    7.7256 N   0  0  0  0  0  0  0  0  0  0  0  0
   -1.4592   -2.3162    6.4098 C   0  0  0  0  0  0  0  0  0  0  0  0
   -2.8097   -1.6805    6.1647 C   0  0  0  0  0  0  0  0  0  0  0  0
   -3.2528   -1.3049    7.5590 C   0  0  0  0  0  0  0  0  0  0  0  0
   -2.6599   -2.4261    8.4005 C   0  0  0  0  0  0  0  0  0  0  0  0
  -11.6057   -9.1226    8.4509 C   0  0  0  0  0  0  0  0  0  0  0  0
  -14.7326   -7.2028    6.1583 C   0  0  0  0  0  0  0  0  0  0  0  0
  -14.1142   -8.3572    5.7430 C   0  0  0  0  0  0  0  0  0  0  0  0
  -13.1013   -8.9216    6.4839 C   0  0  0  0  0  0  0  0  0  0  0  0
  -12.6350   -8.3696    7.6949 C   0  0  0  0  0  0  0  0  0  0  0  0
  -13.2433   -7.2237    8.1068 C   0  0  0  0  0  0  0  0  0  0  0  0
  -14.2870   -6.6580    7.3296 C   0  0  0  0  0  0  0  0  0  0  0  0
  -12.7978   -6.4681    9.2880 C   0  0  0  0  0  0  0  0  0  0  0  0
  -11.5762   -5.9236    9.2235 F   0  0  0  0  0  0  0  0  0  0  0  0
  -13.7938   -5.4877    9.4920 F   0  0  0  0  0  0  0  0  0  0  0  0
  -12.8633   -7.2619   10.4287 F   0  0  0  0  0  0  0  0  0  0  0  0
  -15.5357   -5.3349    4.8416 C   0  0  0  0  0  0  0  0  0  0  0  0
  -15.7667   -6.6008    5.4330 O   0  0  0  0  0  0  0  0  0  0  0  0
 36 37  1  0  0  0
 37 26  1  0  0  0
 26 27  2  0  0  0
 27 28  1  0  0  0
 28 29  2  0  0  0
 29 25  1  0  0  0
 25  1  1  0  0  0
  1  2  1  0  0  0
  2  3  2  0  0  0
  3  4  1  0  0  0
  4  5  2  0  0  0
  5  6  1  0  0  0
  6 10  1  0  0  0
 10 11  2  0  0  0
 11 12  1  0  0  0
 12 13  1  0  0  0
 13 14  2  0  0  0
 13 15  1  0  0  0
 15 18  1  0  0  0
 18 19  1  0  0  0
 19 20  1  0  0  0
 20 21  1  0  0  0
 21 22  1  0  0  0
 22 23  1  0  0  0
 23 24  1  0  0  0
 15 16  1  0  0  0
 16 17  2  0  0  0
  6  7  2  0  0  0
  7  8  1  0  0  0
  8  9  2  0  0  0
 29 30  1  0  0  0
 30 31  2  0  0  0
 30 32  1  0  0  0
 32 33  1  0  0  0
 32 34  1  0  0  0
 32 35  1  0  0  0
 31 26  1  0  0  0
  9  1  1  0  0  0
  9  4  1  0  0  0
 16 11  1  0  0  0
 24 20  1  0  0  0
M  END
> <minimizedAffinity>
-8.15531

> <CNNscore>
0.3985392451

> <CNNaffinity>
7.2040901184

> <CNN_VS>
2.8711125851

> <CNNaffinity_variance>
0.1171607748

$$$$
[H]/C(=C1/SC(=O)N(C([H])([H])C([H])([H])N2C([H])([H])C([H])([H])C([H])([H])C2([H])[H])C1=O)c1c([H])c([H])c2c(c([H])nn2C([H])([H])c2c([H])c([H])c(OC([H])([H])[H])c([H])c2C(F)(F)F)c1[H]


 37 41  0  0  0  0  0  0  0  0999 V2000
  -10.6105   -9.3847    7.6595 N   0  0  0  0  0  0  0  0  0  0  0  0
  -10.1184  -10.5951    7.2477 N   0  0  0  0  0  0  0  0  0  0  0  0
   -8.9487  -10.4336    6.6408 C   0  0  0  0  0  0  0  0  0  0  0  0
   -8.6665   -9.0903    6.6538 C   0  0  0  0  0  0  0  0  0  0  0  0
   -7.6261   -8.3615    6.1703 C   0  0  0  0  0  0  0  0  0  0  0  0
   -7.5554   -6.9971    6.2820 C   0  0  0  0  0  0  0  0  0  0  0  0
   -8.5950   -6.3343    6.9199 C   0  0  0  0  0  0  0  0  0  0  0  0
   -9.6360   -7.0914    7.4006 C   0  0  0  0  0  0  0  0  0  0  0  0
   -9.7376   -8.4614    7.3048 C   0  0  0  0  0  0  0  0  0  0  0  0
   -6.4398   -6.2863    5.6989 C   0  0  0  0  0  0  0  0  0  0  0  0
   -5.2815   -6.3016    6.2361 C   0  0  0  0  0  0  0  0  0  0  0  0
   -4.8586   -7.1891    7.7670 S   0  0  0  0  0  0  0  0  0  0  0  0
   -3.1610   -7.5255    7.1840 C   0  0  0  0  0  0  0  0  0  0  0  0
   -2.5197   -8.5582    7.4911 O   0  0  0  0  0  0  0  0  0  0  0  0
   -2.8740   -6.3998    6.3891 N   0  0  0  0  0  0  0  0  0  0  0  0
   -3.9956   -5.7230    5.8673 C   0  0  0  0  0  0  0  0  0  0  0  0
   -3.9467   -4.6770    5.1220 O   0  0  0  0  0  0  0  0  0  0  0  0
   -1.4694   -5.9926    6.1406 C   0  0  0  0  0  0  0  0  0  0  0  0
   -1.0767   -4.8746    7.0592 C   0  0  0  0  0  0  0  0  0  0  0  0
   -1.7585   -4.8099    8.2909 N   0  0  0  0  0  0  0  0  0  0  0  0
   -1.1237   -5.3780    9.4293 C   0  0  0  0  0  0  0  0  0  0  0  0
   -1.1849   -4.3419   10.5297 C   0  0  0  0  0  0  0  0  0  0  0  0
   -2.4203   -3.5520   10.1674 C   0  0  0  0  0  0  0  0  0  0  0  0
   -2.3976   -3.5946    8.6461 C   0  0  0  0  0  0  0  0  0  0  0  0
  -11.8660   -9.3174    8.3429 C   0  0  0  0  0  0  0  0  0  0  0  0
  -14.8237   -6.8276    6.4009 C   0  0  0  0  0  0  0  0  0  0  0  0
  -14.2875   -7.9419    5.8022 C   0  0  0  0  0  0  0  0  0  0  0  0
  -13.3252   -8.6915    6.4388 C   0  0  0  0  0  0  0  0  0  0  0  0
  -12.8308   -8.3785    7.7219 C   0  0  0  0  0  0  0  0  0  0  0  0
  -13.3575   -7.2729    8.3159 C   0  0  0  0  0  0  0  0  0  0  0  0
  -14.3501   -6.5137    7.6437 C   0  0  0  0  0  0  0  0  0  0  0  0
  -12.8687   -6.7531    9.6026 C   0  0  0  0  0  0  0  0  0  0  0  0
  -11.5502   -6.5406    9.6993 F   0  0  0  0  0  0  0  0  0  0  0  0
  -13.6038   -5.5671    9.8210 F   0  0  0  0  0  0  0  0  0  0  0  0
  -13.2547   -7.5894   10.6453 F   0  0  0  0  0  0  0  0  0  0  0  0
  -16.9414   -6.6809    5.2340 C   0  0  0  0  0  0  0  0  0  0  0  0
  -15.8046   -6.0418    5.7858 O   0  0  0  0  0  0  0  0  0  0  0  0
 36 37  1  0  0  0
 37 26  1  0  0  0
 26 27  2  0  0  0
 27 28  1  0  0  0
 28 29  2  0  0  0
 29 25  1  0  0  0
 25  1  1  0  0  0
  1  2  1  0  0  0
  2  3  2  0  0  0
  3  4  1  0  0  0
  4  5  2  0  0  0
  5  6  1  0  0  0
  6 10  1  0  0  0
 10 11  2  0  0  0
 11 12  1  0  0  0
 12 13  1  0  0  0
 13 14  2  0  0  0
 13 15  1  0  0  0
 15 18  1  0  0  0
 18 19  1  0  0  0
 19 20  1  0  0  0
 20 21  1  0  0  0
 21 22  1  0  0  0
 22 23  1  0  0  0
 23 24  1  0  0  0
 15 16  1  0  0  0
 16 17  2  0  0  0
  6  7  2  0  0  0
  7  8  1  0  0  0
  8  9  2  0  0  0
 29 30  1  0  0  0
 30 31  2  0  0  0
 30 32  1  0  0  0
 32 33  1  0  0  0
 32 34  1  0  0  0
 32 35  1  0  0  0
 31 26  1  0  0  0
  9  1  1  0  0  0
  9  4  1  0  0  0
 16 11  1  0  0  0
 24 20  1  0  0  0
M  END
> <minimizedAffinity>
-7.76208

> <CNNscore>
0.3273193538

> <CNNaffinity>
7.0894765854

> <CNN_VS>
2.3205227852

> <CNNaffinity_variance>
0.0559122190

$$$$
[H]/C(=C1/SC(=O)N(C([H])([H])C([H])([H])N2C([H])([H])C([H])([H])C([H])([H])C2([H])[H])C1=O)c1c([H])c([H])c2c(c([H])nn2C([H])([H])c2c([H])c([H])c(OC([H])([H])[H])c([H])c2C(F)(F)F)c1[H]


 37 41  0  0  0  0  0  0  0  0999 V2000
   -9.1747   -7.4147    8.7731 N   0  0  0  0  0  0  0  0  0  0  0  0
   -9.2137   -6.0540    8.9268 N   0  0  0  0  0  0  0  0  0  0  0  0
  -10.4704   -5.6262    8.9209 C   0  0  0  0  0  0  0  0  0  0  0  0
  -11.2735   -6.7278    8.7598 C   0  0  0  0  0  0  0  0  0  0  0  0
  -12.6209   -6.8819    8.6699 C   0  0  0  0  0  0  0  0  0  0  0  0
  -13.2221   -8.1006    8.4892 C   0  0  0  0  0  0  0  0  0  0  0  0
  -12.4141   -9.2255    8.3958 C   0  0  0  0  0  0  0  0  0  0  0  0
  -11.0550   -9.0456    8.4894 C   0  0  0  0  0  0  0  0  0  0  0  0
  -10.4203   -7.8371    8.6705 C   0  0  0  0  0  0  0  0  0  0  0  0
  -14.6592   -8.1787    8.3536 C   0  0  0  0  0  0  0  0  0  0  0  0
  -15.2298   -8.0959    7.2142 C   0  0  0  0  0  0  0  0  0  0  0  0
  -14.3605   -7.8755    5.6313 S   0  0  0  0  0  0  0  0  0  0  0  0
  -15.6101   -8.8561    4.7303 C   0  0  0  0  0  0  0  0  0  0  0  0
  -15.3398   -9.5658    3.7326 O   0  0  0  0  0  0  0  0  0  0  0  0
  -16.7942   -8.5838    5.4412 N   0  0  0  0  0  0  0  0  0  0  0  0
  -16.6185   -8.1727    6.7786 C   0  0  0  0  0  0  0  0  0  0  0  0
  -17.5690   -7.8777    7.5918 O   0  0  0  0  0  0  0  0  0  0  0  0
  -18.1167   -8.7371    4.7871 C   0  0  0  0  0  0  0  0  0  0  0  0
  -18.3839   -7.5841    3.8667 C   0  0  0  0  0  0  0  0  0  0  0  0
  -17.9238   -6.3231    4.2960 N   0  0  0  0  0  0  0  0  0  0  0  0
  -16.7333   -5.8170    3.7060 C   0  0  0  0  0  0  0  0  0  0  0  0
  -17.0277   -4.3994    3.2680 C   0  0  0  0  0  0  0  0  0  0  0  0
  -18.1118   -3.9774    4.2315 C   0  0  0  0  0  0  0  0  0  0  0  0
  -18.8693   -5.2782    4.4569 C   0  0  0  0  0  0  0  0  0  0  0  0
   -7.9171   -8.0971    8.7523 C   0  0  0  0  0  0  0  0  0  0  0  0
   -6.8012   -9.0609    4.6848 C   0  0  0  0  0  0  0  0  0  0  0  0
   -7.7863   -9.7387    5.3613 C   0  0  0  0  0  0  0  0  0  0  0  0
   -8.0919   -9.4243    6.6656 C   0  0  0  0  0  0  0  0  0  0  0  0
   -7.4321   -8.4074    7.3861 C   0  0  0  0  0  0  0  0  0  0  0  0
   -6.4529   -7.7367    6.7196 C   0  0  0  0  0  0  0  0  0  0  0  0
   -6.1536   -8.0748    5.3744 C   0  0  0  0  0  0  0  0  0  0  0  0
   -5.6002   -6.7268    7.3658 C   0  0  0  0  0  0  0  0  0  0  0  0
   -6.2202   -5.6454    7.8549 F   0  0  0  0  0  0  0  0  0  0  0  0
   -4.9039   -7.4278    8.3752 F   0  0  0  0  0  0  0  0  0  0  0  0
   -4.6012   -6.3023    6.4956 F   0  0  0  0  0  0  0  0  0  0  0  0
   -7.2942  -10.2301    2.6214 C   0  0  0  0  0  0  0  0  0  0  0  0
   -6.4637   -9.3511    3.3583 O   0  0  0  0  0  0  0  0  0  0  0  0
 36 37  1  0  0  0
 37 26  1  0  0  0
 26 27  2  0  0  0
 27 28  1  0  0  0
 28 29  2  0  0  0
 29 25  1  0  0  0
 25  1  1  0  0  0
  1  2  1  0  0  0
  2  3  2  0  0  0
  3  4  1  0  0  0
  4  5  2  0  0  0
  5  6  1  0  0  0
  6 10  1  0  0  0
 10 11  2  0  0  0
 11 12  1  0  0  0
 12 13  1  0  0  0
 13 14  2  0  0  0
 13 15  1  0  0  0
 15 18  1  0  0  0
 18 19  1  0  0  0
 19 20  1  0  0  0
 20 21  1  0  0  0
 21 22  1  0  0  0
 22 23  1  0  0  0
 23 24  1  0  0  0
 15 16  1  0  0  0
 16 17  2  0  0  0
  6  7  2  0  0  0
  7  8  1  0  0  0
  8  9  2  0  0  0
 29 30  1  0  0  0
 30 31  2  0  0  0
 30 32  1  0  0  0
 32 33  1  0  0  0
 32 34  1  0  0  0
 32 35  1  0  0  0
 31 26  1  0  0  0
  9  1  1  0  0  0
  9  4  1  0  0  0
 16 11  1  0  0  0
 24 20  1  0  0  0
M  END
> <minimizedAffinity>
-1.26982

> <CNNscore>
0.2867005169

> <CNNaffinity>
6.9708242416

> <CNN_VS>
1.9985389709

> <CNNaffinity_variance>
0.1941772401

$$$$
[H]/C(=C1/SC(=O)N(C([H])([H])C([H])([H])N2C([H])([H])C([H])([H])C([H])([H])C2([H])[H])C1=O)c1c([H])c([H])c2c(c([H])nn2C([H])([H])c2c([H])c([H])c(OC([H])([H])[H])c([H])c2C(F)(F)F)c1[H]


 37 41  0  0  0  0  0  0  0  0999 V2000
   -5.9308   -7.3922    7.4311 N   0  0  0  0  0  0  0  0  0  0  0  0
   -6.3463   -6.1317    7.0916 N   0  0  0  0  0  0  0  0  0  0  0  0
   -7.6643   -6.1088    6.9338 C   0  0  0  0  0  0  0  0  0  0  0  0
   -8.1241   -7.3797    7.1741 C   0  0  0  0  0  0  0  0  0  0  0  0
   -9.3654   -7.9326    7.1443 C   0  0  0  0  0  0  0  0  0  0  0  0
   -9.5985   -9.2575    7.4079 C   0  0  0  0  0  0  0  0  0  0  0  0
   -8.5148  -10.0668    7.7203 C   0  0  0  0  0  0  0  0  0  0  0  0
   -7.2696   -9.4863    7.7444 C   0  0  0  0  0  0  0  0  0  0  0  0
   -7.0017   -8.1608    7.4847 C   0  0  0  0  0  0  0  0  0  0  0  0
  -10.9414   -9.7835    7.3084 C   0  0  0  0  0  0  0  0  0  0  0  0
  -11.9214   -9.2369    7.9176 C   0  0  0  0  0  0  0  0  0  0  0  0
  -11.7950   -7.7591    8.9714 S   0  0  0  0  0  0  0  0  0  0  0  0
  -13.4663   -7.1952    8.4986 C   0  0  0  0  0  0  0  0  0  0  0  0
  -13.7865   -5.9858    8.4145 O   0  0  0  0  0  0  0  0  0  0  0  0
  -14.1570   -8.4036    8.2883 N   0  0  0  0  0  0  0  0  0  0  0  0
  -13.3506   -9.5172    7.9750 C   0  0  0  0  0  0  0  0  0  0  0  0
  -13.7865  -10.7049    7.7488 O   0  0  0  0  0  0  0  0  0  0  0  0
  -15.6356   -8.4537    8.3956 C   0  0  0  0  0  0  0  0  0  0  0  0
  -16.2693   -7.6741    7.2826 C   0  0  0  0  0  0  0  0  0  0  0  0
  -16.2903   -8.2958    6.0181 N   0  0  0  0  0  0  0  0  0  0  0  0
  -17.5102   -8.2701    5.2882 C   0  0  0  0  0  0  0  0  0  0  0  0
  -17.1771   -7.7951    3.8913 C   0  0  0  0  0  0  0  0  0  0  0  0
  -15.7409   -8.2344    3.7298 C   0  0  0  0  0  0  0  0  0  0  0  0
  -15.1950   -8.0831    5.1425 C   0  0  0  0  0  0  0  0  0  0  0  0
   -4.5414   -7.6521    7.6544 C   0  0  0  0  0  0  0  0  0  0  0  0
   -2.2213   -4.2140    8.8853 C   0  0  0  0  0  0  0  0  0  0  0  0
   -3.1706   -4.7924    9.6926 C   0  0  0  0  0  0  0  0  0  0  0  0
   -3.9113   -5.8660    9.2541 C   0  0  0  0  0  0  0  0  0  0  0  0
   -3.7538   -6.4376    7.9746 C   0  0  0  0  0  0  0  0  0  0  0  0
   -2.8166   -5.8641    7.1712 C   0  0  0  0  0  0  0  0  0  0  0  0
   -2.0619   -4.7586    7.6422 C   0  0  0  0  0  0  0  0  0  0  0  0
   -2.6107   -6.2733    5.7731 C   0  0  0  0  0  0  0  0  0  0  0  0
   -2.3739   -7.5738    5.5595 F   0  0  0  0  0  0  0  0  0  0  0  0
   -3.7673   -5.8366    5.0901 F   0  0  0  0  0  0  0  0  0  0  0  0
   -1.5783   -5.5401    5.1967 F   0  0  0  0  0  0  0  0  0  0  0  0
   -2.0633   -1.8512    9.3952 C   0  0  0  0  0  0  0  0  0  0  0  0
   -1.4480   -3.1228    9.2967 O   0  0  0  0  0  0  0  0  0  0  0  0
 36 37  1  0  0  0
 37 26  1  0  0  0
 26 27  2  0  0  0
 27 28  1  0  0  0
 28 29  2  0  0  0
 29 25  1  0  0  0
 25  1  1  0  0  0
  1  2  1  0  0  0
  2  3  2  0  0  0
  3  4  1  0  0  0
  4  5  2  0  0  0
  5  6  1  0  0  0
  6 10  1  0  0  0
 10 11  2  0  0  0
 11 12  1  0  0  0
 12 13  1  0  0  0
 13 14  2  0  0  0
 13 15  1  0  0  0
 15 18  1  0  0  0
 18 19  1  0  0  0
 19 20  1  0  0  0
 20 21  1  0  0  0
 21 22  1  0  0  0
 22 23  1  0  0  0
 23 24  1  0  0  0
 15 16  1  0  0  0
 16 17  2  0  0  0
  6  7  2  0  0  0
  7  8  1  0  0  0
  8  9  2  0  0  0
 29 30  1  0  0  0
 30 31  2  0  0  0
 30 32  1  0  0  0
 32 33  1  0  0  0
 32 34  1  0  0  0
 32 35  1  0  0  0
 31 26  1  0  0  0
  9  1  1  0  0  0
  9  4  1  0  0  0
 16 11  1  0  0  0
 24 20  1  0  0  0
M  END
> <minimizedAffinity>
-8.08147

> <CNNscore>
0.2540022731

> <CNNaffinity>
6.9948134422

> <CNN_VS>
1.7766984701

> <CNNaffinity_variance>
0.0488620065

$$$$
[H]/C(=C1/SC(=O)N(C([H])([H])C([H])([H])N2C([H])([H])C([H])([H])C([H])([H])C2([H])[H])C1=O)c1c([H])c([H])c2c(c([H])nn2C([H])([H])c2c([H])c([H])c(OC([H])([H])[H])c([H])c2C(F)(F)F)c1[H]


 37 41  0  0  0  0  0  0  0  0999 V2000
   -5.9267   -7.4015    7.4915 N   0  0  0  0  0  0  0  0  0  0  0  0
   -6.3423   -6.1341    7.1788 N   0  0  0  0  0  0  0  0  0  0  0  0
   -7.6601   -6.1082    7.0203 C   0  0  0  0  0  0  0  0  0  0  0  0
   -8.1199   -7.3841    7.2326 C   0  0  0  0  0  0  0  0  0  0  0  0
   -9.3609   -7.9365    7.1897 C   0  0  0  0  0  0  0  0  0  0  0  0
   -9.5939   -9.2668    7.4245 C   0  0  0  0  0  0  0  0  0  0  0  0
   -8.5102  -10.0824    7.7204 C   0  0  0  0  0  0  0  0  0  0  0  0
   -7.2652   -9.5022    7.7582 C   0  0  0  0  0  0  0  0  0  0  0  0
   -6.9974   -8.1713    7.5275 C   0  0  0  0  0  0  0  0  0  0  0  0
  -10.9365   -9.7909    7.3124 C   0  0  0  0  0  0  0  0  0  0  0  0
  -11.9196   -9.2498    7.9217 C   0  0  0  0  0  0  0  0  0  0  0  0
  -11.7981   -7.7827    8.9908 S   0  0  0  0  0  0  0  0  0  0  0  0
  -13.4664   -7.2129    8.5146 C   0  0  0  0  0  0  0  0  0  0  0  0
  -13.7854   -6.0026    8.4408 O   0  0  0  0  0  0  0  0  0  0  0  0
  -14.1566   -8.4188    8.2884 N   0  0  0  0  0  0  0  0  0  0  0  0
  -13.3492   -9.5297    7.9684 C   0  0  0  0  0  0  0  0  0  0  0  0
  -13.7845  -10.7148    7.7280 O   0  0  0  0  0  0  0  0  0  0  0  0
  -15.6358   -8.4690    8.3871 C   0  0  0  0  0  0  0  0  0  0  0  0
  -16.2631   -7.6900    7.2701 C   0  0  0  0  0  0  0  0  0  0  0  0
  -16.2278   -8.2887    5.9948 N   0  0  0  0  0  0  0  0  0  0  0  0
  -17.4261   -8.2868    5.2295 C   0  0  0  0  0  0  0  0  0  0  0  0
  -17.0671   -7.7763    3.8516 C   0  0  0  0  0  0  0  0  0  0  0  0
  -15.6139   -8.1685    3.7253 C   0  0  0  0  0  0  0  0  0  0  0  0
  -15.1145   -8.0266    5.1561 C   0  0  0  0  0  0  0  0  0  0  0  0
   -4.5375   -7.6657    7.7104 C   0  0  0  0  0  0  0  0  0  0  0  0
   -2.0883   -4.6367    5.8275 C   0  0  0  0  0  0  0  0  0  0  0  0
   -2.5880   -5.7159    5.1397 C   0  0  0  0  0  0  0  0  0  0  0  0
   -3.3373   -6.6761    5.7800 C   0  0  0  0  0  0  0  0  0  0  0  0
   -3.6401   -6.6238    7.1563 C   0  0  0  0  0  0  0  0  0  0  0  0
   -3.1430   -5.5577    7.8412 C   0  0  0  0  0  0  0  0  0  0  0  0
   -2.3738   -4.5773    7.1626 C   0  0  0  0  0  0  0  0  0  0  0  0
   -3.2776   -5.4173    9.2995 C   0  0  0  0  0  0  0  0  0  0  0  0
   -2.5158   -6.2228   10.0504 F   0  0  0  0  0  0  0  0  0  0  0  0
   -3.0103   -4.0556    9.5621 F   0  0  0  0  0  0  0  0  0  0  0  0
   -4.6037   -5.5842    9.6858 F   0  0  0  0  0  0  0  0  0  0  0  0
   -1.9231   -2.3821    4.9574 C   0  0  0  0  0  0  0  0  0  0  0  0
   -1.3241   -3.6400    5.2108 O   0  0  0  0  0  0  0  0  0  0  0  0
 36 37  1  0  0  0
 37 26  1  0  0  0
 26 27  2  0  0  0
 27 28  1  0  0  0
 28 29  2  0  0  0
 29 25  1  0  0  0
 25  1  1  0  0  0
  1  2  1  0  0  0
  2  3  2  0  0  0
  3  4  1  0  0  0
  4  5  2  0  0  0
  5  6  1  0  0  0
  6 10  1  0  0  0
 10 11  2  0  0  0
 11 12  1  0  0  0
 12 13  1  0  0  0
 13 14  2  0  0  0
 13 15  1  0  0  0
 15 18  1  0  0  0
 18 19  1  0  0  0
 19 20  1  0  0  0
 20 21  1  0  0  0
 21 22  1  0  0  0
 22 23  1  0  0  0
 23 24  1  0  0  0
 15 16  1  0  0  0
 16 17  2  0  0  0
  6  7  2  0  0  0
  7  8  1  0  0  0
  8  9  2  0  0  0
 29 30  1  0  0  0
 30 31  2  0  0  0
 30 32  1  0  0  0
 32 33  1  0  0  0
 32 34  1  0  0  0
 32 35  1  0  0  0
 31 26  1  0  0  0
  9  1  1  0  0  0
  9  4  1  0  0  0
 16 11  1  0  0  0
 24 20  1  0  0  0
M  END
> <minimizedAffinity>
-8.11501

> <CNNscore>
0.2374378443

> <CNNaffinity>
6.9629096985

> <CNN_VS>
1.6532583237

> <CNNaffinity_variance>
0.0590848848

$$$$
[H]/C(=C1/SC(=O)N(C([H])([H])C([H])([H])N2C([H])([H])C([H])([H])C([H])([H])C2([H])[H])C1=O)c1c([H])c([H])c2c(c([H])nn2C([H])([H])c2c([H])c([H])c(OC([H])([H])[H])c([H])c2C(F)(F)F)c1[H]


 37 41  0  0  0  0  0  0  0  0999 V2000
  -15.2891   -8.5796    6.2781 N   0  0  0  0  0  0  0  0  0  0  0  0
  -15.7888   -8.0316    7.4300 N   0  0  0  0  0  0  0  0  0  0  0  0
  -14.8468   -7.9866    8.3643 C   0  0  0  0  0  0  0  0  0  0  0  0
  -13.7052   -8.5159    7.8158 C   0  0  0  0  0  0  0  0  0  0  0  0
  -12.4572   -8.7291    8.3103 C   0  0  0  0  0  0  0  0  0  0  0  0
  -11.4508   -9.2995    7.5749 C   0  0  0  0  0  0  0  0  0  0  0  0
  -11.7228   -9.6733    6.2659 C   0  0  0  0  0  0  0  0  0  0  0  0
  -12.9911   -9.4483    5.7875 C   0  0  0  0  0  0  0  0  0  0  0  0
  -14.0232   -8.8784    6.4990 C   0  0  0  0  0  0  0  0  0  0  0  0
  -10.1628   -9.5392    8.1859 C   0  0  0  0  0  0  0  0  0  0  0  0
   -9.1078   -8.9459    7.7791 C   0  0  0  0  0  0  0  0  0  0  0  0
   -9.0533   -7.7439    6.4144 S   0  0  0  0  0  0  0  0  0  0  0  0
   -7.7057   -6.8010    7.2079 C   0  0  0  0  0  0  0  0  0  0  0  0
   -7.5731   -5.5596    7.0917 O   0  0  0  0  0  0  0  0  0  0  0  0
   -6.9865   -7.7986    7.8929 N   0  0  0  0  0  0  0  0  0  0  0  0
   -7.7161   -8.9624    8.2117 C   0  0  0  0  0  0  0  0  0  0  0  0
   -7.2434   -9.9841    8.8318 O   0  0  0  0  0  0  0  0  0  0  0  0
   -5.5588   -7.5933    8.2390 C   0  0  0  0  0  0  0  0  0  0  0  0
   -4.6871   -7.8523    7.0469 C   0  0  0  0  0  0  0  0  0  0  0  0
   -3.6971   -6.8867    6.7759 N   0  0  0  0  0  0  0  0  0  0  0  0
   -4.1140   -5.5358    6.6252 C   0  0  0  0  0  0  0  0  0  0  0  0
   -3.2127   -4.6968    7.5039 C   0  0  0  0  0  0  0  0  0  0  0  0
   -1.9462   -5.5185    7.5532 C   0  0  0  0  0  0  0  0  0  0  0  0
   -2.4817   -6.9425    7.5049 C   0  0  0  0  0  0  0  0  0  0  0  0
  -16.1314   -8.7256    5.1306 C   0  0  0  0  0  0  0  0  0  0  0  0
  -18.3924   -5.1619    4.1785 C   0  0  0  0  0  0  0  0  0  0  0  0
  -18.9857   -6.3884    4.3548 C   0  0  0  0  0  0  0  0  0  0  0  0
  -18.2300   -7.5060    4.6256 C   0  0  0  0  0  0  0  0  0  0  0  0
  -16.8248   -7.4749    4.7396 C   0  0  0  0  0  0  0  0  0  0  0  0
  -16.2339   -6.2616    4.5616 C   0  0  0  0  0  0  0  0  0  0  0  0
  -17.0306   -5.1206    4.2845 C   0  0  0  0  0  0  0  0  0  0  0  0
  -14.7735   -6.0847    4.5397 C   0  0  0  0  0  0  0  0  0  0  0  0
  -14.1537   -6.0825    5.7266 F   0  0  0  0  0  0  0  0  0  0  0  0
  -14.2925   -7.1168    3.7040 F   0  0  0  0  0  0  0  0  0  0  0  0
  -14.4334   -4.9157    3.8664 F   0  0  0  0  0  0  0  0  0  0  0  0
  -20.3645   -3.8094    4.5648 C   0  0  0  0  0  0  0  0  0  0  0  0
  -19.1274   -4.0034    3.9035 O   0  0  0  0  0  0  0  0  0  0  0  0
 36 37  1  0  0  0
 37 26  1  0  0  0
 26 27  2  0  0  0
 27 28  1  0  0  0
 28 29  2  0  0  0
 29 25  1  0  0  0
 25  1  1  0  0  0
  1  2  1  0  0  0
  2  3  2  0  0  0
  3  4  1  0  0  0
  4  5  2  0  0  0
  5  6  1  0  0  0
  6 10  1  0  0  0
 10 11  2  0  0  0
 11 12  1  0  0  0
 12 13  1  0  0  0
 13 14  2  0  0  0
 13 15  1  0  0  0
 15 18  1  0  0  0
 18 19  1  0  0  0
 19 20  1  0  0  0
 20 21  1  0  0  0
 21 22  1  0  0  0
 22 23  1  0  0  0
 23 24  1  0  0  0
 15 16  1  0  0  0
 16 17  2  0  0  0
  6  7  2  0  0  0
  7  8  1  0  0  0
  8  9  2  0  0  0
 29 30  1  0  0  0
 30 31  2  0  0  0
 30 32  1  0  0  0
 32 33  1  0  0  0
 32 34  1  0  0  0
 32 35  1  0  0  0
 31 26  1  0  0  0
  9  1  1  0  0  0
  9  4  1  0  0  0
 16 11  1  0  0  0
 24 20  1  0  0  0
M  END
> <minimizedAffinity>
-3.17417

> <CNNscore>
0.2367558330

> <CNNaffinity>
6.9321389198

> <CNN_VS>
1.6412242651

> <CNNaffinity_variance>
0.1106256470

$$$$
[H]/C(=C1/SC(=O)N(C([H])([H])C([H])([H])N2C([H])([H])C([H])([H])C([H])([H])C2([H])[H])C1=O)c1c([H])c([H])c2c(c([H])nn2C([H])([H])c2c([H])c([H])c(OC([H])([H])[H])c([H])c2C(F)(F)F)c1[H]


 37 41  0  0  0  0  0  0  0  0999 V2000
  -11.7382   -9.8591    7.2156 N   0  0  0  0  0  0  0  0  0  0  0  0
  -11.0847  -10.8147    6.4830 N   0  0  0  0  0  0  0  0  0  0  0  0
   -9.7747  -10.6018    6.5138 C   0  0  0  0  0  0  0  0  0  0  0  0
   -9.5629   -9.4839    7.2817 C   0  0  0  0  0  0  0  0  0  0  0  0
   -8.4382   -8.8092    7.6382 C   0  0  0  0  0  0  0  0  0  0  0  0
   -8.4602   -7.6809    8.4165 C   0  0  0  0  0  0  0  0  0  0  0  0
   -9.6890   -7.2108    8.8592 C   0  0  0  0  0  0  0  0  0  0  0  0
  -10.8123   -7.9089    8.4864 C   0  0  0  0  0  0  0  0  0  0  0  0
  -10.8247   -9.0439    7.7067 C   0  0  0  0  0  0  0  0  0  0  0  0
   -7.2257   -6.9897    8.7132 C   0  0  0  0  0  0  0  0  0  0  0  0
   -6.3450   -6.7759    7.8136 C   0  0  0  0  0  0  0  0  0  0  0  0
   -6.4934   -7.2856    6.0734 S   0  0  0  0  0  0  0  0  0  0  0  0
   -5.5536   -5.8302    5.4958 C   0  0  0  0  0  0  0  0  0  0  0  0
   -5.7651   -5.2665    4.3960 O   0  0  0  0  0  0  0  0  0  0  0  0
   -4.6558   -5.5966    6.5546 N   0  0  0  0  0  0  0  0  0  0  0  0
   -5.0564   -6.0949    7.8115 C   0  0  0  0  0  0  0  0  0  0  0  0
   -4.3804   -5.9859    8.8991 O   0  0  0  0  0  0  0  0  0  0  0  0
   -3.3865   -4.8665    6.3175 C   0  0  0  0  0  0  0  0  0  0  0  0
   -3.6426   -3.3942    6.1969 C   0  0  0  0  0  0  0  0  0  0  0  0
   -2.9077   -2.5597    7.0628 N   0  0  0  0  0  0  0  0  0  0  0  0
   -3.0012   -1.1548    6.8653 C   0  0  0  0  0  0  0  0  0  0  0  0
   -3.2977   -0.5396    8.2150 C   0  0  0  0  0  0  0  0  0  0  0  0
   -2.6845   -1.5357    9.1707 C   0  0  0  0  0  0  0  0  0  0  0  0
   -2.9088   -2.8572    8.4496 C   0  0  0  0  0  0  0  0  0  0  0  0
  -13.1646   -9.8921    7.3249 C   0  0  0  0  0  0  0  0  0  0  0  0
  -15.2421   -6.9621    4.9129 C   0  0  0  0  0  0  0  0  0  0  0  0
  -14.5627   -8.0230    4.3647 C   0  0  0  0  0  0  0  0  0  0  0  0
  -13.8870   -8.9172    5.1629 C   0  0  0  0  0  0  0  0  0  0  0  0
  -13.8435   -8.8127    6.5686 C   0  0  0  0  0  0  0  0  0  0  0  0
  -14.5125   -7.7603    7.1142 C   0  0  0  0  0  0  0  0  0  0  0  0
  -15.2046   -6.8498    6.2743 C   0  0  0  0  0  0  0  0  0  0  0  0
  -14.4706   -7.4515    8.5521 C   0  0  0  0  0  0  0  0  0  0  0  0
  -14.0271   -6.2338    8.8893 F   0  0  0  0  0  0  0  0  0  0  0  0
  -15.7880   -7.6706    9.0117 F   0  0  0  0  0  0  0  0  0  0  0  0
  -13.7111   -8.3978    9.2328 F   0  0  0  0  0  0  0  0  0  0  0  0
  -16.9198   -5.2217    4.7579 C   0  0  0  0  0  0  0  0  0  0  0  0
  -15.9416   -6.0336    4.1341 O   0  0  0  0  0  0  0  0  0  0  0  0
 36 37  1  0  0  0
 37 26  1  0  0  0
 26 27  2  0  0  0
 27 28  1  0  0  0
 28 29  2  0  0  0
 29 25  1  0  0  0
 25  1  1  0  0  0
  1  2  1  0  0  0
  2  3  2  0  0  0
  3  4  1  0  0  0
  4  5  2  0  0  0
  5  6  1  0  0  0
  6 10  1  0  0  0
 10 11  2  0  0  0
 11 12  1  0  0  0
 12 13  1  0  0  0
 13 14  2  0  0  0
 13 15  1  0  0  0
 15 18  1  0  0  0
 18 19  1  0  0  0
 19 20  1  0  0  0
 20 21  1  0  0  0
 21 22  1  0  0  0
 22 23  1  0  0  0
 23 24  1  0  0  0
 15 16  1  0  0  0
 16 17  2  0  0  0
  6  7  2  0  0  0
  7  8  1  0  0  0
  8  9  2  0  0  0
 29 30  1  0  0  0
 30 31  2  0  0  0
 30 32  1  0  0  0
 32 33  1  0  0  0
 32 34  1  0  0  0
 32 35  1  0  0  0
 31 26  1  0  0  0
  9  1  1  0  0  0
  9  4  1  0  0  0
 16 11  1  0  0  0
 24 20  1  0  0  0
M  END
> <minimizedAffinity>
-7.54237

> <CNNscore>
0.2347877324

> <CNNaffinity>
6.8563461304

> <CNN_VS>
1.6097859144

> <CNNaffinity_variance>
0.0406974256

$$$$
[H]/C(=C1/SC(=O)N(C([H])([H])C([H])([H])N2C([H])([H])C([H])([H])C([H])([H])C2([H])[H])C1=O)c1c([H])c([H])c2c(c([H])nn2C([H])([H])c2c([H])c([H])c(OC([H])([H])[H])c([H])c2C(F)(F)F)c1[H]


 37 41  0  0  0  0  0  0  0  0999 V2000
  -14.1340   -8.3678    7.7916 N   0  0  0  0  0  0  0  0  0  0  0  0
  -13.8709   -9.5716    7.1928 N   0  0  0  0  0  0  0  0  0  0  0  0
  -12.5641   -9.8054    7.1847 C   0  0  0  0  0  0  0  0  0  0  0  0
  -11.9561   -8.7338    7.7901 C   0  0  0  0  0  0  0  0  0  0  0  0
  -10.6549   -8.4328    8.0424 C   0  0  0  0  0  0  0  0  0  0  0  0
  -10.2635   -7.2723    8.6582 C   0  0  0  0  0  0  0  0  0  0  0  0
  -11.2441   -6.3673    9.0407 C   0  0  0  0  0  0  0  0  0  0  0  0
  -12.5525   -6.6926    8.7755 C   0  0  0  0  0  0  0  0  0  0  0  0
  -12.9786   -7.8481    8.1594 C   0  0  0  0  0  0  0  0  0  0  0  0
   -8.8565   -7.0002    8.8483 C   0  0  0  0  0  0  0  0  0  0  0  0
   -7.9563   -7.6770    8.2465 C   0  0  0  0  0  0  0  0  0  0  0  0
   -8.2833   -9.0442    7.0917 S   0  0  0  0  0  0  0  0  0  0  0  0
   -6.8081   -8.6438    6.0926 C   0  0  0  0  0  0  0  0  0  0  0  0
   -6.7463   -8.8245    4.8534 O   0  0  0  0  0  0  0  0  0  0  0  0
   -5.9100   -8.1352    7.0498 N   0  0  0  0  0  0  0  0  0  0  0  0
   -6.5006   -7.6098    8.2176 C   0  0  0  0  0  0  0  0  0  0  0  0
   -5.8566   -7.1009    9.2066 O   0  0  0  0  0  0  0  0  0  0  0  0
   -4.4479   -8.1670    6.8015 C   0  0  0  0  0  0  0  0  0  0  0  0
   -3.9676   -6.8298    6.3230 C   0  0  0  0  0  0  0  0  0  0  0  0
   -2.8490   -6.2926    6.9910 N   0  0  0  0  0  0  0  0  0  0  0  0
   -2.6832   -4.8806    6.9737 C   0  0  0  0  0  0  0  0  0  0  0  0
   -2.4343   -4.4495    8.4021 C   0  0  0  0  0  0  0  0  0  0  0  0
   -1.8069   -5.6811    9.0113 C   0  0  0  0  0  0  0  0  0  0  0  0
   -2.5155   -6.8060    8.2704 C   0  0  0  0  0  0  0  0  0  0  0  0
  -15.4839   -7.9093    7.9144 C   0  0  0  0  0  0  0  0  0  0  0  0
  -17.7547   -7.4424    4.2614 C   0  0  0  0  0  0  0  0  0  0  0  0
  -18.0312   -8.4228    5.1833 C   0  0  0  0  0  0  0  0  0  0  0  0
  -17.2665   -8.5601    6.3190 C   0  0  0  0  0  0  0  0  0  0  0  0
  -16.1693   -7.7244    6.6129 C   0  0  0  0  0  0  0  0  0  0  0  0
  -15.8907   -6.7545    5.6994 C   0  0  0  0  0  0  0  0  0  0  0  0
  -16.6919   -6.6281    4.5351 C   0  0  0  0  0  0  0  0  0  0  0  0
  -14.7153   -5.8761    5.8065 C   0  0  0  0  0  0  0  0  0  0  0  0
  -14.4781   -5.3392    7.0101 F   0  0  0  0  0  0  0  0  0  0  0  0
  -13.6289   -6.6634    5.3653 F   0  0  0  0  0  0  0  0  0  0  0  0
  -14.7892   -4.8457    4.8746 F   0  0  0  0  0  0  0  0  0  0  0  0
  -17.9125   -6.6262    1.9862 C   0  0  0  0  0  0  0  0  0  0  0  0
  -18.5103   -7.2710    3.0963 O   0  0  0  0  0  0  0  0  0  0  0  0
 36 37  1  0  0  0
 37 26  1  0  0  0
 26 27  2  0  0  0
 27 28  1  0  0  0
 28 29  2  0  0  0
 29 25  1  0  0  0
 25  1  1  0  0  0
  1  2  1  0  0  0
  2  3  2  0  0  0
  3  4  1  0  0  0
  4  5  2  0  0  0
  5  6  1  0  0  0
  6 10  1  0  0  0
 10 11  2  0  0  0
 11 12  1  0  0  0
 12 13  1  0  0  0
 13 14  2  0  0  0
 13 15  1  0  0  0
 15 18  1  0  0  0
 18 19  1  0  0  0
 19 20  1  0  0  0
 20 21  1  0  0  0
 21 22  1  0  0  0
 22 23  1  0  0  0
 23 24  1  0  0  0
 15 16  1  0  0  0
 16 17  2  0  0  0
  6  7  2  0  0  0
  7  8  1  0  0  0
  8  9  2  0  0  0
 29 30  1  0  0  0
 30 31  2  0  0  0
 30 32  1  0  0  0
 32 33  1  0  0  0
 32 34  1  0  0  0
 32 35  1  0  0  0
 31 26  1  0  0  0
  9  1  1  0  0  0
  9  4  1  0  0  0
 16 11  1  0  0  0
 24 20  1  0  0  0
M  END
> <minimizedAffinity>
-6.81905

> <CNNscore>
0.2210458815

> <CNNaffinity>
6.9790558815

> <CNN_VS>
1.5426915884

> <CNNaffinity_variance>
0.1191064268

$$$$
[H]/C(=C1/SC(=O)N(C([H])([H])c2nnnn2[H])C1=O)c1c([H])c([H])c2c(c([H])nn2C([H])([H])c2c([H])c([H])c(Cl)c([H])c2C(F)(F)F)c1[H]


 36 40  0  0  0  0  0  0  0  0999 V2000
  -10.6288   -9.4576    7.7191 N   0  0  0  0  0  0  0  0  0  0  0  0
  -10.0921  -10.5892    7.3545 N   0  0  0  0  0  0  0  0  0  0  0  0
   -8.8764  -10.4581    6.8406 C   0  0  0  0  0  0  0  0  0  0  0  0
   -8.5882   -9.1183    6.8702 C   0  0  0  0  0  0  0  0  0  0  0  0
   -7.4508   -8.4282    6.4518 C   0  0  0  0  0  0  0  0  0  0  0  0
   -7.4009   -7.0642    6.5838 C   0  0  0  0  0  0  0  0  0  0  0  0
   -8.5061   -6.4316    7.1367 C   0  0  0  0  0  0  0  0  0  0  0  0
   -9.6380   -7.1235    7.5525 C   0  0  0  0  0  0  0  0  0  0  0  0
   -9.6922   -8.5045    7.4213 C   0  0  0  0  0  0  0  0  0  0  0  0
   -6.2796   -6.2164    6.2023 C   0  0  0  0  0  0  0  0  0  0  0  0
   -5.0197   -6.5367    6.2984 C   0  0  0  0  0  0  0  0  0  0  0  0
   -4.4013   -8.1105    6.9312 S   0  0  0  0  0  0  0  0  0  0  0  0
   -2.7618   -7.9271    6.2191 C   0  0  0  0  0  0  0  0  0  0  0  0
   -1.9227   -8.8456    6.0367 O   0  0  0  0  0  0  0  0  0  0  0  0
   -2.6474   -6.5499    5.9240 N   0  0  0  0  0  0  0  0  0  0  0  0
   -3.8080   -5.8035    5.9584 C   0  0  0  0  0  0  0  0  0  0  0  0
   -3.8814   -4.5461    5.7175 O   0  0  0  0  0  0  0  0  0  0  0  0
   -1.3236   -5.9841    5.5975 C   0  0  0  0  0  0  0  0  0  0  0  0
   -1.2411   -5.7042    4.1287 C   0  0  0  0  0  0  0  0  0  0  0  0
   -1.0755   -6.5408    3.1060 N   0  0  0  0  0  0  0  0  0  0  0  0
   -1.0614   -5.8517    1.9719 N   0  0  0  0  0  0  0  0  0  0  0  0
   -1.2197   -4.5617    2.2764 N   0  0  0  0  0  0  0  0  0  0  0  0
   -1.3311   -4.4525    3.5880 N   0  0  0  0  0  0  0  0  0  0  0  0
   -1.4643   -3.5433    4.0885 H   0  0  0  0  0  0  0  0  0  0  0  0
  -11.9314   -9.2307    8.2562 C   0  0  0  0  0  0  0  0  0  0  0  0
  -13.4578   -7.2546    8.1545 C   0  0  0  0  0  0  0  0  0  0  0  0
  -14.4450   -6.5471    7.4215 C   0  0  0  0  0  0  0  0  0  0  0  0
  -14.8556   -6.9558    6.2009 C   0  0  0  0  0  0  0  0  0  0  0  0
  -16.0853   -6.0191    5.3561 Cl  0  0  0  0  0  0  0  0  0  0  0  0
  -14.3066   -8.0776    5.6606 C   0  0  0  0  0  0  0  0  0  0  0  0
  -13.3649   -8.7530    6.3609 C   0  0  0  0  0  0  0  0  0  0  0  0
  -12.8960   -8.3789    7.6347 C   0  0  0  0  0  0  0  0  0  0  0  0
  -13.6404   -7.4615   10.4904 F   0  0  0  0  0  0  0  0  0  0  0  0
  -13.0789   -6.6785    9.4389 C   0  0  0  0  0  0  0  0  0  0  0  0
  -11.7724   -6.5761    9.7326 F   0  0  0  0  0  0  0  0  0  0  0  0
  -13.8150   -5.4844    9.6928 F   0  0  0  0  0  0  0  0  0  0  0  0
 33 34  1  0  0  0
 34 35  1  0  0  0
 34 36  1  0  0  0
 34 26  1  0  0  0
 26 27  2  0  0  0
 27 28  1  0  0  0
 28 29  1  0  0  0
 28 30  2  0  0  0
 30 31  1  0  0  0
 31 32  2  0  0  0
 32 25  1  0  0  0
 25  1  1  0  0  0
  1  2  1  0  0  0
  2  3  2  0  0  0
  3  4  1  0  0  0
  4  5  2  0  0  0
  5  6  1  0  0  0
  6 10  1  0  0  0
 10 11  2  0  0  0
 11 12  1  0  0  0
 12 13  1  0  0  0
 13 14  2  0  0  0
 13 15  1  0  0  0
 15 18  1  0  0  0
 18 19  1  0  0  0
 19 20  2  0  0  0
 20 21  1  0  0  0
 21 22  2  0  0  0
 22 23  1  0  0  0
 15 16  1  0  0  0
 16 17  2  0  0  0
  6  7  2  0  0  0
  7  8  1  0  0  0
  8  9  2  0  0  0
 32 26  1  0  0  0
  9  1  1  0  0  0
  9  4  1  0  0  0
 16 11  1  0  0  0
 23 19  1  0  0  0
 23 24  1  0  0  0
M  END
> <minimizedAffinity>
-8.89273

> <CNNscore>
0.3846466541

> <CNNaffinity>
7.1411070824

> <CNN_VS>
2.7468030453

> <CNNaffinity_variance>
0.1070840359

$$$$
[H]/C(=C1/SC(=O)N(C([H])([H])c2nnnn2[H])C1=O)c1c([H])c([H])c2c(c([H])nn2C([H])([H])c2c([H])c([H])c(Cl)c([H])c2C(F)(F)F)c1[H]


 36 40  0  0  0  0  0  0  0  0999 V2000
   -9.1877  -10.4891    5.2840 N   0  0  0  0  0  0  0  0  0  0  0  0
   -8.4108  -10.3655    6.3246 N   0  0  0  0  0  0  0  0  0  0  0  0
   -9.0574  -10.0246    7.4313 C   0  0  0  0  0  0  0  0  0  0  0  0
  -10.3794   -9.9139    7.0864 C   0  0  0  0  0  0  0  0  0  0  0  0
  -11.4909   -9.5788    7.8593 C   0  0  0  0  0  0  0  0  0  0  0  0
  -12.7306   -9.5299    7.2751 C   0  0  0  0  0  0  0  0  0  0  0  0
  -12.8141   -9.8214    5.9203 C   0  0  0  0  0  0  0  0  0  0  0  0
  -11.7034  -10.1551    5.1536 C   0  0  0  0  0  0  0  0  0  0  0  0
  -10.4467  -10.2065    5.7414 C   0  0  0  0  0  0  0  0  0  0  0  0
  -13.9765   -9.2070    7.9570 C   0  0  0  0  0  0  0  0  0  0  0  0
  -15.0432   -8.7128    7.3940 C   0  0  0  0  0  0  0  0  0  0  0  0
  -15.1952   -8.3223    5.6377 S   0  0  0  0  0  0  0  0  0  0  0  0
  -16.9909   -8.2616    5.6503 C   0  0  0  0  0  0  0  0  0  0  0  0
  -17.7449   -8.3336    4.6467 O   0  0  0  0  0  0  0  0  0  0  0  0
  -17.3387   -8.1185    7.0125 N   0  0  0  0  0  0  0  0  0  0  0  0
  -16.3429   -8.3477    7.9404 C   0  0  0  0  0  0  0  0  0  0  0  0
  -16.4880   -8.2615    9.2116 O   0  0  0  0  0  0  0  0  0  0  0  0
  -18.7192   -7.7413    7.3743 C   0  0  0  0  0  0  0  0  0  0  0  0
  -19.6323   -8.9114    7.1748 C   0  0  0  0  0  0  0  0  0  0  0  0
  -20.1972   -9.7187    8.0706 N   0  0  0  0  0  0  0  0  0  0  0  0
  -20.9347  -10.6255    7.4421 N   0  0  0  0  0  0  0  0  0  0  0  0
  -20.8380  -10.3927    6.1312 N   0  0  0  0  0  0  0  0  0  0  0  0
  -20.0474   -9.3504    5.9491 N   0  0  0  0  0  0  0  0  0  0  0  0
  -19.8051   -8.9590    5.0094 H   0  0  0  0  0  0  0  0  0  0  0  0
   -8.8200  -10.7912    3.9386 C   0  0  0  0  0  0  0  0  0  0  0  0
   -7.9859  -12.4574    2.2732 C   0  0  0  0  0  0  0  0  0  0  0  0
   -7.6531  -13.8098    2.0039 C   0  0  0  0  0  0  0  0  0  0  0  0
   -7.7352  -14.7667    2.9542 C   0  0  0  0  0  0  0  0  0  0  0  0
   -7.3018  -16.4226    2.5378 Cl  0  0  0  0  0  0  0  0  0  0  0  0
   -8.1491  -14.4226    4.2041 C   0  0  0  0  0  0  0  0  0  0  0  0
   -8.4673  -13.1318    4.4605 C   0  0  0  0  0  0  0  0  0  0  0  0
   -8.4028  -12.0907    3.5148 C   0  0  0  0  0  0  0  0  0  0  0  0
   -6.8913  -12.0732    0.2270 F   0  0  0  0  0  0  0  0  0  0  0  0
   -7.8109  -11.5229    1.1681 C   0  0  0  0  0  0  0  0  0  0  0  0
   -8.8900  -11.1764    0.4475 F   0  0  0  0  0  0  0  0  0  0  0  0
   -7.0129  -10.4118    1.5688 F   0  0  0  0  0  0  0  0  0  0  0  0
 33 34  1  0  0  0
 34 35  1  0  0  0
 34 36  1  0  0  0
 34 26  1  0  0  0
 26 27  2  0  0  0
 27 28  1  0  0  0
 28 29  1  0  0  0
 28 30  2  0  0  0
 30 31  1  0  0  0
 31 32  2  0  0  0
 32 25  1  0  0  0
 25  1  1  0  0  0
  1  2  1  0  0  0
  2  3  2  0  0  0
  3  4  1  0  0  0
  4  5  2  0  0  0
  5  6  1  0  0  0
  6 10  1  0  0  0
 10 11  2  0  0  0
 11 12  1  0  0  0
 12 13  1  0  0  0
 13 14  2  0  0  0
 13 15  1  0  0  0
 15 18  1  0  0  0
 18 19  1  0  0  0
 19 20  2  0  0  0
 20 21  1  0  0  0
 21 22  2  0  0  0
 22 23  1  0  0  0
 15 16  1  0  0  0
 16 17  2  0  0  0
  6  7  2  0  0  0
  7  8  1  0  0  0
  8  9  2  0  0  0
 32 26  1  0  0  0
  9  1  1  0  0  0
  9  4  1  0  0  0
 16 11  1  0  0  0
 23 19  1  0  0  0
 23 24  1  0  0  0
M  END
> <minimizedAffinity>
10.27294

> <CNNscore>
0.3337315023

> <CNNaffinity>
6.4962134361

> <CNN_VS>
2.1679911613

> <CNNaffinity_variance>
0.4854017198

$$$$
[H]/C(=C1/SC(=O)N(C([H])([H])c2nnnn2[H])C1=O)c1c([H])c([H])c2c(c([H])nn2C([H])([H])c2c([H])c([H])c(Cl)c([H])c2C(F)(F)F)c1[H]


 36 40  0  0  0  0  0  0  0  0999 V2000
   -9.2367   -9.2442    7.5083 N   0  0  0  0  0  0  0  0  0  0  0  0
   -8.5585  -10.2681    7.9479 N   0  0  0  0  0  0  0  0  0  0  0  0
   -7.2443  -10.1053    7.8724 C   0  0  0  0  0  0  0  0  0  0  0  0
   -7.0407   -8.8612    7.3341 C   0  0  0  0  0  0  0  0  0  0  0  0
   -5.8566   -8.1877    7.0352 C   0  0  0  0  0  0  0  0  0  0  0  0
   -5.9130   -6.9313    6.4884 C   0  0  0  0  0  0  0  0  0  0  0  0
   -7.1692   -6.3874    6.2570 C   0  0  0  0  0  0  0  0  0  0  0  0
   -8.3472   -7.0624    6.5566 C   0  0  0  0  0  0  0  0  0  0  0  0
   -8.2944   -8.3341    7.1109 C   0  0  0  0  0  0  0  0  0  0  0  0
   -4.7642   -6.1080    6.1365 C   0  0  0  0  0  0  0  0  0  0  0  0
   -4.0699   -5.3806    6.9659 C   0  0  0  0  0  0  0  0  0  0  0  0
   -4.3943   -5.2426    8.7367 S   0  0  0  0  0  0  0  0  0  0  0  0
   -2.7712   -4.5843    9.1377 C   0  0  0  0  0  0  0  0  0  0  0  0
   -2.2401   -4.5568   10.2771 O   0  0  0  0  0  0  0  0  0  0  0  0
   -2.2542   -4.1213    7.9068 N   0  0  0  0  0  0  0  0  0  0  0  0
   -2.9119   -4.5214    6.7611 C   0  0  0  0  0  0  0  0  0  0  0  0
   -2.5765   -4.1933    5.5677 O   0  0  0  0  0  0  0  0  0  0  0  0
   -1.0606   -3.2528    7.9005 C   0  0  0  0  0  0  0  0  0  0  0  0
   -1.4504   -1.8543    8.2678 C   0  0  0  0  0  0  0  0  0  0  0  0
   -1.8493   -0.8460    7.4949 N   0  0  0  0  0  0  0  0  0  0  0  0
   -2.0918    0.2179    8.2501 N   0  0  0  0  0  0  0  0  0  0  0  0
   -1.8442   -0.1171    9.5184 N   0  0  0  0  0  0  0  0  0  0  0  0
   -1.4518   -1.3779    9.5486 N   0  0  0  0  0  0  0  0  0  0  0  0
   -1.1946   -1.8881   10.4252 H   0  0  0  0  0  0  0  0  0  0  0  0
  -10.6528   -9.1048    7.3979 C   0  0  0  0  0  0  0  0  0  0  0  0
  -12.7677   -8.1458    8.3213 C   0  0  0  0  0  0  0  0  0  0  0  0
  -13.3718   -7.1446    9.1244 C   0  0  0  0  0  0  0  0  0  0  0  0
  -12.6381   -6.2236    9.7868 C   0  0  0  0  0  0  0  0  0  0  0  0
  -13.4665   -5.0147   10.7645 Cl  0  0  0  0  0  0  0  0  0  0  0  0
  -11.2819   -6.2579    9.6798 C   0  0  0  0  0  0  0  0  0  0  0  0
  -10.7057   -7.2132    8.9126 C   0  0  0  0  0  0  0  0  0  0  0  0
  -11.4142   -8.1987    8.1989 C   0  0  0  0  0  0  0  0  0  0  0  0
  -14.9938   -8.8960    8.2029 F   0  0  0  0  0  0  0  0  0  0  0  0
  -13.6759   -9.1005    7.6977 C   0  0  0  0  0  0  0  0  0  0  0  0
  -13.8025   -9.0823    6.3608 F   0  0  0  0  0  0  0  0  0  0  0  0
  -13.4800  -10.4069    8.2335 F   0  0  0  0  0  0  0  0  0  0  0  0
 33 34  1  0  0  0
 34 35  1  0  0  0
 34 36  1  0  0  0
 34 26  1  0  0  0
 26 27  2  0  0  0
 27 28  1  0  0  0
 28 29  1  0  0  0
 28 30  2  0  0  0
 30 31  1  0  0  0
 31 32  2  0  0  0
 32 25  1  0  0  0
 25  1  1  0  0  0
  1  2  1  0  0  0
  2  3  2  0  0  0
  3  4  1  0  0  0
  4  5  2  0  0  0
  5  6  1  0  0  0
  6 10  1  0  0  0
 10 11  2  0  0  0
 11 12  1  0  0  0
 12 13  1  0  0  0
 13 14  2  0  0  0
 13 15  1  0  0  0
 15 18  1  0  0  0
 18 19  1  0  0  0
 19 20  2  0  0  0
 20 21  1  0  0  0
 21 22  2  0  0  0
 22 23  1  0  0  0
 15 16  1  0  0  0
 16 17  2  0  0  0
  6  7  2  0  0  0
  7  8  1  0  0  0
  8  9  2  0  0  0
 32 26  1  0  0  0
  9  1  1  0  0  0
  9  4  1  0  0  0
 16 11  1  0  0  0
 23 19  1  0  0  0
 23 24  1  0  0  0
M  END
> <minimizedAffinity>
-8.57341

> <CNNscore>
0.2646296024

> <CNNaffinity>
6.4299292564

> <CNN_VS>
1.7015496492

> <CNNaffinity_variance>
0.1489854753

$$$$
[H]/C(=C1/SC(=O)N(C([H])([H])c2nnnn2[H])C1=O)c1c([H])c([H])c2c(c([H])nn2C([H])([H])c2c([H])c([H])c(Cl)c([H])c2C(F)(F)F)c1[H]


 36 40  0  0  0  0  0  0  0  0999 V2000
  -11.1841   -9.8189    7.2159 N   0  0  0  0  0  0  0  0  0  0  0  0
  -10.6353  -10.7473    6.4820 N   0  0  0  0  0  0  0  0  0  0  0  0
   -9.3153  -10.6471    6.4001 C   0  0  0  0  0  0  0  0  0  0  0  0
   -8.9649   -9.5532    7.1482 C   0  0  0  0  0  0  0  0  0  0  0  0
   -7.7127   -8.9940    7.4015 C   0  0  0  0  0  0  0  0  0  0  0  0
   -7.6184   -7.8770    8.1915 C   0  0  0  0  0  0  0  0  0  0  0  0
   -8.7965   -7.3528    8.7057 C   0  0  0  0  0  0  0  0  0  0  0  0
  -10.0429   -7.9135    8.4507 C   0  0  0  0  0  0  0  0  0  0  0  0
  -10.1426   -9.0447    7.6521 C   0  0  0  0  0  0  0  0  0  0  0  0
   -6.3826   -7.1940    8.5492 C   0  0  0  0  0  0  0  0  0  0  0  0
   -5.5651   -6.6182    7.7131 C   0  0  0  0  0  0  0  0  0  0  0  0
   -5.7988   -6.5501    5.9241 S   0  0  0  0  0  0  0  0  0  0  0  0
   -4.6358   -5.2042    5.6699 C   0  0  0  0  0  0  0  0  0  0  0  0
   -4.5626   -4.4657    4.6549 O   0  0  0  0  0  0  0  0  0  0  0  0
   -3.8511   -5.1772    6.8448 N   0  0  0  0  0  0  0  0  0  0  0  0
   -4.3126   -5.9050    7.9230 C   0  0  0  0  0  0  0  0  0  0  0  0
   -3.7252   -5.9886    9.0598 O   0  0  0  0  0  0  0  0  0  0  0  0
   -2.6033   -4.3888    6.8674 C   0  0  0  0  0  0  0  0  0  0  0  0
   -2.9008   -2.9824    7.2875 C   0  0  0  0  0  0  0  0  0  0  0  0
   -2.7800   -2.4016    8.4796 N   0  0  0  0  0  0  0  0  0  0  0  0
   -3.1600   -1.1332    8.3914 N   0  0  0  0  0  0  0  0  0  0  0  0
   -3.5271   -0.9042    7.1286 N   0  0  0  0  0  0  0  0  0  0  0  0
   -3.3755   -2.0212    6.4402 N   0  0  0  0  0  0  0  0  0  0  0  0
   -3.5938   -2.1125    5.4209 H   0  0  0  0  0  0  0  0  0  0  0  0
  -12.5710   -9.6006    7.4721 C   0  0  0  0  0  0  0  0  0  0  0  0
  -13.7061   -7.3782    7.3397 C   0  0  0  0  0  0  0  0  0  0  0  0
  -14.5132   -6.4952    6.5772 C   0  0  0  0  0  0  0  0  0  0  0  0
  -14.9344   -6.8101    5.3326 C   0  0  0  0  0  0  0  0  0  0  0  0
  -15.9328   -5.6563    4.4520 Cl  0  0  0  0  0  0  0  0  0  0  0  0
  -14.5741   -8.0079    4.7966 C   0  0  0  0  0  0  0  0  0  0  0  0
  -13.8044   -8.8506    5.5249 C   0  0  0  0  0  0  0  0  0  0  0  0
  -13.3348   -8.5810    6.8246 C   0  0  0  0  0  0  0  0  0  0  0  0
  -14.0955   -5.7769    9.0180 F   0  0  0  0  0  0  0  0  0  0  0  0
  -13.2886   -6.8937    8.6496 C   0  0  0  0  0  0  0  0  0  0  0  0
  -13.3534   -7.7367    9.6930 F   0  0  0  0  0  0  0  0  0  0  0  0
  -12.0491   -6.1957    8.5575 F   0  0  0  0  0  0  0  0  0  0  0  0
 33 34  1  0  0  0
 34 35  1  0  0  0
 34 36  1  0  0  0
 34 26  1  0  0  0
 26 27  2  0  0  0
 27 28  1  0  0  0
 28 29  1  0  0  0
 28 30  2  0  0  0
 30 31  1  0  0  0
 31 32  2  0  0  0
 32 25  1  0  0  0
 25  1  1  0  0  0
  1  2  1  0  0  0
  2  3  2  0  0  0
  3  4  1  0  0  0
  4  5  2  0  0  0
  5  6  1  0  0  0
  6 10  1  0  0  0
 10 11  2  0  0  0
 11 12  1  0  0  0
 12 13  1  0  0  0
 13 14  2  0  0  0
 13 15  1  0  0  0
 15 18  1  0  0  0
 18 19  1  0  0  0
 19 20  2  0  0  0
 20 21  1  0  0  0
 21 22  2  0  0  0
 22 23  1  0  0  0
 15 16  1  0  0  0
 16 17  2  0  0  0
  6  7  2  0  0  0
  7  8  1  0  0  0
  8  9  2  0  0  0
 32 26  1  0  0  0
  9  1  1  0  0  0
  9  4  1  0  0  0
 16 11  1  0  0  0
 23 19  1  0  0  0
 23 24  1  0  0  0
M  END
> <minimizedAffinity>
-8.86606

> <CNNscore>
0.1872164309

> <CNNaffinity>
6.9169893265

> <CNN_VS>
1.2949740887

> <CNNaffinity_variance>
0.0667560697

$$$$
[H]/C(=C1/SC(=O)N(C([H])([H])c2nnnn2[H])C1=O)c1c([H])c([H])c2c(c([H])nn2C([H])([H])c2c([H])c([H])c(Cl)c([H])c2C(F)(F)F)c1[H]


 36 40  0  0  0  0  0  0  0  0999 V2000
  -11.9434   -8.4700    7.5728 N   0  0  0  0  0  0  0  0  0  0  0  0
  -12.0879   -7.3527    8.2304 N   0  0  0  0  0  0  0  0  0  0  0  0
  -10.9390   -6.8040    8.6021 C   0  0  0  0  0  0  0  0  0  0  0  0
   -9.9497   -7.6366    8.1474 C   0  0  0  0  0  0  0  0  0  0  0  0
   -8.5631   -7.5413    8.2628 C   0  0  0  0  0  0  0  0  0  0  0  0
   -7.7705   -8.5191    7.7184 C   0  0  0  0  0  0  0  0  0  0  0  0
   -8.4028   -9.5712    7.0700 C   0  0  0  0  0  0  0  0  0  0  0  0
   -9.7855   -9.6623    6.9571 C   0  0  0  0  0  0  0  0  0  0  0  0
  -10.5913   -8.6742    7.5062 C   0  0  0  0  0  0  0  0  0  0  0  0
   -6.3146   -8.5459    7.7518 C   0  0  0  0  0  0  0  0  0  0  0  0
   -5.5259   -7.7551    7.0797 C   0  0  0  0  0  0  0  0  0  0  0  0
   -6.0822   -6.4539    5.9585 S   0  0  0  0  0  0  0  0  0  0  0  0
   -4.5097   -5.5846    5.9424 C   0  0  0  0  0  0  0  0  0  0  0  0
   -4.3203   -4.3959    5.5788 O   0  0  0  0  0  0  0  0  0  0  0  0
   -3.5707   -6.5263    6.4203 N   0  0  0  0  0  0  0  0  0  0  0  0
   -4.0737   -7.6650    7.0165 C   0  0  0  0  0  0  0  0  0  0  0  0
   -3.3636   -8.6162    7.5016 O   0  0  0  0  0  0  0  0  0  0  0  0
   -2.1277   -6.2559    6.2663 C   0  0  0  0  0  0  0  0  0  0  0  0
   -1.7461   -6.3519    4.8214 C   0  0  0  0  0  0  0  0  0  0  0  0
   -1.2481   -7.3779    4.1340 N   0  0  0  0  0  0  0  0  0  0  0  0
   -1.0600   -7.0123    2.8723 N   0  0  0  0  0  0  0  0  0  0  0  0
   -1.4427   -5.7387    2.7553 N   0  0  0  0  0  0  0  0  0  0  0  0
   -1.8644   -5.3191    3.9345 N   0  0  0  0  0  0  0  0  0  0  0  0
   -2.2205   -4.3521    4.1166 H   0  0  0  0  0  0  0  0  0  0  0  0
  -12.9599   -9.3395    7.0755 C   0  0  0  0  0  0  0  0  0  0  0  0
  -15.2501   -8.4029    6.7246 C   0  0  0  0  0  0  0  0  0  0  0  0
  -16.2606   -8.0399    5.7975 C   0  0  0  0  0  0  0  0  0  0  0  0
  -16.0792   -8.1566    4.4638 C   0  0  0  0  0  0  0  0  0  0  0  0
  -17.3844   -7.6820    3.3800 Cl  0  0  0  0  0  0  0  0  0  0  0  0
  -14.8939   -8.6361    3.9977 C   0  0  0  0  0  0  0  0  0  0  0  0
  -13.9300   -8.9832    4.8830 C   0  0  0  0  0  0  0  0  0  0  0  0
  -14.0581   -8.8854    6.2817 C   0  0  0  0  0  0  0  0  0  0  0  0
  -16.9173   -7.7507    8.2502 F   0  0  0  0  0  0  0  0  0  0  0  0
  -15.5642   -8.1855    8.1314 C   0  0  0  0  0  0  0  0  0  0  0  0
  -15.4493   -9.2209    8.9791 F   0  0  0  0  0  0  0  0  0  0  0  0
  -14.9502   -6.9899    8.6063 F   0  0  0  0  0  0  0  0  0  0  0  0
 33 34  1  0  0  0
 34 35  1  0  0  0
 34 36  1  0  0  0
 34 26  1  0  0  0
 26 27  2  0  0  0
 27 28  1  0  0  0
 28 29  1  0  0  0
 28 30  2  0  0  0
 30 31  1  0  0  0
 31 32  2  0  0  0
 32 25  1  0  0  0
 25  1  1  0  0  0
  1  2  1  0  0  0
  2  3  2  0  0  0
  3  4  1  0  0  0
  4  5  2  0  0  0
  5  6  1  0  0  0
  6 10  1  0  0  0
 10 11  2  0  0  0
 11 12  1  0  0  0
 12 13  1  0  0  0
 13 14  2  0  0  0
 13 15  1  0  0  0
 15 18  1  0  0  0
 18 19  1  0  0  0
 19 20  2  0  0  0
 20 21  1  0  0  0
 21 22  2  0  0  0
 22 23  1  0  0  0
 15 16  1  0  0  0
 16 17  2  0  0  0
  6  7  2  0  0  0
  7  8  1  0  0  0
  8  9  2  0  0  0
 32 26  1  0  0  0
  9  1  1  0  0  0
  9  4  1  0  0  0
 16 11  1  0  0  0
 23 19  1  0  0  0
 23 24  1  0  0  0
M  END
> <minimizedAffinity>
-9.53871

> <CNNscore>
0.1708131284

> <CNNaffinity>
6.7183747292

> <CNN_VS>
1.1475865841

> <CNNaffinity_variance>
0.0558905825

$$$$
[H]/C(=C1/SC(=O)N(C([H])([H])c2nnnn2[H])C1=O)c1c([H])c([H])c2c(c([H])nn2C([H])([H])c2c([H])c([H])c(Cl)c([H])c2C(F)(F)F)c1[H]


 36 40  0  0  0  0  0  0  0  0999 V2000
   -8.1936   -9.2221    7.3343 N   0  0  0  0  0  0  0  0  0  0  0  0
   -8.2706  -10.5227    7.3996 N   0  0  0  0  0  0  0  0  0  0  0  0
   -9.5156  -10.9795    7.4206 C   0  0  0  0  0  0  0  0  0  0  0  0
  -10.3307   -9.8789    7.3640 C   0  0  0  0  0  0  0  0  0  0  0  0
  -11.7220   -9.7829    7.3600 C   0  0  0  0  0  0  0  0  0  0  0  0
  -12.3143   -8.5475    7.3007 C   0  0  0  0  0  0  0  0  0  0  0  0
  -11.4816   -7.4380    7.2476 C   0  0  0  0  0  0  0  0  0  0  0  0
  -10.0949   -7.5383    7.2518 C   0  0  0  0  0  0  0  0  0  0  0  0
   -9.4914   -8.7871    7.3109 C   0  0  0  0  0  0  0  0  0  0  0  0
  -13.7487   -8.2957    7.2782 C   0  0  0  0  0  0  0  0  0  0  0  0
  -14.3581   -7.4506    6.4949 C   0  0  0  0  0  0  0  0  0  0  0  0
  -13.5409   -6.4086    5.2676 S   0  0  0  0  0  0  0  0  0  0  0  0
  -15.0427   -6.0493    4.3489 C   0  0  0  0  0  0  0  0  0  0  0  0
  -15.1084   -5.6079    3.1734 O   0  0  0  0  0  0  0  0  0  0  0  0
  -16.0950   -6.3714    5.2354 N   0  0  0  0  0  0  0  0  0  0  0  0
  -15.7653   -7.1002    6.3603 C   0  0  0  0  0  0  0  0  0  0  0  0
  -16.5950   -7.4746    7.2635 O   0  0  0  0  0  0  0  0  0  0  0  0
  -17.4681   -5.9266    4.9256 C   0  0  0  0  0  0  0  0  0  0  0  0
  -18.4143   -7.0806    5.0507 C   0  0  0  0  0  0  0  0  0  0  0  0
  -18.4071   -8.1048    5.9016 N   0  0  0  0  0  0  0  0  0  0  0  0
  -19.4430   -8.8945    5.6481 N   0  0  0  0  0  0  0  0  0  0  0  0
  -20.1172   -8.3668    4.6238 N   0  0  0  0  0  0  0  0  0  0  0  0
  -19.5042   -7.2595    4.2462 N   0  0  0  0  0  0  0  0  0  0  0  0
  -19.8303   -6.6514    3.4595 H   0  0  0  0  0  0  0  0  0  0  0  0
   -7.0234   -8.4053    7.3463 C   0  0  0  0  0  0  0  0  0  0  0  0
   -5.7791   -6.5598    8.4827 C   0  0  0  0  0  0  0  0  0  0  0  0
   -5.4490   -5.9208    9.7054 C   0  0  0  0  0  0  0  0  0  0  0  0
   -5.9570   -6.3362   10.8864 C   0  0  0  0  0  0  0  0  0  0  0  0
   -5.4975   -5.4864   12.3595 Cl  0  0  0  0  0  0  0  0  0  0  0  0
   -6.8087   -7.3975   10.9025 C   0  0  0  0  0  0  0  0  0  0  0  0
   -7.1229   -8.0076    9.7353 C   0  0  0  0  0  0  0  0  0  0  0  0
   -6.6273   -7.6229    8.4748 C   0  0  0  0  0  0  0  0  0  0  0  0
   -6.1766   -5.1989    6.6059 F   0  0  0  0  0  0  0  0  0  0  0  0
   -5.1930   -5.9815    7.2797 C   0  0  0  0  0  0  0  0  0  0  0  0
   -4.1281   -5.1740    7.4125 F   0  0  0  0  0  0  0  0  0  0  0  0
   -5.0322   -6.9745    6.2695 F   0  0  0  0  0  0  0  0  0  0  0  0
 33 34  1  0  0  0
 34 35  1  0  0  0
 34 36  1  0  0  0
 34 26  1  0  0  0
 26 27  2  0  0  0
 27 28  1  0  0  0
 28 29  1  0  0  0
 28 30  2  0  0  0
 30 31  1  0  0  0
 31 32  2  0  0  0
 32 25  1  0  0  0
 25  1  1  0  0  0
  1  2  1  0  0  0
  2  3  2  0  0  0
  3  4  1  0  0  0
  4  5  2  0  0  0
  5  6  1  0  0  0
  6 10  1  0  0  0
 10 11  2  0  0  0
 11 12  1  0  0  0
 12 13  1  0  0  0
 13 14  2  0  0  0
 13 15  1  0  0  0
 15 18  1  0  0  0
 18 19  1  0  0  0
 19 20  2  0  0  0
 20 21  1  0  0  0
 21 22  2  0  0  0
 22 23  1  0  0  0
 15 16  1  0  0  0
 16 17  2  0  0  0
  6  7  2  0  0  0
  7  8  1  0  0  0
  8  9  2  0  0  0
 32 26  1  0  0  0
  9  1  1  0  0  0
  9  4  1  0  0  0
 16 11  1  0  0  0
 23 19  1  0  0  0
 23 24  1  0  0  0
M  END
> <minimizedAffinity>
4.29306

> <CNNscore>
0.1696929783

> <CNNaffinity>
6.8391065598

> <CNN_VS>
1.1605483294

> <CNNaffinity_variance>
1.2874840498

$$$$
[H]/C(=C1/SC(=O)N(C([H])([H])c2nnnn2[H])C1=O)c1c([H])c([H])c2c(c([H])nn2C([H])([H])c2c([H])c([H])c(Cl)c([H])c2C(F)(F)F)c1[H]


 36 40  0  0  0  0  0  0  0  0999 V2000
  -10.3032   -9.2831    7.8023 N   0  0  0  0  0  0  0  0  0  0  0  0
   -9.8450  -10.4518    7.4478 N   0  0  0  0  0  0  0  0  0  0  0  0
   -8.6617  -10.3986    6.8510 C   0  0  0  0  0  0  0  0  0  0  0  0
   -8.3106   -9.0742    6.8094 C   0  0  0  0  0  0  0  0  0  0  0  0
   -7.1731   -8.4558    6.2911 C   0  0  0  0  0  0  0  0  0  0  0  0
   -7.0515   -7.0919    6.3662 C   0  0  0  0  0  0  0  0  0  0  0  0
   -8.0867   -6.3868    6.9649 C   0  0  0  0  0  0  0  0  0  0  0  0
   -9.2190   -7.0075    7.4804 C   0  0  0  0  0  0  0  0  0  0  0  0
   -9.3456   -8.3880    7.4070 C   0  0  0  0  0  0  0  0  0  0  0  0
   -5.9204   -6.3140    5.8795 C   0  0  0  0  0  0  0  0  0  0  0  0
   -4.9381   -5.8656    6.6097 C   0  0  0  0  0  0  0  0  0  0  0  0
   -4.7782   -6.1182    8.3903 S   0  0  0  0  0  0  0  0  0  0  0  0
   -3.0273   -5.7184    8.4440 C   0  0  0  0  0  0  0  0  0  0  0  0
   -2.2264   -6.0057    9.3697 O   0  0  0  0  0  0  0  0  0  0  0  0
   -2.7766   -5.0275    7.2370 N   0  0  0  0  0  0  0  0  0  0  0  0
   -3.7555   -5.0882    6.2658 C   0  0  0  0  0  0  0  0  0  0  0  0
   -3.6889   -4.5206    5.1178 O   0  0  0  0  0  0  0  0  0  0  0  0
   -1.5082   -4.2907    7.0713 C   0  0  0  0  0  0  0  0  0  0  0  0
   -1.7228   -2.8395    7.3723 C   0  0  0  0  0  0  0  0  0  0  0  0
   -1.5342   -2.1630    8.5037 N   0  0  0  0  0  0  0  0  0  0  0  0
   -1.8550   -0.8895    8.3133 N   0  0  0  0  0  0  0  0  0  0  0  0
   -2.2524   -0.7539    7.0462 N   0  0  0  0  0  0  0  0  0  0  0  0
   -2.1784   -1.9334    6.4565 N   0  0  0  0  0  0  0  0  0  0  0  0
   -2.4347   -2.1027    5.4562 H   0  0  0  0  0  0  0  0  0  0  0  0
  -11.5550   -8.9739    8.4140 C   0  0  0  0  0  0  0  0  0  0  0  0
  -13.1736   -7.0826    8.1951 C   0  0  0  0  0  0  0  0  0  0  0  0
  -14.2212   -6.4907    7.4436 C   0  0  0  0  0  0  0  0  0  0  0  0
  -14.6616   -7.0316    6.2865 C   0  0  0  0  0  0  0  0  0  0  0  0
  -15.9664   -6.2327    5.4131 Cl  0  0  0  0  0  0  0  0  0  0  0  0
  -14.0838   -8.1760    5.8301 C   0  0  0  0  0  0  0  0  0  0  0  0
  -13.0845   -8.7409    6.5480 C   0  0  0  0  0  0  0  0  0  0  0  0
  -12.5822   -8.2269    7.7588 C   0  0  0  0  0  0  0  0  0  0  0  0
  -12.9898   -7.2049   10.5369 F   0  0  0  0  0  0  0  0  0  0  0  0
  -12.7700   -6.3705    9.4014 C   0  0  0  0  0  0  0  0  0  0  0  0
  -11.4952   -5.9605    9.5048 F   0  0  0  0  0  0  0  0  0  0  0  0
  -13.7212   -5.3622    9.7339 F   0  0  0  0  0  0  0  0  0  0  0  0
 33 34  1  0  0  0
 34 35  1  0  0  0
 34 36  1  0  0  0
 34 26  1  0  0  0
 26 27  2  0  0  0
 27 28  1  0  0  0
 28 29  1  0  0  0
 28 30  2  0  0  0
 30 31  1  0  0  0
 31 32  2  0  0  0
 32 25  1  0  0  0
 25  1  1  0  0  0
  1  2  1  0  0  0
  2  3  2  0  0  0
  3  4  1  0  0  0
  4  5  2  0  0  0
  5  6  1  0  0  0
  6 10  1  0  0  0
 10 11  2  0  0  0
 11 12  1  0  0  0
 12 13  1  0  0  0
 13 14  2  0  0  0
 13 15  1  0  0  0
 15 18  1  0  0  0
 18 19  1  0  0  0
 19 20  2  0  0  0
 20 21  1  0  0  0
 21 22  2  0  0  0
 22 23  1  0  0  0
 15 16  1  0  0  0
 16 17  2  0  0  0
  6  7  2  0  0  0
  7  8  1  0  0  0
  8  9  2  0  0  0
 32 26  1  0  0  0
  9  1  1  0  0  0
  9  4  1  0  0  0
 16 11  1  0  0  0
 23 19  1  0  0  0
 23 24  1  0  0  0
M  END
> <minimizedAffinity>
-8.65088

> <CNNscore>
0.1598584950

> <CNNaffinity>
6.8706831932

> <CNN_VS>
1.0983370543

> <CNNaffinity_variance>
0.0947727486

$$$$
[H]/C(=C1/SC(=O)N(C([H])([H])c2nnnn2[H])C1=O)c1c([H])c([H])c2c(c([H])nn2C([H])([H])c2c([H])c([H])c(Cl)c([H])c2C(F)(F)F)c1[H]


 36 40  0  0  0  0  0  0  0  0999 V2000
   -7.3945   -8.2925    8.6867 N   0  0  0  0  0  0  0  0  0  0  0  0
   -7.8203   -9.5185    8.8178 N   0  0  0  0  0  0  0  0  0  0  0  0
   -9.0307   -9.7162    8.3128 C   0  0  0  0  0  0  0  0  0  0  0  0
   -9.4373   -8.5102    7.8037 C   0  0  0  0  0  0  0  0  0  0  0  0
  -10.6239   -8.1518    7.1647 C   0  0  0  0  0  0  0  0  0  0  0  0
  -10.8008   -6.8591    6.7426 C   0  0  0  0  0  0  0  0  0  0  0  0
   -9.7700   -5.9596    6.9789 C   0  0  0  0  0  0  0  0  0  0  0  0
   -8.5885   -6.3212    7.6164 C   0  0  0  0  0  0  0  0  0  0  0  0
   -8.4053   -7.6290    8.0445 C   0  0  0  0  0  0  0  0  0  0  0  0
  -11.9776   -6.3458    6.0548 C   0  0  0  0  0  0  0  0  0  0  0  0
  -13.1980   -6.7739    6.2174 C   0  0  0  0  0  0  0  0  0  0  0  0
  -13.6833   -8.1040    7.3377 S   0  0  0  0  0  0  0  0  0  0  0  0
  -15.4247   -7.6616    7.3537 C   0  0  0  0  0  0  0  0  0  0  0  0
  -16.2769   -8.0247    8.2039 O   0  0  0  0  0  0  0  0  0  0  0  0
  -15.5988   -6.8362    6.2200 N   0  0  0  0  0  0  0  0  0  0  0  0
  -14.4556   -6.3609    5.6098 C   0  0  0  0  0  0  0  0  0  0  0  0
  -14.4344   -5.6035    4.5753 O   0  0  0  0  0  0  0  0  0  0  0  0
  -16.9633   -6.5243    5.7508 C   0  0  0  0  0  0  0  0  0  0  0  0
  -17.7887   -7.7737    5.7286 C   0  0  0  0  0  0  0  0  0  0  0  0
  -18.1521   -8.5412    4.7029 N   0  0  0  0  0  0  0  0  0  0  0  0
  -18.8863   -9.5527    5.1490 N   0  0  0  0  0  0  0  0  0  0  0  0
  -18.9915   -9.4273    6.4738 N   0  0  0  0  0  0  0  0  0  0  0  0
  -18.3280   -8.3474    6.8454 N   0  0  0  0  0  0  0  0  0  0  0  0
  -18.2527   -8.0212    7.8368 H   0  0  0  0  0  0  0  0  0  0  0  0
   -6.1715   -7.7275    9.1575 C   0  0  0  0  0  0  0  0  0  0  0  0
   -4.3623   -6.0992    8.5912 C   0  0  0  0  0  0  0  0  0  0  0  0
   -3.4935   -5.5805    7.5970 C   0  0  0  0  0  0  0  0  0  0  0  0
   -3.4706   -6.0775    6.3409 C   0  0  0  0  0  0  0  0  0  0  0  0
   -2.3603   -5.3775    5.1659 Cl  0  0  0  0  0  0  0  0  0  0  0  0
   -4.3049   -7.1041    6.0214 C   0  0  0  0  0  0  0  0  0  0  0  0
   -5.1345   -7.5985    6.9704 C   0  0  0  0  0  0  0  0  0  0  0  0
   -5.2054   -7.1243    8.2943 C   0  0  0  0  0  0  0  0  0  0  0  0
   -5.5546   -5.1611   10.3888 F   0  0  0  0  0  0  0  0  0  0  0  0
   -4.2523   -5.4975    9.9144 C   0  0  0  0  0  0  0  0  0  0  0  0
   -3.6921   -6.2184   10.8994 F   0  0  0  0  0  0  0  0  0  0  0  0
   -3.7465   -4.1679    9.8234 F   0  0  0  0  0  0  0  0  0  0  0  0
 33 34  1  0  0  0
 34 35  1  0  0  0
 34 36  1  0  0  0
 34 26  1  0  0  0
 26 27  2  0  0  0
 27 28  1  0  0  0
 28 29  1  0  0  0
 28 30  2  0  0  0
 30 31  1  0  0  0
 31 32  2  0  0  0
 32 25  1  0  0  0
 25  1  1  0  0  0
  1  2  1  0  0  0
  2  3  2  0  0  0
  3  4  1  0  0  0
  4  5  2  0  0  0
  5  6  1  0  0  0
  6 10  1  0  0  0
 10 11  2  0  0  0
 11 12  1  0  0  0
 12 13  1  0  0  0
 13 14  2  0  0  0
 13 15  1  0  0  0
 15 18  1  0  0  0
 18 19  1  0  0  0
 19 20  2  0  0  0
 20 21  1  0  0  0
 21 22  2  0  0  0
 22 23  1  0  0  0
 15 16  1  0  0  0
 16 17  2  0  0  0
  6  7  2  0  0  0
  7  8  1  0  0  0
  8  9  2  0  0  0
 32 26  1  0  0  0
  9  1  1  0  0  0
  9  4  1  0  0  0
 16 11  1  0  0  0
 23 19  1  0  0  0
 23 24  1  0  0  0
M  END
> <minimizedAffinity>
3.17287

> <CNNscore>
0.1514519900

> <CNNaffinity>
6.5042295456

> <CNN_VS>
0.9850785136

> <CNNaffinity_variance>
0.9376785159

$$$$
[H]/C(=C1/SC(=O)N(C([H])([H])c2nnnn2[H])C1=O)c1c([H])c([H])c2c(c([H])nn2C([H])([H])c2c([H])c([H])c(Cl)c([H])c2C(F)(F)F)c1[H]


 36 40  0  0  0  0  0  0  0  0999 V2000
  -13.8848   -8.6304    6.9474 N   0  0  0  0  0  0  0  0  0  0  0  0
  -13.5874   -9.7484    6.3448 N   0  0  0  0  0  0  0  0  0  0  0  0
  -12.3033  -10.0701    6.4281 C   0  0  0  0  0  0  0  0  0  0  0  0
  -11.7024   -9.0726    7.1511 C   0  0  0  0  0  0  0  0  0  0  0  0
  -10.3709   -8.9072    7.5313 C   0  0  0  0  0  0  0  0  0  0  0  0
  -10.0083   -7.8045    8.2615 C   0  0  0  0  0  0  0  0  0  0  0  0
  -11.0046   -6.8948    8.5887 C   0  0  0  0  0  0  0  0  0  0  0  0
  -12.3310   -7.0637    8.2077 C   0  0  0  0  0  0  0  0  0  0  0  0
  -12.7023   -8.1790    7.4691 C   0  0  0  0  0  0  0  0  0  0  0  0
   -8.6636   -7.5070    8.7357 C   0  0  0  0  0  0  0  0  0  0  0  0
   -7.6276   -7.2722    7.9802 C   0  0  0  0  0  0  0  0  0  0  0  0
   -7.6476   -7.2694    6.1748 S   0  0  0  0  0  0  0  0  0  0  0  0
   -6.1036   -6.3660    6.0071 C   0  0  0  0  0  0  0  0  0  0  0  0
   -5.7022   -5.7629    4.9794 O   0  0  0  0  0  0  0  0  0  0  0  0
   -5.4717   -6.4925    7.2647 N   0  0  0  0  0  0  0  0  0  0  0  0
   -6.2430   -6.9622    8.3086 C   0  0  0  0  0  0  0  0  0  0  0  0
   -5.8281   -7.1363    9.5095 O   0  0  0  0  0  0  0  0  0  0  0  0
   -4.0492   -6.1234    7.4037 C   0  0  0  0  0  0  0  0  0  0  0  0
   -3.1903   -7.1669    6.7586 C   0  0  0  0  0  0  0  0  0  0  0  0
   -3.1711   -8.4870    6.9325 N   0  0  0  0  0  0  0  0  0  0  0  0
   -2.2426   -9.0204    6.1487 N   0  0  0  0  0  0  0  0  0  0  0  0
   -1.6640   -8.0283    5.4682 N   0  0  0  0  0  0  0  0  0  0  0  0
   -2.2295   -6.8900    5.8272 N   0  0  0  0  0  0  0  0  0  0  0  0
   -1.9583   -5.9563    5.4404 H   0  0  0  0  0  0  0  0  0  0  0  0
  -15.1485   -7.9701    7.0098 C   0  0  0  0  0  0  0  0  0  0  0  0
  -16.6644   -7.0713    5.2380 C   0  0  0  0  0  0  0  0  0  0  0  0
  -16.9178   -6.0419    4.2953 C   0  0  0  0  0  0  0  0  0  0  0  0
  -16.1003   -4.9735    4.1699 C   0  0  0  0  0  0  0  0  0  0  0  0
  -16.4876   -3.7380    2.9755 Cl  0  0  0  0  0  0  0  0  0  0  0  0
  -15.0035   -4.8834    4.9703 C   0  0  0  0  0  0  0  0  0  0  0  0
  -14.7616   -5.8665    5.8694 C   0  0  0  0  0  0  0  0  0  0  0  0
  -15.5737   -7.0028    6.0476 C   0  0  0  0  0  0  0  0  0  0  0  0
  -17.1145   -9.3107    4.6766 F   0  0  0  0  0  0  0  0  0  0  0  0
  -17.6507   -8.1432    5.2957 C   0  0  0  0  0  0  0  0  0  0  0  0
  -18.0838   -8.5486    6.5006 F   0  0  0  0  0  0  0  0  0  0  0  0
  -18.7018   -7.9122    4.3609 F   0  0  0  0  0  0  0  0  0  0  0  0
 33 34  1  0  0  0
 34 35  1  0  0  0
 34 36  1  0  0  0
 34 26  1  0  0  0
 26 27  2  0  0  0
 27 28  1  0  0  0
 28 29  1  0  0  0
 28 30  2  0  0  0
 30 31  1  0  0  0
 31 32  2  0  0  0
 32 25  1  0  0  0
 25  1  1  0  0  0
  1  2  1  0  0  0
  2  3  2  0  0  0
  3  4  1  0  0  0
  4  5  2  0  0  0
  5  6  1  0  0  0
  6 10  1  0  0  0
 10 11  2  0  0  0
 11 12  1  0  0  0
 12 13  1  0  0  0
 13 14  2  0  0  0
 13 15  1  0  0  0
 15 18  1  0  0  0
 18 19  1  0  0  0
 19 20  2  0  0  0
 20 21  1  0  0  0
 21 22  2  0  0  0
 22 23  1  0  0  0
 15 16  1  0  0  0
 16 17  2  0  0  0
  6  7  2  0  0  0
  7  8  1  0  0  0
  8  9  2  0  0  0
 32 26  1  0  0  0
  9  1  1  0  0  0
  9  4  1  0  0  0
 16 11  1  0  0  0
 23 19  1  0  0  0
 23 24  1  0  0  0
M  END
> <minimizedAffinity>
-7.74259

> <CNNscore>
0.1487275809

> <CNNaffinity>
6.9211478233

> <CNN_VS>
1.0293655396

> <CNNaffinity_variance>
0.0681933239

$$$$
[H]OC1=NC(=O)C(=C([H])c2c([H])c([H])c(Oc3c([H])c([H])c(C(=O)OC([H])([H])[H])c(C(F)(F)F)c3[H])c(OC([H])([H])[H])c2[H])S1


 32 34  0  0  0  0  0  0  0  0999 V2000
  -11.9609   -8.9840    8.0420 C   0  0  0  0  0  0  0  0  0  0  0  0
  -11.4120   -9.9197    7.1962 C   0  0  0  0  0  0  0  0  0  0  0  0
  -10.0462   -9.9532    6.9387 C   0  0  0  0  0  0  0  0  0  0  0  0
   -9.1887   -9.0498    7.5214 C   0  0  0  0  0  0  0  0  0  0  0  0
   -9.7604   -8.1010    8.3805 C   0  0  0  0  0  0  0  0  0  0  0  0
  -11.1090   -8.0719    8.6316 C   0  0  0  0  0  0  0  0  0  0  0  0
   -7.7685   -9.0393    7.3323 C   0  0  0  0  0  0  0  0  0  0  0  0
   -7.0379   -8.0669    6.8615 C   0  0  0  0  0  0  0  0  0  0  0  0
   -5.2199   -8.1219    6.6540 S   0  0  0  0  0  0  0  0  0  0  0  0
   -5.0779   -6.4941    5.9506 C   0  0  0  0  0  0  0  0  0  0  0  0
   -3.8570   -5.9431    5.5690 O   0  0  0  0  0  0  0  0  0  0  0  0
   -6.2431   -6.0151    5.8910 N   0  0  0  0  0  0  0  0  0  0  0  0
   -7.3197   -6.7486    6.3339 C   0  0  0  0  0  0  0  0  0  0  0  0
   -8.5164   -6.2756    6.2740 O   0  0  0  0  0  0  0  0  0  0  0  0
   -3.3550   -5.2385    6.0817 H   0  0  0  0  0  0  0  0  0  0  0  0
  -11.6844   -7.1416    9.4778 O   0  0  0  0  0  0  0  0  0  0  0  0
  -11.1385   -5.8769    9.7067 C   0  0  0  0  0  0  0  0  0  0  0  0
  -13.2933   -8.9308    8.3107 O   0  0  0  0  0  0  0  0  0  0  0  0
  -16.3824   -7.8855    5.6850 C   0  0  0  0  0  0  0  0  0  0  0  0
  -16.4812   -7.7142    7.0746 C   0  0  0  0  0  0  0  0  0  0  0  0
  -15.4548   -8.0664    7.8909 C   0  0  0  0  0  0  0  0  0  0  0  0
  -14.2813   -8.6028    7.3966 C   0  0  0  0  0  0  0  0  0  0  0  0
  -14.1659   -8.7762    6.0513 C   0  0  0  0  0  0  0  0  0  0  0  0
  -15.2290   -8.4130    5.1907 C   0  0  0  0  0  0  0  0  0  0  0  0
  -14.9920   -8.6456    3.7573 C   0  0  0  0  0  0  0  0  0  0  0  0
  -13.6757   -9.1384    3.5629 F   0  0  0  0  0  0  0  0  0  0  0  0
  -15.8396   -9.6274    3.3042 F   0  0  0  0  0  0  0  0  0  0  0  0
  -15.1227   -7.5201    2.9839 F   0  0  0  0  0  0  0  0  0  0  0  0
  -17.5090   -7.5010    4.8661 C   0  0  0  0  0  0  0  0  0  0  0  0
  -18.4287   -8.3929    4.6507 O   0  0  0  0  0  0  0  0  0  0  0  0
  -17.0021   -5.1648    4.4776 C   0  0  0  0  0  0  0  0  0  0  0  0
  -17.7742   -6.3130    4.2600 O   0  0  0  0  0  0  0  0  0  0  0  0
 31 32  1  0  0  0
 32 29  1  0  0  0
 29 30  2  0  0  0
 29 19  1  0  0  0
 19 20  2  0  0  0
 20 21  1  0  0  0
 21 22  2  0  0  0
 22 18  1  0  0  0
 18  1  1  0  0  0
  1  2  2  0  0  0
  2  3  1  0  0  0
  3  4  2  0  0  0
  4  7  1  0  0  0
  7  8  2  0  0  0
  8  9  1  0  0  0
  9 10  1  0  0  0
 10 11  1  0  0  0
 10 12  2  0  0  0
 12 13  1  0  0  0
 13 14  2  0  0  0
  4  5  1  0  0  0
  5  6  2  0  0  0
  6 16  1  0  0  0
 16 17  1  0  0  0
 22 23  1  0  0  0
 23 24  2  0  0  0
 24 25  1  0  0  0
 25 26  1  0  0  0
 25 27  1  0  0  0
 25 28  1  0  0  0
 24 19  1  0  0  0
  6  1  1  0  0  0
 13  8  1  0  0  0
 11 15  1  0  0  0
M  END
> <minimizedAffinity>
-9.64210

> <CNNscore>
0.4564107060

> <CNNaffinity>
6.7224135399

> <CNN_VS>
3.0681815147

> <CNNaffinity_variance>
0.2135727108

$$$$
[H]OC1=NC(=O)C(=C([H])c2c([H])c([H])c(Oc3c([H])c([H])c(C(=O)OC([H])([H])[H])c(C(F)(F)F)c3[H])c(OC([H])([H])[H])c2[H])S1


 32 34  0  0  0  0  0  0  0  0999 V2000
  -12.7578   -6.8636    7.9347 C   0  0  0  0  0  0  0  0  0  0  0  0
  -13.5321   -7.5027    8.8750 C   0  0  0  0  0  0  0  0  0  0  0  0
  -14.8363   -7.8955    8.5964 C   0  0  0  0  0  0  0  0  0  0  0  0
  -15.4042   -7.6598    7.3664 C   0  0  0  0  0  0  0  0  0  0  0  0
  -14.6053   -7.0071    6.4172 C   0  0  0  0  0  0  0  0  0  0  0  0
  -13.3186   -6.6214    6.6969 C   0  0  0  0  0  0  0  0  0  0  0  0
  -16.7277   -8.0617    6.9923 C   0  0  0  0  0  0  0  0  0  0  0  0
  -17.5364   -7.4582    6.1660 C   0  0  0  0  0  0  0  0  0  0  0  0
  -19.2173   -8.0360    5.7283 S   0  0  0  0  0  0  0  0  0  0  0  0
  -19.5928   -6.6715    4.6502 C   0  0  0  0  0  0  0  0  0  0  0  0
  -20.8069   -6.5557    3.9778 O   0  0  0  0  0  0  0  0  0  0  0  0
  -18.5846   -5.9136    4.6497 N   0  0  0  0  0  0  0  0  0  0  0  0
  -17.4758   -6.2313    5.4000 C   0  0  0  0  0  0  0  0  0  0  0  0
  -16.4408   -5.4644    5.4145 O   0  0  0  0  0  0  0  0  0  0  0  0
  -20.9456   -6.7389    2.9987 H   0  0  0  0  0  0  0  0  0  0  0  0
  -12.5206   -5.9779    5.7687 O   0  0  0  0  0  0  0  0  0  0  0  0
  -13.0231   -5.3913    4.6054 C   0  0  0  0  0  0  0  0  0  0  0  0
  -11.4795   -6.4701    8.1824 O   0  0  0  0  0  0  0  0  0  0  0  0
   -8.1958   -9.0397    7.8032 C   0  0  0  0  0  0  0  0  0  0  0  0
   -9.5207   -9.5030    7.8141 C   0  0  0  0  0  0  0  0  0  0  0  0
  -10.5573   -8.6347    7.9388 C   0  0  0  0  0  0  0  0  0  0  0  0
  -10.3572   -7.2729    8.0593 C   0  0  0  0  0  0  0  0  0  0  0  0
   -9.0792   -6.8040    8.0504 C   0  0  0  0  0  0  0  0  0  0  0  0
   -7.9909   -7.6992    7.9211 C   0  0  0  0  0  0  0  0  0  0  0  0
   -6.6564   -7.0795    7.9242 C   0  0  0  0  0  0  0  0  0  0  0  0
   -6.0495   -7.2421    6.6520 F   0  0  0  0  0  0  0  0  0  0  0  0
   -6.7785   -5.7252    8.1203 F   0  0  0  0  0  0  0  0  0  0  0  0
   -5.7998   -7.6124    8.8539 F   0  0  0  0  0  0  0  0  0  0  0  0
   -7.1325  -10.0098    7.6764 C   0  0  0  0  0  0  0  0  0  0  0  0
   -6.2144   -9.7834    6.7856 O   0  0  0  0  0  0  0  0  0  0  0  0
   -5.7649  -11.9331    8.2204 C   0  0  0  0  0  0  0  0  0  0  0  0
   -6.9280  -11.1659    8.3624 O   0  0  0  0  0  0  0  0  0  0  0  0
 31 32  1  0  0  0
 32 29  1  0  0  0
 29 30  2  0  0  0
 29 19  1  0  0  0
 19 20  2  0  0  0
 20 21  1  0  0  0
 21 22  2  0  0  0
 22 18  1  0  0  0
 18  1  1  0  0  0
  1  2  2  0  0  0
  2  3  1  0  0  0
  3  4  2  0  0  0
  4  7  1  0  0  0
  7  8  2  0  0  0
  8  9  1  0  0  0
  9 10  1  0  0  0
 10 11  1  0  0  0
 10 12  2  0  0  0
 12 13  1  0  0  0
 13 14  2  0  0  0
  4  5  1  0  0  0
  5  6  2  0  0  0
  6 16  1  0  0  0
 16 17  1  0  0  0
 22 23  1  0  0  0
 23 24  2  0  0  0
 24 25  1  0  0  0
 25 26  1  0  0  0
 25 27  1  0  0  0
 25 28  1  0  0  0
 24 19  1  0  0  0
  6  1  1  0  0  0
 13  8  1  0  0  0
 11 15  1  0  0  0
M  END
> <minimizedAffinity>
11.00314

> <CNNscore>
0.3844994903

> <CNNaffinity>
6.2364740372

> <CNN_VS>
2.3979210854

> <CNNaffinity_variance>
1.7897936106

$$$$
[H]OC1=NC(=O)C(=C([H])c2c([H])c([H])c(Oc3c([H])c([H])c(C(=O)OC([H])([H])[H])c(C(F)(F)F)c3[H])c(OC([H])([H])[H])c2[H])S1


 32 34  0  0  0  0  0  0  0  0999 V2000
  -11.1820   -7.9945    8.2166 C   0  0  0  0  0  0  0  0  0  0  0  0
  -10.5019   -9.0528    7.6602 C   0  0  0  0  0  0  0  0  0  0  0  0
   -9.1125   -9.0838    7.6225 C   0  0  0  0  0  0  0  0  0  0  0  0
   -8.3623   -8.0549    8.1417 C   0  0  0  0  0  0  0  0  0  0  0  0
   -9.0671   -6.9820    8.7049 C   0  0  0  0  0  0  0  0  0  0  0  0
  -10.4385   -6.9559    8.7399 C   0  0  0  0  0  0  0  0  0  0  0  0
   -6.9300   -8.0278    8.1700 C   0  0  0  0  0  0  0  0  0  0  0  0
   -6.1320   -7.3996    7.3517 C   0  0  0  0  0  0  0  0  0  0  0  0
   -4.3043   -7.4040    7.4537 S   0  0  0  0  0  0  0  0  0  0  0  0
   -4.0491   -6.3981    6.0087 C   0  0  0  0  0  0  0  0  0  0  0  0
   -2.7821   -6.0357    5.5582 O   0  0  0  0  0  0  0  0  0  0  0  0
   -5.1892   -6.1248    5.5436 N   0  0  0  0  0  0  0  0  0  0  0  0
   -6.3238   -6.5958    6.1631 C   0  0  0  0  0  0  0  0  0  0  0  0
   -7.4949   -6.3304    5.6967 O   0  0  0  0  0  0  0  0  0  0  0  0
   -2.3662   -5.1269    5.6708 H   0  0  0  0  0  0  0  0  0  0  0  0
  -11.1448   -5.9038    9.2936 O   0  0  0  0  0  0  0  0  0  0  0  0
  -11.6724   -5.9345   10.5862 C   0  0  0  0  0  0  0  0  0  0  0  0
  -12.5403   -7.9408    8.2663 O   0  0  0  0  0  0  0  0  0  0  0  0
  -15.0485   -8.1506    4.9205 C   0  0  0  0  0  0  0  0  0  0  0  0
  -14.3514   -9.2646    5.4135 C   0  0  0  0  0  0  0  0  0  0  0  0
  -13.5479   -9.1529    6.5025 C   0  0  0  0  0  0  0  0  0  0  0  0
  -13.3822   -7.9524    7.1662 C   0  0  0  0  0  0  0  0  0  0  0  0
  -14.0504   -6.8603    6.7035 C   0  0  0  0  0  0  0  0  0  0  0  0
  -14.8905   -6.9645    5.5695 C   0  0  0  0  0  0  0  0  0  0  0  0
  -15.5609   -5.7202    5.1605 C   0  0  0  0  0  0  0  0  0  0  0  0
  -16.9069   -5.7312    5.6092 F   0  0  0  0  0  0  0  0  0  0  0  0
  -14.9600   -4.6497    5.7775 F   0  0  0  0  0  0  0  0  0  0  0  0
  -15.5869   -5.5247    3.8029 F   0  0  0  0  0  0  0  0  0  0  0  0
  -15.8824   -8.3264    3.7536 C   0  0  0  0  0  0  0  0  0  0  0  0
  -15.2902   -8.5449    2.6181 O   0  0  0  0  0  0  0  0  0  0  0  0
  -18.0875   -8.6429    4.7037 C   0  0  0  0  0  0  0  0  0  0  0  0
  -17.2375   -8.2987    3.6450 O   0  0  0  0  0  0  0  0  0  0  0  0
 31 32  1  0  0  0
 32 29  1  0  0  0
 29 30  2  0  0  0
 29 19  1  0  0  0
 19 20  2  0  0  0
 20 21  1  0  0  0
 21 22  2  0  0  0
 22 18  1  0  0  0
 18  1  1  0  0  0
  1  2  2  0  0  0
  2  3  1  0  0  0
  3  4  2  0  0  0
  4  7  1  0  0  0
  7  8  2  0  0  0
  8  9  1  0  0  0
  9 10  1  0  0  0
 10 11  1  0  0  0
 10 12  2  0  0  0
 12 13  1  0  0  0
 13 14  2  0  0  0
  4  5  1  0  0  0
  5  6  2  0  0  0
  6 16  1  0  0  0
 16 17  1  0  0  0
 22 23  1  0  0  0
 23 24  2  0  0  0
 24 25  1  0  0  0
 25 26  1  0  0  0
 25 27  1  0  0  0
 25 28  1  0  0  0
 24 19  1  0  0  0
  6  1  1  0  0  0
 13  8  1  0  0  0
 11 15  1  0  0  0
M  END
> <minimizedAffinity>
-8.71573

> <CNNscore>
0.3525432944

> <CNNaffinity>
6.4262542725

> <CNN_VS>
2.2655329704

> <CNNaffinity_variance>
0.1607469171

$$$$
[H]OC1=NC(=O)C(=C([H])c2c([H])c([H])c(Oc3c([H])c([H])c(C(=O)OC([H])([H])[H])c(C(F)(F)F)c3[H])c(OC([H])([H])[H])c2[H])S1


 32 34  0  0  0  0  0  0  0  0999 V2000
  -10.9831   -8.9597    7.8013 C   0  0  0  0  0  0  0  0  0  0  0  0
  -10.2437  -10.0181    7.3271 C   0  0  0  0  0  0  0  0  0  0  0  0
   -8.9495   -9.8440    6.8503 C   0  0  0  0  0  0  0  0  0  0  0  0
   -8.3567   -8.6034    6.8345 C   0  0  0  0  0  0  0  0  0  0  0  0
   -9.1207   -7.5328    7.3195 C   0  0  0  0  0  0  0  0  0  0  0  0
  -10.3978   -7.7096    7.7891 C   0  0  0  0  0  0  0  0  0  0  0  0
   -7.0186   -8.3479    6.3901 C   0  0  0  0  0  0  0  0  0  0  0  0
   -6.0450   -7.8110    7.0718 C   0  0  0  0  0  0  0  0  0  0  0  0
   -4.3521   -7.5210    6.4387 S   0  0  0  0  0  0  0  0  0  0  0  0
   -3.7414   -6.7569    7.9246 C   0  0  0  0  0  0  0  0  0  0  0  0
   -2.4319   -6.3003    8.0527 O   0  0  0  0  0  0  0  0  0  0  0  0
   -4.6968   -6.7354    8.7478 N   0  0  0  0  0  0  0  0  0  0  0  0
   -5.9240   -7.2526    8.4020 C   0  0  0  0  0  0  0  0  0  0  0  0
   -6.9111   -7.2326    9.2294 O   0  0  0  0  0  0  0  0  0  0  0  0
   -1.7054   -6.7649    8.5702 H   0  0  0  0  0  0  0  0  0  0  0  0
  -11.1609   -6.6618    8.2710 O   0  0  0  0  0  0  0  0  0  0  0  0
  -11.0111   -6.1356    9.5558 C   0  0  0  0  0  0  0  0  0  0  0  0
  -12.2506   -9.1040    8.2736 O   0  0  0  0  0  0  0  0  0  0  0  0
  -15.8060   -7.9607    6.3810 C   0  0  0  0  0  0  0  0  0  0  0  0
  -15.6136   -7.8376    7.7659 C   0  0  0  0  0  0  0  0  0  0  0  0
  -14.4438   -8.2204    8.3397 C   0  0  0  0  0  0  0  0  0  0  0  0
  -13.4031   -8.7420    7.5954 C   0  0  0  0  0  0  0  0  0  0  0  0
  -13.5702   -8.8688    6.2504 C   0  0  0  0  0  0  0  0  0  0  0  0
  -14.7848   -8.4734    5.6412 C   0  0  0  0  0  0  0  0  0  0  0  0
  -14.8517   -8.6566    4.1828 C   0  0  0  0  0  0  0  0  0  0  0  0
  -14.9991   -7.3963    3.5477 F   0  0  0  0  0  0  0  0  0  0  0  0
  -13.6639   -9.1776    3.7296 F   0  0  0  0  0  0  0  0  0  0  0  0
  -15.8966   -9.4439    3.7702 F   0  0  0  0  0  0  0  0  0  0  0  0
  -17.0739   -7.5453    5.8265 C   0  0  0  0  0  0  0  0  0  0  0  0
  -17.9879   -8.4546    5.6670 O   0  0  0  0  0  0  0  0  0  0  0  0
  -17.9416   -6.0492    4.1311 C   0  0  0  0  0  0  0  0  0  0  0  0
  -17.4827   -6.3111    5.4282 O   0  0  0  0  0  0  0  0  0  0  0  0
 31 32  1  0  0  0
 32 29  1  0  0  0
 29 30  2  0  0  0
 29 19  1  0  0  0
 19 20  2  0  0  0
 20 21  1  0  0  0
 21 22  2  0  0  0
 22 18  1  0  0  0
 18  1  1  0  0  0
  1  2  2  0  0  0
  2  3  1  0  0  0
  3  4  2  0  0  0
  4  7  1  0  0  0
  7  8  2  0  0  0
  8  9  1  0  0  0
  9 10  1  0  0  0
 10 11  1  0  0  0
 10 12  2  0  0  0
 12 13  1  0  0  0
 13 14  2  0  0  0
  4  5  1  0  0  0
  5  6  2  0  0  0
  6 16  1  0  0  0
 16 17  1  0  0  0
 22 23  1  0  0  0
 23 24  2  0  0  0
 24 25  1  0  0  0
 25 26  1  0  0  0
 25 27  1  0  0  0
 25 28  1  0  0  0
 24 19  1  0  0  0
  6  1  1  0  0  0
 13  8  1  0  0  0
 11 15  1  0  0  0
M  END
> <minimizedAffinity>
-8.70391

> <CNNscore>
0.3079523444

> <CNNaffinity>
6.5191955566

> <CNN_VS>
2.0076014996

> <CNNaffinity_variance>
0.2319800854

$$$$
[H]OC1=NC(=O)C(=C([H])c2c([H])c([H])c(Oc3c([H])c([H])c(C(=O)OC([H])([H])[H])c(C(F)(F)F)c3[H])c(OC([H])([H])[H])c2[H])S1


 32 34  0  0  0  0  0  0  0  0999 V2000
   -5.6672   -7.1159    7.3619 C   0  0  0  0  0  0  0  0  0  0  0  0
   -6.4048   -6.5878    8.3958 C   0  0  0  0  0  0  0  0  0  0  0  0
   -7.6502   -7.1033    8.7367 C   0  0  0  0  0  0  0  0  0  0  0  0
   -8.1942   -8.1642    8.0514 C   0  0  0  0  0  0  0  0  0  0  0  0
   -7.4332   -8.6927    6.9994 C   0  0  0  0  0  0  0  0  0  0  0  0
   -6.2045   -8.1805    6.6668 C   0  0  0  0  0  0  0  0  0  0  0  0
   -9.4543   -8.7715    8.3618 C   0  0  0  0  0  0  0  0  0  0  0  0
  -10.6413   -8.2469    8.2320 C   0  0  0  0  0  0  0  0  0  0  0  0
  -12.2142   -9.0882    8.6434 S   0  0  0  0  0  0  0  0  0  0  0  0
  -13.2596   -7.7088    8.2318 C   0  0  0  0  0  0  0  0  0  0  0  0
  -14.6470   -7.7562    8.3441 O   0  0  0  0  0  0  0  0  0  0  0  0
  -12.5035   -6.7734    7.8521 N   0  0  0  0  0  0  0  0  0  0  0  0
  -11.1397   -6.9521    7.8188 C   0  0  0  0  0  0  0  0  0  0  0  0
  -10.3540   -6.0044    7.4392 O   0  0  0  0  0  0  0  0  0  0  0  0
  -15.2867   -7.8491    7.5736 H   0  0  0  0  0  0  0  0  0  0  0  0
   -5.4442   -8.6940    5.6320 O   0  0  0  0  0  0  0  0  0  0  0  0
   -5.9704   -8.9953    4.3742 C   0  0  0  0  0  0  0  0  0  0  0  0
   -4.4465   -6.6301    7.0094 O   0  0  0  0  0  0  0  0  0  0  0  0
   -3.2196   -2.6591    7.5145 C   0  0  0  0  0  0  0  0  0  0  0  0
   -3.2511   -3.5808    8.5726 C   0  0  0  0  0  0  0  0  0  0  0  0
   -3.6556   -4.8604    8.3651 C   0  0  0  0  0  0  0  0  0  0  0  0
   -4.0499   -5.3073    7.1185 C   0  0  0  0  0  0  0  0  0  0  0  0
   -4.0258   -4.4283    6.0792 C   0  0  0  0  0  0  0  0  0  0  0  0
   -3.6062   -3.0923    6.2833 C   0  0  0  0  0  0  0  0  0  0  0  0
   -3.6214   -2.2335    5.0887 C   0  0  0  0  0  0  0  0  0  0  0  0
   -4.4501   -2.8122    4.0929 F   0  0  0  0  0  0  0  0  0  0  0  0
   -4.1872   -1.0210    5.4009 F   0  0  0  0  0  0  0  0  0  0  0  0
   -2.3844   -2.0427    4.5271 F   0  0  0  0  0  0  0  0  0  0  0  0
   -2.7884   -1.3089    7.7954 C   0  0  0  0  0  0  0  0  0  0  0  0
   -3.6566   -0.4965    8.3187 O   0  0  0  0  0  0  0  0  0  0  0  0
   -1.0950   -0.4070    6.3174 C   0  0  0  0  0  0  0  0  0  0  0  0
   -1.5763   -0.7268    7.5933 O   0  0  0  0  0  0  0  0  0  0  0  0
 31 32  1  0  0  0
 32 29  1  0  0  0
 29 30  2  0  0  0
 29 19  1  0  0  0
 19 20  2  0  0  0
 20 21  1  0  0  0
 21 22  2  0  0  0
 22 18  1  0  0  0
 18  1  1  0  0  0
  1  2  2  0  0  0
  2  3  1  0  0  0
  3  4  2  0  0  0
  4  7  1  0  0  0
  7  8  2  0  0  0
  8  9  1  0  0  0
  9 10  1  0  0  0
 10 11  1  0  0  0
 10 12  2  0  0  0
 12 13  1  0  0  0
 13 14  2  0  0  0
  4  5  1  0  0  0
  5  6  2  0  0  0
  6 16  1  0  0  0
 16 17  1  0  0  0
 22 23  1  0  0  0
 23 24  2  0  0  0
 24 25  1  0  0  0
 25 26  1  0  0  0
 25 27  1  0  0  0
 25 28  1  0  0  0
 24 19  1  0  0  0
  6  1  1  0  0  0
 13  8  1  0  0  0
 11 15  1  0  0  0
M  END
> <minimizedAffinity>
-2.09188

> <CNNscore>
0.2653803527

> <CNNaffinity>
5.5054059029

> <CNN_VS>
1.4610265493

> <CNNaffinity_variance>
1.3389947414

$$$$
[H]OC1=NC(=O)C(=C([H])c2c([H])c([H])c(Oc3c([H])c([H])c(C(=O)OC([H])([H])[H])c(C(F)(F)F)c3[H])c(OC([H])([H])[H])c2[H])S1


 32 34  0  0  0  0  0  0  0  0999 V2000
  -11.7297   -8.1714    8.2085 C   0  0  0  0  0  0  0  0  0  0  0  0
  -11.4868   -6.9566    8.8063 C   0  0  0  0  0  0  0  0  0  0  0  0
  -10.2520   -6.3273    8.6967 C   0  0  0  0  0  0  0  0  0  0  0  0
   -9.2228   -6.8964    7.9842 C   0  0  0  0  0  0  0  0  0  0  0  0
   -9.4825   -8.1347    7.3806 C   0  0  0  0  0  0  0  0  0  0  0  0
  -10.7029   -8.7520    7.4915 C   0  0  0  0  0  0  0  0  0  0  0  0
   -7.9348   -6.2970    7.7981 C   0  0  0  0  0  0  0  0  0  0  0  0
   -6.8110   -6.8999    7.5252 C   0  0  0  0  0  0  0  0  0  0  0  0
   -5.1985   -6.0651    7.2927 S   0  0  0  0  0  0  0  0  0  0  0  0
   -4.2694   -7.5580    7.0227 C   0  0  0  0  0  0  0  0  0  0  0  0
   -2.8996   -7.5569    6.7714 O   0  0  0  0  0  0  0  0  0  0  0  0
   -5.0822   -8.5187    7.1080 N   0  0  0  0  0  0  0  0  0  0  0  0
   -6.4129   -8.2826    7.3659 C   0  0  0  0  0  0  0  0  0  0  0  0
   -7.2541   -9.2535    7.4620 O   0  0  0  0  0  0  0  0  0  0  0  0
   -2.4765   -7.7052    5.8712 H   0  0  0  0  0  0  0  0  0  0  0  0
  -10.9714   -9.9727    6.8998 O   0  0  0  0  0  0  0  0  0  0  0  0
   -9.9774  -10.8048    6.3806 C   0  0  0  0  0  0  0  0  0  0  0  0
  -12.9288   -8.8070    8.3003 O   0  0  0  0  0  0  0  0  0  0  0  0
  -16.3221   -8.0758    5.9591 C   0  0  0  0  0  0  0  0  0  0  0  0
  -16.3166   -7.9140    7.3534 C   0  0  0  0  0  0  0  0  0  0  0  0
  -15.1935   -8.1619    8.0753 C   0  0  0  0  0  0  0  0  0  0  0  0
  -14.0199   -8.5794    7.4774 C   0  0  0  0  0  0  0  0  0  0  0  0
  -14.0049   -8.7416    6.1259 C   0  0  0  0  0  0  0  0  0  0  0  0
  -15.1693   -8.4865    5.3631 C   0  0  0  0  0  0  0  0  0  0  0  0
  -15.0355   -8.6956    3.9128 C   0  0  0  0  0  0  0  0  0  0  0  0
  -13.7049   -9.0800    3.6047 F   0  0  0  0  0  0  0  0  0  0  0  0
  -15.8366   -9.7414    3.5229 F   0  0  0  0  0  0  0  0  0  0  0  0
  -15.3204   -7.5823    3.1635 F   0  0  0  0  0  0  0  0  0  0  0  0
  -17.5479   -7.8057    5.2435 C   0  0  0  0  0  0  0  0  0  0  0  0
  -18.3816   -8.7894    5.0854 O   0  0  0  0  0  0  0  0  0  0  0  0
  -17.2946   -5.4361    4.8122 C   0  0  0  0  0  0  0  0  0  0  0  0
  -17.9884   -6.6462    4.6864 O   0  0  0  0  0  0  0  0  0  0  0  0
 31 32  1  0  0  0
 32 29  1  0  0  0
 29 30  2  0  0  0
 29 19  1  0  0  0
 19 20  2  0  0  0
 20 21  1  0  0  0
 21 22  2  0  0  0
 22 18  1  0  0  0
 18  1  1  0  0  0
  1  2  2  0  0  0
  2  3  1  0  0  0
  3  4  2  0  0  0
  4  7  1  0  0  0
  7  8  2  0  0  0
  8  9  1  0  0  0
  9 10  1  0  0  0
 10 11  1  0  0  0
 10 12  2  0  0  0
 12 13  1  0  0  0
 13 14  2  0  0  0
  4  5  1  0  0  0
  5  6  2  0  0  0
  6 16  1  0  0  0
 16 17  1  0  0  0
 22 23  1  0  0  0
 23 24  2  0  0  0
 24 25  1  0  0  0
 25 26  1  0  0  0
 25 27  1  0  0  0
 25 28  1  0  0  0
 24 19  1  0  0  0
  6  1  1  0  0  0
 13  8  1  0  0  0
 11 15  1  0  0  0
M  END
> <minimizedAffinity>
-8.86690

> <CNNscore>
0.2458610982

> <CNNaffinity>
6.4019064903

> <CNN_VS>
1.5739797354

> <CNNaffinity_variance>
0.1535778493

$$$$
[H]OC1=NC(=O)C(=C([H])c2c([H])c([H])c(Oc3c([H])c([H])c(C(=O)OC([H])([H])[H])c(C(F)(F)F)c3[H])c(OC([H])([H])[H])c2[H])S1


 32 34  0  0  0  0  0  0  0  0999 V2000
  -13.0484   -9.8670    0.6616 C   0  0  0  0  0  0  0  0  0  0  0  0
  -13.4937  -10.4958    1.8010 C   0  0  0  0  0  0  0  0  0  0  0  0
  -14.2922   -9.8370    2.7291 C   0  0  0  0  0  0  0  0  0  0  0  0
  -14.6688   -8.5276    2.5432 C   0  0  0  0  0  0  0  0  0  0  0  0
  -14.2077   -7.8977    1.3788 C   0  0  0  0  0  0  0  0  0  0  0  0
  -13.4199   -8.5521    0.4657 C   0  0  0  0  0  0  0  0  0  0  0  0
  -15.5143   -7.7911    3.4352 C   0  0  0  0  0  0  0  0  0  0  0  0
  -15.5579   -7.8729    4.7361 C   0  0  0  0  0  0  0  0  0  0  0  0
  -16.6632   -6.8913    5.8158 S   0  0  0  0  0  0  0  0  0  0  0  0
  -16.1218   -7.6356    7.3381 C   0  0  0  0  0  0  0  0  0  0  0  0
  -16.6349   -7.2682    8.5797 O   0  0  0  0  0  0  0  0  0  0  0  0
  -15.2460   -8.4925    7.0388 N   0  0  0  0  0  0  0  0  0  0  0  0
  -14.8876   -8.6903    5.7252 C   0  0  0  0  0  0  0  0  0  0  0  0
  -13.9992   -9.5658    5.4030 O   0  0  0  0  0  0  0  0  0  0  0  0
  -16.1597   -6.6939    9.2549 H   0  0  0  0  0  0  0  0  0  0  0  0
  -12.9600   -7.9418   -0.6869 O   0  0  0  0  0  0  0  0  0  0  0  0
  -11.6334   -8.0211   -1.1159 C   0  0  0  0  0  0  0  0  0  0  0  0
  -12.2672  -10.4896   -0.2617 O   0  0  0  0  0  0  0  0  0  0  0  0
   -9.1664  -13.1769    0.5709 C   0  0  0  0  0  0  0  0  0  0  0  0
  -10.4420  -13.5975    0.1634 C   0  0  0  0  0  0  0  0  0  0  0  0
  -11.4198  -12.6919   -0.0971 C   0  0  0  0  0  0  0  0  0  0  0  0
  -11.2060  -11.3324    0.0259 C   0  0  0  0  0  0  0  0  0  0  0  0
   -9.9750  -10.9046    0.4195 C   0  0  0  0  0  0  0  0  0  0  0  0
   -8.9482  -11.8389    0.6939 C   0  0  0  0  0  0  0  0  0  0  0  0
   -7.6607  -11.2617    1.1112 C   0  0  0  0  0  0  0  0  0  0  0  0
   -7.8640   -9.9510    1.6152 F   0  0  0  0  0  0  0  0  0  0  0  0
   -7.1427  -11.9959    2.1506 F   0  0  0  0  0  0  0  0  0  0  0  0
   -6.7402  -11.1691    0.0983 F   0  0  0  0  0  0  0  0  0  0  0  0
   -8.1676  -14.1851    0.8424 C   0  0  0  0  0  0  0  0  0  0  0  0
   -7.1474  -14.2527    0.0409 O   0  0  0  0  0  0  0  0  0  0  0  0
   -7.7294  -14.7950    3.1449 C   0  0  0  0  0  0  0  0  0  0  0  0
   -8.1190  -15.1108    1.8372 O   0  0  0  0  0  0  0  0  0  0  0  0
 31 32  1  0  0  0
 32 29  1  0  0  0
 29 30  2  0  0  0
 29 19  1  0  0  0
 19 20  2  0  0  0
 20 21  1  0  0  0
 21 22  2  0  0  0
 22 18  1  0  0  0
 18  1  1  0  0  0
  1  2  2  0  0  0
  2  3  1  0  0  0
  3  4  2  0  0  0
  4  7  1  0  0  0
  7  8  2  0  0  0
  8  9  1  0  0  0
  9 10  1  0  0  0
 10 11  1  0  0  0
 10 12  2  0  0  0
 12 13  1  0  0  0
 13 14  2  0  0  0
  4  5  1  0  0  0
  5  6  2  0  0  0
  6 16  1  0  0  0
 16 17  1  0  0  0
 22 23  1  0  0  0
 23 24  2  0  0  0
 24 25  1  0  0  0
 25 26  1  0  0  0
 25 27  1  0  0  0
 25 28  1  0  0  0
 24 19  1  0  0  0
  6  1  1  0  0  0
 13  8  1  0  0  0
 11 15  1  0  0  0
M  END
> <minimizedAffinity>
37.95802

> <CNNscore>
0.2412966192

> <CNNaffinity>
5.4400024414

> <CNN_VS>
1.3126542568

> <CNNaffinity_variance>
0.7496134639

$$$$
[H]OC1=NC(=O)C(=C([H])c2c([H])c([H])c(Oc3c([H])c([H])c(C(=O)OC([H])([H])[H])c(C(F)(F)F)c3[H])c(OC([H])([H])[H])c2[H])S1


 32 34  0  0  0  0  0  0  0  0999 V2000
   -8.7655   -8.4153    7.5051 C   0  0  0  0  0  0  0  0  0  0  0  0
   -8.7328   -7.1173    7.0511 C   0  0  0  0  0  0  0  0  0  0  0  0
   -7.6420   -6.2903    7.2942 C   0  0  0  0  0  0  0  0  0  0  0  0
   -6.5504   -6.7394    7.9996 C   0  0  0  0  0  0  0  0  0  0  0  0
   -6.5962   -8.0635    8.4575 C   0  0  0  0  0  0  0  0  0  0  0  0
   -7.6751   -8.8759    8.2152 C   0  0  0  0  0  0  0  0  0  0  0  0
   -5.3769   -5.9605    8.2630 C   0  0  0  0  0  0  0  0  0  0  0  0
   -4.5122   -5.5105    7.3964 C   0  0  0  0  0  0  0  0  0  0  0  0
   -3.0342   -4.5114    7.8064 S   0  0  0  0  0  0  0  0  0  0  0  0
   -2.4397   -4.3897    6.1341 C   0  0  0  0  0  0  0  0  0  0  0  0
   -1.2781   -3.6994    5.7967 O   0  0  0  0  0  0  0  0  0  0  0  0
   -3.2529   -5.0224    5.4066 N   0  0  0  0  0  0  0  0  0  0  0  0
   -4.3513   -5.6362    5.9632 C   0  0  0  0  0  0  0  0  0  0  0  0
   -5.1876   -6.2911    5.2344 O   0  0  0  0  0  0  0  0  0  0  0  0
   -1.2497   -2.7940    5.3598 H   0  0  0  0  0  0  0  0  0  0  0  0
   -7.7315  -10.1839    8.6607 O   0  0  0  0  0  0  0  0  0  0  0  0
   -6.9552  -11.2098    8.1178 C   0  0  0  0  0  0  0  0  0  0  0  0
   -9.8202   -9.2443    7.2799 O   0  0  0  0  0  0  0  0  0  0  0  0
  -13.8921   -8.3369    7.6345 C   0  0  0  0  0  0  0  0  0  0  0  0
  -13.4101   -9.3168    6.7527 C   0  0  0  0  0  0  0  0  0  0  0  0
  -12.0806   -9.5802    6.6691 C   0  0  0  0  0  0  0  0  0  0  0  0
  -11.1536   -8.9038    7.4387 C   0  0  0  0  0  0  0  0  0  0  0  0
  -11.6014   -7.9499    8.3005 C   0  0  0  0  0  0  0  0  0  0  0  0
  -12.9847   -7.6666    8.3963 C   0  0  0  0  0  0  0  0  0  0  0  0
  -13.3517   -6.6173    9.3602 C   0  0  0  0  0  0  0  0  0  0  0  0
  -12.1792   -5.9901    9.8554 F   0  0  0  0  0  0  0  0  0  0  0  0
  -14.0703   -5.6362    8.7208 F   0  0  0  0  0  0  0  0  0  0  0  0
  -14.0530   -7.0809   10.4442 F   0  0  0  0  0  0  0  0  0  0  0  0
  -15.3157   -8.0932    7.6752 C   0  0  0  0  0  0  0  0  0  0  0  0
  -15.9652   -8.4951    8.7261 O   0  0  0  0  0  0  0  0  0  0  0  0
  -15.6450   -6.5265    5.8580 C   0  0  0  0  0  0  0  0  0  0  0  0
  -16.1179   -7.4898    6.7580 O   0  0  0  0  0  0  0  0  0  0  0  0
 31 32  1  0  0  0
 32 29  1  0  0  0
 29 30  2  0  0  0
 29 19  1  0  0  0
 19 20  2  0  0  0
 20 21  1  0  0  0
 21 22  2  0  0  0
 22 18  1  0  0  0
 18  1  1  0  0  0
  1  2  2  0  0  0
  2  3  1  0  0  0
  3  4  2  0  0  0
  4  7  1  0  0  0
  7  8  2  0  0  0
  8  9  1  0  0  0
  9 10  1  0  0  0
 10 11  1  0  0  0
 10 12  2  0  0  0
 12 13  1  0  0  0
 13 14  2  0  0  0
  4  5  1  0  0  0
  5  6  2  0  0  0
  6 16  1  0  0  0
 16 17  1  0  0  0
 22 23  1  0  0  0
 23 24  2  0  0  0
 24 25  1  0  0  0
 25 26  1  0  0  0
 25 27  1  0  0  0
 25 28  1  0  0  0
 24 19  1  0  0  0
  6  1  1  0  0  0
 13  8  1  0  0  0
 11 15  1  0  0  0
M  END
> <minimizedAffinity>
-6.22585

> <CNNscore>
0.2360613048

> <CNNaffinity>
5.9396710396

> <CNN_VS>
1.4021265507

> <CNNaffinity_variance>
0.1068101153

$$$$
[H]OC1=NC(=O)C(=C([H])c2c([H])c([H])c(Oc3c([H])c([H])c(C(=O)OC([H])([H])[H])c(C(F)(F)F)c3[H])c(OC([H])([H])[H])c2[H])S1


 32 34  0  0  0  0  0  0  0  0999 V2000
  -13.4868   -5.0490    4.8203 C   0  0  0  0  0  0  0  0  0  0  0  0
  -14.8183   -5.0271    5.1645 C   0  0  0  0  0  0  0  0  0  0  0  0
  -15.7310   -4.2286    4.4847 C   0  0  0  0  0  0  0  0  0  0  0  0
  -15.3368   -3.4277    3.4388 C   0  0  0  0  0  0  0  0  0  0  0  0
  -13.9773   -3.4582    3.0983 C   0  0  0  0  0  0  0  0  0  0  0  0
  -13.0802   -4.2480    3.7722 C   0  0  0  0  0  0  0  0  0  0  0  0
  -16.2204   -2.6029    2.6693 C   0  0  0  0  0  0  0  0  0  0  0  0
  -17.5228   -2.6582    2.6281 C   0  0  0  0  0  0  0  0  0  0  0  0
  -18.5912   -1.5627    1.6233 S   0  0  0  0  0  0  0  0  0  0  0  0
  -20.1234   -2.3265    2.1067 C   0  0  0  0  0  0  0  0  0  0  0  0
  -21.3611   -1.8932    1.6378 O   0  0  0  0  0  0  0  0  0  0  0  0
  -19.8342   -3.2637    2.8998 N   0  0  0  0  0  0  0  0  0  0  0  0
  -18.5223   -3.5155    3.2294 C   0  0  0  0  0  0  0  0  0  0  0  0
  -18.2106   -4.4727    4.0331 O   0  0  0  0  0  0  0  0  0  0  0  0
  -22.0233   -1.3525    2.1676 H   0  0  0  0  0  0  0  0  0  0  0  0
  -11.7371   -4.2875    3.4450 O   0  0  0  0  0  0  0  0  0  0  0  0
  -11.2086   -3.6662    2.3116 C   0  0  0  0  0  0  0  0  0  0  0  0
  -12.5745   -5.8218    5.4690 O   0  0  0  0  0  0  0  0  0  0  0  0
  -13.2969   -8.7092    8.4136 C   0  0  0  0  0  0  0  0  0  0  0  0
  -12.0394   -8.5399    7.8135 C   0  0  0  0  0  0  0  0  0  0  0  0
  -11.8480   -7.5903    6.8619 C   0  0  0  0  0  0  0  0  0  0  0  0
  -12.8698   -6.7583    6.4463 C   0  0  0  0  0  0  0  0  0  0  0  0
  -14.0968   -6.9066    7.0169 C   0  0  0  0  0  0  0  0  0  0  0  0
  -14.3084   -7.8927    8.0095 C   0  0  0  0  0  0  0  0  0  0  0  0
  -15.6735   -7.9614    8.5543 C   0  0  0  0  0  0  0  0  0  0  0  0
  -15.6229   -8.2860    9.9347 F   0  0  0  0  0  0  0  0  0  0  0  0
  -16.2641   -6.7236    8.4731 F   0  0  0  0  0  0  0  0  0  0  0  0
  -16.4669   -8.9002    7.9452 F   0  0  0  0  0  0  0  0  0  0  0  0
  -13.4445   -9.7410    9.4143 C   0  0  0  0  0  0  0  0  0  0  0  0
  -14.3717  -10.6317    9.2282 O   0  0  0  0  0  0  0  0  0  0  0  0
  -13.3319   -9.8398   11.8316 C   0  0  0  0  0  0  0  0  0  0  0  0
  -12.7454   -9.9396   10.5635 O   0  0  0  0  0  0  0  0  0  0  0  0
 31 32  1  0  0  0
 32 29  1  0  0  0
 29 30  2  0  0  0
 29 19  1  0  0  0
 19 20  2  0  0  0
 20 21  1  0  0  0
 21 22  2  0  0  0
 22 18  1  0  0  0
 18  1  1  0  0  0
  1  2  2  0  0  0
  2  3  1  0  0  0
  3  4  2  0  0  0
  4  7  1  0  0  0
  7  8  2  0  0  0
  8  9  1  0  0  0
  9 10  1  0  0  0
 10 11  1  0  0  0
 10 12  2  0  0  0
 12 13  1  0  0  0
 13 14  2  0  0  0
  4  5  1  0  0  0
  5  6  2  0  0  0
  6 16  1  0  0  0
 16 17  1  0  0  0
 22 23  1  0  0  0
 23 24  2  0  0  0
 24 25  1  0  0  0
 25 26  1  0  0  0
 25 27  1  0  0  0
 25 28  1  0  0  0
 24 19  1  0  0  0
  6  1  1  0  0  0
 13  8  1  0  0  0
 11 15  1  0  0  0
M  END
> <minimizedAffinity>
47.40902

> <CNNscore>
0.2331887782

> <CNNaffinity>
5.7574944496

> <CNN_VS>
1.3425830603

> <CNNaffinity_variance>
1.3691092730

$$$$
[H]/C(=C1/SC(=O)N(C([H])([H])[C@@]2([H])N(C([H])([H])[H])C([H])([H])C([H])([H])C2([H])[H])C1=O)c1c([H])c([H])c2c(c([H])nn2C([H])([H])c2c([H])c([H])c(Cl)c([H])c2C(F)(F)F)c1[H]


 36 40  0  0  0  0  0  0  0  0999 V2000
  -11.3221   -7.2797    9.6044 C   0  0  0  0  0  0  0  0  0  0  0  0
  -11.3083   -7.4197    8.2242 C   0  0  0  0  0  0  0  0  0  0  0  0
  -12.4575   -7.7265    7.5252 C   0  0  0  0  0  0  0  0  0  0  0  0
  -13.6574   -7.9048    8.1708 C   0  0  0  0  0  0  0  0  0  0  0  0
  -14.8904   -8.1982    7.7243 N   0  0  0  0  0  0  0  0  0  0  0  0
  -15.6822   -8.2477    8.7894 N   0  0  0  0  0  0  0  0  0  0  0  0
  -14.9850   -7.9930    9.9100 C   0  0  0  0  0  0  0  0  0  0  0  0
  -13.6863   -7.7695    9.5428 C   0  0  0  0  0  0  0  0  0  0  0  0
  -12.5138   -7.4594   10.2260 C   0  0  0  0  0  0  0  0  0  0  0  0
   -9.0001   -5.2987   13.3449 N   0  0  0  0  0  0  0  0  0  0  0  0
  -10.3485   -5.2146   13.7227 C   0  0  0  0  0  0  0  0  0  0  0  0
  -10.8596   -4.9644   14.8396 O   0  0  0  0  0  0  0  0  0  0  0  0
  -11.2806   -5.5479   12.2328 S   0  0  0  0  0  0  0  0  0  0  0  0
   -9.8996   -6.2546   11.3266 C   0  0  0  0  0  0  0  0  0  0  0  0
  -10.0528   -6.9613   10.2374 C   0  0  0  0  0  0  0  0  0  0  0  0
   -8.7326   -5.8435   12.0849 C   0  0  0  0  0  0  0  0  0  0  0  0
   -7.5550   -5.9935   11.5847 O   0  0  0  0  0  0  0  0  0  0  0  0
   -7.9283   -4.8300   14.2399 C   0  0  0  0  0  0  0  0  0  0  0  0
   -4.9037   -4.6999   12.2394 C   0  0  0  0  0  0  0  0  0  0  0  0
   -5.6600   -4.2856   13.4293 N   0  0  0  0  0  0  0  0  0  0  0  0
   -4.7193   -4.0457   14.4788 C   0  0  0  0  0  0  0  0  0  0  0  0
   -5.3261   -4.6842   15.7222 C   0  0  0  0  0  0  0  0  0  0  0  0
   -5.9667   -5.9181   15.1149 C   0  0  0  0  0  0  0  0  0  0  0  0
   -6.5768   -5.3170   13.8373 C   0  0  0  0  0  0  0  0  0  0  0  0
  -15.2205   -8.4002    6.3404 C   0  0  0  0  0  0  0  0  0  0  0  0
  -16.2038   -7.4604    5.7906 C   0  0  0  0  0  0  0  0  0  0  0  0
  -17.1813   -6.9024    6.5715 C   0  0  0  0  0  0  0  0  0  0  0  0
  -18.0762   -6.0114    6.0285 C   0  0  0  0  0  0  0  0  0  0  0  0
  -18.0350   -5.6455    4.7052 C   0  0  0  0  0  0  0  0  0  0  0  0
  -19.1726   -4.5019    3.9863 Cl  0  0  0  0  0  0  0  0  0  0  0  0
  -17.0454   -6.2181    3.9361 C   0  0  0  0  0  0  0  0  0  0  0  0
  -16.1253   -7.1189    4.4445 C   0  0  0  0  0  0  0  0  0  0  0  0
  -15.1082   -7.6762    3.5278 C   0  0  0  0  0  0  0  0  0  0  0  0
  -14.7688   -8.9594    3.9664 F   0  0  0  0  0  0  0  0  0  0  0  0
  -13.9157   -6.9720    3.5363 F   0  0  0  0  0  0  0  0  0  0  0  0
  -15.6370   -7.8328    2.2707 F   0  0  0  0  0  0  0  0  0  0  0  0
 19 20  1  0  0  0
 20 21  1  0  0  0
 21 22  1  0  0  0
 22 23  1  0  0  0
 23 24  1  0  0  0
 24 18  1  0  0  0
 18 10  1  0  0  0
 10 11  1  0  0  0
 11 12  2  0  0  0
 11 13  1  0  0  0
 13 14  1  0  0  0
 14 15  2  0  0  0
 15  1  1  0  0  0
  1  2  2  0  0  0
  2  3  1  0  0  0
  3  4  2  0  0  0
  4  5  1  0  0  0
  5 25  1  0  0  0
 25 26  1  0  0  0
 26 27  2  0  0  0
 27 28  1  0  0  0
 28 29  2  0  0  0
 29 30  1  0  0  0
 29 31  1  0  0  0
 31 32  2  0  0  0
 32 33  1  0  0  0
 33 34  1  0  0  0
 33 35  1  0  0  0
 33 36  1  0  0  0
  5  6  1  0  0  0
  6  7  2  0  0  0
  7  8  1  0  0  0
  8  9  2  0  0  0
 14 16  1  0  0  0
 16 17  2  0  0  0
 24 20  1  0  0  0
 16 10  1  0  0  0
  9  1  1  0  0  0
  8  4  1  0  0  0
 32 26  1  0  0  0
M  END
> <minimizedAffinity>
9.19319

> <CNNscore>
0.5107905865

> <CNNaffinity>
6.9918580055

> <CNN_VS>
3.5713753700

> <CNNaffinity_variance>
1.1879143715

$$$$
[H]/C(=C1/SC(=O)N(C([H])([H])[C@@]2([H])N(C([H])([H])[H])C([H])([H])C([H])([H])C2([H])[H])C1=O)c1c([H])c([H])c2c(c([H])nn2C([H])([H])c2c([H])c([H])c(Cl)c([H])c2C(F)(F)F)c1[H]


 36 40  0  0  0  0  0  0  0  0999 V2000
  -15.3916   -8.3660    8.4865 C   0  0  0  0  0  0  0  0  0  0  0  0
  -14.3908   -7.4576    8.1738 C   0  0  0  0  0  0  0  0  0  0  0  0
  -13.4397   -7.0931    9.1043 C   0  0  0  0  0  0  0  0  0  0  0  0
  -13.4493   -7.6168   10.3749 C   0  0  0  0  0  0  0  0  0  0  0  0
  -12.6481   -7.4288   11.4372 N   0  0  0  0  0  0  0  0  0  0  0  0
  -13.1194   -8.1960   12.4134 N   0  0  0  0  0  0  0  0  0  0  0  0
  -14.2057   -8.8722   12.0017 C   0  0  0  0  0  0  0  0  0  0  0  0
  -14.4386   -8.5206   10.7003 C   0  0  0  0  0  0  0  0  0  0  0  0
  -15.3871   -8.8728    9.7443 C   0  0  0  0  0  0  0  0  0  0  0  0
  -18.2076   -6.7379    4.9190 N   0  0  0  0  0  0  0  0  0  0  0  0
  -17.5123   -5.5904    5.3287 C   0  0  0  0  0  0  0  0  0  0  0  0
  -17.3977   -4.4738    4.7706 O   0  0  0  0  0  0  0  0  0  0  0  0
  -16.7644   -6.0224    6.8951 S   0  0  0  0  0  0  0  0  0  0  0  0
  -16.9791   -7.7954    6.6991 C   0  0  0  0  0  0  0  0  0  0  0  0
  -16.3434   -8.6723    7.4312 C   0  0  0  0  0  0  0  0  0  0  0  0
  -17.9464   -7.9170    5.6244 C   0  0  0  0  0  0  0  0  0  0  0  0
  -18.4958   -9.0561    5.3794 O   0  0  0  0  0  0  0  0  0  0  0  0
  -19.1650   -6.6889    3.8009 C   0  0  0  0  0  0  0  0  0  0  0  0
  -17.3962   -5.2461    0.9802 C   0  0  0  0  0  0  0  0  0  0  0  0
  -17.3732   -5.8901    2.3009 N   0  0  0  0  0  0  0  0  0  0  0  0
  -16.1694   -6.6560    2.3886 C   0  0  0  0  0  0  0  0  0  0  0  0
  -16.5770   -7.9835    3.0158 C   0  0  0  0  0  0  0  0  0  0  0  0
  -17.9358   -8.1876    2.3726 C   0  0  0  0  0  0  0  0  0  0  0  0
  -18.5062   -6.7621    2.4643 C   0  0  0  0  0  0  0  0  0  0  0  0
  -11.5089   -6.5529   11.4436 C   0  0  0  0  0  0  0  0  0  0  0  0
  -10.7936   -6.4514   10.1668 C   0  0  0  0  0  0  0  0  0  0  0  0
  -10.1493   -7.5271    9.6150 C   0  0  0  0  0  0  0  0  0  0  0  0
   -9.5033   -7.4023    8.4081 C   0  0  0  0  0  0  0  0  0  0  0  0
   -9.4727   -6.2186    7.7119 C   0  0  0  0  0  0  0  0  0  0  0  0
   -8.6511   -6.0352    6.1595 Cl  0  0  0  0  0  0  0  0  0  0  0  0
  -10.1257   -5.1483    8.2836 C   0  0  0  0  0  0  0  0  0  0  0  0
  -10.7877   -5.2326    9.4965 C   0  0  0  0  0  0  0  0  0  0  0  0
  -11.4510   -4.0196   10.0200 C   0  0  0  0  0  0  0  0  0  0  0  0
  -12.7980   -4.0526    9.6475 F   0  0  0  0  0  0  0  0  0  0  0  0
  -10.9609   -2.8455    9.4728 F   0  0  0  0  0  0  0  0  0  0  0  0
  -11.4369   -4.0258   11.3926 F   0  0  0  0  0  0  0  0  0  0  0  0
 19 20  1  0  0  0
 20 21  1  0  0  0
 21 22  1  0  0  0
 22 23  1  0  0  0
 23 24  1  0  0  0
 24 18  1  0  0  0
 18 10  1  0  0  0
 10 11  1  0  0  0
 11 12  2  0  0  0
 11 13  1  0  0  0
 13 14  1  0  0  0
 14 15  2  0  0  0
 15  1  1  0  0  0
  1  2  2  0  0  0
  2  3  1  0  0  0
  3  4  2  0  0  0
  4  5  1  0  0  0
  5 25  1  0  0  0
 25 26  1  0  0  0
 26 27  2  0  0  0
 27 28  1  0  0  0
 28 29  2  0  0  0
 29 30  1  0  0  0
 29 31  1  0  0  0
 31 32  2  0  0  0
 32 33  1  0  0  0
 33 34  1  0  0  0
 33 35  1  0  0  0
 33 36  1  0  0  0
  5  6  1  0  0  0
  6  7  2  0  0  0
  7  8  1  0  0  0
  8  9  2  0  0  0
 14 16  1  0  0  0
 16 17  2  0  0  0
 24 20  1  0  0  0
 16 10  1  0  0  0
  9  1  1  0  0  0
  8  4  1  0  0  0
 32 26  1  0  0  0
M  END
> <minimizedAffinity>
21.51041

> <CNNscore>
0.4449456036

> <CNNaffinity>
7.1140317917

> <CNN_VS>
3.1653571129

> <CNNaffinity_variance>
2.0592358112

$$$$
[H]/C(=C1/SC(=O)N(C([H])([H])[C@@]2([H])N(C([H])([H])[H])C([H])([H])C([H])([H])C2([H])[H])C1=O)c1c([H])c([H])c2c(c([H])nn2C([H])([H])c2c([H])c([H])c(Cl)c([H])c2C(F)(F)F)c1[H]


 36 40  0  0  0  0  0  0  0  0999 V2000
   -8.4489   -7.8231    8.2689 C   0  0  0  0  0  0  0  0  0  0  0  0
   -9.6574   -7.2680    8.6636 C   0  0  0  0  0  0  0  0  0  0  0  0
  -10.8566   -7.8857    8.3738 C   0  0  0  0  0  0  0  0  0  0  0  0
  -10.8972   -9.0732    7.6835 C   0  0  0  0  0  0  0  0  0  0  0  0
  -11.9154   -9.8574    7.2910 N   0  0  0  0  0  0  0  0  0  0  0  0
  -11.3789  -10.8939    6.6572 N   0  0  0  0  0  0  0  0  0  0  0  0
  -10.0388  -10.7925    6.6336 C   0  0  0  0  0  0  0  0  0  0  0  0
   -9.7036   -9.6366    7.2840 C   0  0  0  0  0  0  0  0  0  0  0  0
   -8.5066   -8.9946    7.5883 C   0  0  0  0  0  0  0  0  0  0  0  0
   -4.6067   -5.3074    6.7800 N   0  0  0  0  0  0  0  0  0  0  0  0
   -5.3191   -5.5382    5.5937 C   0  0  0  0  0  0  0  0  0  0  0  0
   -5.1933   -5.0145    4.4618 O   0  0  0  0  0  0  0  0  0  0  0  0
   -6.5228   -6.7974    6.0000 S   0  0  0  0  0  0  0  0  0  0  0  0
   -6.3708   -6.6053    7.7799 C   0  0  0  0  0  0  0  0  0  0  0  0
   -7.2483   -7.0837    8.6227 C   0  0  0  0  0  0  0  0  0  0  0  0
   -5.1382   -5.8589    7.9502 C   0  0  0  0  0  0  0  0  0  0  0  0
   -4.6131   -5.7428    9.1209 O   0  0  0  0  0  0  0  0  0  0  0  0
   -3.3600   -4.5233    6.7787 C   0  0  0  0  0  0  0  0  0  0  0  0
   -1.6374   -7.7155    6.6810 C   0  0  0  0  0  0  0  0  0  0  0  0
   -2.2594   -6.5843    5.9789 N   0  0  0  0  0  0  0  0  0  0  0  0
   -1.5818   -6.4238    4.7303 C   0  0  0  0  0  0  0  0  0  0  0  0
   -1.3676   -4.9233    4.5741 C   0  0  0  0  0  0  0  0  0  0  0  0
   -1.0778   -4.5342    6.0115 C   0  0  0  0  0  0  0  0  0  0  0  0
   -2.1349   -5.3744    6.7479 C   0  0  0  0  0  0  0  0  0  0  0  0
  -13.2999   -9.5714    7.5487 C   0  0  0  0  0  0  0  0  0  0  0  0
  -13.8704   -8.4818    6.7489 C   0  0  0  0  0  0  0  0  0  0  0  0
  -13.9467   -8.5548    5.3831 C   0  0  0  0  0  0  0  0  0  0  0  0
  -14.5035   -7.5235    4.6650 C   0  0  0  0  0  0  0  0  0  0  0  0
  -14.9995   -6.3937    5.2688 C   0  0  0  0  0  0  0  0  0  0  0  0
  -15.7207   -5.0574    4.3672 Cl  0  0  0  0  0  0  0  0  0  0  0  0
  -14.9130   -6.3387    6.6429 C   0  0  0  0  0  0  0  0  0  0  0  0
  -14.3599   -7.3556    7.4023 C   0  0  0  0  0  0  0  0  0  0  0  0
  -14.3133   -7.1895    8.8705 C   0  0  0  0  0  0  0  0  0  0  0  0
  -14.0435   -5.8484    9.1586 F   0  0  0  0  0  0  0  0  0  0  0  0
  -13.2839   -7.8949    9.4711 F   0  0  0  0  0  0  0  0  0  0  0  0
  -15.5442   -7.4545    9.4175 F   0  0  0  0  0  0  0  0  0  0  0  0
 19 20  1  0  0  0
 20 21  1  0  0  0
 21 22  1  0  0  0
 22 23  1  0  0  0
 23 24  1  0  0  0
 24 18  1  0  0  0
 18 10  1  0  0  0
 10 11  1  0  0  0
 11 12  2  0  0  0
 11 13  1  0  0  0
 13 14  1  0  0  0
 14 15  2  0  0  0
 15  1  1  0  0  0
  1  2  2  0  0  0
  2  3  1  0  0  0
  3  4  2  0  0  0
  4  5  1  0  0  0
  5 25  1  0  0  0
 25 26  1  0  0  0
 26 27  2  0  0  0
 27 28  1  0  0  0
 28 29  2  0  0  0
 29 30  1  0  0  0
 29 31  1  0  0  0
 31 32  2  0  0  0
 32 33  1  0  0  0
 33 34  1  0  0  0
 33 35  1  0  0  0
 33 36  1  0  0  0
  5  6  1  0  0  0
  6  7  2  0  0  0
  7  8  1  0  0  0
  8  9  2  0  0  0
 14 16  1  0  0  0
 16 17  2  0  0  0
 24 20  1  0  0  0
 16 10  1  0  0  0
  9  1  1  0  0  0
  8  4  1  0  0  0
 32 26  1  0  0  0
M  END
> <minimizedAffinity>
-7.53631

> <CNNscore>
0.3910202384

> <CNNaffinity>
7.2635192871

> <CNN_VS>
2.8401830196

> <CNNaffinity_variance>
0.2336706817

$$$$
[H]/C(=C1/SC(=O)N(C([H])([H])[C@@]2([H])N(C([H])([H])[H])C([H])([H])C([H])([H])C2([H])[H])C1=O)c1c([H])c([H])c2c(c([H])nn2C([H])([H])c2c([H])c([H])c(Cl)c([H])c2C(F)(F)F)c1[H]


 36 40  0  0  0  0  0  0  0  0999 V2000
   -7.5961   -7.8912    8.1779 C   0  0  0  0  0  0  0  0  0  0  0  0
   -8.7153   -7.3435    8.7880 C   0  0  0  0  0  0  0  0  0  0  0  0
   -9.9756   -7.8580    8.5637 C   0  0  0  0  0  0  0  0  0  0  0  0
  -10.1680   -8.9316    7.7277 C   0  0  0  0  0  0  0  0  0  0  0  0
  -11.2710   -9.6043    7.3580 N   0  0  0  0  0  0  0  0  0  0  0  0
  -10.8753  -10.5630    6.5284 N   0  0  0  0  0  0  0  0  0  0  0  0
   -9.5428  -10.5206    6.3570 C   0  0  0  0  0  0  0  0  0  0  0  0
   -9.0648   -9.4860    7.1137 C   0  0  0  0  0  0  0  0  0  0  0  0
   -7.8034   -8.9495    7.3557 C   0  0  0  0  0  0  0  0  0  0  0  0
   -3.8767   -5.2278    6.6351 N   0  0  0  0  0  0  0  0  0  0  0  0
   -4.7624   -5.2033    5.5475 C   0  0  0  0  0  0  0  0  0  0  0  0
   -4.7716   -4.4708    4.5304 O   0  0  0  0  0  0  0  0  0  0  0  0
   -5.9614   -6.4877    5.8827 S   0  0  0  0  0  0  0  0  0  0  0  0
   -5.5470   -6.6528    7.6231 C   0  0  0  0  0  0  0  0  0  0  0  0
   -6.3196   -7.2655    8.4815 C   0  0  0  0  0  0  0  0  0  0  0  0
   -4.2645   -5.9850    7.7452 C   0  0  0  0  0  0  0  0  0  0  0  0
   -3.5723   -6.1142    8.8239 O   0  0  0  0  0  0  0  0  0  0  0  0
   -2.6027   -4.4897    6.5959 C   0  0  0  0  0  0  0  0  0  0  0  0
   -1.2201   -2.3480    9.1781 C   0  0  0  0  0  0  0  0  0  0  0  0
   -1.3026   -2.7464    7.7661 N   0  0  0  0  0  0  0  0  0  0  0  0
   -1.0626   -1.5818    6.9725 C   0  0  0  0  0  0  0  0  0  0  0  0
   -2.1034   -1.6262    5.8604 C   0  0  0  0  0  0  0  0  0  0  0  0
   -3.2939   -2.1834    6.6179 C   0  0  0  0  0  0  0  0  0  0  0  0
   -2.6063   -3.2725    7.4586 C   0  0  0  0  0  0  0  0  0  0  0  0
  -12.5968   -9.2950    7.8178 C   0  0  0  0  0  0  0  0  0  0  0  0
  -13.3764   -8.4238    6.9315 C   0  0  0  0  0  0  0  0  0  0  0  0
  -13.7417   -8.8196    5.6720 C   0  0  0  0  0  0  0  0  0  0  0  0
  -14.4877   -7.9855    4.8736 C   0  0  0  0  0  0  0  0  0  0  0  0
  -14.8939   -6.7414    5.2907 C   0  0  0  0  0  0  0  0  0  0  0  0
  -15.8538   -5.6539    4.2835 Cl  0  0  0  0  0  0  0  0  0  0  0  0
  -14.5159   -6.3611    6.5601 C   0  0  0  0  0  0  0  0  0  0  0  0
  -13.7655   -7.1712    7.3950 C   0  0  0  0  0  0  0  0  0  0  0  0
  -13.4114   -6.6604    8.7363 C   0  0  0  0  0  0  0  0  0  0  0  0
  -14.1614   -5.5074    8.9859 F   0  0  0  0  0  0  0  0  0  0  0  0
  -12.0916   -6.2536    8.8387 F   0  0  0  0  0  0  0  0  0  0  0  0
  -13.7765   -7.5664    9.7008 F   0  0  0  0  0  0  0  0  0  0  0  0
 19 20  1  0  0  0
 20 21  1  0  0  0
 21 22  1  0  0  0
 22 23  1  0  0  0
 23 24  1  0  0  0
 24 18  1  0  0  0
 18 10  1  0  0  0
 10 11  1  0  0  0
 11 12  2  0  0  0
 11 13  1  0  0  0
 13 14  1  0  0  0
 14 15  2  0  0  0
 15  1  1  0  0  0
  1  2  2  0  0  0
  2  3  1  0  0  0
  3  4  2  0  0  0
  4  5  1  0  0  0
  5 25  1  0  0  0
 25 26  1  0  0  0
 26 27  2  0  0  0
 27 28  1  0  0  0
 28 29  2  0  0  0
 29 30  1  0  0  0
 29 31  1  0  0  0
 31 32  2  0  0  0
 32 33  1  0  0  0
 33 34  1  0  0  0
 33 35  1  0  0  0
 33 36  1  0  0  0
  5  6  1  0  0  0
  6  7  2  0  0  0
  7  8  1  0  0  0
  8  9  2  0  0  0
 14 16  1  0  0  0
 16 17  2  0  0  0
 24 20  1  0  0  0
 16 10  1  0  0  0
  9  1  1  0  0  0
  8  4  1  0  0  0
 32 26  1  0  0  0
M  END
> <minimizedAffinity>
-8.36616

> <CNNscore>
0.3791056573

> <CNNaffinity>
7.0949792862

> <CNN_VS>
2.6897468567

> <CNNaffinity_variance>
0.1311829388

$$$$
[H]/C(=C1/SC(=O)N(C([H])([H])[C@@]2([H])N(C([H])([H])[H])C([H])([H])C([H])([H])C2([H])[H])C1=O)c1c([H])c([H])c2c(c([H])nn2C([H])([H])c2c([H])c([H])c(Cl)c([H])c2C(F)(F)F)c1[H]


 36 40  0  0  0  0  0  0  0  0999 V2000
  -15.4147   -8.1983    9.4190 C   0  0  0  0  0  0  0  0  0  0  0  0
  -14.3885   -7.2647    9.4139 C   0  0  0  0  0  0  0  0  0  0  0  0
  -13.5221   -7.1487   10.4813 C   0  0  0  0  0  0  0  0  0  0  0  0
  -13.6445   -7.9537   11.5884 C   0  0  0  0  0  0  0  0  0  0  0  0
  -12.9394   -8.0365   12.7294 N   0  0  0  0  0  0  0  0  0  0  0  0
  -13.4963   -8.9993   13.4551 N   0  0  0  0  0  0  0  0  0  0  0  0
  -14.5435   -9.5363   12.8057 C   0  0  0  0  0  0  0  0  0  0  0  0
  -14.6604   -8.8859   11.6079 C   0  0  0  0  0  0  0  0  0  0  0  0
  -15.5218   -8.9842   10.5189 C   0  0  0  0  0  0  0  0  0  0  0  0
  -16.3398   -6.5207    4.9875 N   0  0  0  0  0  0  0  0  0  0  0  0
  -15.1142   -5.9187    5.3096 C   0  0  0  0  0  0  0  0  0  0  0  0
  -14.2904   -5.3228    4.5766 O   0  0  0  0  0  0  0  0  0  0  0  0
  -14.9135   -6.1631    7.0702 S   0  0  0  0  0  0  0  0  0  0  0  0
  -16.1683   -7.4419    7.2053 C   0  0  0  0  0  0  0  0  0  0  0  0
  -16.2706   -8.2287    8.2444 C   0  0  0  0  0  0  0  0  0  0  0  0
  -16.9201   -7.3304    5.9692 C   0  0  0  0  0  0  0  0  0  0  0  0
  -18.0386   -7.9559    5.8381 O   0  0  0  0  0  0  0  0  0  0  0  0
  -16.9748   -6.3003    3.6771 C   0  0  0  0  0  0  0  0  0  0  0  0
  -14.4909   -8.2680    1.9092 C   0  0  0  0  0  0  0  0  0  0  0  0
  -15.4316   -8.1157    3.0278 N   0  0  0  0  0  0  0  0  0  0  0  0
  -15.9012   -9.4193    3.3796 C   0  0  0  0  0  0  0  0  0  0  0  0
  -17.4023   -9.2668    3.5929 C   0  0  0  0  0  0  0  0  0  0  0  0
  -17.7353   -8.2619    2.5062 C   0  0  0  0  0  0  0  0  0  0  0  0
  -16.5493   -7.2928    2.6477 C   0  0  0  0  0  0  0  0  0  0  0  0
  -11.8035   -7.2122   13.0376 C   0  0  0  0  0  0  0  0  0  0  0  0
  -11.6430   -6.0286   12.1857 C   0  0  0  0  0  0  0  0  0  0  0  0
  -11.8827   -6.0738   10.8377 C   0  0  0  0  0  0  0  0  0  0  0  0
  -11.7399   -4.9418   10.0711 C   0  0  0  0  0  0  0  0  0  0  0  0
  -11.3578   -3.7364   10.6077 C   0  0  0  0  0  0  0  0  0  0  0  0
  -11.1696   -2.2691    9.6431 Cl  0  0  0  0  0  0  0  0  0  0  0  0
  -11.1205   -3.7114   11.9648 C   0  0  0  0  0  0  0  0  0  0  0  0
  -11.2531   -4.8286   12.7715 C   0  0  0  0  0  0  0  0  0  0  0  0
  -10.9681   -4.6898   14.2154 C   0  0  0  0  0  0  0  0  0  0  0  0
  -12.1083   -5.0641   14.9324 F   0  0  0  0  0  0  0  0  0  0  0  0
  -10.7186   -3.3839   14.6034 F   0  0  0  0  0  0  0  0  0  0  0  0
   -9.9798   -5.5655   14.5906 F   0  0  0  0  0  0  0  0  0  0  0  0
 19 20  1  0  0  0
 20 21  1  0  0  0
 21 22  1  0  0  0
 22 23  1  0  0  0
 23 24  1  0  0  0
 24 18  1  0  0  0
 18 10  1  0  0  0
 10 11  1  0  0  0
 11 12  2  0  0  0
 11 13  1  0  0  0
 13 14  1  0  0  0
 14 15  2  0  0  0
 15  1  1  0  0  0
  1  2  2  0  0  0
  2  3  1  0  0  0
  3  4  2  0  0  0
  4  5  1  0  0  0
  5 25  1  0  0  0
 25 26  1  0  0  0
 26 27  2  0  0  0
 27 28  1  0  0  0
 28 29  2  0  0  0
 29 30  1  0  0  0
 29 31  1  0  0  0
 31 32  2  0  0  0
 32 33  1  0  0  0
 33 34  1  0  0  0
 33 35  1  0  0  0
 33 36  1  0  0  0
  5  6  1  0  0  0
  6  7  2  0  0  0
  7  8  1  0  0  0
  8  9  2  0  0  0
 14 16  1  0  0  0
 16 17  2  0  0  0
 24 20  1  0  0  0
 16 10  1  0  0  0
  9  1  1  0  0  0
  8  4  1  0  0  0
 32 26  1  0  0  0
M  END
> <minimizedAffinity>
28.01861

> <CNNscore>
0.3609589934

> <CNNaffinity>
6.8209419250

> <CNN_VS>
2.4620802402

> <CNNaffinity_variance>
0.7115186453

$$$$
[H]/C(=C1/SC(=O)N(C([H])([H])[C@@]2([H])N(C([H])([H])[H])C([H])([H])C([H])([H])C2([H])[H])C1=O)c1c([H])c([H])c2c(c([H])nn2C([H])([H])c2c([H])c([H])c(Cl)c([H])c2C(F)(F)F)c1[H]


 36 40  0  0  0  0  0  0  0  0999 V2000
   -7.1098   -7.1552    6.4095 C   0  0  0  0  0  0  0  0  0  0  0  0
   -8.0961   -6.4430    7.0763 C   0  0  0  0  0  0  0  0  0  0  0  0
   -9.2217   -7.0704    7.5692 C   0  0  0  0  0  0  0  0  0  0  0  0
   -9.4065   -8.4236    7.4174 C   0  0  0  0  0  0  0  0  0  0  0  0
  -10.3928   -9.2510    7.8028 N   0  0  0  0  0  0  0  0  0  0  0  0
  -10.0534  -10.4684    7.3946 N   0  0  0  0  0  0  0  0  0  0  0  0
   -8.8713  -10.4411    6.7554 C   0  0  0  0  0  0  0  0  0  0  0  0
   -8.4347   -9.1446    6.7561 C   0  0  0  0  0  0  0  0  0  0  0  0
   -7.3079   -8.4893    6.2679 C   0  0  0  0  0  0  0  0  0  0  0  0
   -2.9833   -4.8725    7.4437 N   0  0  0  0  0  0  0  0  0  0  0  0
   -3.3450   -5.4532    8.6685 C   0  0  0  0  0  0  0  0  0  0  0  0
   -2.6743   -5.6127    9.7154 O   0  0  0  0  0  0  0  0  0  0  0  0
   -5.0478   -5.9629    8.4678 S   0  0  0  0  0  0  0  0  0  0  0  0
   -5.0467   -5.8461    6.6750 C   0  0  0  0  0  0  0  0  0  0  0  0
   -5.9706   -6.3914    5.9277 C   0  0  0  0  0  0  0  0  0  0  0  0
   -3.8628   -5.0633    6.3731 C   0  0  0  0  0  0  0  0  0  0  0  0
   -3.6836   -4.6006    5.1843 O   0  0  0  0  0  0  0  0  0  0  0  0
   -1.7370   -4.1000    7.3064 C   0  0  0  0  0  0  0  0  0  0  0  0
   -3.7736   -1.1648    6.6710 C   0  0  0  0  0  0  0  0  0  0  0  0
   -3.2997   -2.2089    7.5901 N   0  0  0  0  0  0  0  0  0  0  0  0
   -3.2968   -1.6567    8.9087 C   0  0  0  0  0  0  0  0  0  0  0  0
   -1.9851   -2.1117    9.5369 C   0  0  0  0  0  0  0  0  0  0  0  0
   -1.0610   -2.0313    8.3364 C   0  0  0  0  0  0  0  0  0  0  0  0
   -1.9667   -2.6271    7.2452 C   0  0  0  0  0  0  0  0  0  0  0  0
  -11.5626   -8.8311    8.5239 C   0  0  0  0  0  0  0  0  0  0  0  0
  -12.6386   -8.2746    7.6963 C   0  0  0  0  0  0  0  0  0  0  0  0
  -13.0262   -8.8686    6.5244 C   0  0  0  0  0  0  0  0  0  0  0  0
  -14.0502   -8.3309    5.7816 C   0  0  0  0  0  0  0  0  0  0  0  0
  -14.7199   -7.1960    6.1697 C   0  0  0  0  0  0  0  0  0  0  0  0
  -16.0391   -6.4884    5.2330 Cl  0  0  0  0  0  0  0  0  0  0  0  0
  -14.3149   -6.6128    7.3507 C   0  0  0  0  0  0  0  0  0  0  0  0
  -13.2888   -7.1229    8.1275 C   0  0  0  0  0  0  0  0  0  0  0  0
  -12.9329   -6.4131    9.3745 C   0  0  0  0  0  0  0  0  0  0  0  0
  -13.7834   -5.3131    9.5190 F   0  0  0  0  0  0  0  0  0  0  0  0
  -11.6572   -5.8745    9.3555 F   0  0  0  0  0  0  0  0  0  0  0  0
  -13.1661   -7.2180   10.4618 F   0  0  0  0  0  0  0  0  0  0  0  0
 19 20  1  0  0  0
 20 21  1  0  0  0
 21 22  1  0  0  0
 22 23  1  0  0  0
 23 24  1  0  0  0
 24 18  1  0  0  0
 18 10  1  0  0  0
 10 11  1  0  0  0
 11 12  2  0  0  0
 11 13  1  0  0  0
 13 14  1  0  0  0
 14 15  2  0  0  0
 15  1  1  0  0  0
  1  2  2  0  0  0
  2  3  1  0  0  0
  3  4  2  0  0  0
  4  5  1  0  0  0
  5 25  1  0  0  0
 25 26  1  0  0  0
 26 27  2  0  0  0
 27 28  1  0  0  0
 28 29  2  0  0  0
 29 30  1  0  0  0
 29 31  1  0  0  0
 31 32  2  0  0  0
 32 33  1  0  0  0
 33 34  1  0  0  0
 33 35  1  0  0  0
 33 36  1  0  0  0
  5  6  1  0  0  0
  6  7  2  0  0  0
  7  8  1  0  0  0
  8  9  2  0  0  0
 14 16  1  0  0  0
 16 17  2  0  0  0
 24 20  1  0  0  0
 16 10  1  0  0  0
  9  1  1  0  0  0
  8  4  1  0  0  0
 32 26  1  0  0  0
M  END
> <minimizedAffinity>
-8.67541

> <CNNscore>
0.3607176542

> <CNNaffinity>
7.0917282104

> <CNN_VS>
2.5581116676

> <CNNaffinity_variance>
0.1032507271

$$$$
[H]/C(=C1/SC(=O)N(C([H])([H])[C@@]2([H])N(C([H])([H])[H])C([H])([H])C([H])([H])C2([H])[H])C1=O)c1c([H])c([H])c2c(c([H])nn2C([H])([H])c2c([H])c([H])c(Cl)c([H])c2C(F)(F)F)c1[H]


 36 40  0  0  0  0  0  0  0  0999 V2000
   -5.8705   -6.9436    6.4977 C   0  0  0  0  0  0  0  0  0  0  0  0
   -7.1390   -6.5373    6.1097 C   0  0  0  0  0  0  0  0  0  0  0  0
   -8.2524   -7.3011    6.3933 C   0  0  0  0  0  0  0  0  0  0  0  0
   -8.1450   -8.4922    7.0702 C   0  0  0  0  0  0  0  0  0  0  0  0
   -9.0592   -9.3959    7.4621 N   0  0  0  0  0  0  0  0  0  0  0  0
   -8.3983  -10.3634    8.0874 N   0  0  0  0  0  0  0  0  0  0  0  0
   -7.0801  -10.1014    8.1054 C   0  0  0  0  0  0  0  0  0  0  0  0
   -6.8903   -8.9093    7.4616 C   0  0  0  0  0  0  0  0  0  0  0  0
   -5.7821   -8.1213    7.1641 C   0  0  0  0  0  0  0  0  0  0  0  0
   -2.4148   -3.9118    7.9723 N   0  0  0  0  0  0  0  0  0  0  0  0
   -2.9490   -4.3993    9.1744 C   0  0  0  0  0  0  0  0  0  0  0  0
   -2.5041   -4.3253   10.3439 O   0  0  0  0  0  0  0  0  0  0  0  0
   -4.4827   -5.2009    8.7218 S   0  0  0  0  0  0  0  0  0  0  0  0
   -4.1116   -5.2922    6.9663 C   0  0  0  0  0  0  0  0  0  0  0  0
   -4.7695   -6.0638    6.1411 C   0  0  0  0  0  0  0  0  0  0  0  0
   -3.0087   -4.3658    6.7902 C   0  0  0  0  0  0  0  0  0  0  0  0
   -2.6425   -4.0197    5.6046 O   0  0  0  0  0  0  0  0  0  0  0  0
   -1.2856   -2.9663    7.9693 C   0  0  0  0  0  0  0  0  0  0  0  0
   -3.6021   -0.4194    6.8231 C   0  0  0  0  0  0  0  0  0  0  0  0
   -3.1227   -1.3183    7.8822 N   0  0  0  0  0  0  0  0  0  0  0  0
   -3.3860   -0.6875    9.1378 C   0  0  0  0  0  0  0  0  0  0  0  0
   -2.1270   -0.8977    9.9701 C   0  0  0  0  0  0  0  0  0  0  0  0
   -1.0612   -0.7569    8.8996 C   0  0  0  0  0  0  0  0  0  0  0  0
   -1.7087   -1.5520    7.7532 C   0  0  0  0  0  0  0  0  0  0  0  0
  -10.4706   -9.2718    7.2226 C   0  0  0  0  0  0  0  0  0  0  0  0
  -11.1605   -8.2847    8.0605 C   0  0  0  0  0  0  0  0  0  0  0  0
  -10.4742   -7.3203    8.7500 C   0  0  0  0  0  0  0  0  0  0  0  0
  -11.1529   -6.3994    9.5122 C   0  0  0  0  0  0  0  0  0  0  0  0
  -12.5225   -6.4016    9.6175 C   0  0  0  0  0  0  0  0  0  0  0  0
  -13.4156   -5.2279   10.5888 Cl  0  0  0  0  0  0  0  0  0  0  0  0
  -13.1946   -7.3798    8.9174 C   0  0  0  0  0  0  0  0  0  0  0  0
  -12.5487   -8.3249    8.1389 C   0  0  0  0  0  0  0  0  0  0  0  0
  -13.3688   -9.3330    7.4341 C   0  0  0  0  0  0  0  0  0  0  0  0
  -14.7017   -9.1746    7.8245 F   0  0  0  0  0  0  0  0  0  0  0  0
  -13.0518  -10.6368    7.7771 F   0  0  0  0  0  0  0  0  0  0  0  0
  -13.3406   -9.1057    6.0806 F   0  0  0  0  0  0  0  0  0  0  0  0
 19 20  1  0  0  0
 20 21  1  0  0  0
 21 22  1  0  0  0
 22 23  1  0  0  0
 23 24  1  0  0  0
 24 18  1  0  0  0
 18 10  1  0  0  0
 10 11  1  0  0  0
 11 12  2  0  0  0
 11 13  1  0  0  0
 13 14  1  0  0  0
 14 15  2  0  0  0
 15  1  1  0  0  0
  1  2  2  0  0  0
  2  3  1  0  0  0
  3  4  2  0  0  0
  4  5  1  0  0  0
  5 25  1  0  0  0
 25 26  1  0  0  0
 26 27  2  0  0  0
 27 28  1  0  0  0
 28 29  2  0  0  0
 29 30  1  0  0  0
 29 31  1  0  0  0
 31 32  2  0  0  0
 32 33  1  0  0  0
 33 34  1  0  0  0
 33 35  1  0  0  0
 33 36  1  0  0  0
  5  6  1  0  0  0
  6  7  2  0  0  0
  7  8  1  0  0  0
  8  9  2  0  0  0
 14 16  1  0  0  0
 16 17  2  0  0  0
 24 20  1  0  0  0
 16 10  1  0  0  0
  9  1  1  0  0  0
  8  4  1  0  0  0
 32 26  1  0  0  0
M  END
> <minimizedAffinity>
-8.70571

> <CNNscore>
0.3229007423

> <CNNaffinity>
6.5619583130

> <CNN_VS>
2.1188611984

> <CNNaffinity_variance>
0.1483013332

$$$$
[H]/C(=C1/SC(=O)N(C([H])([H])[C@@]2([H])N(C([H])([H])[H])C([H])([H])C([H])([H])C2([H])[H])C1=O)c1c([H])c([H])c2c(c([H])nn2C([H])([H])c2c([H])c([H])c(Cl)c([H])c2C(F)(F)F)c1[H]


 36 40  0  0  0  0  0  0  0  0999 V2000
   -9.2456   -8.5199    7.3117 C   0  0  0  0  0  0  0  0  0  0  0  0
   -8.1127   -8.3743    6.5243 C   0  0  0  0  0  0  0  0  0  0  0  0
   -7.7853   -9.3081    5.5629 C   0  0  0  0  0  0  0  0  0  0  0  0
   -8.5696  -10.4165    5.3507 C   0  0  0  0  0  0  0  0  0  0  0  0
   -8.4692  -11.4449    4.4915 N   0  0  0  0  0  0  0  0  0  0  0  0
   -9.5111  -12.2367    4.7182 N   0  0  0  0  0  0  0  0  0  0  0  0
  -10.2779  -11.7399    5.7040 C   0  0  0  0  0  0  0  0  0  0  0  0
   -9.6985  -10.5749    6.1264 C   0  0  0  0  0  0  0  0  0  0  0  0
  -10.0081   -9.6191    7.0899 C   0  0  0  0  0  0  0  0  0  0  0  0
  -12.4158   -5.5658    9.4403 N   0  0  0  0  0  0  0  0  0  0  0  0
  -13.2223   -6.3580    8.6097 C   0  0  0  0  0  0  0  0  0  0  0  0
  -14.4674   -6.5019    8.5929 O   0  0  0  0  0  0  0  0  0  0  0  0
  -12.0909   -7.1861    7.4991 S   0  0  0  0  0  0  0  0  0  0  0  0
  -10.6213   -6.8487    8.4759 C   0  0  0  0  0  0  0  0  0  0  0  0
   -9.4899   -7.4790    8.2966 C   0  0  0  0  0  0  0  0  0  0  0  0
  -11.0382   -5.8024    9.3908 C   0  0  0  0  0  0  0  0  0  0  0  0
  -10.1587   -5.1676   10.0857 O   0  0  0  0  0  0  0  0  0  0  0  0
  -13.0034   -4.5368   10.3150 C   0  0  0  0  0  0  0  0  0  0  0  0
  -15.5836   -5.6903   12.5907 C   0  0  0  0  0  0  0  0  0  0  0  0
  -14.6113   -5.9687   11.5246 N   0  0  0  0  0  0  0  0  0  0  0  0
  -14.1686   -7.3187   11.6836 C   0  0  0  0  0  0  0  0  0  0  0  0
  -12.6591   -7.2781   11.4796 C   0  0  0  0  0  0  0  0  0  0  0  0
  -12.3263   -5.9535   12.1402 C   0  0  0  0  0  0  0  0  0  0  0  0
  -13.4816   -5.0823   11.6187 C   0  0  0  0  0  0  0  0  0  0  0  0
   -7.4114  -11.5931    3.5304 C   0  0  0  0  0  0  0  0  0  0  0  0
   -7.6035  -12.6706    2.5534 C   0  0  0  0  0  0  0  0  0  0  0  0
   -7.5761  -13.9897    2.9217 C   0  0  0  0  0  0  0  0  0  0  0  0
   -7.7774  -14.9743    1.9839 C   0  0  0  0  0  0  0  0  0  0  0  0
   -8.0105  -14.6896    0.6604 C   0  0  0  0  0  0  0  0  0  0  0  0
   -8.2737  -15.9372   -0.5613 Cl  0  0  0  0  0  0  0  0  0  0  0  0
   -8.0335  -13.3572    0.3097 C   0  0  0  0  0  0  0  0  0  0  0  0
   -7.8356  -12.3361    1.2233 C   0  0  0  0  0  0  0  0  0  0  0  0
   -7.8761  -10.9408    0.7364 C   0  0  0  0  0  0  0  0  0  0  0  0
   -9.2127  -10.5475    0.6230 F   0  0  0  0  0  0  0  0  0  0  0  0
   -7.3525  -10.7874   -0.5365 F   0  0  0  0  0  0  0  0  0  0  0  0
   -7.3102  -10.0988    1.6611 F   0  0  0  0  0  0  0  0  0  0  0  0
 19 20  1  0  0  0
 20 21  1  0  0  0
 21 22  1  0  0  0
 22 23  1  0  0  0
 23 24  1  0  0  0
 24 18  1  0  0  0
 18 10  1  0  0  0
 10 11  1  0  0  0
 11 12  2  0  0  0
 11 13  1  0  0  0
 13 14  1  0  0  0
 14 15  2  0  0  0
 15  1  1  0  0  0
  1  2  2  0  0  0
  2  3  1  0  0  0
  3  4  2  0  0  0
  4  5  1  0  0  0
  5 25  1  0  0  0
 25 26  1  0  0  0
 26 27  2  0  0  0
 27 28  1  0  0  0
 28 29  2  0  0  0
 29 30  1  0  0  0
 29 31  1  0  0  0
 31 32  2  0  0  0
 32 33  1  0  0  0
 33 34  1  0  0  0
 33 35  1  0  0  0
 33 36  1  0  0  0
  5  6  1  0  0  0
  6  7  2  0  0  0
  7  8  1  0  0  0
  8  9  2  0  0  0
 14 16  1  0  0  0
 16 17  2  0  0  0
 24 20  1  0  0  0
 16 10  1  0  0  0
  9  1  1  0  0  0
  8  4  1  0  0  0
 32 26  1  0  0  0
M  END
> <minimizedAffinity>
36.52564

> <CNNscore>
0.2814013362

> <CNNaffinity>
6.0762033463

> <CNN_VS>
1.7098517418

> <CNNaffinity_variance>
0.6323823333

$$$$
[H]/C(=C1/SC(=O)N(C([H])([H])[C@@]2([H])N(C([H])([H])[H])C([H])([H])C([H])([H])C2([H])[H])C1=O)c1c([H])c([H])c2c(c([H])nn2C([H])([H])c2c([H])c([H])c(Cl)c([H])c2C(F)(F)F)c1[H]


 36 40  0  0  0  0  0  0  0  0999 V2000
   -8.3470   -8.5333    7.7728 C   0  0  0  0  0  0  0  0  0  0  0  0
   -8.9986   -9.6162    7.2007 C   0  0  0  0  0  0  0  0  0  0  0  0
  -10.3756   -9.6678    7.1327 C   0  0  0  0  0  0  0  0  0  0  0  0
  -11.1516   -8.6483    7.6295 C   0  0  0  0  0  0  0  0  0  0  0  0
  -12.4820   -8.4649    7.6779 N   0  0  0  0  0  0  0  0  0  0  0  0
  -12.6861   -7.2925    8.2677 N   0  0  0  0  0  0  0  0  0  0  0  0
  -11.5165   -6.7193    8.5994 C   0  0  0  0  0  0  0  0  0  0  0  0
  -10.5179   -7.5656    8.2018 C   0  0  0  0  0  0  0  0  0  0  0  0
   -9.1274   -7.5363    8.2586 C   0  0  0  0  0  0  0  0  0  0  0  0
   -4.1609   -6.7278    6.1839 N   0  0  0  0  0  0  0  0  0  0  0  0
   -5.1150   -5.8588    5.6340 C   0  0  0  0  0  0  0  0  0  0  0  0
   -4.9697   -4.7333    5.1016 O   0  0  0  0  0  0  0  0  0  0  0  0
   -6.6862   -6.6897    5.8356 S   0  0  0  0  0  0  0  0  0  0  0  0
   -6.0926   -7.8773    7.0461 C   0  0  0  0  0  0  0  0  0  0  0  0
   -6.8945   -8.5875    7.7957 C   0  0  0  0  0  0  0  0  0  0  0  0
   -4.6478   -7.8029    6.9344 C   0  0  0  0  0  0  0  0  0  0  0  0
   -3.9118   -8.6915    7.5073 O   0  0  0  0  0  0  0  0  0  0  0  0
   -2.7200   -6.5090    5.9713 C   0  0  0  0  0  0  0  0  0  0  0  0
   -2.9767   -3.3996    7.8241 C   0  0  0  0  0  0  0  0  0  0  0  0
   -3.0878   -4.8641    7.7763 N   0  0  0  0  0  0  0  0  0  0  0  0
   -2.7781   -5.3649    9.0790 C   0  0  0  0  0  0  0  0  0  0  0  0
   -1.8734   -6.5689    8.8470 C   0  0  0  0  0  0  0  0  0  0  0  0
   -1.0609   -6.0802    7.6627 C   0  0  0  0  0  0  0  0  0  0  0  0
   -2.1638   -5.4161    6.8211 C   0  0  0  0  0  0  0  0  0  0  0  0
  -13.4446   -9.3992    7.1630 C   0  0  0  0  0  0  0  0  0  0  0  0
  -14.3807   -8.8493    6.1762 C   0  0  0  0  0  0  0  0  0  0  0  0
  -14.1342   -8.9232    4.8307 C   0  0  0  0  0  0  0  0  0  0  0  0
  -15.0410   -8.4136    3.9321 C   0  0  0  0  0  0  0  0  0  0  0  0
  -16.2128   -7.8180    4.3308 C   0  0  0  0  0  0  0  0  0  0  0  0
  -17.3929   -7.1581    3.1949 Cl  0  0  0  0  0  0  0  0  0  0  0  0
  -16.4422   -7.7526    5.6880 C   0  0  0  0  0  0  0  0  0  0  0  0
  -15.5549   -8.2538    6.6251 C   0  0  0  0  0  0  0  0  0  0  0  0
  -15.8994   -8.1253    8.0570 C   0  0  0  0  0  0  0  0  0  0  0  0
  -17.2545   -7.7982    8.1614 F   0  0  0  0  0  0  0  0  0  0  0  0
  -15.2349   -7.0890    8.6913 F   0  0  0  0  0  0  0  0  0  0  0  0
  -15.7511   -9.3337    8.6911 F   0  0  0  0  0  0  0  0  0  0  0  0
 19 20  1  0  0  0
 20 21  1  0  0  0
 21 22  1  0  0  0
 22 23  1  0  0  0
 23 24  1  0  0  0
 24 18  1  0  0  0
 18 10  1  0  0  0
 10 11  1  0  0  0
 11 12  2  0  0  0
 11 13  1  0  0  0
 13 14  1  0  0  0
 14 15  2  0  0  0
 15  1  1  0  0  0
  1  2  2  0  0  0
  2  3  1  0  0  0
  3  4  2  0  0  0
  4  5  1  0  0  0
  5 25  1  0  0  0
 25 26  1  0  0  0
 26 27  2  0  0  0
 27 28  1  0  0  0
 28 29  2  0  0  0
 29 30  1  0  0  0
 29 31  1  0  0  0
 31 32  2  0  0  0
 32 33  1  0  0  0
 33 34  1  0  0  0
 33 35  1  0  0  0
 33 36  1  0  0  0
  5  6  1  0  0  0
  6  7  2  0  0  0
  7  8  1  0  0  0
  8  9  2  0  0  0
 14 16  1  0  0  0
 16 17  2  0  0  0
 24 20  1  0  0  0
 16 10  1  0  0  0
  9  1  1  0  0  0
  8  4  1  0  0  0
 32 26  1  0  0  0
M  END
> <minimizedAffinity>
-9.53174

> <CNNscore>
0.2462634891

> <CNNaffinity>
7.1108446121

> <CNN_VS>
1.7511414289

> <CNNaffinity_variance>
0.0907881111

$$$$
[H]c1c([H])c([H])c(N([H])[H])c(C(=O)c2nnn(-c3c([H])c([H])c([H])c(C(C([H])([H])[H])(C([H])([H])[H])C([H])([H])[H])c3[H])c2[H])c1[H]


 26 28  0  0  0  0  0  0  0  0999 V2000
  -12.4238   -7.8745    7.7343 N   0  0  0  0  0  0  0  0  0  0  0  0
  -13.5534   -8.1442    7.0367 C   0  0  0  0  0  0  0  0  0  0  0  0
  -14.5782   -7.2601    7.4172 C   0  0  0  0  0  0  0  0  0  0  0  0
  -13.9921   -6.4743    8.3622 N   0  0  0  0  0  0  0  0  0  0  0  0
  -12.7206   -6.8889    8.5020 N   0  0  0  0  0  0  0  0  0  0  0  0
   -8.7758   -8.5495    7.4166 C   0  0  0  0  0  0  0  0  0  0  0  0
   -8.8003   -9.8456    6.9432 C   0  0  0  0  0  0  0  0  0  0  0  0
   -9.9845  -10.5294    6.7430 C   0  0  0  0  0  0  0  0  0  0  0  0
  -11.2023   -9.8924    7.0287 C   0  0  0  0  0  0  0  0  0  0  0  0
  -11.1925   -8.5944    7.5060 C   0  0  0  0  0  0  0  0  0  0  0  0
   -9.9882   -7.9762    7.6829 C   0  0  0  0  0  0  0  0  0  0  0  0
   -7.6453   -6.4646    7.0409 C   0  0  0  0  0  0  0  0  0  0  0  0
   -7.4769   -7.8922    7.5402 C   0  0  0  0  0  0  0  0  0  0  0  0
   -6.9417   -7.8325    8.9373 C   0  0  0  0  0  0  0  0  0  0  0  0
   -6.5065   -8.5694    6.6004 C   0  0  0  0  0  0  0  0  0  0  0  0
  -15.8961   -7.2444    6.8274 C   0  0  0  0  0  0  0  0  0  0  0  0
  -16.8138   -7.8201    7.5782 O   0  0  0  0  0  0  0  0  0  0  0  0
  -16.3622   -6.7530    5.5994 C   0  0  0  0  0  0  0  0  0  0  0  0
  -16.1748   -5.4716    5.1552 C   0  0  0  0  0  0  0  0  0  0  0  0
  -16.6917   -4.9714    3.9669 C   0  0  0  0  0  0  0  0  0  0  0  0
  -17.4451   -5.7909    3.1586 C   0  0  0  0  0  0  0  0  0  0  0  0
  -17.6616   -7.0992    3.5711 C   0  0  0  0  0  0  0  0  0  0  0  0
  -17.1344   -7.5776    4.7617 C   0  0  0  0  0  0  0  0  0  0  0  0
  -17.3508   -8.9438    5.0714 N   0  0  0  0  0  0  0  0  0  0  0  0
  -18.2854   -9.2843    5.3377 H   0  0  0  0  0  0  0  0  0  0  0  0
  -16.5168   -9.5703    5.0060 H   0  0  0  0  0  0  0  0  0  0  0  0
 12 13  1  0  0  0
 13 14  1  0  0  0
 13 15  1  0  0  0
 13  6  1  0  0  0
  6  7  2  0  0  0
  7  8  1  0  0  0
  8  9  2  0  0  0
  9 10  1  0  0  0
 10 11  2  0  0  0
 10  1  1  0  0  0
  1  2  1  0  0  0
  2  3  2  0  0  0
  3  4  1  0  0  0
  4  5  2  0  0  0
  3 16  1  0  0  0
 16 17  2  0  0  0
 16 18  1  0  0  0
 18 19  2  0  0  0
 19 20  1  0  0  0
 20 21  2  0  0  0
 21 22  1  0  0  0
 22 23  2  0  0  0
 23 24  1  0  0  0
 11  6  1  0  0  0
  5  1  1  0  0  0
 23 18  1  0  0  0
 24 25  1  0  0  0
 24 26  1  0  0  0
M  END
> <minimizedAffinity>
-9.88719

> <CNNscore>
0.5070319176

> <CNNaffinity>
6.7565069199

> <CNN_VS>
3.4257645607

> <CNNaffinity_variance>
0.1559797823

$$$$
[H]c1c([H])c([H])c(N([H])[H])c(C(=O)c2nnn(-c3c([H])c([H])c([H])c(C(C([H])([H])[H])(C([H])([H])[H])C([H])([H])[H])c3[H])c2[H])c1[H]


 26 28  0  0  0  0  0  0  0  0999 V2000
   -7.0279   -8.0597    7.3491 N   0  0  0  0  0  0  0  0  0  0  0  0
   -8.3344   -7.7065    7.2870 C   0  0  0  0  0  0  0  0  0  0  0  0
   -9.1480   -8.8115    7.5926 C   0  0  0  0  0  0  0  0  0  0  0  0
   -8.2565   -9.8129    7.8299 N   0  0  0  0  0  0  0  0  0  0  0  0
   -7.0226   -9.3030    7.6699 N   0  0  0  0  0  0  0  0  0  0  0  0
   -4.2811   -5.6593    8.0960 C   0  0  0  0  0  0  0  0  0  0  0  0
   -4.0279   -5.1660    6.8321 C   0  0  0  0  0  0  0  0  0  0  0  0
   -4.7161   -5.6134    5.7203 C   0  0  0  0  0  0  0  0  0  0  0  0
   -5.7029   -6.5998    5.8743 C   0  0  0  0  0  0  0  0  0  0  0  0
   -5.9655   -7.1049    7.1347 C   0  0  0  0  0  0  0  0  0  0  0  0
   -5.2486   -6.6208    8.1910 C   0  0  0  0  0  0  0  0  0  0  0  0
   -3.0860   -3.6943    8.7860 C   0  0  0  0  0  0  0  0  0  0  0  0
   -3.5411   -5.0815    9.2153 C   0  0  0  0  0  0  0  0  0  0  0  0
   -4.3355   -4.9370   10.4763 C   0  0  0  0  0  0  0  0  0  0  0  0
   -2.2902   -5.9002    9.4356 C   0  0  0  0  0  0  0  0  0  0  0  0
  -10.5892   -8.7617    7.6658 C   0  0  0  0  0  0  0  0  0  0  0  0
  -11.1866   -9.5316    6.7783 O   0  0  0  0  0  0  0  0  0  0  0  0
  -11.4562   -8.0279    8.4883 C   0  0  0  0  0  0  0  0  0  0  0  0
  -11.3096   -6.6980    8.7788 C   0  0  0  0  0  0  0  0  0  0  0  0
  -12.1343   -5.9899    9.6436 C   0  0  0  0  0  0  0  0  0  0  0  0
  -13.1775   -6.6365   10.2651 C   0  0  0  0  0  0  0  0  0  0  0  0
  -13.3629   -7.9871   10.0001 C   0  0  0  0  0  0  0  0  0  0  0  0
  -12.5270   -8.6738    9.1317 C   0  0  0  0  0  0  0  0  0  0  0  0
  -12.8298  -10.0336    8.8698 N   0  0  0  0  0  0  0  0  0  0  0  0
  -12.6892  -10.7553    9.5906 H   0  0  0  0  0  0  0  0  0  0  0  0
  -13.2041  -10.2488    7.9179 H   0  0  0  0  0  0  0  0  0  0  0  0
 12 13  1  0  0  0
 13 14  1  0  0  0
 13 15  1  0  0  0
 13  6  1  0  0  0
  6  7  2  0  0  0
  7  8  1  0  0  0
  8  9  2  0  0  0
  9 10  1  0  0  0
 10 11  2  0  0  0
 10  1  1  0  0  0
  1  2  1  0  0  0
  2  3  2  0  0  0
  3  4  1  0  0  0
  4  5  2  0  0  0
  3 16  1  0  0  0
 16 17  2  0  0  0
 16 18  1  0  0  0
 18 19  2  0  0  0
 19 20  1  0  0  0
 20 21  2  0  0  0
 21 22  1  0  0  0
 22 23  2  0  0  0
 23 24  1  0  0  0
 11  6  1  0  0  0
  5  1  1  0  0  0
 23 18  1  0  0  0
 24 25  1  0  0  0
 24 26  1  0  0  0
M  END
> <minimizedAffinity>
-8.12924

> <CNNscore>
0.4629121125

> <CNNaffinity>
5.9660186768

> <CNN_VS>
2.7617423534

> <CNNaffinity_variance>
0.0985344201

$$$$
[H]c1c([H])c([H])c(N([H])[H])c(C(=O)c2nnn(-c3c([H])c([H])c([H])c(C(C([H])([H])[H])(C([H])([H])[H])C([H])([H])[H])c3[H])c2[H])c1[H]


 26 28  0  0  0  0  0  0  0  0999 V2000
   -6.9742   -8.5494    7.7095 N   0  0  0  0  0  0  0  0  0  0  0  0
   -8.2292   -8.0470    7.6190 C   0  0  0  0  0  0  0  0  0  0  0  0
   -9.1712   -9.0891    7.6731 C   0  0  0  0  0  0  0  0  0  0  0  0
   -8.4067  -10.2092    7.7959 N   0  0  0  0  0  0  0  0  0  0  0  0
   -7.1194   -9.8212    7.8115 N   0  0  0  0  0  0  0  0  0  0  0  0
   -3.5038   -7.3519    7.0875 C   0  0  0  0  0  0  0  0  0  0  0  0
   -3.4901   -6.2088    7.8607 C   0  0  0  0  0  0  0  0  0  0  0  0
   -4.5997   -5.7926    8.5717 C   0  0  0  0  0  0  0  0  0  0  0  0
   -5.7796   -6.5506    8.5091 C   0  0  0  0  0  0  0  0  0  0  0  0
   -5.8083   -7.6972    7.7363 C   0  0  0  0  0  0  0  0  0  0  0  0
   -4.6781   -8.0517    7.0575 C   0  0  0  0  0  0  0  0  0  0  0  0
   -1.1509   -7.6598    7.4546 C   0  0  0  0  0  0  0  0  0  0  0  0
   -2.2636   -7.7393    6.4196 C   0  0  0  0  0  0  0  0  0  0  0  0
   -2.2698   -9.1257    5.8542 C   0  0  0  0  0  0  0  0  0  0  0  0
   -1.9473   -6.7076    5.3617 C   0  0  0  0  0  0  0  0  0  0  0  0
  -10.6014   -8.8912    7.6541 C   0  0  0  0  0  0  0  0  0  0  0  0
  -11.2093   -9.5486    6.6868 O   0  0  0  0  0  0  0  0  0  0  0  0
  -11.4456   -8.1118    8.4583 C   0  0  0  0  0  0  0  0  0  0  0  0
  -11.2477   -6.7852    8.7329 C   0  0  0  0  0  0  0  0  0  0  0  0
  -12.0512   -6.0328    9.5801 C   0  0  0  0  0  0  0  0  0  0  0  0
  -13.1257   -6.6281   10.1994 C   0  0  0  0  0  0  0  0  0  0  0  0
  -13.3633   -7.9735    9.9501 C   0  0  0  0  0  0  0  0  0  0  0  0
  -12.5479   -8.7052    9.0991 C   0  0  0  0  0  0  0  0  0  0  0  0
  -12.9033  -10.0549    8.8519 N   0  0  0  0  0  0  0  0  0  0  0  0
  -12.7991  -10.7720    9.5834 H   0  0  0  0  0  0  0  0  0  0  0  0
  -13.2769  -10.2675    7.8991 H   0  0  0  0  0  0  0  0  0  0  0  0
 12 13  1  0  0  0
 13 14  1  0  0  0
 13 15  1  0  0  0
 13  6  1  0  0  0
  6  7  2  0  0  0
  7  8  1  0  0  0
  8  9  2  0  0  0
  9 10  1  0  0  0
 10 11  2  0  0  0
 10  1  1  0  0  0
  1  2  1  0  0  0
  2  3  2  0  0  0
  3  4  1  0  0  0
  4  5  2  0  0  0
  3 16  1  0  0  0
 16 17  2  0  0  0
 16 18  1  0  0  0
 18 19  2  0  0  0
 19 20  1  0  0  0
 20 21  2  0  0  0
 21 22  1  0  0  0
 22 23  2  0  0  0
 23 24  1  0  0  0
 11  6  1  0  0  0
  5  1  1  0  0  0
 23 18  1  0  0  0
 24 25  1  0  0  0
 24 26  1  0  0  0
M  END
> <minimizedAffinity>
-7.82301

> <CNNscore>
0.4397152960

> <CNNaffinity>
5.9676637650

> <CNN_VS>
2.6240730286

> <CNNaffinity_variance>
0.1551407576

$$$$
[H]c1c([H])c([H])c(N([H])[H])c(C(=O)c2nnn(-c3c([H])c([H])c([H])c(C(C([H])([H])[H])(C([H])([H])[H])C([H])([H])[H])c3[H])c2[H])c1[H]


 26 28  0  0  0  0  0  0  0  0999 V2000
   -9.5283   -7.8566    7.7639 N   0  0  0  0  0  0  0  0  0  0  0  0
   -8.6503   -7.0204    7.1595 C   0  0  0  0  0  0  0  0  0  0  0  0
   -7.5091   -7.7323    6.7506 C   0  0  0  0  0  0  0  0  0  0  0  0
   -7.7664   -9.0094    7.1466 N   0  0  0  0  0  0  0  0  0  0  0  0
   -8.9741   -9.0146    7.7377 N   0  0  0  0  0  0  0  0  0  0  0  0
  -13.2063   -7.2883    7.8814 C   0  0  0  0  0  0  0  0  0  0  0  0
  -13.2968   -6.4541    8.9771 C   0  0  0  0  0  0  0  0  0  0  0  0
  -12.1843   -6.0824    9.7080 C   0  0  0  0  0  0  0  0  0  0  0  0
  -10.9215   -6.5652    9.3301 C   0  0  0  0  0  0  0  0  0  0  0  0
  -10.8163   -7.4040    8.2355 C   0  0  0  0  0  0  0  0  0  0  0  0
  -11.9547   -7.7337    7.5578 C   0  0  0  0  0  0  0  0  0  0  0  0
  -14.1189   -8.7148    6.1790 C   0  0  0  0  0  0  0  0  0  0  0  0
  -14.4316   -7.5770    7.1400 C   0  0  0  0  0  0  0  0  0  0  0  0
  -15.5886   -7.9974    7.9923 C   0  0  0  0  0  0  0  0  0  0  0  0
  -14.7726   -6.3736    6.2919 C   0  0  0  0  0  0  0  0  0  0  0  0
   -6.4037   -7.1472    6.0290 C   0  0  0  0  0  0  0  0  0  0  0  0
   -6.7705   -6.5048    4.9380 O   0  0  0  0  0  0  0  0  0  0  0  0
   -5.0218   -7.1631    6.2673 C   0  0  0  0  0  0  0  0  0  0  0  0
   -4.3269   -8.2482    6.7300 C   0  0  0  0  0  0  0  0  0  0  0  0
   -2.9694   -8.2413    7.0241 C   0  0  0  0  0  0  0  0  0  0  0  0
   -2.2449   -7.0849    6.8492 C   0  0  0  0  0  0  0  0  0  0  0  0
   -2.9102   -5.9588    6.3823 C   0  0  0  0  0  0  0  0  0  0  0  0
   -4.2668   -5.9893    6.0940 C   0  0  0  0  0  0  0  0  0  0  0  0
   -4.8493   -4.8124    5.5603 N   0  0  0  0  0  0  0  0  0  0  0  0
   -4.9830   -3.9759    6.1457 H   0  0  0  0  0  0  0  0  0  0  0  0
   -5.1218   -4.8478    4.5519 H   0  0  0  0  0  0  0  0  0  0  0  0
 12 13  1  0  0  0
 13 14  1  0  0  0
 13 15  1  0  0  0
 13  6  1  0  0  0
  6  7  2  0  0  0
  7  8  1  0  0  0
  8  9  2  0  0  0
  9 10  1  0  0  0
 10 11  2  0  0  0
 10  1  1  0  0  0
  1  2  1  0  0  0
  2  3  2  0  0  0
  3  4  1  0  0  0
  4  5  2  0  0  0
  3 16  1  0  0  0
 16 17  2  0  0  0
 16 18  1  0  0  0
 18 19  2  0  0  0
 19 20  1  0  0  0
 20 21  2  0  0  0
 21 22  1  0  0  0
 22 23  2  0  0  0
 23 24  1  0  0  0
 11  6  1  0  0  0
  5  1  1  0  0  0
 23 18  1  0  0  0
 24 25  1  0  0  0
 24 26  1  0  0  0
M  END
> <minimizedAffinity>
-9.05278

> <CNNscore>
0.4333002865

> <CNNaffinity>
6.1469640732

> <CNN_VS>
2.6634812355

> <CNNaffinity_variance>
0.3659759164

$$$$
[H]c1c([H])c([H])c(N([H])[H])c(C(=O)c2nnn(-c3c([H])c([H])c([H])c(C(C([H])([H])[H])(C([H])([H])[H])C([H])([H])[H])c3[H])c2[H])c1[H]


 26 28  0  0  0  0  0  0  0  0999 V2000
  -11.1180   -7.7085    7.9187 N   0  0  0  0  0  0  0  0  0  0  0  0
  -12.1877   -8.1189    7.1958 C   0  0  0  0  0  0  0  0  0  0  0  0
  -13.3206   -7.3595    7.5367 C   0  0  0  0  0  0  0  0  0  0  0  0
  -12.8588   -6.4990    8.4855 N   0  0  0  0  0  0  0  0  0  0  0  0
  -11.5513   -6.7572    8.6644 N   0  0  0  0  0  0  0  0  0  0  0  0
   -7.4993   -7.9508    7.0754 C   0  0  0  0  0  0  0  0  0  0  0  0
   -7.3014   -9.3104    7.2056 C   0  0  0  0  0  0  0  0  0  0  0  0
   -8.3178  -10.1646    7.5893 C   0  0  0  0  0  0  0  0  0  0  0  0
   -9.5919   -9.6396    7.8570 C   0  0  0  0  0  0  0  0  0  0  0  0
   -9.8039   -8.2786    7.7329 C   0  0  0  0  0  0  0  0  0  0  0  0
   -8.7568   -7.4900    7.3514 C   0  0  0  0  0  0  0  0  0  0  0  0
   -5.1978   -8.0778    6.4027 C   0  0  0  0  0  0  0  0  0  0  0  0
   -6.3777   -7.1391    6.6088 C   0  0  0  0  0  0  0  0  0  0  0  0
   -6.6260   -6.4196    5.3194 C   0  0  0  0  0  0  0  0  0  0  0  0
   -5.9857   -6.1847    7.7129 C   0  0  0  0  0  0  0  0  0  0  0  0
  -14.6142   -7.5079    6.9125 C   0  0  0  0  0  0  0  0  0  0  0  0
  -15.2261   -8.6304    7.2335 O   0  0  0  0  0  0  0  0  0  0  0  0
  -15.3158   -6.6898    6.0152 C   0  0  0  0  0  0  0  0  0  0  0  0
  -14.7660   -5.6389    5.3312 C   0  0  0  0  0  0  0  0  0  0  0  0
  -15.4787   -4.7927    4.4914 C   0  0  0  0  0  0  0  0  0  0  0  0
  -16.8274   -4.9961    4.3115 C   0  0  0  0  0  0  0  0  0  0  0  0
  -17.4271   -6.0508    4.9874 C   0  0  0  0  0  0  0  0  0  0  0  0
  -16.6950   -6.8841    5.8204 C   0  0  0  0  0  0  0  0  0  0  0  0
  -17.3757   -7.9743    6.4183 N   0  0  0  0  0  0  0  0  0  0  0  0
  -18.0678   -7.8206    7.1649 H   0  0  0  0  0  0  0  0  0  0  0  0
  -17.1377   -8.9242    6.0531 H   0  0  0  0  0  0  0  0  0  0  0  0
 12 13  1  0  0  0
 13 14  1  0  0  0
 13 15  1  0  0  0
 13  6  1  0  0  0
  6  7  2  0  0  0
  7  8  1  0  0  0
  8  9  2  0  0  0
  9 10  1  0  0  0
 10 11  2  0  0  0
 10  1  1  0  0  0
  1  2  1  0  0  0
  2  3  2  0  0  0
  3  4  1  0  0  0
  4  5  2  0  0  0
  3 16  1  0  0  0
 16 17  2  0  0  0
 16 18  1  0  0  0
 18 19  2  0  0  0
 19 20  1  0  0  0
 20 21  2  0  0  0
 21 22  1  0  0  0
 22 23  2  0  0  0
 23 24  1  0  0  0
 11  6  1  0  0  0
  5  1  1  0  0  0
 23 18  1  0  0  0
 24 25  1  0  0  0
 24 26  1  0  0  0
M  END
> <minimizedAffinity>
-9.35415

> <CNNscore>
0.4310729206

> <CNNaffinity>
6.6930975914

> <CNN_VS>
2.8852131367

> <CNNaffinity_variance>
0.2625066340

$$$$
[H]c1c([H])c([H])c(N([H])[H])c(C(=O)c2nnn(-c3c([H])c([H])c([H])c(C(C([H])([H])[H])(C([H])([H])[H])C([H])([H])[H])c3[H])c2[H])c1[H]


 26 28  0  0  0  0  0  0  0  0999 V2000
  -12.3380   -7.1338    8.0889 N   0  0  0  0  0  0  0  0  0  0  0  0
  -11.3126   -7.7591    7.4619 C   0  0  0  0  0  0  0  0  0  0  0  0
  -10.0963   -7.4407    8.0908 C   0  0  0  0  0  0  0  0  0  0  0  0
  -10.4644   -6.6063    9.1018 N   0  0  0  0  0  0  0  0  0  0  0  0
  -11.8006   -6.4666    9.0454 N   0  0  0  0  0  0  0  0  0  0  0  0
  -15.4875   -6.8014    6.1307 C   0  0  0  0  0  0  0  0  0  0  0  0
  -16.3578   -7.5120    6.9322 C   0  0  0  0  0  0  0  0  0  0  0  0
  -15.9425   -8.1280    8.0975 C   0  0  0  0  0  0  0  0  0  0  0  0
  -14.5960   -8.0326    8.4827 C   0  0  0  0  0  0  0  0  0  0  0  0
  -13.7122   -7.3257    7.6878 C   0  0  0  0  0  0  0  0  0  0  0  0
  -14.1868   -6.7422    6.5484 C   0  0  0  0  0  0  0  0  0  0  0  0
  -16.0154   -7.1522    3.8147 C   0  0  0  0  0  0  0  0  0  0  0  0
  -16.0341   -6.1383    4.9493 C   0  0  0  0  0  0  0  0  0  0  0  0
  -17.4402   -5.6482    5.1072 C   0  0  0  0  0  0  0  0  0  0  0  0
  -15.0967   -5.0223    4.5501 C   0  0  0  0  0  0  0  0  0  0  0  0
   -8.8159   -7.9831    7.7016 C   0  0  0  0  0  0  0  0  0  0  0  0
   -8.7363   -9.2915    7.8401 O   0  0  0  0  0  0  0  0  0  0  0  0
   -7.6466   -7.3678    7.2317 C   0  0  0  0  0  0  0  0  0  0  0  0
   -7.4289   -7.0090    5.9284 C   0  0  0  0  0  0  0  0  0  0  0  0
   -6.2452   -6.4571    5.4556 C   0  0  0  0  0  0  0  0  0  0  0  0
   -5.2029   -6.2422    6.3275 C   0  0  0  0  0  0  0  0  0  0  0  0
   -5.3798   -6.5927    7.6597 C   0  0  0  0  0  0  0  0  0  0  0  0
   -6.5716   -7.1417    8.1098 C   0  0  0  0  0  0  0  0  0  0  0  0
   -6.6868   -7.4082    9.4972 N   0  0  0  0  0  0  0  0  0  0  0  0
   -6.1575   -8.1756    9.9343 H   0  0  0  0  0  0  0  0  0  0  0  0
   -7.3267   -6.7820   10.0366 H   0  0  0  0  0  0  0  0  0  0  0  0
 12 13  1  0  0  0
 13 14  1  0  0  0
 13 15  1  0  0  0
 13  6  1  0  0  0
  6  7  2  0  0  0
  7  8  1  0  0  0
  8  9  2  0  0  0
  9 10  1  0  0  0
 10 11  2  0  0  0
 10  1  1  0  0  0
  1  2  1  0  0  0
  2  3  2  0  0  0
  3  4  1  0  0  0
  4  5  2  0  0  0
  3 16  1  0  0  0
 16 17  2  0  0  0
 16 18  1  0  0  0
 18 19  2  0  0  0
 19 20  1  0  0  0
 20 21  2  0  0  0
 21 22  1  0  0  0
 22 23  2  0  0  0
 23 24  1  0  0  0
 11  6  1  0  0  0
  5  1  1  0  0  0
 23 18  1  0  0  0
 24 25  1  0  0  0
 24 26  1  0  0  0
M  END
> <minimizedAffinity>
-9.12372

> <CNNscore>
0.3985351622

> <CNNaffinity>
6.4278564453

> <CNN_VS>
2.5617268085

> <CNNaffinity_variance>
0.1532558352

$$$$
[H]c1c([H])c([H])c(N([H])[H])c(C(=O)c2nnn(-c3c([H])c([H])c([H])c(C(C([H])([H])[H])(C([H])([H])[H])C([H])([H])[H])c3[H])c2[H])c1[H]


 26 28  0  0  0  0  0  0  0  0999 V2000
  -12.3380   -7.7514    7.4775 N   0  0  0  0  0  0  0  0  0  0  0  0
  -13.0808   -7.4755    6.3786 C   0  0  0  0  0  0  0  0  0  0  0  0
  -14.1808   -6.6729    6.7287 C   0  0  0  0  0  0  0  0  0  0  0  0
  -14.0405   -6.5015    8.0722 N   0  0  0  0  0  0  0  0  0  0  0  0
  -12.9331   -7.1631    8.4516 N   0  0  0  0  0  0  0  0  0  0  0  0
   -8.6958   -8.5253    7.4738 C   0  0  0  0  0  0  0  0  0  0  0  0
   -8.7229   -9.8601    7.1243 C   0  0  0  0  0  0  0  0  0  0  0  0
   -9.9088  -10.5366    6.9095 C   0  0  0  0  0  0  0  0  0  0  0  0
  -11.1257   -9.8513    7.0503 C   0  0  0  0  0  0  0  0  0  0  0  0
  -11.1136   -8.5139    7.4025 C   0  0  0  0  0  0  0  0  0  0  0  0
   -9.9078   -7.9053    7.6017 C   0  0  0  0  0  0  0  0  0  0  0  0
   -7.5132   -6.4776    7.0569 C   0  0  0  0  0  0  0  0  0  0  0  0
   -7.3912   -7.8849    7.6229 C   0  0  0  0  0  0  0  0  0  0  0  0
   -6.9120   -7.7738    9.0371 C   0  0  0  0  0  0  0  0  0  0  0  0
   -6.3961   -8.6179    6.7534 C   0  0  0  0  0  0  0  0  0  0  0  0
  -15.1424   -6.1578    5.7828 C   0  0  0  0  0  0  0  0  0  0  0  0
  -14.9655   -4.8834    5.4960 O   0  0  0  0  0  0  0  0  0  0  0  0
  -16.2346   -6.7602    5.1418 C   0  0  0  0  0  0  0  0  0  0  0  0
  -16.7556   -6.3476    3.9448 C   0  0  0  0  0  0  0  0  0  0  0  0
  -17.8760   -6.9073    3.3440 C   0  0  0  0  0  0  0  0  0  0  0  0
  -18.5284   -7.9472    3.9649 C   0  0  0  0  0  0  0  0  0  0  0  0
  -18.0345   -8.3976    5.1823 C   0  0  0  0  0  0  0  0  0  0  0  0
  -16.9130   -7.8239    5.7632 C   0  0  0  0  0  0  0  0  0  0  0  0
  -16.4410   -8.3899    6.9740 N   0  0  0  0  0  0  0  0  0  0  0  0
  -16.9662   -8.2746    7.8521 H   0  0  0  0  0  0  0  0  0  0  0  0
  -15.5461   -8.9267    6.9153 H   0  0  0  0  0  0  0  0  0  0  0  0
 12 13  1  0  0  0
 13 14  1  0  0  0
 13 15  1  0  0  0
 13  6  1  0  0  0
  6  7  2  0  0  0
  7  8  1  0  0  0
  8  9  2  0  0  0
  9 10  1  0  0  0
 10 11  2  0  0  0
 10  1  1  0  0  0
  1  2  1  0  0  0
  2  3  2  0  0  0
  3  4  1  0  0  0
  4  5  2  0  0  0
  3 16  1  0  0  0
 16 17  2  0  0  0
 16 18  1  0  0  0
 18 19  2  0  0  0
 19 20  1  0  0  0
 20 21  2  0  0  0
 21 22  1  0  0  0
 22 23  2  0  0  0
 23 24  1  0  0  0
 11  6  1  0  0  0
  5  1  1  0  0  0
 23 18  1  0  0  0
 24 25  1  0  0  0
 24 26  1  0  0  0
M  END
> <minimizedAffinity>
-9.21363

> <CNNscore>
0.3979651928

> <CNNaffinity>
6.6551680565

> <CNN_VS>
2.6485252380

> <CNNaffinity_variance>
0.1014268175

$$$$
[H]c1c([H])c([H])c(N([H])[H])c(C(=O)c2nnn(-c3c([H])c([H])c([H])c(C(C([H])([H])[H])(C([H])([H])[H])C([H])([H])[H])c3[H])c2[H])c1[H]


 26 28  0  0  0  0  0  0  0  0999 V2000
   -8.9174   -9.0210    7.5644 N   0  0  0  0  0  0  0  0  0  0  0  0
   -8.1603   -7.9742    7.1562 C   0  0  0  0  0  0  0  0  0  0  0  0
   -6.7961   -8.3030    7.2414 C   0  0  0  0  0  0  0  0  0  0  0  0
   -6.8008   -9.5789    7.7169 N   0  0  0  0  0  0  0  0  0  0  0  0
   -8.0840   -9.9434    7.8860 N   0  0  0  0  0  0  0  0  0  0  0  0
  -12.4060   -7.9645    8.3244 C   0  0  0  0  0  0  0  0  0  0  0  0
  -13.1158   -8.9314    7.6418 C   0  0  0  0  0  0  0  0  0  0  0  0
  -12.4871   -9.9199    6.9085 C   0  0  0  0  0  0  0  0  0  0  0  0
  -11.0848   -9.9462    6.8517 C   0  0  0  0  0  0  0  0  0  0  0  0
  -10.3608   -8.9820    7.5291 C   0  0  0  0  0  0  0  0  0  0  0  0
  -11.0434   -8.0325    8.2336 C   0  0  0  0  0  0  0  0  0  0  0  0
  -13.9222   -7.7793   10.1772 C   0  0  0  0  0  0  0  0  0  0  0  0
  -13.1600   -6.9967    9.1178 C   0  0  0  0  0  0  0  0  0  0  0  0
  -12.3170   -5.9750    9.8160 C   0  0  0  0  0  0  0  0  0  0  0  0
  -14.1951   -6.3502    8.2267 C   0  0  0  0  0  0  0  0  0  0  0  0
   -5.7238   -7.4268    6.8327 C   0  0  0  0  0  0  0  0  0  0  0  0
   -6.0925   -6.5249    5.9450 O   0  0  0  0  0  0  0  0  0  0  0  0
   -4.3684   -7.3823    7.1901 C   0  0  0  0  0  0  0  0  0  0  0  0
   -3.4038   -8.2084    6.6786 C   0  0  0  0  0  0  0  0  0  0  0  0
   -2.0744   -8.2030    7.0812 C   0  0  0  0  0  0  0  0  0  0  0  0
   -1.6658   -7.3213    8.0551 C   0  0  0  0  0  0  0  0  0  0  0  0
   -2.6120   -6.4649    8.6028 C   0  0  0  0  0  0  0  0  0  0  0  0
   -3.9344   -6.4873    8.1843 C   0  0  0  0  0  0  0  0  0  0  0  0
   -4.8167   -5.5336    8.7512 N   0  0  0  0  0  0  0  0  0  0  0  0
   -5.1165   -5.6085    9.7334 H   0  0  0  0  0  0  0  0  0  0  0  0
   -5.1303   -4.7617    8.1203 H   0  0  0  0  0  0  0  0  0  0  0  0
 12 13  1  0  0  0
 13 14  1  0  0  0
 13 15  1  0  0  0
 13  6  1  0  0  0
  6  7  2  0  0  0
  7  8  1  0  0  0
  8  9  2  0  0  0
  9 10  1  0  0  0
 10 11  2  0  0  0
 10  1  1  0  0  0
  1  2  1  0  0  0
  2  3  2  0  0  0
  3  4  1  0  0  0
  4  5  2  0  0  0
  3 16  1  0  0  0
 16 17  2  0  0  0
 16 18  1  0  0  0
 18 19  2  0  0  0
 19 20  1  0  0  0
 20 21  2  0  0  0
 21 22  1  0  0  0
 22 23  2  0  0  0
 23 24  1  0  0  0
 11  6  1  0  0  0
  5  1  1  0  0  0
 23 18  1  0  0  0
 24 25  1  0  0  0
 24 26  1  0  0  0
M  END
> <minimizedAffinity>
-7.98497

> <CNNscore>
0.3494295180

> <CNNaffinity>
5.8971123695

> <CNN_VS>
2.0606250763

> <CNNaffinity_variance>
0.2013285458

$$$$
[H]c1c([H])c([H])c(N([H])[H])c(C(=O)c2nnn(-c3c([H])c([H])c([H])c(C(C([H])([H])[H])(C([H])([H])[H])C([H])([H])[H])c3[H])c2[H])c1[H]


 26 28  0  0  0  0  0  0  0  0999 V2000
  -13.0263   -8.0335    7.6240 N   0  0  0  0  0  0  0  0  0  0  0  0
  -13.5101   -7.7386    6.3934 C   0  0  0  0  0  0  0  0  0  0  0  0
  -14.7260   -8.4110    6.1791 C   0  0  0  0  0  0  0  0  0  0  0  0
  -14.9191   -9.1049    7.3345 N   0  0  0  0  0  0  0  0  0  0  0  0
  -13.8803   -8.8383    8.1456 N   0  0  0  0  0  0  0  0  0  0  0  0
   -9.3953   -7.4057    8.1588 C   0  0  0  0  0  0  0  0  0  0  0  0
   -9.4489   -6.4614    9.1639 C   0  0  0  0  0  0  0  0  0  0  0  0
  -10.6487   -5.9946    9.6665 C   0  0  0  0  0  0  0  0  0  0  0  0
  -11.8526   -6.4914    9.1427 C   0  0  0  0  0  0  0  0  0  0  0  0
  -11.8138   -7.4364    8.1335 C   0  0  0  0  0  0  0  0  0  0  0  0
  -10.5954   -7.8540    7.6809 C   0  0  0  0  0  0  0  0  0  0  0  0
   -7.6299   -6.9864    6.5863 C   0  0  0  0  0  0  0  0  0  0  0  0
   -8.0793   -7.8776    7.7350 C   0  0  0  0  0  0  0  0  0  0  0  0
   -7.0278   -7.8238    8.7996 C   0  0  0  0  0  0  0  0  0  0  0  0
   -8.2296   -9.2712    7.1703 C   0  0  0  0  0  0  0  0  0  0  0  0
  -15.5296   -8.2733    4.9874 C   0  0  0  0  0  0  0  0  0  0  0  0
  -15.3339   -9.2358    4.1083 O   0  0  0  0  0  0  0  0  0  0  0  0
  -16.4526   -7.2937    4.5932 C   0  0  0  0  0  0  0  0  0  0  0  0
  -16.1213   -6.0128    4.2410 C   0  0  0  0  0  0  0  0  0  0  0  0
  -17.0439   -5.0280    3.9117 C   0  0  0  0  0  0  0  0  0  0  0  0
  -18.3869   -5.3255    3.9293 C   0  0  0  0  0  0  0  0  0  0  0  0
  -18.7684   -6.6135    4.2821 C   0  0  0  0  0  0  0  0  0  0  0  0
  -17.8292   -7.5815    4.6062 C   0  0  0  0  0  0  0  0  0  0  0  0
  -18.3050   -8.8862    4.8903 N   0  0  0  0  0  0  0  0  0  0  0  0
  -18.8217   -9.0835    5.7588 H   0  0  0  0  0  0  0  0  0  0  0  0
  -18.1061   -9.6176    4.1706 H   0  0  0  0  0  0  0  0  0  0  0  0
 12 13  1  0  0  0
 13 14  1  0  0  0
 13 15  1  0  0  0
 13  6  1  0  0  0
  6  7  2  0  0  0
  7  8  1  0  0  0
  8  9  2  0  0  0
  9 10  1  0  0  0
 10 11  2  0  0  0
 10  1  1  0  0  0
  1  2  1  0  0  0
  2  3  2  0  0  0
  3  4  1  0  0  0
  4  5  2  0  0  0
  3 16  1  0  0  0
 16 17  2  0  0  0
 16 18  1  0  0  0
 18 19  2  0  0  0
 19 20  1  0  0  0
 20 21  2  0  0  0
 21 22  1  0  0  0
 22 23  2  0  0  0
 23 24  1  0  0  0
 11  6  1  0  0  0
  5  1  1  0  0  0
 23 18  1  0  0  0
 24 25  1  0  0  0
 24 26  1  0  0  0
M  END
> <minimizedAffinity>
-8.92520

> <CNNscore>
0.3320172131

> <CNNaffinity>
6.6030550003

> <CNN_VS>
2.1923279762

> <CNNaffinity_variance>
0.0815407112

$$$$
[H]OC([H])([H])[C@]([H])(N([H])[H])C([H])([H])N1C(=O)S/C(=C(/[H])c2c([H])c([H])c3c(c([H])nn3C([H])([H])c3c([H])c([H])c(Cl)c([H])c3C(F)(F)F)c2[H])C1=O


 37 40  0  0  0  0  0  0  0  0999 V2000
   -7.3481   -7.0409    6.4550 C   0  0  0  0  0  0  0  0  0  0  0  0
   -8.3662   -6.4109    7.1260 C   0  0  0  0  0  0  0  0  0  0  0  0
   -9.4540   -7.1163    7.5989 C   0  0  0  0  0  0  0  0  0  0  0  0
   -9.5977   -8.4728    7.4361 C   0  0  0  0  0  0  0  0  0  0  0  0
  -10.5616   -9.4000    7.7627 N   0  0  0  0  0  0  0  0  0  0  0  0
  -10.1270  -10.5509    7.3021 N   0  0  0  0  0  0  0  0  0  0  0  0
   -8.9375  -10.4267    6.6934 C   0  0  0  0  0  0  0  0  0  0  0  0
   -8.5639   -9.1072    6.7575 C   0  0  0  0  0  0  0  0  0  0  0  0
   -7.4732   -8.4049    6.2845 C   0  0  0  0  0  0  0  0  0  0  0  0
   -3.3255   -4.9187    7.6848 N   0  0  0  0  0  0  0  0  0  0  0  0
   -4.0646   -5.1460    8.8980 C   0  0  0  0  0  0  0  0  0  0  0  0
   -4.0288   -4.5772   10.0005 O   0  0  0  0  0  0  0  0  0  0  0  0
   -5.1370   -6.5152    8.4838 S   0  0  0  0  0  0  0  0  0  0  0  0
   -5.2020   -6.0842    6.7189 C   0  0  0  0  0  0  0  0  0  0  0  0
   -6.1843   -6.3428    5.9113 C   0  0  0  0  0  0  0  0  0  0  0  0
   -3.9315   -5.4161    6.5315 C   0  0  0  0  0  0  0  0  0  0  0  0
   -3.4079   -5.2999    5.3570 O   0  0  0  0  0  0  0  0  0  0  0  0
   -2.0487   -4.2103    7.7675 C   0  0  0  0  0  0  0  0  0  0  0  0
   -1.6516   -1.9832    8.6428 N   0  0  0  0  0  0  0  0  0  0  0  0
   -2.2066   -2.7329    7.5462 C   0  0  0  0  0  0  0  0  0  0  0  0
   -0.6145   -2.1856    8.7497 H   0  0  0  0  0  0  0  0  0  0  0  0
   -1.6770   -0.9732    8.3356 H   0  0  0  0  0  0  0  0  0  0  0  0
   -1.5917   -2.3219    6.2372 C   0  0  0  0  0  0  0  0  0  0  0  0
   -2.4320   -2.4832    5.1610 O   0  0  0  0  0  0  0  0  0  0  0  0
   -1.9799   -2.3847    4.3021 H   0  0  0  0  0  0  0  0  0  0  0  0
  -11.7836   -9.0518    8.4492 C   0  0  0  0  0  0  0  0  0  0  0  0
  -12.7923   -8.3478    7.6811 C   0  0  0  0  0  0  0  0  0  0  0  0
  -13.1949   -8.9371    6.4629 C   0  0  0  0  0  0  0  0  0  0  0  0
  -14.1146   -8.2817    5.6741 C   0  0  0  0  0  0  0  0  0  0  0  0
  -14.6523   -7.0661    6.0466 C   0  0  0  0  0  0  0  0  0  0  0  0
  -15.8220   -6.2899    4.9944 Cl  0  0  0  0  0  0  0  0  0  0  0  0
  -14.2733   -6.4779    7.2304 C   0  0  0  0  0  0  0  0  0  0  0  0
  -13.3268   -7.1462    8.0484 C   0  0  0  0  0  0  0  0  0  0  0  0
  -13.0521   -6.5292    9.3483 C   0  0  0  0  0  0  0  0  0  0  0  0
  -13.7804   -5.3024    9.4407 F   0  0  0  0  0  0  0  0  0  0  0  0
  -11.7965   -6.1680    9.6615 F   0  0  0  0  0  0  0  0  0  0  0  0
  -13.6145   -7.2778   10.4018 F   0  0  0  0  0  0  0  0  0  0  0  0
 19 20  1  0  0  0
 20 23  1  0  0  0
 23 24  1  0  0  0
 20 18  1  0  0  0
 18 10  1  0  0  0
 10 11  1  0  0  0
 11 12  2  0  0  0
 11 13  1  0  0  0
 13 14  1  0  0  0
 14 15  2  0  0  0
 15  1  1  0  0  0
  1  2  2  0  0  0
  2  3  1  0  0  0
  3  4  2  0  0  0
  4  5  1  0  0  0
  5 26  1  0  0  0
 26 27  1  0  0  0
 27 28  2  0  0  0
 28 29  1  0  0  0
 29 30  2  0  0  0
 30 31  1  0  0  0
 30 32  1  0  0  0
 32 33  2  0  0  0
 33 34  1  0  0  0
 34 35  1  0  0  0
 34 36  1  0  0  0
 34 37  1  0  0  0
  5  6  1  0  0  0
  6  7  2  0  0  0
  7  8  1  0  0  0
  8  9  2  0  0  0
 14 16  1  0  0  0
 16 17  2  0  0  0
 16 10  1  0  0  0
  9  1  1  0  0  0
  8  4  1  0  0  0
 33 27  1  0  0  0
 19 21  1  0  0  0
 19 22  1  0  0  0
 24 25  1  0  0  0
M  END
> <minimizedAffinity>
-8.16817

> <CNNscore>
0.4815408289

> <CNNaffinity>
6.8634629250

> <CNN_VS>
3.3050377369

> <CNNaffinity_variance>
0.2490917742

$$$$
[H]OC([H])([H])[C@]([H])(N([H])[H])C([H])([H])N1C(=O)S/C(=C(/[H])c2c([H])c([H])c3c(c([H])nn3C([H])([H])c3c([H])c([H])c(Cl)c([H])c3C(F)(F)F)c2[H])C1=O


 37 40  0  0  0  0  0  0  0  0999 V2000
  -11.6165   -7.1253    6.7487 C   0  0  0  0  0  0  0  0  0  0  0  0
  -12.2775   -6.1769    6.0088 C   0  0  0  0  0  0  0  0  0  0  0  0
  -13.2780   -6.5292    5.1260 C   0  0  0  0  0  0  0  0  0  0  0  0
  -13.6785   -7.8277    4.9244 C   0  0  0  0  0  0  0  0  0  0  0  0
  -14.5954   -8.4526    4.1093 N   0  0  0  0  0  0  0  0  0  0  0  0
  -14.4857   -9.7374    4.3604 N   0  0  0  0  0  0  0  0  0  0  0  0
  -13.5500   -9.9853    5.2897 C   0  0  0  0  0  0  0  0  0  0  0  0
  -13.0079   -8.7848    5.6766 C   0  0  0  0  0  0  0  0  0  0  0  0
  -12.0074   -8.4358    6.5621 C   0  0  0  0  0  0  0  0  0  0  0  0
   -7.0684   -7.9706    7.6421 N   0  0  0  0  0  0  0  0  0  0  0  0
   -7.4715   -8.8978    6.6186 C   0  0  0  0  0  0  0  0  0  0  0  0
   -7.0169  -10.0040    6.2870 O   0  0  0  0  0  0  0  0  0  0  0  0
   -8.8702   -8.0912    5.8510 S   0  0  0  0  0  0  0  0  0  0  0  0
   -9.3345   -7.1959    7.3634 C   0  0  0  0  0  0  0  0  0  0  0  0
  -10.5336   -6.8140    7.6803 C   0  0  0  0  0  0  0  0  0  0  0  0
   -8.0584   -7.0706    8.0355 C   0  0  0  0  0  0  0  0  0  0  0  0
   -7.8695   -6.1706    8.9419 O   0  0  0  0  0  0  0  0  0  0  0  0
   -5.7033   -8.0527    8.1602 C   0  0  0  0  0  0  0  0  0  0  0  0
   -3.9274   -8.4036    6.5456 N   0  0  0  0  0  0  0  0  0  0  0  0
   -4.7083   -7.4105    7.2359 C   0  0  0  0  0  0  0  0  0  0  0  0
   -4.5520   -9.0337    5.9617 H   0  0  0  0  0  0  0  0  0  0  0  0
   -3.3681   -7.8718    5.8248 H   0  0  0  0  0  0  0  0  0  0  0  0
   -5.3978   -6.4888    6.2688 C   0  0  0  0  0  0  0  0  0  0  0  0
   -5.3030   -5.1610    6.6128 O   0  0  0  0  0  0  0  0  0  0  0  0
   -5.8915   -4.5852    6.0892 H   0  0  0  0  0  0  0  0  0  0  0  0
  -15.4348   -7.7346    3.1789 C   0  0  0  0  0  0  0  0  0  0  0  0
  -16.3767   -6.7853    3.7398 C   0  0  0  0  0  0  0  0  0  0  0  0
  -15.9842   -5.4292    3.7565 C   0  0  0  0  0  0  0  0  0  0  0  0
  -16.8242   -4.4963    4.3237 C   0  0  0  0  0  0  0  0  0  0  0  0
  -18.0389   -4.8547    4.8729 C   0  0  0  0  0  0  0  0  0  0  0  0
  -19.0599   -3.6127    5.5749 Cl  0  0  0  0  0  0  0  0  0  0  0  0
  -18.4385   -6.1705    4.8641 C   0  0  0  0  0  0  0  0  0  0  0  0
  -17.5794   -7.1374    4.2821 C   0  0  0  0  0  0  0  0  0  0  0  0
  -18.1101   -8.5001    4.1971 C   0  0  0  0  0  0  0  0  0  0  0  0
  -18.0944   -8.9176    2.8298 F   0  0  0  0  0  0  0  0  0  0  0  0
  -19.3735   -8.7474    4.5816 F   0  0  0  0  0  0  0  0  0  0  0  0
  -17.2349   -9.4308    4.7923 F   0  0  0  0  0  0  0  0  0  0  0  0
 19 20  1  0  0  0
 20 23  1  0  0  0
 23 24  1  0  0  0
 20 18  1  0  0  0
 18 10  1  0  0  0
 10 11  1  0  0  0
 11 12  2  0  0  0
 11 13  1  0  0  0
 13 14  1  0  0  0
 14 15  2  0  0  0
 15  1  1  0  0  0
  1  2  2  0  0  0
  2  3  1  0  0  0
  3  4  2  0  0  0
  4  5  1  0  0  0
  5 26  1  0  0  0
 26 27  1  0  0  0
 27 28  2  0  0  0
 28 29  1  0  0  0
 29 30  2  0  0  0
 30 31  1  0  0  0
 30 32  1  0  0  0
 32 33  2  0  0  0
 33 34  1  0  0  0
 34 35  1  0  0  0
 34 36  1  0  0  0
 34 37  1  0  0  0
  5  6  1  0  0  0
  6  7  2  0  0  0
  7  8  1  0  0  0
  8  9  2  0  0  0
 14 16  1  0  0  0
 16 17  2  0  0  0
 16 10  1  0  0  0
  9  1  1  0  0  0
  8  4  1  0  0  0
 33 27  1  0  0  0
 19 21  1  0  0  0
 19 22  1  0  0  0
 24 25  1  0  0  0
M  END
> <minimizedAffinity>
9.50072

> <CNNscore>
0.4382247627

> <CNNaffinity>
6.5112867355

> <CNN_VS>
2.8534071445

> <CNNaffinity_variance>
1.5972096920

$$$$
[H]OC([H])([H])[C@]([H])(N([H])[H])C([H])([H])N1C(=O)S/C(=C(/[H])c2c([H])c([H])c3c(c([H])nn3C([H])([H])c3c([H])c([H])c(Cl)c([H])c3C(F)(F)F)c2[H])C1=O


 37 40  0  0  0  0  0  0  0  0999 V2000
   -9.2449   -7.2112    6.9988 C   0  0  0  0  0  0  0  0  0  0  0  0
   -9.8330   -6.3439    7.8852 C   0  0  0  0  0  0  0  0  0  0  0  0
  -11.0959   -6.5833    8.3873 C   0  0  0  0  0  0  0  0  0  0  0  0
  -11.8443   -7.6831    8.0445 C   0  0  0  0  0  0  0  0  0  0  0  0
  -13.1044   -8.1432    8.3539 N   0  0  0  0  0  0  0  0  0  0  0  0
  -13.2603   -9.2559    7.6732 N   0  0  0  0  0  0  0  0  0  0  0  0
  -12.1760   -9.5459    6.9377 C   0  0  0  0  0  0  0  0  0  0  0  0
  -11.2446   -8.5595    7.1480 C   0  0  0  0  0  0  0  0  0  0  0  0
   -9.9804   -8.3241    6.6447 C   0  0  0  0  0  0  0  0  0  0  0  0
   -4.6972   -6.6624    8.1011 N   0  0  0  0  0  0  0  0  0  0  0  0
   -5.4379   -6.5741    9.3313 C   0  0  0  0  0  0  0  0  0  0  0  0
   -5.1708   -6.0284   10.4135 O   0  0  0  0  0  0  0  0  0  0  0  0
   -6.9435   -7.4710    8.9780 S   0  0  0  0  0  0  0  0  0  0  0  0
   -6.8921   -7.0922    7.2008 C   0  0  0  0  0  0  0  0  0  0  0  0
   -7.9212   -6.9976    6.4159 C   0  0  0  0  0  0  0  0  0  0  0  0
   -5.4709   -6.9359    6.9736 C   0  0  0  0  0  0  0  0  0  0  0  0
   -4.9704   -7.0485    5.7887 O   0  0  0  0  0  0  0  0  0  0  0  0
   -3.2489   -6.4639    8.1424 C   0  0  0  0  0  0  0  0  0  0  0  0
   -3.1553   -8.8290    7.6120 N   0  0  0  0  0  0  0  0  0  0  0  0
   -2.5079   -7.5567    7.4258 C   0  0  0  0  0  0  0  0  0  0  0  0
   -4.1463   -8.8058    7.2307 H   0  0  0  0  0  0  0  0  0  0  0  0
   -2.6559   -9.4972    6.9645 H   0  0  0  0  0  0  0  0  0  0  0  0
   -2.3570   -7.2292    5.9663 C   0  0  0  0  0  0  0  0  0  0  0  0
   -1.0607   -6.9613    5.5947 O   0  0  0  0  0  0  0  0  0  0  0  0
   -0.9881   -6.5816    4.6989 H   0  0  0  0  0  0  0  0  0  0  0  0
  -14.0006   -7.4383    9.2405 C   0  0  0  0  0  0  0  0  0  0  0  0
  -13.4119   -6.8085   10.4066 C   0  0  0  0  0  0  0  0  0  0  0  0
  -13.1594   -5.4218   10.3251 C   0  0  0  0  0  0  0  0  0  0  0  0
  -12.5562   -4.7877   11.3889 C   0  0  0  0  0  0  0  0  0  0  0  0
  -12.1955   -5.4739   12.5311 C   0  0  0  0  0  0  0  0  0  0  0  0
  -11.4345   -4.6010   13.8488 Cl  0  0  0  0  0  0  0  0  0  0  0  0
  -12.4353   -6.8245   12.6290 C   0  0  0  0  0  0  0  0  0  0  0  0
  -13.0559   -7.4850   11.5380 C   0  0  0  0  0  0  0  0  0  0  0  0
  -13.3911   -8.8955   11.7476 C   0  0  0  0  0  0  0  0  0  0  0  0
  -14.8088   -9.0529   11.6503 F   0  0  0  0  0  0  0  0  0  0  0  0
  -13.0943   -9.4832   12.9187 F   0  0  0  0  0  0  0  0  0  0  0  0
  -12.9387   -9.6957   10.6792 F   0  0  0  0  0  0  0  0  0  0  0  0
 19 20  1  0  0  0
 20 23  1  0  0  0
 23 24  1  0  0  0
 20 18  1  0  0  0
 18 10  1  0  0  0
 10 11  1  0  0  0
 11 12  2  0  0  0
 11 13  1  0  0  0
 13 14  1  0  0  0
 14 15  2  0  0  0
 15  1  1  0  0  0
  1  2  2  0  0  0
  2  3  1  0  0  0
  3  4  2  0  0  0
  4  5  1  0  0  0
  5 26  1  0  0  0
 26 27  1  0  0  0
 27 28  2  0  0  0
 28 29  1  0  0  0
 29 30  2  0  0  0
 30 31  1  0  0  0
 30 32  1  0  0  0
 32 33  2  0  0  0
 33 34  1  0  0  0
 34 35  1  0  0  0
 34 36  1  0  0  0
 34 37  1  0  0  0
  5  6  1  0  0  0
  6  7  2  0  0  0
  7  8  1  0  0  0
  8  9  2  0  0  0
 14 16  1  0  0  0
 16 17  2  0  0  0
 16 10  1  0  0  0
  9  1  1  0  0  0
  8  4  1  0  0  0
 33 27  1  0  0  0
 19 21  1  0  0  0
 19 22  1  0  0  0
 24 25  1  0  0  0
M  END
> <minimizedAffinity>
3.92594

> <CNNscore>
0.3899039626

> <CNNaffinity>
6.5189428329

> <CNN_VS>
2.5417616367

> <CNNaffinity_variance>
0.4411956668

$$$$
[H]OC([H])([H])[C@]([H])(N([H])[H])C([H])([H])N1C(=O)S/C(=C(/[H])c2c([H])c([H])c3c(c([H])nn3C([H])([H])c3c([H])c([H])c(Cl)c([H])c3C(F)(F)F)c2[H])C1=O


 37 40  0  0  0  0  0  0  0  0999 V2000
  -12.1444   -7.3174    9.9219 C   0  0  0  0  0  0  0  0  0  0  0  0
  -10.9544   -6.7709    9.5107 C   0  0  0  0  0  0  0  0  0  0  0  0
  -10.1371   -6.0935   10.3925 C   0  0  0  0  0  0  0  0  0  0  0  0
  -10.4464   -5.9176   11.7193 C   0  0  0  0  0  0  0  0  0  0  0  0
   -9.8545   -5.2771   12.7846 N   0  0  0  0  0  0  0  0  0  0  0  0
  -10.6682   -5.4415   13.8027 N   0  0  0  0  0  0  0  0  0  0  0  0
  -11.7557   -6.1500   13.4620 C   0  0  0  0  0  0  0  0  0  0  0  0
  -11.6513   -6.4739   12.1320 C   0  0  0  0  0  0  0  0  0  0  0  0
  -12.4710   -7.1538   11.2529 C   0  0  0  0  0  0  0  0  0  0  0  0
  -14.5814   -6.8665    5.9150 N   0  0  0  0  0  0  0  0  0  0  0  0
  -14.0864   -5.5582    6.2513 C   0  0  0  0  0  0  0  0  0  0  0  0
  -14.4907   -4.4243    5.9492 O   0  0  0  0  0  0  0  0  0  0  0  0
  -12.6612   -5.9008    7.2747 S   0  0  0  0  0  0  0  0  0  0  0  0
  -13.3287   -7.4790    7.8818 C   0  0  0  0  0  0  0  0  0  0  0  0
  -13.0612   -8.0241    9.0287 C   0  0  0  0  0  0  0  0  0  0  0  0
  -14.1790   -7.8822    6.7818 C   0  0  0  0  0  0  0  0  0  0  0  0
  -14.5309   -9.1152    6.6303 O   0  0  0  0  0  0  0  0  0  0  0  0
  -15.4332   -7.0086    4.7347 C   0  0  0  0  0  0  0  0  0  0  0  0
  -17.0169   -8.5024    5.8044 N   0  0  0  0  0  0  0  0  0  0  0  0
  -16.8692   -7.2553    5.1004 C   0  0  0  0  0  0  0  0  0  0  0  0
  -16.4505   -8.4963    6.7028 H   0  0  0  0  0  0  0  0  0  0  0  0
  -18.0174   -8.5191    6.1419 H   0  0  0  0  0  0  0  0  0  0  0  0
  -17.4195   -6.1079    5.9009 C   0  0  0  0  0  0  0  0  0  0  0  0
  -17.3828   -4.9058    5.2346 O   0  0  0  0  0  0  0  0  0  0  0  0
  -17.5735   -4.1413    5.8099 H   0  0  0  0  0  0  0  0  0  0  0  0
   -8.6002   -4.5696   12.6754 C   0  0  0  0  0  0  0  0  0  0  0  0
   -7.5095   -5.0309   13.5125 C   0  0  0  0  0  0  0  0  0  0  0  0
   -6.9377   -6.2800   13.1866 C   0  0  0  0  0  0  0  0  0  0  0  0
   -5.9316   -6.7834   13.9816 C   0  0  0  0  0  0  0  0  0  0  0  0
   -5.4688   -6.0961   15.0857 C   0  0  0  0  0  0  0  0  0  0  0  0
   -4.1817   -6.7958   16.0510 Cl  0  0  0  0  0  0  0  0  0  0  0  0
   -6.0126   -4.8773   15.4175 C   0  0  0  0  0  0  0  0  0  0  0  0
   -7.0490   -4.3520   14.6041 C   0  0  0  0  0  0  0  0  0  0  0  0
   -7.5054   -3.0008   14.9383 C   0  0  0  0  0  0  0  0  0  0  0  0
   -8.8466   -3.0741   15.4283 F   0  0  0  0  0  0  0  0  0  0  0  0
   -7.5783   -2.0659   13.9761 F   0  0  0  0  0  0  0  0  0  0  0  0
   -6.8180   -2.4879   16.0567 F   0  0  0  0  0  0  0  0  0  0  0  0
 19 20  1  0  0  0
 20 23  1  0  0  0
 23 24  1  0  0  0
 20 18  1  0  0  0
 18 10  1  0  0  0
 10 11  1  0  0  0
 11 12  2  0  0  0
 11 13  1  0  0  0
 13 14  1  0  0  0
 14 15  2  0  0  0
 15  1  1  0  0  0
  1  2  2  0  0  0
  2  3  1  0  0  0
  3  4  2  0  0  0
  4  5  1  0  0  0
  5 26  1  0  0  0
 26 27  1  0  0  0
 27 28  2  0  0  0
 28 29  1  0  0  0
 29 30  2  0  0  0
 30 31  1  0  0  0
 30 32  1  0  0  0
 32 33  2  0  0  0
 33 34  1  0  0  0
 34 35  1  0  0  0
 34 36  1  0  0  0
 34 37  1  0  0  0
  5  6  1  0  0  0
  6  7  2  0  0  0
  7  8  1  0  0  0
  8  9  2  0  0  0
 14 16  1  0  0  0
 16 17  2  0  0  0
 16 10  1  0  0  0
  9  1  1  0  0  0
  8  4  1  0  0  0
 33 27  1  0  0  0
 19 21  1  0  0  0
 19 22  1  0  0  0
 24 25  1  0  0  0
M  END
> <minimizedAffinity>
18.54952

> <CNNscore>
0.3793148100

> <CNNaffinity>
6.1119756699

> <CNN_VS>
2.3183629513

> <CNNaffinity_variance>
1.1199234724

$$$$
[H]OC([H])([H])[C@]([H])(N([H])[H])C([H])([H])N1C(=O)S/C(=C(/[H])c2c([H])c([H])c3c(c([H])nn3C([H])([H])c3c([H])c([H])c(Cl)c([H])c3C(F)(F)F)c2[H])C1=O


 37 40  0  0  0  0  0  0  0  0999 V2000
  -10.8193   -6.3759    6.7039 C   0  0  0  0  0  0  0  0  0  0  0  0
  -11.2605   -7.0002    7.8438 C   0  0  0  0  0  0  0  0  0  0  0  0
  -12.5797   -7.3797    7.9853 C   0  0  0  0  0  0  0  0  0  0  0  0
  -13.5308   -7.1648    7.0177 C   0  0  0  0  0  0  0  0  0  0  0  0
  -14.8829   -7.3993    6.9067 N   0  0  0  0  0  0  0  0  0  0  0  0
  -15.2357   -6.9310    5.7312 N   0  0  0  0  0  0  0  0  0  0  0  0
  -14.1928   -6.4039    5.0714 C   0  0  0  0  0  0  0  0  0  0  0  0
  -13.0797   -6.5339    5.8644 C   0  0  0  0  0  0  0  0  0  0  0  0
  -11.7601   -6.1543    5.7186 C   0  0  0  0  0  0  0  0  0  0  0  0
   -6.3578   -7.3309    7.8793 N   0  0  0  0  0  0  0  0  0  0  0  0
   -7.1942   -8.1370    8.7281 C   0  0  0  0  0  0  0  0  0  0  0  0
   -6.9893   -8.6411    9.8436 O   0  0  0  0  0  0  0  0  0  0  0  0
   -8.7134   -8.2865    7.7977 S   0  0  0  0  0  0  0  0  0  0  0  0
   -8.4893   -6.6945    6.9494 C   0  0  0  0  0  0  0  0  0  0  0  0
   -9.4407   -5.9303    6.5079 C   0  0  0  0  0  0  0  0  0  0  0  0
   -7.0473   -6.5667    6.9384 C   0  0  0  0  0  0  0  0  0  0  0  0
   -6.4550   -5.7861    6.0974 O   0  0  0  0  0  0  0  0  0  0  0  0
   -4.9093   -7.3837    8.0732 C   0  0  0  0  0  0  0  0  0  0  0  0
   -4.5894   -8.2110    5.8156 N   0  0  0  0  0  0  0  0  0  0  0  0
   -4.2596   -8.4202    7.2013 C   0  0  0  0  0  0  0  0  0  0  0  0
   -4.2545   -7.2574    5.4893 H   0  0  0  0  0  0  0  0  0  0  0  0
   -3.9817   -8.8854    5.2760 H   0  0  0  0  0  0  0  0  0  0  0  0
   -2.7712   -8.4361    7.4120 C   0  0  0  0  0  0  0  0  0  0  0  0
   -2.1653   -9.5864    6.9645 O   0  0  0  0  0  0  0  0  0  0  0  0
   -1.2383   -9.6714    7.2565 H   0  0  0  0  0  0  0  0  0  0  0  0
  -15.6601   -8.0170    7.9556 C   0  0  0  0  0  0  0  0  0  0  0  0
  -14.9342   -8.5043    9.1126 C   0  0  0  0  0  0  0  0  0  0  0  0
  -15.2325   -7.9025   10.3545 C   0  0  0  0  0  0  0  0  0  0  0  0
  -14.5343   -8.2972   11.4744 C   0  0  0  0  0  0  0  0  0  0  0  0
  -13.5534   -9.2666   11.4118 C   0  0  0  0  0  0  0  0  0  0  0  0
  -12.7071   -9.7229   12.8792 Cl  0  0  0  0  0  0  0  0  0  0  0  0
  -13.2505   -9.8650   10.2113 C   0  0  0  0  0  0  0  0  0  0  0  0
  -13.9648   -9.4642    9.0533 C   0  0  0  0  0  0  0  0  0  0  0  0
  -13.6806  -10.2184    7.8301 C   0  0  0  0  0  0  0  0  0  0  0  0
  -13.9248  -11.6057    8.0755 F   0  0  0  0  0  0  0  0  0  0  0  0
  -12.4395  -10.2091    7.3157 F   0  0  0  0  0  0  0  0  0  0  0  0
  -14.6223   -9.9346    6.8206 F   0  0  0  0  0  0  0  0  0  0  0  0
 19 20  1  0  0  0
 20 23  1  0  0  0
 23 24  1  0  0  0
 20 18  1  0  0  0
 18 10  1  0  0  0
 10 11  1  0  0  0
 11 12  2  0  0  0
 11 13  1  0  0  0
 13 14  1  0  0  0
 14 15  2  0  0  0
 15  1  1  0  0  0
  1  2  2  0  0  0
  2  3  1  0  0  0
  3  4  2  0  0  0
  4  5  1  0  0  0
  5 26  1  0  0  0
 26 27  1  0  0  0
 27 28  2  0  0  0
 28 29  1  0  0  0
 29 30  2  0  0  0
 30 31  1  0  0  0
 30 32  1  0  0  0
 32 33  2  0  0  0
 33 34  1  0  0  0
 34 35  1  0  0  0
 34 36  1  0  0  0
 34 37  1  0  0  0
  5  6  1  0  0  0
  6  7  2  0  0  0
  7  8  1  0  0  0
  8  9  2  0  0  0
 14 16  1  0  0  0
 16 17  2  0  0  0
 16 10  1  0  0  0
  9  1  1  0  0  0
  8  4  1  0  0  0
 33 27  1  0  0  0
 19 21  1  0  0  0
 19 22  1  0  0  0
 24 25  1  0  0  0
M  END
> <minimizedAffinity>
10.51504

> <CNNscore>
0.3681705594

> <CNNaffinity>
6.4625906944

> <CNN_VS>
2.3793356419

> <CNNaffinity_variance>
1.4225986004

$$$$
[H]OC([H])([H])[C@]([H])(N([H])[H])C([H])([H])N1C(=O)S/C(=C(/[H])c2c([H])c([H])c3c(c([H])nn3C([H])([H])c3c([H])c([H])c(Cl)c([H])c3C(F)(F)F)c2[H])C1=O


 37 40  0  0  0  0  0  0  0  0999 V2000
   -5.7728   -6.8820    6.4718 C   0  0  0  0  0  0  0  0  0  0  0  0
   -7.0188   -6.4687    6.0712 C   0  0  0  0  0  0  0  0  0  0  0  0
   -8.1467   -7.2040    6.3737 C   0  0  0  0  0  0  0  0  0  0  0  0
   -8.1085   -8.3803    7.0822 C   0  0  0  0  0  0  0  0  0  0  0  0
   -9.0410   -9.3095    7.4855 N   0  0  0  0  0  0  0  0  0  0  0  0
   -8.3687  -10.2479    8.1124 N   0  0  0  0  0  0  0  0  0  0  0  0
   -7.0531   -9.9847    8.1392 C   0  0  0  0  0  0  0  0  0  0  0  0
   -6.8452   -8.7945    7.4874 C   0  0  0  0  0  0  0  0  0  0  0  0
   -5.7146   -8.0605    7.1879 C   0  0  0  0  0  0  0  0  0  0  0  0
   -2.5690   -3.9536    8.3044 N   0  0  0  0  0  0  0  0  0  0  0  0
   -3.6641   -4.0091    9.2358 C   0  0  0  0  0  0  0  0  0  0  0  0
   -4.0478   -3.2065   10.1012 O   0  0  0  0  0  0  0  0  0  0  0  0
   -4.4355   -5.5823    8.8809 S   0  0  0  0  0  0  0  0  0  0  0  0
   -3.9169   -5.5775    7.1386 C   0  0  0  0  0  0  0  0  0  0  0  0
   -4.5416   -6.1577    6.1602 C   0  0  0  0  0  0  0  0  0  0  0  0
   -2.7065   -4.7852    7.1934 C   0  0  0  0  0  0  0  0  0  0  0  0
   -1.8193   -4.8606    6.2583 O   0  0  0  0  0  0  0  0  0  0  0  0
   -1.4484   -3.0605    8.5966 C   0  0  0  0  0  0  0  0  0  0  0  0
   -2.5058   -1.8066    6.8095 N   0  0  0  0  0  0  0  0  0  0  0  0
   -1.6003   -1.7250    7.9257 C   0  0  0  0  0  0  0  0  0  0  0  0
   -3.4690   -2.1199    7.1290 H   0  0  0  0  0  0  0  0  0  0  0  0
   -2.6599   -0.8096    6.4976 H   0  0  0  0  0  0  0  0  0  0  0  0
   -2.0428   -0.6807    8.9126 C   0  0  0  0  0  0  0  0  0  0  0  0
   -3.4053   -0.4999    8.9470 O   0  0  0  0  0  0  0  0  0  0  0  0
   -3.6758    0.2899    9.4519 H   0  0  0  0  0  0  0  0  0  0  0  0
  -10.4495   -9.1853    7.1909 C   0  0  0  0  0  0  0  0  0  0  0  0
  -11.2055   -8.2328    7.9809 C   0  0  0  0  0  0  0  0  0  0  0  0
  -10.4710   -7.2224    8.6391 C   0  0  0  0  0  0  0  0  0  0  0  0
  -11.1394   -6.3236    9.4409 C   0  0  0  0  0  0  0  0  0  0  0  0
  -12.5075   -6.3857    9.6141 C   0  0  0  0  0  0  0  0  0  0  0  0
  -13.2933   -5.2053   10.6470 Cl  0  0  0  0  0  0  0  0  0  0  0  0
  -13.2395   -7.3618    8.9796 C   0  0  0  0  0  0  0  0  0  0  0  0
  -12.5589   -8.2913    8.1523 C   0  0  0  0  0  0  0  0  0  0  0  0
  -13.4040   -9.2317    7.4124 C   0  0  0  0  0  0  0  0  0  0  0  0
  -13.2203  -10.5422    7.9535 F   0  0  0  0  0  0  0  0  0  0  0  0
  -13.2060   -9.4101    6.0955 F   0  0  0  0  0  0  0  0  0  0  0  0
  -14.7714   -9.0041    7.6671 F   0  0  0  0  0  0  0  0  0  0  0  0
 19 20  1  0  0  0
 20 23  1  0  0  0
 23 24  1  0  0  0
 20 18  1  0  0  0
 18 10  1  0  0  0
 10 11  1  0  0  0
 11 12  2  0  0  0
 11 13  1  0  0  0
 13 14  1  0  0  0
 14 15  2  0  0  0
 15  1  1  0  0  0
  1  2  2  0  0  0
  2  3  1  0  0  0
  3  4  2  0  0  0
  4  5  1  0  0  0
  5 26  1  0  0  0
 26 27  1  0  0  0
 27 28  2  0  0  0
 28 29  1  0  0  0
 29 30  2  0  0  0
 30 31  1  0  0  0
 30 32  1  0  0  0
 32 33  2  0  0  0
 33 34  1  0  0  0
 34 35  1  0  0  0
 34 36  1  0  0  0
 34 37  1  0  0  0
  5  6  1  0  0  0
  6  7  2  0  0  0
  7  8  1  0  0  0
  8  9  2  0  0  0
 14 16  1  0  0  0
 16 17  2  0  0  0
 16 10  1  0  0  0
  9  1  1  0  0  0
  8  4  1  0  0  0
 33 27  1  0  0  0
 19 21  1  0  0  0
 19 22  1  0  0  0
 24 25  1  0  0  0
M  END
> <minimizedAffinity>
-8.40535

> <CNNscore>
0.3560557067

> <CNNaffinity>
6.3098406792

> <CNN_VS>
2.2466547489

> <CNNaffinity_variance>
0.0756127909

$$$$
[H]OC([H])([H])[C@]([H])(N([H])[H])C([H])([H])N1C(=O)S/C(=C(/[H])c2c([H])c([H])c3c(c([H])nn3C([H])([H])c3c([H])c([H])c(Cl)c([H])c3C(F)(F)F)c2[H])C1=O


 37 40  0  0  0  0  0  0  0  0999 V2000
  -11.1853   -9.6112    7.1466 C   0  0  0  0  0  0  0  0  0  0  0  0
  -11.6056   -9.6568    5.8408 C   0  0  0  0  0  0  0  0  0  0  0  0
  -12.8974   -9.3170    5.4941 C   0  0  0  0  0  0  0  0  0  0  0  0
  -13.8402   -8.9174    6.4097 C   0  0  0  0  0  0  0  0  0  0  0  0
  -15.1696   -8.5637    6.3533 N   0  0  0  0  0  0  0  0  0  0  0  0
  -15.5293   -8.3108    7.5911 N   0  0  0  0  0  0  0  0  0  0  0  0
  -14.5124   -8.4808    8.4500 C   0  0  0  0  0  0  0  0  0  0  0  0
  -13.4102   -8.8710    7.7305 C   0  0  0  0  0  0  0  0  0  0  0  0
  -12.1179   -9.2088    8.0810 C   0  0  0  0  0  0  0  0  0  0  0  0
   -6.7333   -8.0765    7.2983 N   0  0  0  0  0  0  0  0  0  0  0  0
   -7.4592   -7.1670    6.4524 C   0  0  0  0  0  0  0  0  0  0  0  0
   -7.0809   -6.4107    5.5440 O   0  0  0  0  0  0  0  0  0  0  0  0
   -9.1516   -7.3476    6.9994 S   0  0  0  0  0  0  0  0  0  0  0  0
   -8.9179   -9.0676    7.5395 C   0  0  0  0  0  0  0  0  0  0  0  0
   -9.8378   -9.9823    7.5758 C   0  0  0  0  0  0  0  0  0  0  0  0
   -7.5091   -9.0834    7.8721 C   0  0  0  0  0  0  0  0  0  0  0  0
   -7.0209   -9.9852    8.6567 O   0  0  0  0  0  0  0  0  0  0  0  0
   -5.2962   -7.8705    7.4742 C   0  0  0  0  0  0  0  0  0  0  0  0
   -5.6187   -6.2018    9.2050 N   0  0  0  0  0  0  0  0  0  0  0  0
   -4.9781   -6.4802    7.9461 C   0  0  0  0  0  0  0  0  0  0  0  0
   -5.2895   -6.8808    9.9525 H   0  0  0  0  0  0  0  0  0  0  0  0
   -5.2264   -5.2742    9.5222 H   0  0  0  0  0  0  0  0  0  0  0  0
   -3.4914   -6.2744    8.0327 C   0  0  0  0  0  0  0  0  0  0  0  0
   -3.0477   -5.1743    7.3377 O   0  0  0  0  0  0  0  0  0  0  0  0
   -2.0767   -5.1415    7.2488 H   0  0  0  0  0  0  0  0  0  0  0  0
  -15.9235   -8.5426    5.1216 C   0  0  0  0  0  0  0  0  0  0  0  0
  -16.7865   -7.3988    4.8979 C   0  0  0  0  0  0  0  0  0  0  0  0
  -18.1673   -7.6576    4.7571 C   0  0  0  0  0  0  0  0  0  0  0  0
  -19.0214   -6.6093    4.4945 C   0  0  0  0  0  0  0  0  0  0  0  0
  -18.5607   -5.3141    4.3681 C   0  0  0  0  0  0  0  0  0  0  0  0
  -19.7063   -4.0273    4.0371 Cl  0  0  0  0  0  0  0  0  0  0  0  0
  -17.2194   -5.0428    4.5039 C   0  0  0  0  0  0  0  0  0  0  0  0
  -16.3332   -6.1167    4.7743 C   0  0  0  0  0  0  0  0  0  0  0  0
  -14.9372   -5.7501    5.0245 C   0  0  0  0  0  0  0  0  0  0  0  0
  -14.7431   -4.3850    4.6463 F   0  0  0  0  0  0  0  0  0  0  0  0
  -13.9533   -6.3940    4.3746 F   0  0  0  0  0  0  0  0  0  0  0  0
  -14.6559   -5.7090    6.4049 F   0  0  0  0  0  0  0  0  0  0  0  0
 19 20  1  0  0  0
 20 23  1  0  0  0
 23 24  1  0  0  0
 20 18  1  0  0  0
 18 10  1  0  0  0
 10 11  1  0  0  0
 11 12  2  0  0  0
 11 13  1  0  0  0
 13 14  1  0  0  0
 14 15  2  0  0  0
 15  1  1  0  0  0
  1  2  2  0  0  0
  2  3  1  0  0  0
  3  4  2  0  0  0
  4  5  1  0  0  0
  5 26  1  0  0  0
 26 27  1  0  0  0
 27 28  2  0  0  0
 28 29  1  0  0  0
 29 30  2  0  0  0
 30 31  1  0  0  0
 30 32  1  0  0  0
 32 33  2  0  0  0
 33 34  1  0  0  0
 34 35  1  0  0  0
 34 36  1  0  0  0
 34 37  1  0  0  0
  5  6  1  0  0  0
  6  7  2  0  0  0
  7  8  1  0  0  0
  8  9  2  0  0  0
 14 16  1  0  0  0
 16 17  2  0  0  0
 16 10  1  0  0  0
  9  1  1  0  0  0
  8  4  1  0  0  0
 33 27  1  0  0  0
 19 21  1  0  0  0
 19 22  1  0  0  0
 24 25  1  0  0  0
M  END
> <minimizedAffinity>
-6.90718

> <CNNscore>
0.3037174642

> <CNNaffinity>
6.9013504982

> <CNN_VS>
2.0960607529

> <CNNaffinity_variance>
0.0977443382

$$$$
[H]OC([H])([H])[C@]([H])(N([H])[H])C([H])([H])N1C(=O)S/C(=C(/[H])c2c([H])c([H])c3c(c([H])nn3C([H])([H])c3c([H])c([H])c(Cl)c([H])c3C(F)(F)F)c2[H])C1=O


 37 40  0  0  0  0  0  0  0  0999 V2000
  -11.4824   -8.6416    7.1520 C   0  0  0  0  0  0  0  0  0  0  0  0
  -12.0093   -9.3461    6.0985 C   0  0  0  0  0  0  0  0  0  0  0  0
  -13.1944   -8.9629    5.5044 C   0  0  0  0  0  0  0  0  0  0  0  0
  -13.9215   -7.8719    5.9144 C   0  0  0  0  0  0  0  0  0  0  0  0
  -15.1147   -7.2957    5.5407 N   0  0  0  0  0  0  0  0  0  0  0  0
  -15.2910   -6.2739    6.3472 N   0  0  0  0  0  0  0  0  0  0  0  0
  -14.2833   -6.1524    7.2250 C   0  0  0  0  0  0  0  0  0  0  0  0
  -13.3839   -7.1603    6.9803 C   0  0  0  0  0  0  0  0  0  0  0  0
  -12.1974   -7.5398    7.5762 C   0  0  0  0  0  0  0  0  0  0  0  0
   -6.9294   -7.5030    7.5659 N   0  0  0  0  0  0  0  0  0  0  0  0
   -7.4439   -6.7627    6.4448 C   0  0  0  0  0  0  0  0  0  0  0  0
   -6.8796   -6.2805    5.4502 O   0  0  0  0  0  0  0  0  0  0  0  0
   -9.1971   -6.6617    6.7797 S   0  0  0  0  0  0  0  0  0  0  0  0
   -9.2271   -8.2166    7.7209 C   0  0  0  0  0  0  0  0  0  0  0  0
  -10.2447   -9.0137    7.8355 C   0  0  0  0  0  0  0  0  0  0  0  0
   -7.8768   -8.2735    8.2395 C   0  0  0  0  0  0  0  0  0  0  0  0
   -7.5889   -9.0004    9.2671 O   0  0  0  0  0  0  0  0  0  0  0  0
   -5.5076   -7.3850    7.8872 C   0  0  0  0  0  0  0  0  0  0  0  0
   -4.8831   -5.7679    9.5840 N   0  0  0  0  0  0  0  0  0  0  0  0
   -5.1092   -5.9656    8.1760 C   0  0  0  0  0  0  0  0  0  0  0  0
   -4.1038   -6.4001    9.9319 H   0  0  0  0  0  0  0  0  0  0  0  0
   -4.4735   -4.7985    9.6706 H   0  0  0  0  0  0  0  0  0  0  0  0
   -3.9017   -5.5769    7.3692 C   0  0  0  0  0  0  0  0  0  0  0  0
   -2.7894   -5.3184    8.1349 O   0  0  0  0  0  0  0  0  0  0  0  0
   -2.0650   -4.9010    7.6321 H   0  0  0  0  0  0  0  0  0  0  0  0
  -15.9392   -7.8198    4.4770 C   0  0  0  0  0  0  0  0  0  0  0  0
  -17.3226   -8.1118    4.7997 C   0  0  0  0  0  0  0  0  0  0  0  0
  -17.6072   -9.4093    5.2783 C   0  0  0  0  0  0  0  0  0  0  0  0
  -18.9135   -9.7500    5.5521 C   0  0  0  0  0  0  0  0  0  0  0  0
  -19.9484   -8.8544    5.3721 C   0  0  0  0  0  0  0  0  0  0  0  0
  -21.5878   -9.3555    5.7449 Cl  0  0  0  0  0  0  0  0  0  0  0  0
  -19.6900   -7.5858    4.9084 C   0  0  0  0  0  0  0  0  0  0  0  0
  -18.3476   -7.2269    4.6240 C   0  0  0  0  0  0  0  0  0  0  0  0
  -18.1223   -5.8295    4.2469 C   0  0  0  0  0  0  0  0  0  0  0  0
  -19.3518   -5.2751    3.7723 F   0  0  0  0  0  0  0  0  0  0  0  0
  -17.2521   -5.5369    3.2660 F   0  0  0  0  0  0  0  0  0  0  0  0
  -17.8620   -5.0276    5.3764 F   0  0  0  0  0  0  0  0  0  0  0  0
 19 20  1  0  0  0
 20 23  1  0  0  0
 23 24  1  0  0  0
 20 18  1  0  0  0
 18 10  1  0  0  0
 10 11  1  0  0  0
 11 12  2  0  0  0
 11 13  1  0  0  0
 13 14  1  0  0  0
 14 15  2  0  0  0
 15  1  1  0  0  0
  1  2  2  0  0  0
  2  3  1  0  0  0
  3  4  2  0  0  0
  4  5  1  0  0  0
  5 26  1  0  0  0
 26 27  1  0  0  0
 27 28  2  0  0  0
 28 29  1  0  0  0
 29 30  2  0  0  0
 30 31  1  0  0  0
 30 32  1  0  0  0
 32 33  2  0  0  0
 33 34  1  0  0  0
 34 35  1  0  0  0
 34 36  1  0  0  0
 34 37  1  0  0  0
  5  6  1  0  0  0
  6  7  2  0  0  0
  7  8  1  0  0  0
  8  9  2  0  0  0
 14 16  1  0  0  0
 16 17  2  0  0  0
 16 10  1  0  0  0
  9  1  1  0  0  0
  8  4  1  0  0  0
 33 27  1  0  0  0
 19 21  1  0  0  0
 19 22  1  0  0  0
 24 25  1  0  0  0
M  END
> <minimizedAffinity>
-1.60961

> <CNNscore>
0.2897371650

> <CNNaffinity>
6.6434488297

> <CNN_VS>
1.9248540401

> <CNNaffinity_variance>
0.4953307211

$$$$
[H]OC([H])([H])[C@]([H])(N([H])[H])C([H])([H])N1C(=O)S/C(=C(/[H])c2c([H])c([H])c3c(c([H])nn3C([H])([H])c3c([H])c([H])c(Cl)c([H])c3C(F)(F)F)c2[H])C1=O


 37 40  0  0  0  0  0  0  0  0999 V2000
   -8.1418   -9.0336    7.4876 C   0  0  0  0  0  0  0  0  0  0  0  0
   -8.8933  -10.0169    6.8943 C   0  0  0  0  0  0  0  0  0  0  0  0
  -10.2724   -9.9666    6.9056 C   0  0  0  0  0  0  0  0  0  0  0  0
  -10.9819   -8.9514    7.4996 C   0  0  0  0  0  0  0  0  0  0  0  0
  -12.3168   -8.6710    7.6870 N   0  0  0  0  0  0  0  0  0  0  0  0
  -12.3583   -7.5495    8.3697 N   0  0  0  0  0  0  0  0  0  0  0  0
  -11.1287   -7.0844    8.6391 C   0  0  0  0  0  0  0  0  0  0  0  0
  -10.2172   -7.9569    8.0979 C   0  0  0  0  0  0  0  0  0  0  0  0
   -8.8372   -8.0030    8.0872 C   0  0  0  0  0  0  0  0  0  0  0  0
   -4.3276   -6.5412    6.2884 N   0  0  0  0  0  0  0  0  0  0  0  0
   -5.4531   -5.9151    5.6474 C   0  0  0  0  0  0  0  0  0  0  0  0
   -5.5291   -5.1993    4.6364 O   0  0  0  0  0  0  0  0  0  0  0  0
   -6.8393   -6.4054    6.6643 S   0  0  0  0  0  0  0  0  0  0  0  0
   -6.0564   -7.9598    7.1893 C   0  0  0  0  0  0  0  0  0  0  0  0
   -6.6804   -9.0461    7.5280 C   0  0  0  0  0  0  0  0  0  0  0  0
   -4.6506   -7.6253    7.1040 C   0  0  0  0  0  0  0  0  0  0  0  0
   -3.7648   -8.3035    7.7543 O   0  0  0  0  0  0  0  0  0  0  0  0
   -2.9916   -6.0029    6.0354 C   0  0  0  0  0  0  0  0  0  0  0  0
   -1.3619   -5.1623    7.6233 N   0  0  0  0  0  0  0  0  0  0  0  0
   -2.6327   -4.9061    6.9971 C   0  0  0  0  0  0  0  0  0  0  0  0
   -0.5898   -5.2212    6.8964 H   0  0  0  0  0  0  0  0  0  0  0  0
   -1.1301   -4.2836    8.1611 H   0  0  0  0  0  0  0  0  0  0  0  0
   -2.6424   -3.5698    6.3083 C   0  0  0  0  0  0  0  0  0  0  0  0
   -3.9062   -3.0946    6.0489 O   0  0  0  0  0  0  0  0  0  0  0  0
   -3.9119   -2.3223    5.4529 H   0  0  0  0  0  0  0  0  0  0  0  0
  -13.3732   -9.5320    7.2091 C   0  0  0  0  0  0  0  0  0  0  0  0
  -14.3249   -8.9528    6.2807 C   0  0  0  0  0  0  0  0  0  0  0  0
  -14.0455   -9.0988    4.9045 C   0  0  0  0  0  0  0  0  0  0  0  0
  -14.8941   -8.5235    3.9845 C   0  0  0  0  0  0  0  0  0  0  0  0
  -16.0100   -7.8110    4.3753 C   0  0  0  0  0  0  0  0  0  0  0  0
  -17.0491   -7.1086    3.1486 Cl  0  0  0  0  0  0  0  0  0  0  0  0
  -16.2991   -7.6598    5.7113 C   0  0  0  0  0  0  0  0  0  0  0  0
  -15.4302   -8.2491    6.6650 C   0  0  0  0  0  0  0  0  0  0  0  0
  -15.8533   -8.1544    8.0642 C   0  0  0  0  0  0  0  0  0  0  0  0
  -15.1512   -7.0760    8.6873 F   0  0  0  0  0  0  0  0  0  0  0  0
  -15.6364   -9.1866    8.8964 F   0  0  0  0  0  0  0  0  0  0  0  0
  -17.1917   -7.7248    8.1687 F   0  0  0  0  0  0  0  0  0  0  0  0
 19 20  1  0  0  0
 20 23  1  0  0  0
 23 24  1  0  0  0
 20 18  1  0  0  0
 18 10  1  0  0  0
 10 11  1  0  0  0
 11 12  2  0  0  0
 11 13  1  0  0  0
 13 14  1  0  0  0
 14 15  2  0  0  0
 15  1  1  0  0  0
  1  2  2  0  0  0
  2  3  1  0  0  0
  3  4  2  0  0  0
  4  5  1  0  0  0
  5 26  1  0  0  0
 26 27  1  0  0  0
 27 28  2  0  0  0
 28 29  1  0  0  0
 29 30  2  0  0  0
 30 31  1  0  0  0
 30 32  1  0  0  0
 32 33  2  0  0  0
 33 34  1  0  0  0
 34 35  1  0  0  0
 34 36  1  0  0  0
 34 37  1  0  0  0
  5  6  1  0  0  0
  6  7  2  0  0  0
  7  8  1  0  0  0
  8  9  2  0  0  0
 14 16  1  0  0  0
 16 17  2  0  0  0
 16 10  1  0  0  0
  9  1  1  0  0  0
  8  4  1  0  0  0
 33 27  1  0  0  0
 19 21  1  0  0  0
 19 22  1  0  0  0
 24 25  1  0  0  0
M  END
> <minimizedAffinity>
-8.48564

> <CNNscore>
0.2860718071

> <CNNaffinity>
6.7880339622

> <CNN_VS>
1.9418650866

> <CNNaffinity_variance>
0.2374607325

$$$$
[H]/C(=C1/SC(=O)N(C2([H])C([H])([H])C([H])([H])N([H])C([H])([H])C2([H])[H])C1=O)c1c([H])c([H])c2c(c([H])nn2C([H])([H])c2c([H])c([H])c(Cl)c([H])c2C(F)(F)F)c1[H]


 36 40  0  0  0  0  0  0  0  0999 V2000
  -13.7157   -7.4714    7.9632 N   0  0  0  0  0  0  0  0  0  0  0  0
  -14.1939   -7.2970    6.6932 N   0  0  0  0  0  0  0  0  0  0  0  0
  -13.2171   -6.9691    5.8653 C   0  0  0  0  0  0  0  0  0  0  0  0
  -12.0640   -6.9243    6.6103 C   0  0  0  0  0  0  0  0  0  0  0  0
  -10.7386   -6.6038    6.2940 C   0  0  0  0  0  0  0  0  0  0  0  0
   -9.7632   -6.5957    7.2620 C   0  0  0  0  0  0  0  0  0  0  0  0
  -10.1051   -6.9091    8.5516 C   0  0  0  0  0  0  0  0  0  0  0  0
  -11.4086   -7.2244    8.8561 C   0  0  0  0  0  0  0  0  0  0  0  0
  -12.4188   -7.2388    7.8854 C   0  0  0  0  0  0  0  0  0  0  0  0
   -8.4086   -6.2098    6.9152 C   0  0  0  0  0  0  0  0  0  0  0  0
   -7.4138   -7.0561    6.8267 C   0  0  0  0  0  0  0  0  0  0  0  0
   -7.6222   -8.8226    7.1223 S   0  0  0  0  0  0  0  0  0  0  0  0
   -5.8748   -9.1691    7.2831 C   0  0  0  0  0  0  0  0  0  0  0  0
   -5.3752  -10.2206    7.7672 O   0  0  0  0  0  0  0  0  0  0  0  0
   -5.2124   -8.0258    6.7568 N   0  0  0  0  0  0  0  0  0  0  0  0
   -6.0121   -6.9155    6.5163 C   0  0  0  0  0  0  0  0  0  0  0  0
   -5.5832   -5.7935    6.0430 O   0  0  0  0  0  0  0  0  0  0  0  0
   -3.7605   -8.0544    6.4870 C   0  0  0  0  0  0  0  0  0  0  0  0
   -3.3565   -9.4074    5.8793 C   0  0  0  0  0  0  0  0  0  0  0  0
   -1.9511   -9.1473    5.3151 C   0  0  0  0  0  0  0  0  0  0  0  0
   -1.0600   -8.7311    6.3579 N   0  0  0  0  0  0  0  0  0  0  0  0
   -1.6358   -8.6333    7.6623 C   0  0  0  0  0  0  0  0  0  0  0  0
   -2.9220   -7.8195    7.6902 C   0  0  0  0  0  0  0  0  0  0  0  0
   -0.2692   -9.4166    6.3979 H   0  0  0  0  0  0  0  0  0  0  0  0
  -14.6210   -7.8824    8.9983 C   0  0  0  0  0  0  0  0  0  0  0  0
  -13.5333   -7.1033   11.1431 C   0  0  0  0  0  0  0  0  0  0  0  0
  -13.0488   -7.4688   12.4274 C   0  0  0  0  0  0  0  0  0  0  0  0
  -13.0882   -8.7565   12.8966 C   0  0  0  0  0  0  0  0  0  0  0  0
  -12.4831   -9.1676   14.4850 Cl  0  0  0  0  0  0  0  0  0  0  0  0
  -13.6289   -9.7097   12.0574 C   0  0  0  0  0  0  0  0  0  0  0  0
  -14.1011   -9.4033   10.8295 C   0  0  0  0  0  0  0  0  0  0  0  0
  -14.0639   -8.0533   10.3283 C   0  0  0  0  0  0  0  0  0  0  0  0
  -14.1453   -5.5617    9.5221 F   0  0  0  0  0  0  0  0  0  0  0  0
  -13.3946   -5.6881   10.7328 C   0  0  0  0  0  0  0  0  0  0  0  0
  -12.1557   -5.2635   10.4248 F   0  0  0  0  0  0  0  0  0  0  0  0
  -14.1397   -4.8493   11.5607 F   0  0  0  0  0  0  0  0  0  0  0  0
 33 34  1  0  0  0
 34 35  1  0  0  0
 34 36  1  0  0  0
 34 26  1  0  0  0
 26 27  2  0  0  0
 27 28  1  0  0  0
 28 29  1  0  0  0
 28 30  2  0  0  0
 30 31  1  0  0  0
 31 32  2  0  0  0
 32 25  1  0  0  0
 25  1  1  0  0  0
  1  2  1  0  0  0
  2  3  2  0  0  0
  3  4  1  0  0  0
  4  5  2  0  0  0
  5  6  1  0  0  0
  6 10  1  0  0  0
 10 11  2  0  0  0
 11 12  1  0  0  0
 12 13  1  0  0  0
 13 14  2  0  0  0
 13 15  1  0  0  0
 15 18  1  0  0  0
 18 19  1  0  0  0
 19 20  1  0  0  0
 20 21  1  0  0  0
 21 22  1  0  0  0
 22 23  1  0  0  0
 15 16  1  0  0  0
 16 17  2  0  0  0
  6  7  2  0  0  0
  7  8  1  0  0  0
  8  9  2  0  0  0
 32 26  1  0  0  0
  9  1  1  0  0  0
  9  4  1  0  0  0
 16 11  1  0  0  0
 23 18  1  0  0  0
 21 24  1  0  0  0
M  END
> <minimizedAffinity>
14.04918

> <CNNscore>
0.4804199338

> <CNNaffinity>
6.8863730431

> <CNN_VS>
3.3083508015

> <CNNaffinity_variance>
2.0758001804

$$$$
[H]/C(=C1/SC(=O)N(C2([H])C([H])([H])C([H])([H])N([H])C([H])([H])C2([H])[H])C1=O)c1c([H])c([H])c2c(c([H])nn2C([H])([H])c2c([H])c([H])c(Cl)c([H])c2C(F)(F)F)c1[H]


 36 40  0  0  0  0  0  0  0  0999 V2000
   -3.0883   -3.9763   10.4742 N   0  0  0  0  0  0  0  0  0  0  0  0
   -2.1307   -4.7999    9.9482 N   0  0  0  0  0  0  0  0  0  0  0  0
   -1.5806   -4.2550    8.8769 C   0  0  0  0  0  0  0  0  0  0  0  0
   -2.1938   -3.0401    8.6906 C   0  0  0  0  0  0  0  0  0  0  0  0
   -2.0585   -2.0456    7.7148 C   0  0  0  0  0  0  0  0  0  0  0  0
   -2.8449   -0.9190    7.7401 C   0  0  0  0  0  0  0  0  0  0  0  0
   -3.7704   -0.7778    8.7411 C   0  0  0  0  0  0  0  0  0  0  0  0
   -3.8978   -1.7575    9.6977 C   0  0  0  0  0  0  0  0  0  0  0  0
   -3.1068   -2.9139    9.6911 C   0  0  0  0  0  0  0  0  0  0  0  0
   -2.7184    0.0706    6.6872 C   0  0  0  0  0  0  0  0  0  0  0  0
   -3.0764   -0.1414    5.4461 C   0  0  0  0  0  0  0  0  0  0  0  0
   -3.7850   -1.7075    4.9016 S   0  0  0  0  0  0  0  0  0  0  0  0
   -3.5534   -1.3941    3.1559 C   0  0  0  0  0  0  0  0  0  0  0  0
   -3.6179   -2.2571    2.2391 O   0  0  0  0  0  0  0  0  0  0  0  0
   -3.2915    0.0000    3.0533 N   0  0  0  0  0  0  0  0  0  0  0  0
   -3.0400    0.6621    4.2485 C   0  0  0  0  0  0  0  0  0  0  0  0
   -2.7820    1.9233    4.3462 O   0  0  0  0  0  0  0  0  0  0  0  0
   -3.3016    0.6735    1.7387 C   0  0  0  0  0  0  0  0  0  0  0  0
   -4.6746    0.5125    1.0664 C   0  0  0  0  0  0  0  0  0  0  0  0
   -4.6512    1.5552   -0.0620 C   0  0  0  0  0  0  0  0  0  0  0  0
   -3.5689    1.2943   -0.9650 N   0  0  0  0  0  0  0  0  0  0  0  0
   -2.7514    0.1671   -0.6428 C   0  0  0  0  0  0  0  0  0  0  0  0
   -2.2657    0.1718    0.7999 C   0  0  0  0  0  0  0  0  0  0  0  0
   -3.9748    1.1445   -1.9188 H   0  0  0  0  0  0  0  0  0  0  0  0
   -3.7652   -4.3733   11.6758 C   0  0  0  0  0  0  0  0  0  0  0  0
   -2.9283   -4.7797   14.0263 C   0  0  0  0  0  0  0  0  0  0  0  0
   -2.2847   -4.2301   15.1671 C   0  0  0  0  0  0  0  0  0  0  0  0
   -1.8620   -2.9271   15.2250 C   0  0  0  0  0  0  0  0  0  0  0  0
   -1.0715   -2.2867   16.6474 Cl  0  0  0  0  0  0  0  0  0  0  0  0
   -2.0884   -2.1479   14.1084 C   0  0  0  0  0  0  0  0  0  0  0  0
   -2.6961   -2.6323   13.0036 C   0  0  0  0  0  0  0  0  0  0  0  0
   -3.1435   -3.9998   12.9338 C   0  0  0  0  0  0  0  0  0  0  0  0
   -3.1658   -6.5884   15.4583 F   0  0  0  0  0  0  0  0  0  0  0  0
   -3.3784   -6.1876   14.1021 C   0  0  0  0  0  0  0  0  0  0  0  0
   -2.7014   -7.0825   13.3601 F   0  0  0  0  0  0  0  0  0  0  0  0
   -4.7690   -6.2745   14.0459 F   0  0  0  0  0  0  0  0  0  0  0  0
 33 34  1  0  0  0
 34 35  1  0  0  0
 34 36  1  0  0  0
 34 26  1  0  0  0
 26 27  2  0  0  0
 27 28  1  0  0  0
 28 29  1  0  0  0
 28 30  2  0  0  0
 30 31  1  0  0  0
 31 32  2  0  0  0
 32 25  1  0  0  0
 25  1  1  0  0  0
  1  2  1  0  0  0
  2  3  2  0  0  0
  3  4  1  0  0  0
  4  5  2  0  0  0
  5  6  1  0  0  0
  6 10  1  0  0  0
 10 11  2  0  0  0
 11 12  1  0  0  0
 12 13  1  0  0  0
 13 14  2  0  0  0
 13 15  1  0  0  0
 15 18  1  0  0  0
 18 19  1  0  0  0
 19 20  1  0  0  0
 20 21  1  0  0  0
 21 22  1  0  0  0
 22 23  1  0  0  0
 15 16  1  0  0  0
 16 17  2  0  0  0
  6  7  2  0  0  0
  7  8  1  0  0  0
  8  9  2  0  0  0
 32 26  1  0  0  0
  9  1  1  0  0  0
  9  4  1  0  0  0
 16 11  1  0  0  0
 23 18  1  0  0  0
 21 24  1  0  0  0
M  END
> <minimizedAffinity>
-3.25159

> <CNNscore>
0.4548426867

> <CNNaffinity>
5.7405099869

> <CNN_VS>
2.6110289097

> <CNNaffinity_variance>
0.7477210760

$$$$
[H]/C(=C1/SC(=O)N(C2([H])C([H])([H])C([H])([H])N([H])C([H])([H])C2([H])[H])C1=O)c1c([H])c([H])c2c(c([H])nn2C([H])([H])c2c([H])c([H])c(Cl)c([H])c2C(F)(F)F)c1[H]


 36 40  0  0  0  0  0  0  0  0999 V2000
   -3.8114   -4.2863   10.7648 N   0  0  0  0  0  0  0  0  0  0  0  0
   -3.3453   -5.4768   10.2774 N   0  0  0  0  0  0  0  0  0  0  0  0
   -2.6432   -5.2888    9.1734 C   0  0  0  0  0  0  0  0  0  0  0  0
   -2.6484   -3.9378    8.9253 C   0  0  0  0  0  0  0  0  0  0  0  0
   -2.1105   -3.1574    7.8952 C   0  0  0  0  0  0  0  0  0  0  0  0
   -2.3032   -1.7972    7.8646 C   0  0  0  0  0  0  0  0  0  0  0  0
   -3.0331   -1.2075    8.8636 C   0  0  0  0  0  0  0  0  0  0  0  0
   -3.5580   -1.9791    9.8737 C   0  0  0  0  0  0  0  0  0  0  0  0
   -3.3740   -3.3671    9.9246 C   0  0  0  0  0  0  0  0  0  0  0  0
   -1.7778   -1.0207    6.7578 C   0  0  0  0  0  0  0  0  0  0  0  0
   -2.2679   -1.0637    5.5448 C   0  0  0  0  0  0  0  0  0  0  0  0
   -3.6769   -2.1018    5.1109 S   0  0  0  0  0  0  0  0  0  0  0  0
   -3.4286   -1.9849    3.3434 C   0  0  0  0  0  0  0  0  0  0  0  0
   -3.9576   -2.7310    2.4757 O   0  0  0  0  0  0  0  0  0  0  0  0
   -2.5319   -0.8965    3.1586 N   0  0  0  0  0  0  0  0  0  0  0  0
   -1.9200   -0.4097    4.3069 C   0  0  0  0  0  0  0  0  0  0  0  0
   -1.0788    0.5695    4.3289 O   0  0  0  0  0  0  0  0  0  0  0  0
   -2.2945   -0.3366    1.8125 C   0  0  0  0  0  0  0  0  0  0  0  0
   -3.5971    0.2425    1.2372 C   0  0  0  0  0  0  0  0  0  0  0  0
   -3.1221    1.1008    0.0545 C   0  0  0  0  0  0  0  0  0  0  0  0
   -2.4164    0.2960   -0.8989 N   0  0  0  0  0  0  0  0  0  0  0  0
   -2.2895   -1.0885   -0.5677 C   0  0  0  0  0  0  0  0  0  0  0  0
   -1.7574   -1.3218    0.8393 C   0  0  0  0  0  0  0  0  0  0  0  0
   -2.9170    0.3704   -1.8159 H   0  0  0  0  0  0  0  0  0  0  0  0
   -4.5559   -4.2793   11.9918 C   0  0  0  0  0  0  0  0  0  0  0  0
   -2.8815   -4.6853   13.8417 C   0  0  0  0  0  0  0  0  0  0  0  0
   -2.4851   -5.5215   14.9193 C   0  0  0  0  0  0  0  0  0  0  0  0
   -3.1690   -6.6578   15.2674 C   0  0  0  0  0  0  0  0  0  0  0  0
   -2.6507   -7.6616   16.6023 Cl  0  0  0  0  0  0  0  0  0  0  0  0
   -4.2844   -6.9691   14.5163 C   0  0  0  0  0  0  0  0  0  0  0  0
   -4.6951   -6.2000   13.4845 C   0  0  0  0  0  0  0  0  0  0  0  0
   -3.9830   -5.0046   13.1117 C   0  0  0  0  0  0  0  0  0  0  0  0
   -2.9435   -2.4264   13.3202 F   0  0  0  0  0  0  0  0  0  0  0  0
   -2.0355   -3.5101   13.5359 C   0  0  0  0  0  0  0  0  0  0  0  0
   -1.2901   -3.5727   12.4177 F   0  0  0  0  0  0  0  0  0  0  0  0
   -1.3845   -3.0481   14.6791 F   0  0  0  0  0  0  0  0  0  0  0  0
 33 34  1  0  0  0
 34 35  1  0  0  0
 34 36  1  0  0  0
 34 26  1  0  0  0
 26 27  2  0  0  0
 27 28  1  0  0  0
 28 29  1  0  0  0
 28 30  2  0  0  0
 30 31  1  0  0  0
 31 32  2  0  0  0
 32 25  1  0  0  0
 25  1  1  0  0  0
  1  2  1  0  0  0
  2  3  2  0  0  0
  3  4  1  0  0  0
  4  5  2  0  0  0
  5  6  1  0  0  0
  6 10  1  0  0  0
 10 11  2  0  0  0
 11 12  1  0  0  0
 12 13  1  0  0  0
 13 14  2  0  0  0
 13 15  1  0  0  0
 15 18  1  0  0  0
 18 19  1  0  0  0
 19 20  1  0  0  0
 20 21  1  0  0  0
 21 22  1  0  0  0
 22 23  1  0  0  0
 15 16  1  0  0  0
 16 17  2  0  0  0
  6  7  2  0  0  0
  7  8  1  0  0  0
  8  9  2  0  0  0
 32 26  1  0  0  0
  9  1  1  0  0  0
  9  4  1  0  0  0
 16 11  1  0  0  0
 23 18  1  0  0  0
 21 24  1  0  0  0
M  END
> <minimizedAffinity>
-3.49958

> <CNNscore>
0.4098810256

> <CNNaffinity>
5.5768823624

> <CNN_VS>
2.2858581543

> <CNNaffinity_variance>
0.4597695768

$$$$
[H]/C(=C1/SC(=O)N(C2([H])C([H])([H])C([H])([H])N([H])C([H])([H])C2([H])[H])C1=O)c1c([H])c([H])c2c(c([H])nn2C([H])([H])c2c([H])c([H])c(Cl)c([H])c2C(F)(F)F)c1[H]


 36 40  0  0  0  0  0  0  0  0999 V2000
  -11.3861   -9.7213    7.3210 N   0  0  0  0  0  0  0  0  0  0  0  0
  -10.8418  -10.8786    6.8348 N   0  0  0  0  0  0  0  0  0  0  0  0
   -9.5468  -10.7315    6.6150 C   0  0  0  0  0  0  0  0  0  0  0  0
   -9.2293   -9.4415    6.9640 C   0  0  0  0  0  0  0  0  0  0  0  0
   -8.0375   -8.7087    6.9164 C   0  0  0  0  0  0  0  0  0  0  0  0
   -8.0043   -7.3882    7.2951 C   0  0  0  0  0  0  0  0  0  0  0  0
   -9.1607   -6.7915    7.7252 C   0  0  0  0  0  0  0  0  0  0  0  0
  -10.3282   -7.5169    7.7711 C   0  0  0  0  0  0  0  0  0  0  0  0
  -10.3850   -8.8638    7.3898 C   0  0  0  0  0  0  0  0  0  0  0  0
   -6.7666   -6.6395    7.1868 C   0  0  0  0  0  0  0  0  0  0  0  0
   -5.9980   -6.3575    8.2082 C   0  0  0  0  0  0  0  0  0  0  0  0
   -6.3944   -6.8837    9.8867 S   0  0  0  0  0  0  0  0  0  0  0  0
   -5.2318   -5.7818   10.6827 C   0  0  0  0  0  0  0  0  0  0  0  0
   -5.2204   -5.4855   11.9081 O   0  0  0  0  0  0  0  0  0  0  0  0
   -4.3610   -5.3397    9.6488 N   0  0  0  0  0  0  0  0  0  0  0  0
   -4.7564   -5.6370    8.3507 C   0  0  0  0  0  0  0  0  0  0  0  0
   -4.0932   -5.3133    7.2913 O   0  0  0  0  0  0  0  0  0  0  0  0
   -3.1143   -4.6165    9.9722 C   0  0  0  0  0  0  0  0  0  0  0  0
   -2.4890   -5.1785   11.2593 C   0  0  0  0  0  0  0  0  0  0  0  0
   -1.0599   -4.6141   11.2456 C   0  0  0  0  0  0  0  0  0  0  0  0
   -1.0857   -3.1810   11.2336 N   0  0  0  0  0  0  0  0  0  0  0  0
   -2.3846   -2.5848   11.2255 C   0  0  0  0  0  0  0  0  0  0  0  0
   -3.2982   -3.1532   10.1486 C   0  0  0  0  0  0  0  0  0  0  0  0
   -0.5738   -2.8430   12.0826 H   0  0  0  0  0  0  0  0  0  0  0  0
  -12.7778   -9.6991    7.6710 C   0  0  0  0  0  0  0  0  0  0  0  0
  -14.0179   -7.5000    7.7995 C   0  0  0  0  0  0  0  0  0  0  0  0
  -14.7735   -6.5224    7.0987 C   0  0  0  0  0  0  0  0  0  0  0  0
  -15.0822   -6.6368    5.7677 C   0  0  0  0  0  0  0  0  0  0  0  0
  -16.0139   -5.4108    4.9387 Cl  0  0  0  0  0  0  0  0  0  0  0  0
  -14.6216   -7.7625    5.1152 C   0  0  0  0  0  0  0  0  0  0  0  0
  -13.8995   -8.7147    5.7449 C   0  0  0  0  0  0  0  0  0  0  0  0
  -13.5704   -8.6030    7.1428 C   0  0  0  0  0  0  0  0  0  0  0  0
  -13.8361   -5.8687    9.4379 F   0  0  0  0  0  0  0  0  0  0  0  0
  -13.7881   -7.2851    9.2457 C   0  0  0  0  0  0  0  0  0  0  0  0
  -12.5940   -7.6664    9.7343 F   0  0  0  0  0  0  0  0  0  0  0  0
  -14.9029   -7.6623    9.9934 F   0  0  0  0  0  0  0  0  0  0  0  0
 33 34  1  0  0  0
 34 35  1  0  0  0
 34 36  1  0  0  0
 34 26  1  0  0  0
 26 27  2  0  0  0
 27 28  1  0  0  0
 28 29  1  0  0  0
 28 30  2  0  0  0
 30 31  1  0  0  0
 31 32  2  0  0  0
 32 25  1  0  0  0
 25  1  1  0  0  0
  1  2  1  0  0  0
  2  3  2  0  0  0
  3  4  1  0  0  0
  4  5  2  0  0  0
  5  6  1  0  0  0
  6 10  1  0  0  0
 10 11  2  0  0  0
 11 12  1  0  0  0
 12 13  1  0  0  0
 13 14  2  0  0  0
 13 15  1  0  0  0
 15 18  1  0  0  0
 18 19  1  0  0  0
 19 20  1  0  0  0
 20 21  1  0  0  0
 21 22  1  0  0  0
 22 23  1  0  0  0
 15 16  1  0  0  0
 16 17  2  0  0  0
  6  7  2  0  0  0
  7  8  1  0  0  0
  8  9  2  0  0  0
 32 26  1  0  0  0
  9  1  1  0  0  0
  9  4  1  0  0  0
 16 11  1  0  0  0
 23 18  1  0  0  0
 21 24  1  0  0  0
M  END
> <minimizedAffinity>
-7.32689

> <CNNscore>
0.3936488628

> <CNNaffinity>
6.9776029587

> <CNN_VS>
2.7467255592

> <CNNaffinity_variance>
0.2340554893

$$$$
[H]/C(=C1/SC(=O)N(C2([H])C([H])([H])C([H])([H])N([H])C([H])([H])C2([H])[H])C1=O)c1c([H])c([H])c2c(c([H])nn2C([H])([H])c2c([H])c([H])c(Cl)c([H])c2C(F)(F)F)c1[H]


 36 40  0  0  0  0  0  0  0  0999 V2000
   -1.8845   -3.1953    9.9785 N   0  0  0  0  0  0  0  0  0  0  0  0
   -2.6398   -4.3328    9.8910 N   0  0  0  0  0  0  0  0  0  0  0  0
   -3.2872   -4.3783    8.7395 C   0  0  0  0  0  0  0  0  0  0  0  0
   -2.9508   -3.2388    8.0502 C   0  0  0  0  0  0  0  0  0  0  0  0
   -3.3454   -2.7263    6.8087 C   0  0  0  0  0  0  0  0  0  0  0  0
   -2.8783   -1.5129    6.3642 C   0  0  0  0  0  0  0  0  0  0  0  0
   -2.0128   -0.8042    7.1562 C   0  0  0  0  0  0  0  0  0  0  0  0
   -1.6277   -1.3134    8.3742 C   0  0  0  0  0  0  0  0  0  0  0  0
   -2.0915   -2.5480    8.8470 C   0  0  0  0  0  0  0  0  0  0  0  0
   -3.3441   -0.9829    5.0969 C   0  0  0  0  0  0  0  0  0  0  0  0
   -3.3114   -1.6550    3.9740 C   0  0  0  0  0  0  0  0  0  0  0  0
   -2.6823   -3.3421    3.8787 S   0  0  0  0  0  0  0  0  0  0  0  0
   -2.5281   -3.3592    2.0968 C   0  0  0  0  0  0  0  0  0  0  0  0
   -1.8757   -4.2019    1.4233 O   0  0  0  0  0  0  0  0  0  0  0  0
   -3.2848   -2.2445    1.6410 N   0  0  0  0  0  0  0  0  0  0  0  0
   -3.6974   -1.3477    2.6184 C   0  0  0  0  0  0  0  0  0  0  0  0
   -4.3889   -0.2819    2.3888 O   0  0  0  0  0  0  0  0  0  0  0  0
   -3.6013   -2.0849    0.2071 C   0  0  0  0  0  0  0  0  0  0  0  0
   -4.5890   -3.1720   -0.2464 C   0  0  0  0  0  0  0  0  0  0  0  0
   -5.1016   -2.6557   -1.5998 C   0  0  0  0  0  0  0  0  0  0  0  0
   -4.0142   -2.4904   -2.5192 N   0  0  0  0  0  0  0  0  0  0  0  0
   -2.7185   -2.8148   -2.0108 C   0  0  0  0  0  0  0  0  0  0  0  0
   -2.4113   -2.1427   -0.6800 C   0  0  0  0  0  0  0  0  0  0  0  0
   -4.2022   -3.0968   -3.3521 H   0  0  0  0  0  0  0  0  0  0  0  0
   -1.0656   -2.9902   11.1393 C   0  0  0  0  0  0  0  0  0  0  0  0
   -2.4174   -1.9124   12.9835 C   0  0  0  0  0  0  0  0  0  0  0  0
   -3.0324   -2.0763   14.2534 C   0  0  0  0  0  0  0  0  0  0  0  0
   -2.9792   -3.2516   14.9576 C   0  0  0  0  0  0  0  0  0  0  0  0
   -3.7506   -3.4155   16.5185 Cl  0  0  0  0  0  0  0  0  0  0  0  0
   -2.2908   -4.2967   14.3755 C   0  0  0  0  0  0  0  0  0  0  0  0
   -1.6930   -4.1821   13.1697 C   0  0  0  0  0  0  0  0  0  0  0  0
   -1.7436   -2.9514   12.4227 C   0  0  0  0  0  0  0  0  0  0  0  0
   -1.2090   -0.3267   11.7988 F   0  0  0  0  0  0  0  0  0  0  0  0
   -2.5069   -0.5814   12.3426 C   0  0  0  0  0  0  0  0  0  0  0  0
   -2.7625    0.4650   13.1486 F   0  0  0  0  0  0  0  0  0  0  0  0
   -3.2491   -0.6400   11.1636 F   0  0  0  0  0  0  0  0  0  0  0  0
 33 34  1  0  0  0
 34 35  1  0  0  0
 34 36  1  0  0  0
 34 26  1  0  0  0
 26 27  2  0  0  0
 27 28  1  0  0  0
 28 29  1  0  0  0
 28 30  2  0  0  0
 30 31  1  0  0  0
 31 32  2  0  0  0
 32 25  1  0  0  0
 25  1  1  0  0  0
  1  2  1  0  0  0
  2  3  2  0  0  0
  3  4  1  0  0  0
  4  5  2  0  0  0
  5  6  1  0  0  0
  6 10  1  0  0  0
 10 11  2  0  0  0
 11 12  1  0  0  0
 12 13  1  0  0  0
 13 14  2  0  0  0
 13 15  1  0  0  0
 15 18  1  0  0  0
 18 19  1  0  0  0
 19 20  1  0  0  0
 20 21  1  0  0  0
 21 22  1  0  0  0
 22 23  1  0  0  0
 15 16  1  0  0  0
 16 17  2  0  0  0
  6  7  2  0  0  0
  7  8  1  0  0  0
  8  9  2  0  0  0
 32 26  1  0  0  0
  9  1  1  0  0  0
  9  4  1  0  0  0
 16 11  1  0  0  0
 23 18  1  0  0  0
 21 24  1  0  0  0
M  END
> <minimizedAffinity>
-3.90402

> <CNNscore>
0.3714906573

> <CNNaffinity>
5.6347274780

> <CNN_VS>
2.0932486057

> <CNNaffinity_variance>
0.4922768474

$$$$
[H]/C(=C1/SC(=O)N(C2([H])C([H])([H])C([H])([H])N([H])C([H])([H])C2([H])[H])C1=O)c1c([H])c([H])c2c(c([H])nn2C([H])([H])c2c([H])c([H])c(Cl)c([H])c2C(F)(F)F)c1[H]


 36 40  0  0  0  0  0  0  0  0999 V2000
   -3.5562   -4.0849    9.7761 N   0  0  0  0  0  0  0  0  0  0  0  0
   -3.4144   -5.3269    9.2199 N   0  0  0  0  0  0  0  0  0  0  0  0
   -2.8843   -5.2420    8.0120 C   0  0  0  0  0  0  0  0  0  0  0  0
   -2.6728   -3.9075    7.7647 C   0  0  0  0  0  0  0  0  0  0  0  0
   -2.1760   -3.2124    6.6559 C   0  0  0  0  0  0  0  0  0  0  0  0
   -2.1077   -1.8399    6.6547 C   0  0  0  0  0  0  0  0  0  0  0  0
   -2.5337   -1.1531    7.7616 C   0  0  0  0  0  0  0  0  0  0  0  0
   -3.0196   -1.8415    8.8484 C   0  0  0  0  0  0  0  0  0  0  0  0
   -3.0982   -3.2402    8.8712 C   0  0  0  0  0  0  0  0  0  0  0  0
   -1.6365   -1.1439    5.4725 C   0  0  0  0  0  0  0  0  0  0  0  0
   -2.2420   -1.1925    4.3130 C   0  0  0  0  0  0  0  0  0  0  0  0
   -3.7561   -2.1372    4.0553 S   0  0  0  0  0  0  0  0  0  0  0  0
   -3.6701   -2.1009    2.2691 C   0  0  0  0  0  0  0  0  0  0  0  0
   -4.3311   -2.8353    1.4860 O   0  0  0  0  0  0  0  0  0  0  0  0
   -2.7201   -1.0896    1.9566 N   0  0  0  0  0  0  0  0  0  0  0  0
   -1.9683   -0.6100    3.0219 C   0  0  0  0  0  0  0  0  0  0  0  0
   -1.0616    0.3039    2.9250 O   0  0  0  0  0  0  0  0  0  0  0  0
   -2.5731   -0.5964    0.5721 C   0  0  0  0  0  0  0  0  0  0  0  0
   -3.9190   -0.0721    0.0459 C   0  0  0  0  0  0  0  0  0  0  0  0
   -3.5319    0.7320   -1.2049 C   0  0  0  0  0  0  0  0  0  0  0  0
   -2.8655   -0.1082   -2.1561 N   0  0  0  0  0  0  0  0  0  0  0  0
   -2.6899   -1.4710   -1.7629 C   0  0  0  0  0  0  0  0  0  0  0  0
   -2.0723   -1.6208   -0.3796 C   0  0  0  0  0  0  0  0  0  0  0  0
   -3.4199   -0.0910   -3.0446 H   0  0  0  0  0  0  0  0  0  0  0  0
   -4.0694   -3.9741   11.1119 C   0  0  0  0  0  0  0  0  0  0  0  0
   -4.1011   -5.5207   13.1112 C   0  0  0  0  0  0  0  0  0  0  0  0
   -3.3400   -6.3316   13.9949 C   0  0  0  0  0  0  0  0  0  0  0  0
   -1.9786   -6.4612   13.8963 C   0  0  0  0  0  0  0  0  0  0  0  0
   -1.0758   -7.4709   15.0026 Cl  0  0  0  0  0  0  0  0  0  0  0  0
   -1.3571   -5.7597   12.8830 C   0  0  0  0  0  0  0  0  0  0  0  0
   -2.0445   -4.9786   12.0216 C   0  0  0  0  0  0  0  0  0  0  0  0
   -3.4747   -4.8364   12.1175 C   0  0  0  0  0  0  0  0  0  0  0  0
   -5.7921   -6.0922   14.5918 F   0  0  0  0  0  0  0  0  0  0  0  0
   -5.5591   -5.4267   13.3476 C   0  0  0  0  0  0  0  0  0  0  0  0
   -6.3594   -6.0464   12.4614 F   0  0  0  0  0  0  0  0  0  0  0  0
   -5.9284   -4.1295   13.7015 F   0  0  0  0  0  0  0  0  0  0  0  0
 33 34  1  0  0  0
 34 35  1  0  0  0
 34 36  1  0  0  0
 34 26  1  0  0  0
 26 27  2  0  0  0
 27 28  1  0  0  0
 28 29  1  0  0  0
 28 30  2  0  0  0
 30 31  1  0  0  0
 31 32  2  0  0  0
 32 25  1  0  0  0
 25  1  1  0  0  0
  1  2  1  0  0  0
  2  3  2  0  0  0
  3  4  1  0  0  0
  4  5  2  0  0  0
  5  6  1  0  0  0
  6 10  1  0  0  0
 10 11  2  0  0  0
 11 12  1  0  0  0
 12 13  1  0  0  0
 13 14  2  0  0  0
 13 15  1  0  0  0
 15 18  1  0  0  0
 18 19  1  0  0  0
 19 20  1  0  0  0
 20 21  1  0  0  0
 21 22  1  0  0  0
 22 23  1  0  0  0
 15 16  1  0  0  0
 16 17  2  0  0  0
  6  7  2  0  0  0
  7  8  1  0  0  0
  8  9  2  0  0  0
 32 26  1  0  0  0
  9  1  1  0  0  0
  9  4  1  0  0  0
 16 11  1  0  0  0
 23 18  1  0  0  0
 21 24  1  0  0  0
M  END
> <minimizedAffinity>
-3.83479

> <CNNscore>
0.3663401902

> <CNNaffinity>
5.7046432495

> <CNN_VS>
2.0898401737

> <CNNaffinity_variance>
0.6313022375

$$$$
[H]/C(=C1/SC(=O)N(C2([H])C([H])([H])C([H])([H])N([H])C([H])([H])C2([H])[H])C1=O)c1c([H])c([H])c2c(c([H])nn2C([H])([H])c2c([H])c([H])c(Cl)c([H])c2C(F)(F)F)c1[H]


 36 40  0  0  0  0  0  0  0  0999 V2000
   -7.3189   -8.1718    8.3260 N   0  0  0  0  0  0  0  0  0  0  0  0
   -6.8698   -9.4411    8.5693 N   0  0  0  0  0  0  0  0  0  0  0  0
   -7.7597  -10.3365    8.1773 C   0  0  0  0  0  0  0  0  0  0  0  0
   -8.8250   -9.6381    7.6634 C   0  0  0  0  0  0  0  0  0  0  0  0
  -10.0593  -10.0369    7.1369 C   0  0  0  0  0  0  0  0  0  0  0  0
  -10.9840   -9.1086    6.7226 C   0  0  0  0  0  0  0  0  0  0  0  0
  -10.6813   -7.7763    6.8301 C   0  0  0  0  0  0  0  0  0  0  0  0
   -9.4666   -7.3906    7.3469 C   0  0  0  0  0  0  0  0  0  0  0  0
   -8.5094   -8.3197    7.7753 C   0  0  0  0  0  0  0  0  0  0  0  0
  -12.2747   -9.5496    6.2290 C   0  0  0  0  0  0  0  0  0  0  0  0
  -13.2050   -8.7336    5.8021 C   0  0  0  0  0  0  0  0  0  0  0  0
  -12.9784   -6.9450    5.7720 S   0  0  0  0  0  0  0  0  0  0  0  0
  -14.7123   -6.5637    5.5538 C   0  0  0  0  0  0  0  0  0  0  0  0
  -15.2437   -5.4333    5.7244 O   0  0  0  0  0  0  0  0  0  0  0  0
  -15.3216   -7.7865    5.1583 N   0  0  0  0  0  0  0  0  0  0  0  0
  -14.5384   -8.9267    5.2865 C   0  0  0  0  0  0  0  0  0  0  0  0
  -14.9259  -10.1192    4.9785 O   0  0  0  0  0  0  0  0  0  0  0  0
  -16.7044   -7.8055    4.6394 C   0  0  0  0  0  0  0  0  0  0  0  0
  -17.2785   -6.3801    4.5958 C   0  0  0  0  0  0  0  0  0  0  0  0
  -18.5223   -6.5163    3.7040 C   0  0  0  0  0  0  0  0  0  0  0  0
  -19.4445   -7.4576    4.2681 N   0  0  0  0  0  0  0  0  0  0  0  0
  -19.0350   -8.0674    5.4941 C   0  0  0  0  0  0  0  0  0  0  0  0
  -17.6312   -8.6528    5.4328 C   0  0  0  0  0  0  0  0  0  0  0  0
  -20.3507   -6.9597    4.4349 H   0  0  0  0  0  0  0  0  0  0  0  0
   -6.4669   -7.0596    8.6373 C   0  0  0  0  0  0  0  0  0  0  0  0
   -7.4358   -6.4299   10.8857 C   0  0  0  0  0  0  0  0  0  0  0  0
   -7.1674   -6.0461   12.2267 C   0  0  0  0  0  0  0  0  0  0  0  0
   -5.8952   -5.8818   12.7111 C   0  0  0  0  0  0  0  0  0  0  0  0
   -5.6046   -5.4096   14.3697 Cl  0  0  0  0  0  0  0  0  0  0  0  0
   -4.8580   -6.1084   11.8292 C   0  0  0  0  0  0  0  0  0  0  0  0
   -5.0706   -6.4754   10.5468 C   0  0  0  0  0  0  0  0  0  0  0  0
   -6.4034   -6.6504   10.0291 C   0  0  0  0  0  0  0  0  0  0  0  0
   -8.9628   -5.7437    9.2808 F   0  0  0  0  0  0  0  0  0  0  0  0
   -8.8525   -6.5310   10.4696 C   0  0  0  0  0  0  0  0  0  0  0  0
   -9.7708   -6.0258   11.3130 F   0  0  0  0  0  0  0  0  0  0  0  0
   -9.1334   -7.7917    9.9443 F   0  0  0  0  0  0  0  0  0  0  0  0
 33 34  1  0  0  0
 34 35  1  0  0  0
 34 36  1  0  0  0
 34 26  1  0  0  0
 26 27  2  0  0  0
 27 28  1  0  0  0
 28 29  1  0  0  0
 28 30  2  0  0  0
 30 31  1  0  0  0
 31 32  2  0  0  0
 32 25  1  0  0  0
 25  1  1  0  0  0
  1  2  1  0  0  0
  2  3  2  0  0  0
  3  4  1  0  0  0
  4  5  2  0  0  0
  5  6  1  0  0  0
  6 10  1  0  0  0
 10 11  2  0  0  0
 11 12  1  0  0  0
 12 13  1  0  0  0
 13 14  2  0  0  0
 13 15  1  0  0  0
 15 18  1  0  0  0
 18 19  1  0  0  0
 19 20  1  0  0  0
 20 21  1  0  0  0
 21 22  1  0  0  0
 22 23  1  0  0  0
 15 16  1  0  0  0
 16 17  2  0  0  0
  6  7  2  0  0  0
  7  8  1  0  0  0
  8  9  2  0  0  0
 32 26  1  0  0  0
  9  1  1  0  0  0
  9  4  1  0  0  0
 16 11  1  0  0  0
 23 18  1  0  0  0
 21 24  1  0  0  0
M  END
> <minimizedAffinity>
11.90470

> <CNNscore>
0.3622860312

> <CNNaffinity>
6.5001358986

> <CNN_VS>
2.3549084663

> <CNNaffinity_variance>
1.1034120321

$$$$
[H]/C(=C1/SC(=O)N(C2([H])C([H])([H])C([H])([H])N([H])C([H])([H])C2([H])[H])C1=O)c1c([H])c([H])c2c(c([H])nn2C([H])([H])c2c([H])c([H])c(Cl)c([H])c2C(F)(F)F)c1[H]


 36 40  0  0  0  0  0  0  0  0999 V2000
  -10.8345   -7.6154    9.4279 N   0  0  0  0  0  0  0  0  0  0  0  0
   -9.6755   -6.9470    9.1414 N   0  0  0  0  0  0  0  0  0  0  0  0
   -8.9879   -7.5801    8.2068 C   0  0  0  0  0  0  0  0  0  0  0  0
   -9.7125   -8.6972    7.8695 C   0  0  0  0  0  0  0  0  0  0  0  0
   -9.4771   -9.7510    6.9786 C   0  0  0  0  0  0  0  0  0  0  0  0
  -10.3680  -10.7907    6.8626 C   0  0  0  0  0  0  0  0  0  0  0  0
  -11.5006  -10.7838    7.6344 C   0  0  0  0  0  0  0  0  0  0  0  0
  -11.7271   -9.7452    8.5068 C   0  0  0  0  0  0  0  0  0  0  0  0
  -10.8325   -8.6754    8.6414 C   0  0  0  0  0  0  0  0  0  0  0  0
  -10.0732  -11.8945    5.9689 C   0  0  0  0  0  0  0  0  0  0  0  0
   -9.2380  -11.8110    4.9644 C   0  0  0  0  0  0  0  0  0  0  0  0
   -8.3417  -10.2944    4.5800 S   0  0  0  0  0  0  0  0  0  0  0  0
   -7.8493  -10.8066    2.9385 C   0  0  0  0  0  0  0  0  0  0  0  0
   -7.4025  -10.0493    2.0350 O   0  0  0  0  0  0  0  0  0  0  0  0
   -8.0715  -12.2108    2.8978 N   0  0  0  0  0  0  0  0  0  0  0  0
   -8.7987  -12.7433    3.9550 C   0  0  0  0  0  0  0  0  0  0  0  0
   -9.0964  -13.9931    4.0824 O   0  0  0  0  0  0  0  0  0  0  0  0
   -7.5399  -13.0255    1.7863 C   0  0  0  0  0  0  0  0  0  0  0  0
   -8.6029  -13.1895    0.6880 C   0  0  0  0  0  0  0  0  0  0  0  0
   -7.8024  -13.7029   -0.5189 C   0  0  0  0  0  0  0  0  0  0  0  0
   -7.1525  -14.9405   -0.2011 N   0  0  0  0  0  0  0  0  0  0  0  0
   -7.3605  -15.4262    1.1268 C   0  0  0  0  0  0  0  0  0  0  0  0
   -7.0878  -14.3793    2.1976 C   0  0  0  0  0  0  0  0  0  0  0  0
   -7.4952  -15.6659   -0.8743 H   0  0  0  0  0  0  0  0  0  0  0  0
  -11.7440   -7.0540   10.3857 C   0  0  0  0  0  0  0  0  0  0  0  0
  -13.2647   -5.4113    9.2111 C   0  0  0  0  0  0  0  0  0  0  0  0
  -13.6631   -4.0549    9.0726 C   0  0  0  0  0  0  0  0  0  0  0  0
  -13.0930   -3.0367    9.7925 C   0  0  0  0  0  0  0  0  0  0  0  0
  -13.6119   -1.3783    9.5953 Cl  0  0  0  0  0  0  0  0  0  0  0  0
  -12.0939   -3.3834   10.6793 C   0  0  0  0  0  0  0  0  0  0  0  0
  -11.6865   -4.6611   10.8413 C   0  0  0  0  0  0  0  0  0  0  0  0
  -12.2796   -5.7372   10.0894 C   0  0  0  0  0  0  0  0  0  0  0  0
  -12.8988   -6.9171    7.4857 F   0  0  0  0  0  0  0  0  0  0  0  0
  -13.9249   -6.4139    8.3455 C   0  0  0  0  0  0  0  0  0  0  0  0
  -14.8871   -5.9642    7.5198 F   0  0  0  0  0  0  0  0  0  0  0  0
  -14.2247   -7.5741    9.0586 F   0  0  0  0  0  0  0  0  0  0  0  0
 33 34  1  0  0  0
 34 35  1  0  0  0
 34 36  1  0  0  0
 34 26  1  0  0  0
 26 27  2  0  0  0
 27 28  1  0  0  0
 28 29  1  0  0  0
 28 30  2  0  0  0
 30 31  1  0  0  0
 31 32  2  0  0  0
 32 25  1  0  0  0
 25  1  1  0  0  0
  1  2  1  0  0  0
  2  3  2  0  0  0
  3  4  1  0  0  0
  4  5  2  0  0  0
  5  6  1  0  0  0
  6 10  1  0  0  0
 10 11  2  0  0  0
 11 12  1  0  0  0
 12 13  1  0  0  0
 13 14  2  0  0  0
 13 15  1  0  0  0
 15 18  1  0  0  0
 18 19  1  0  0  0
 19 20  1  0  0  0
 20 21  1  0  0  0
 21 22  1  0  0  0
 22 23  1  0  0  0
 15 16  1  0  0  0
 16 17  2  0  0  0
  6  7  2  0  0  0
  7  8  1  0  0  0
  8  9  2  0  0  0
 32 26  1  0  0  0
  9  1  1  0  0  0
  9  4  1  0  0  0
 16 11  1  0  0  0
 23 18  1  0  0  0
 21 24  1  0  0  0
M  END
> <minimizedAffinity>
30.17668

> <CNNscore>
0.3366627097

> <CNNaffinity>
6.1642136574

> <CNN_VS>
2.0752608776

> <CNNaffinity_variance>
1.2720150948

$$$$
[H]/C(=C1/SC(=O)N(C2([H])C([H])([H])C([H])([H])N([H])C([H])([H])C2([H])[H])C1=O)c1c([H])c([H])c2c(c([H])nn2C([H])([H])c2c([H])c([H])c(Cl)c([H])c2C(F)(F)F)c1[H]


 36 40  0  0  0  0  0  0  0  0999 V2000
   -9.6421   -6.6086    7.4055 N   0  0  0  0  0  0  0  0  0  0  0  0
   -9.6471   -7.0622    8.6963 N   0  0  0  0  0  0  0  0  0  0  0  0
  -10.8233   -7.5792    9.0070 C   0  0  0  0  0  0  0  0  0  0  0  0
  -11.6155   -7.4613    7.8911 C   0  0  0  0  0  0  0  0  0  0  0  0
  -12.9504   -7.7942    7.6324 C   0  0  0  0  0  0  0  0  0  0  0  0
  -13.5227   -7.5232    6.4128 C   0  0  0  0  0  0  0  0  0  0  0  0
  -12.7650   -6.9195    5.4433 C   0  0  0  0  0  0  0  0  0  0  0  0
  -11.4538   -6.5961    5.7029 C   0  0  0  0  0  0  0  0  0  0  0  0
  -10.8502   -6.8630    6.9388 C   0  0  0  0  0  0  0  0  0  0  0  0
  -14.9222   -7.8325    6.1901 C   0  0  0  0  0  0  0  0  0  0  0  0
  -15.7421   -8.2065    7.1396 C   0  0  0  0  0  0  0  0  0  0  0  0
  -15.2166   -8.3730    8.8564 S   0  0  0  0  0  0  0  0  0  0  0  0
  -16.6475   -9.3124    9.3755 C   0  0  0  0  0  0  0  0  0  0  0  0
  -16.7462   -9.9700   10.4466 O   0  0  0  0  0  0  0  0  0  0  0  0
  -17.6055   -9.1471    8.3373 N   0  0  0  0  0  0  0  0  0  0  0  0
  -17.1381   -8.5695    7.1635 C   0  0  0  0  0  0  0  0  0  0  0  0
  -17.8632   -8.3448    6.1192 O   0  0  0  0  0  0  0  0  0  0  0  0
  -19.0075   -9.5688    8.5324 C   0  0  0  0  0  0  0  0  0  0  0  0
  -19.0628  -11.0066    9.0734 C   0  0  0  0  0  0  0  0  0  0  0  0
  -20.5082  -11.1513    9.5742 C   0  0  0  0  0  0  0  0  0  0  0  0
  -21.4353  -10.9371    8.5021 N   0  0  0  0  0  0  0  0  0  0  0  0
  -20.8543  -10.6321    7.2325 C   0  0  0  0  0  0  0  0  0  0  0  0
  -19.8296   -9.5082    7.2967 C   0  0  0  0  0  0  0  0  0  0  0  0
  -22.0141  -11.8039    8.3994 H   0  0  0  0  0  0  0  0  0  0  0  0
   -8.4320   -6.0573    6.8654 C   0  0  0  0  0  0  0  0  0  0  0  0
   -6.8462   -8.0066    7.1416 C   0  0  0  0  0  0  0  0  0  0  0  0
   -5.5634   -8.4395    7.5712 C   0  0  0  0  0  0  0  0  0  0  0  0
   -4.6335   -7.5865    8.1077 C   0  0  0  0  0  0  0  0  0  0  0  0
   -3.0631   -8.1570    8.6241 Cl  0  0  0  0  0  0  0  0  0  0  0  0
   -4.9954   -6.2592    8.2184 C   0  0  0  0  0  0  0  0  0  0  0  0
   -6.2046   -5.8071    7.8210 C   0  0  0  0  0  0  0  0  0  0  0  0
   -7.1877   -6.6957    7.2563 C   0  0  0  0  0  0  0  0  0  0  0  0
   -8.8043   -9.1580    7.6093 F   0  0  0  0  0  0  0  0  0  0  0  0
   -7.7789   -9.0308    6.6205 C   0  0  0  0  0  0  0  0  0  0  0  0
   -7.2887  -10.2732    6.4597 F   0  0  0  0  0  0  0  0  0  0  0  0
   -8.5343   -8.5301    5.5608 F   0  0  0  0  0  0  0  0  0  0  0  0
 33 34  1  0  0  0
 34 35  1  0  0  0
 34 36  1  0  0  0
 34 26  1  0  0  0
 26 27  2  0  0  0
 27 28  1  0  0  0
 28 29  1  0  0  0
 28 30  2  0  0  0
 30 31  1  0  0  0
 31 32  2  0  0  0
 32 25  1  0  0  0
 25  1  1  0  0  0
  1  2  1  0  0  0
  2  3  2  0  0  0
  3  4  1  0  0  0
  4  5  2  0  0  0
  5  6  1  0  0  0
  6 10  1  0  0  0
 10 11  2  0  0  0
 11 12  1  0  0  0
 12 13  1  0  0  0
 13 14  2  0  0  0
 13 15  1  0  0  0
 15 18  1  0  0  0
 18 19  1  0  0  0
 19 20  1  0  0  0
 20 21  1  0  0  0
 21 22  1  0  0  0
 22 23  1  0  0  0
 15 16  1  0  0  0
 16 17  2  0  0  0
  6  7  2  0  0  0
  7  8  1  0  0  0
  8  9  2  0  0  0
 32 26  1  0  0  0
  9  1  1  0  0  0
  9  4  1  0  0  0
 16 11  1  0  0  0
 23 18  1  0  0  0
 21 24  1  0  0  0
M  END
> <minimizedAffinity>
18.68080

> <CNNscore>
0.3353672624

> <CNNaffinity>
6.6283159256

> <CNN_VS>
2.2229201794

> <CNNaffinity_variance>
1.4263870716

$$$$
